data_PCOD9054259
_publ_section_title
;
Structure prediction by ZEFSAII (Michael W. Deem and Ramdas Pophale) SiO2 
 PCOD9054259
Probable space group: P -1
;
_chemical_formula_sum "Si O2"
_cell_formula_units_Z 16
_cell_length_a 11.063055
_cell_length_b 10.780357
_cell_length_c 11.635458
_cell_angle_alpha 97.822441
_cell_angle_beta 112.967515
_cell_angle_gamma 135.477756
_cell_volume 687.071619
_symmetry_space_group_name_H-M "P -1"
_symmetry_group_IT_number 2
_symmetry_cell_setting 'triclinic'
loop_
_space_group_symop_operation_xyz
x,y,z
-x,-y,-z
loop_
_atom_site_type_symbol
_atom_site_label
_atom_site_fract_x
_atom_site_fract_y
_atom_site_fract_z
Si Si1 0.435427 0.561040 0.187269
Si Si2 0.886406 0.484832 0.258777
Si Si3 0.990079 0.382476 0.077663
Si Si4 0.596501 0.851340 0.082490
Si Si5 0.086926 0.076689 0.910464
Si Si6 0.373269 0.005680 0.525182
Si Si7 0.649075 0.731668 0.524023
Si Si8 0.449738 0.940512 0.785044
O O1 0.596767 0.773248 0.189435
O O2 0.614676 0.660860 0.368484
O O3 0.208187 0.460577 0.142725
O O4 0.305434 0.350965 0.036185
O O5 0.991288 0.458843 0.209644
O O6 0.757920 0.328547 0.306935
O O7 0.089210 0.749772 0.387068
O O8 0.668511 0.375237 0.096635
O O9 0.000000 0.500000 0.000000
O O10 0.722228 0.110259 0.923471
O O11 0.802177 0.965611 0.092257
O O12 0.612371 0.009721 0.133242
O O13 0.882890 0.936511 0.719887
O O14 0.000000 0.000000 0.000000
O O15 0.449393 0.026506 0.683681
O O16 0.500000 0.000000 0.500000
O O17 0.429996 0.185985 0.514768
O O18 0.500000 0.500000 0.500000
#
# Coordination Sequence:
#
# PCOD9054259 Si02
#       8
#     2   2   2   2   2   2   2   2
#     4  12  24  48  74 106 150 197 257 314 384 454
#     4  11  24  41  72 112 149 194 250 313 387 456
#     4  11  20  41  74 107 144 197 242 313 384 451
#     4  11  24  47  70 103 151 199 256 311 381 456
#     4  12  29  46  75 106 144 204 262 311 375 464
#     4  12  26  46  75 113 152 197 256 321 383 460
#     4  12  27  50  75 112 149 200 258 318 388 457
#     4  11  24  42  71 111 156 196 248 316 388 458
#
# _framework density 23.287236
#
# number of rings (size 3 to 8) (size 9 to 14) (size 15 to 20)
#    0.000    0.500    5.000    4.500    5.250    1.500 
#    2.250    1.250    0.000    0.000    0.000    0.000 
#    0.000    0.000    0.000    0.000    0.000    0.000 
#
# Total GULP energy -89266.504270 kJ/mol
# GULP energy per Si atom -5579.156517 kJ/mol
# Density = 2.323423 g / cm^3
# Si number density = 23.287236 Si / 1000 Ang^3
#
#
#
# Elastic Constant Matrix: (Units=GPa)
#
#
# Indices 1 2 3 4 5 6 
#
# 1 78.0738 29.7098 18.8040 -16.4059 9.4514 10.3865
# 2 29.7098 142.7306 24.1674 -14.9434 -1.4782 -17.4635
# 3 18.8040 24.1674 144.2958 -18.0536 3.0069 -8.9836
# 4 -16.4059 -14.9434 -18.0536 41.6418 -6.4060 -1.5447
# 5 9.4514 -1.4782 3.0069 -6.4060 19.7030 2.2656
# 6 10.3865 -17.4635 -8.9836 -1.5447 2.2656 39.6351
#
#
#
# Elastic Compliance Matrix: (Units=1/GPa)
#
#
# Indices 1 2 3 4 5 6 
#
# 1 0.016821 -0.003681 -0.001366 0.003525 -0.006319 -0.005841
# 2 -0.003681 0.008656 -0.000486 0.002018 0.002617 0.004597
# 3 -0.001366 -0.000486 0.007647 0.002691 0.000100 0.001977
# 4 0.003525 0.002018 0.002691 0.028442 0.007150 0.001275
# 5 -0.006319 0.002617 0.000100 0.007150 0.056303 -0.000108
# 6 -0.005841 0.004597 0.001977 0.001275 -0.000108 0.029290
#
#
# Mechanical properties :
#
#
# Convention : Reuss Voigt Hill
#
# Bulk Modulus (GPa) = 45.33626 56.71806 51.02716
# Shear Modulus (GPa) = 30.19726 39.69057 34.94391
#
# Velocity S-wave (km/s) = 3.60492 4.13291 3.87791
# Velocity P-wave (km/s) = 6.06942 6.86901 6.48155
#
# Compressibility (1/GPa) = 0.02205740
#
# Stress axis : x y z
#
# Youngs Moduli (GPa) = 59.44960 115.53229 130.76402
#
# Poissons Ratio (x) = 0.42528 0.17869
# Poissons Ratio (y) = 0.21884 0.06352
# Poissons Ratio (z) = 0.08124 0.05612
#
# Static dielectric constant tensor:
#      x y z
#    x 2.130830 0.102690 -0.472610 
#    y 0.102690 1.983570 -0.150570 
#    z -0.472610 -0.150570 2.674730 
# 
# From -- ./inp_files/428408.got.cif
#   From: 2010.05.17/outbox.cif.g08.bks.cpg/sg2_215_cif.got.tgz:428408.got - 2010.06.03 11:33:40.
