data_PCOD9054291
_publ_section_title
;
Structure prediction by ZEFSAII (Michael W. Deem and Ramdas Pophale) SiO2 
 PCOD9054291
Probable space group: P -1
;
_chemical_formula_sum "Si O2"
_cell_formula_units_Z 16
_cell_length_a 8.935358
_cell_length_b 11.466148
_cell_length_c 16.043197
_cell_angle_alpha 140.880382
_cell_angle_beta 137.944701
_cell_angle_gamma 41.782894
_cell_volume 636.277396
_symmetry_space_group_name_H-M "P -1"
_symmetry_group_IT_number 2
_symmetry_cell_setting 'triclinic'
loop_
_space_group_symop_operation_xyz
x,y,z
-x,-y,-z
loop_
_atom_site_type_symbol
_atom_site_label
_atom_site_fract_x
_atom_site_fract_y
_atom_site_fract_z
Si Si1 0.915506 0.486928 0.756010
Si Si2 0.387443 0.840886 0.021571
Si Si3 0.763079 0.705258 0.522258
Si Si4 0.057850 0.224322 0.518276
Si Si5 0.145131 0.937030 0.155612
Si Si6 0.398895 0.833417 0.718058
Si Si7 0.293539 0.803992 0.466054
Si Si8 0.807380 0.446249 0.949188
O O1 0.654712 0.666784 0.761516
O O2 0.898855 0.291693 0.682199
O O3 0.962233 0.428737 0.646095
O O4 0.120312 0.527528 0.910631
O O5 0.311710 0.844432 0.090097
O O6 0.536197 0.618112 0.922479
O O7 0.566279 0.958677 0.148566
O O8 0.135694 0.968311 0.939922
O O9 0.730706 0.784781 0.459723
O O10 0.529801 0.677418 0.441725
O O11 0.000000 0.500000 0.500000
O O12 0.795380 0.874140 0.686778
O O13 0.841457 0.189604 0.359499
O O14 0.176967 0.034955 0.522401
O O15 0.176767 0.781462 0.159608
O O16 0.371577 0.782515 0.582064
O O17 0.000000 0.500000 0.000000
#
# Coordination Sequence:
#
# PCOD9054291 Si02
#       8
#     2   2   2   2   2   2   2   2
#     4  11  23  43  71 101 136 185 237 282 359 424
#     4  11  24  48  77 101 147 192 238 299 350 436
#     4  12  26  45  67 103 144 183 230 296 357 417
#     4  11  24  39  70 100 139 185 234 292 352 417
#     4  11  27  49  72 107 143 197 244 284 367 428
#     4  11  20  42  69 100 136 183 234 285 348 425
#     4  11  22  42  63 102 138 182 234 288 347 420
#     4  12  28  48  75 109 145 186 242 304 358 424
#
# _framework density 25.146263000000001
#
# number of rings (size 3 to 8) (size 9 to 14) (size 15 to 20)
#    0.000    0.750    2.500    6.750    3.500    2.500 
#    2.250    0.000    0.000    0.000    0.000    0.000 
#    0.000    0.000    0.000    0.000    0.000    0.000 
#
# Total GULP energy -89546.554506 kJ/mol
# GULP energy per Si atom -5596.659657 kJ/mol
# Density = 2.508903 g / cm^3
# Si number density = 25.146263 Si / 1000 Ang^3
#
#
#
# Elastic Constant Matrix: (Units=GPa)
#
#
# Indices 1 2 3 4 5 6 
#
# 1 85.9227 28.4987 -1.4654 15.4312 0.2624 -10.9605
# 2 28.4987 125.7239 -3.6809 13.8180 0.1375 -14.6582
# 3 -1.4654 -3.6809 67.2100 6.3692 4.0069 -2.0751
# 4 15.4312 13.8180 6.3692 33.3938 -2.8802 6.0646
# 5 0.2624 0.1375 4.0069 -2.8802 15.8962 2.4787
# 6 -10.9605 -14.6582 -2.0751 6.0646 2.4787 43.4933
#
#
#
# Elastic Compliance Matrix: (Units=1/GPa)
#
#
# Indices 1 2 3 4 5 6 
#
# 1 0.014047 -0.001927 0.001115 -0.006843 -0.002365 0.004033
# 2 -0.001927 0.009230 0.001021 -0.003854 -0.001518 0.003298
# 3 0.001115 0.001021 0.015803 -0.004832 -0.005253 0.002352
# 4 -0.006843 -0.003854 -0.004832 0.038116 0.009693 -0.009121
# 5 -0.002365 -0.001518 -0.005253 0.009693 0.067059 -0.006531
# 6 0.004033 0.003298 0.002352 -0.009121 -0.006531 0.026876
#
#
# Mechanical properties :
#
#
# Convention : Reuss Voigt Hill
#
# Bulk Modulus (GPa) = 25.31773 36.17349 30.74561
# Shear Modulus (GPa) = 27.19181 35.59028 31.39104
#
# Velocity S-wave (km/s) = 3.29195 3.76617 3.53702
# Velocity P-wave (km/s) = 4.95371 5.77308 5.37902
#
# Compressibility (1/GPa) = 0.03949802
#
# Stress axis : x y z
#
# Youngs Moduli (GPa) = 71.18969 108.33927 63.28056
#
# Poissons Ratio (x) = 0.20873 -0.07054
# Poissons Ratio (y) = 0.13716 -0.06461
# Poissons Ratio (z) = -0.07936 -0.11062
#
# Static dielectric constant tensor:
#      x y z
#    x 2.106160 0.047560 0.005950 
#    y 0.047560 2.011290 0.038140 
#    z 0.005950 0.038140 1.988660 
# 
# From -- ./inp_files/307948.got.cif
#   From: 2010.05.17/outbox.cif.g08.bks.cpg/sg2_154_cif.got.tgz:307948.got - 2010.06.03 11:33:40.
