data_PCOD9054465
_publ_section_title
;
Structure prediction by ZEFSAII (Michael W. Deem and Ramdas Pophale) SiO2 
 PCOD9054465
Probable space group: P -1
;
_chemical_formula_sum "Si O2"
_cell_formula_units_Z 16
_cell_length_a 19.616382
_cell_length_b 20.158212
_cell_length_c 8.686208
_cell_angle_alpha 45.331057
_cell_angle_beta 42.800154
_cell_angle_gamma 21.706230
_cell_volume 860.023655
_symmetry_space_group_name_H-M "P -1"
_symmetry_group_IT_number 2
_symmetry_cell_setting 'triclinic'
loop_
_space_group_symop_operation_xyz
x,y,z
-x,-y,-z
loop_
_atom_site_type_symbol
_atom_site_label
_atom_site_fract_x
_atom_site_fract_y
_atom_site_fract_z
Si Si1 0.736004 0.898527 0.171227
Si Si2 0.833403 0.204449 0.888744
Si Si3 0.867679 0.400461 0.865415
Si Si4 0.549680 0.552013 0.986901
Si Si5 0.002282 0.726483 0.497158
Si Si6 0.347348 0.248313 0.409406
Si Si7 0.389421 0.994153 0.148334
Si Si8 0.364977 0.339526 0.548174
O O1 0.727176 0.797674 0.406385
O O2 0.952138 0.765429 0.054511
O O3 0.563950 0.083763 0.250746
O O4 0.679262 0.946733 0.008895
O O5 0.676877 0.292276 0.879745
O O6 0.943009 0.211851 0.648266
O O7 0.682504 0.360608 0.017043
O O8 0.000000 0.000000 0.000000
O O9 0.793551 0.564837 0.741317
O O10 0.958365 0.316844 0.679458
O O11 0.670701 0.496199 0.021903
O O12 0.557246 0.628648 0.718500
O O13 0.789003 0.872200 0.658589
O O14 0.153143 0.536100 0.635319
O O15 0.353282 0.273699 0.537001
O O16 0.513763 0.802734 0.286528
O O17 0.500000 0.000000 0.000000
#
# Coordination Sequence:
#
# PCOD9054465 Si02
#       8
#     2   2   2   2   2   2   2   2
#     4  11  21  32  50  74 101 139 182 214 254 300
#     4   9  15  29  54  84 104 125 162 217 266 307
#     4   9  19  35  54  74 104 134 172 221 257 303
#     4   8  17  30  53  82 103 128 167 214 265 305
#     4   9  21  35  54  77 105 136 169 212 263 311
#     4   9  19  35  51  71  98 138 181 223 250 291
#     4  12  23  34  49  75 107 144 175 212 254 307
#     4   9  18  37  51  75 106 136 171 218 253 304
#
# _framework density 18.604139
#
# number of rings (size 3 to 8) (size 9 to 14) (size 15 to 20)
#    0.000    3.000    1.250    1.875    1.750    4.500 
#    0.000    0.000    0.000    0.750    0.000   42.000 
#    0.000    4.000    0.000    0.000    0.000    0.000 
#
# Total GULP energy -89081.773470 kJ/mol
# GULP energy per Si atom -5567.610842 kJ/mol
# Density = 1.856180 g / cm^3
# Si number density = 18.604139 Si / 1000 Ang^3
#
#
#
# Elastic Constant Matrix: (Units=GPa)
#
#
# Indices 1 2 3 4 5 6 
#
# 1 73.5438 46.4840 24.3769 -11.2759 -8.2993 -31.5732
# 2 46.4840 111.6377 22.7689 -30.2847 -6.8725 -32.9914
# 3 24.3769 22.7689 21.2181 -12.8739 -7.7769 -17.5795
# 4 -11.2759 -30.2847 -12.8739 11.7328 -6.8148 -11.5336
# 5 -8.2993 -6.8725 -7.7769 -6.8148 20.4507 1.3490
# 6 -31.5732 -32.9914 -17.5795 -11.5336 1.3490 26.2931
#
#
#
# Elastic Compliance Matrix: (Units=1/GPa)
#
#
# Indices 1 2 3 4 5 6 
#
# 1 0.027166 -0.005925 -0.021544 -0.005301 -0.001489 0.008534
# 2 -0.005925 0.010780 -0.016155 -0.005846 -0.006436 -0.006624
# 3 -0.021544 -0.016155 0.052988 -0.027618 -0.001725 -0.022739
# 4 -0.005301 -0.005846 -0.027618 -0.008669 -0.015186 -0.035190
# 5 -0.001489 -0.006436 -0.001725 -0.015186 0.041722 -0.019819
# 6 0.008534 -0.006624 -0.022739 -0.035190 -0.019819 0.010346
#
#
# Mechanical properties :
#
#
# Convention : Reuss Voigt Hill
#
# Bulk Modulus (GPa) = 271.30469 43.73993 157.52231
# Shear Modulus (GPa) = 22.44074 19.21329 20.82701
#
# Velocity S-wave (km/s) = 3.47684 3.21712 3.34950
# Velocity P-wave (km/s) = 12.73832 6.11242 9.99066
#
# Compressibility (1/GPa) = 0.00368589
#
# Stress axis : x y z
#
# Youngs Moduli (GPa) = 36.81010 92.76584 18.87233
#
# Poissons Ratio (x) = 0.54968 0.40658
# Poissons Ratio (y) = 0.21812 0.30488
# Poissons Ratio (z) = 0.79303 1.49860
#
# Static dielectric constant tensor:
#      x y z
#    x 1.716650 -0.051620 -0.026970 
#    y -0.051620 1.710230 0.011810 
#    z -0.026970 0.011810 1.651570 
# 
# From -- ./inp_files/349390.got.cif
#   From: 2010.05.17/outbox.cif.g08.bks.cpg/sg2_175_cif.got.tgz:349390.got - 2010.06.03 11:33:40.
