data_PCOD9054504
_publ_section_title
;
Structure prediction by ZEFSAII (Michael W. Deem and Ramdas Pophale) SiO2 
 PCOD9054504
Probable space group: P -1
;
_chemical_formula_sum "Si O2"
_cell_formula_units_Z 16
_cell_length_a 4.925653
_cell_length_b 12.588724
_cell_length_c 13.216605
_cell_angle_alpha 86.440060
_cell_angle_beta 115.826474
_cell_angle_gamma 91.673480
_cell_volume 736.248799
_symmetry_space_group_name_H-M "P -1"
_symmetry_group_IT_number 2
_symmetry_cell_setting 'triclinic'
loop_
_space_group_symop_operation_xyz
x,y,z
-x,-y,-z
loop_
_atom_site_type_symbol
_atom_site_label
_atom_site_fract_x
_atom_site_fract_y
_atom_site_fract_z
Si Si1 0.580168 0.552232 0.404673
Si Si2 0.134463 0.265290 0.477239
Si Si3 0.084614 0.705977 0.220143
Si Si4 0.693999 0.644722 0.712824
Si Si5 0.400599 0.616469 0.859204
Si Si6 0.428482 0.629262 0.093581
Si Si7 0.269543 0.915896 0.564207
Si Si8 0.580729 0.110104 0.644874
O O1 0.500000 0.500000 0.500000
O O2 0.876168 0.623132 0.470776
O O3 0.314194 0.633779 0.326950
O O4 0.542342 0.453953 0.329633
O O5 0.302889 0.290339 0.396568
O O6 0.293076 0.188776 0.590887
O O7 0.849221 0.194505 0.404060
O O8 0.166950 0.673904 0.120280
O O9 0.166867 0.827441 0.255410
O O10 0.742411 0.673732 0.187135
O O11 0.588111 0.684937 0.803186
O O12 0.042451 0.606760 0.777629
O O13 0.555101 0.499281 0.895101
O O14 0.409660 0.661617 0.971775
O O15 0.363722 0.892855 0.466332
O O16 0.507053 0.986634 0.662340
O O17 0.000000 0.000000 0.500000
#
# Coordination Sequence:
#
# PCOD9054504 Si02
#       8
#     2   2   2   2   2   2   2   2
#     4   9  18  34  46  79 112 149 178 211 252 325
#     4   9  20  33  52  77 113 149 177 216 263 331
#     4  11  21  35  56  81 107 147 181 221 277 318
#     4  11  21  36  53  80 110 151 183 219 272 323
#     4  11  22  37  55  77 109 145 190 236 268 308
#     4  11  22  37  56  78 107 145 191 235 270 311
#     4   9  18  35  53  78 114 140 180 219 266 317
#     4   9  20  33  54  82 113 141 178 224 264 328
#
# _framework density 21.731784000000001
#
# number of rings (size 3 to 8) (size 9 to 14) (size 15 to 20)
#    0.000    2.000    2.500    0.750    7.000    2.000 
#    0.000    2.500    0.000    0.000    0.000    5.250 
#    0.000    0.000    0.000    0.000    0.000    0.000 
#
# Total GULP energy -89171.293856 kJ/mol
# GULP energy per Si atom -5573.205866 kJ/mol
# Density = 2.168232 g / cm^3
# Si number density = 21.731784 Si / 1000 Ang^3
#
#
#
# Elastic Constant Matrix: (Units=GPa)
#
#
# Indices 1 2 3 4 5 6 
#
# 1 62.6111 11.1518 1.7654 -4.4231 -5.9425 5.3857
# 2 11.1518 108.0446 21.9496 19.6940 -3.7065 30.1204
# 3 1.7654 21.9496 71.5086 -1.5393 -16.1621 2.0367
# 4 -4.4231 19.6940 -1.5393 25.8358 4.8654 -1.5881
# 5 -5.9425 -3.7065 -16.1621 4.8654 35.4389 -0.9471
# 6 5.3857 30.1204 2.0367 -1.5881 -0.9471 23.3785
#
#
#
# Elastic Compliance Matrix: (Units=1/GPa)
#
#
# Indices 1 2 3 4 5 6 
#
# 1 0.016980 -0.002662 0.001047 0.004532 0.002420 -0.000168
# 2 -0.002662 0.022720 -0.006266 -0.020156 0.001053 -0.029440
# 3 0.001047 -0.006266 0.017358 0.005114 0.006920 0.006947
# 4 0.004532 -0.020156 0.005114 0.058057 -0.006234 0.028170
# 5 0.002420 0.001053 0.006920 -0.006234 0.032702 -0.001615
# 6 -0.000168 -0.029440 0.006947 0.028170 -0.001615 0.081986
#
#
# Mechanical properties :
#
#
# Convention : Reuss Voigt Hill
#
# Bulk Modulus (GPa) = 24.21422 34.65531 29.43476
# Shear Modulus (GPa) = 19.28043 30.75047 25.01545
#
# Velocity S-wave (km/s) = 2.98182 3.76573 3.39647
# Velocity P-wave (km/s) = 4.79807 5.90670 5.38101
#
# Compressibility (1/GPa) = 0.04129805
#
# Stress axis : x y z
#
# Youngs Moduli (GPa) = 58.89119 44.01338 57.61035
#
# Poissons Ratio (x) = 0.11715 -0.06032
# Poissons Ratio (y) = 0.15675 0.36097
# Poissons Ratio (z) = -0.06166 0.27578
#
# Static dielectric constant tensor:
#      x y z
#    x 1.946820 -0.038400 0.013910 
#    y -0.038400 1.905270 0.046280 
#    z 0.013910 0.046280 1.861030 
# 
# From -- ./inp_files/99543.got.cif
#   From: 2010.05.17/outbox.cif.g08.bks.cpg/sg2_50_cif.got.tgz:99543.got - 2010.06.03 11:33:40.
