data_PCOD9054552
_publ_section_title
;
Structure prediction by ZEFSAII (Michael W. Deem and Ramdas Pophale) SiO2 
 PCOD9054552
Probable space group: P -1
;
_chemical_formula_sum "Si O2"
_cell_formula_units_Z 12
_cell_length_a 13.896122
_cell_length_b 8.394209
_cell_length_c 7.637184
_cell_angle_alpha 36.274113
_cell_angle_beta 101.387937
_cell_angle_gamma 111.916230
_cell_volume 480.216516
_symmetry_space_group_name_H-M "P -1"
_symmetry_group_IT_number 2
_symmetry_cell_setting 'triclinic'
loop_
_space_group_symop_operation_xyz
x,y,z
-x,-y,-z
loop_
_atom_site_type_symbol
_atom_site_label
_atom_site_fract_x
_atom_site_fract_y
_atom_site_fract_z
Si Si1 0.349381 0.628781 0.418601
Si Si2 0.235260 0.674915 0.974054
Si Si3 0.863594 0.613453 0.301476
Si Si4 0.067027 0.757087 0.063845
Si Si5 0.664444 0.738788 0.724285
Si Si6 0.554357 0.745130 0.043798
O O1 0.260611 0.564465 0.595256
O O2 0.391829 0.369848 0.679091
O O3 0.291109 0.662979 0.191525
O O4 0.442908 0.933892 0.212515
O O5 0.298956 0.961233 0.633092
O O6 0.122692 0.695654 0.965715
O O7 0.243770 0.392744 0.135654
O O8 0.905131 0.429967 0.611617
O O9 0.941388 0.678880 0.105142
O O10 0.879458 0.911782 0.144799
O O11 0.559984 0.491541 0.825127
O O12 0.627324 0.771564 0.876650
#
# Coordination Sequence:
#
# PCOD9054552 Si02
#       6
#     2   2   2   2   2   2
#     4  11  21  36  60  87 110 138 187 239 272 311
#     4  11  21  36  60  87 110 138 187 239 272 311
#     4   9  17  31  53  82 113 141 173 219 275 329
#     4   9  17  31  53  82 113 141 173 219 275 329
#     4  11  24  40  56  77 112 155 187 219 278 342
#     4  11  24  40  56  77 112 155 187 219 278 342
#
# _framework density 24.98873
#
# number of rings (size 3 to 8) (size 9 to 14) (size 15 to 20)
#    0.000    1.667    0.000    7.000    0.000    6.667 
#    0.000    0.000    0.000    6.000    0.000    0.000 
#    0.000    0.000    0.000    0.000    0.000    0.000 
#
# Total GULP energy -67129.030036 kJ/mol
# GULP energy per Si atom -5594.085836 kJ/mol
# Density = 2.493185 g / cm^3
# Si number density = 24.988730 Si / 1000 Ang^3
#
#
#
# Elastic Constant Matrix: (Units=GPa)
#
#
# Indices 1 2 3 4 5 6 
#
# 1 126.3250 30.8343 46.5811 10.5394 -11.5930 -33.6191
# 2 30.8343 47.5610 25.2038 14.7324 -6.5374 -20.6610
# 3 46.5811 25.2038 164.6648 -5.7092 0.9281 -3.0837
# 4 10.5394 14.7324 -5.7092 36.2169 -15.2856 -1.6951
# 5 -11.5930 -6.5374 0.9281 -15.2856 40.7579 8.4416
# 6 -33.6191 -20.6610 -3.0837 -1.6951 8.4416 48.3903
#
#
#
# Elastic Compliance Matrix: (Units=1/GPa)
#
#
# Indices 1 2 3 4 5 6 
#
# 1 0.011567 -0.002266 -0.002883 -0.002265 0.000761 0.006673
# 2 -0.002266 0.035098 -0.004993 -0.015191 -0.003320 0.013140
# 3 -0.002883 -0.004993 0.007726 0.004129 0.000494 -0.003584
# 4 -0.002265 -0.015191 0.004129 0.040534 0.013848 -0.008793
# 5 0.000761 -0.003320 0.000494 0.013848 0.030583 -0.005708
# 6 0.006673 0.013140 -0.003584 -0.008793 -0.005708 0.031371
#
#
# Mechanical properties :
#
#
# Convention : Reuss Voigt Hill
#
# Bulk Modulus (GPa) = 29.31975 60.42102 44.87039
# Shear Modulus (GPa) = 26.52050 40.80180 33.66115
#
# Velocity S-wave (km/s) = 3.26129 4.04519 3.67420
# Velocity P-wave (km/s) = 5.09314 6.78600 5.99958
#
# Compressibility (1/GPa) = 0.03410670
#
# Stress axis : x y z
#
# Youngs Moduli (GPa) = 86.45278 28.49140 129.43258
#
# Poissons Ratio (x) = 0.06457 0.37317
# Poissons Ratio (y) = 0.19591 0.64626
# Poissons Ratio (z) = 0.24926 0.14226
#
# Static dielectric constant tensor:
#      x y z
#    x 2.033470 -0.035870 -0.041880 
#    y -0.035870 1.980860 0.026840 
#    z -0.041880 0.026840 1.881600 
# 
# From -- ./inp_files/31631.got.cif
#   From: 2010.05.17/outbox.cif.g08.bks.cpg/sg2_16_cif.got.tgz:31631.got - 2010.06.03 11:33:40.
