data_PCOD9054645
_publ_section_title
;
Structure prediction by ZEFSAII (Michael W. Deem and Ramdas Pophale) SiO2 
 PCOD9054645
Probable space group: P -1
;
_chemical_formula_sum "Si O2"
_cell_formula_units_Z 12
_cell_length_a 12.497238
_cell_length_b 27.617409
_cell_length_c 9.858497
_cell_angle_alpha 30.346751
_cell_angle_beta 131.268278
_cell_angle_gamma 155.146012
_cell_volume 587.856310
_symmetry_space_group_name_H-M "P -1"
_symmetry_group_IT_number 2
_symmetry_cell_setting 'triclinic'
loop_
_space_group_symop_operation_xyz
x,y,z
-x,-y,-z
loop_
_atom_site_type_symbol
_atom_site_label
_atom_site_fract_x
_atom_site_fract_y
_atom_site_fract_z
Si Si1 0.131066 0.047262 0.218162
Si Si2 0.764199 0.653587 0.964790
Si Si3 0.805916 0.241298 0.003240
Si Si4 0.132510 0.786828 0.570763
Si Si5 0.353464 0.128111 0.927835
Si Si6 0.497107 0.413666 0.815339
O O1 0.352478 0.175073 0.961402
O O2 0.282503 0.201753 0.087803
O O3 0.041541 0.889531 0.577426
O O4 0.809889 0.902530 0.243936
O O5 0.910958 0.635120 0.141237
O O6 0.500000 0.500000 0.000000
O O7 0.631833 0.617808 0.078140
O O8 0.882542 0.270728 0.155424
O O9 0.484286 0.987291 0.323692
O O10 0.674065 0.269826 0.807528
O O11 0.846965 0.586768 0.721545
O O12 0.121406 0.896361 0.312547
O O13 0.500000 0.500000 0.500000
#
# Coordination Sequence:
#
# PCOD9054645 Si02
#       6
#     2   2   2   2   2   2
#     4  11  21  37  62  95 123 155 205 251 298 361
#     4  12  23  40  65  88 122 163 208 244 302 362
#     4   9  17  38  63  87 116 164 203 244 295 364
#     4   9  16  36  63  85 114 160 199 236 305 353
#     4   9  18  36  66  84 120 159 201 240 304 356
#     4  12  23  38  61  95 123 160 198 256 304 358
#
# _framework density 20.413153000000001
#
# number of rings (size 3 to 8) (size 9 to 14) (size 15 to 20)
#    1.000    0.667    5.000    0.500    2.333    0.000 
#    0.000    7.500    0.000    0.000    0.000    0.000 
#    0.000    0.000    0.000    0.000    0.000    0.000 
#
# Total GULP energy -66931.585477 kJ/mol
# GULP energy per Si atom -5577.632123 kJ/mol
# Density = 2.036669 g / cm^3
# Si number density = 20.413153 Si / 1000 Ang^3
#
#
#
# Elastic Constant Matrix: (Units=GPa)
#
#
# Indices 1 2 3 4 5 6 
#
# 1 126.2402 67.5599 18.4579 -12.0596 2.1223 5.7136
# 2 67.5599 122.7993 22.4519 -9.1357 -9.5058 0.8944
# 3 18.4579 22.4519 35.8661 -5.9173 2.7381 -0.6922
# 4 -12.0596 -9.1357 -5.9173 23.5680 7.2125 5.7099
# 5 2.1223 -9.5058 2.7381 7.2125 26.8973 4.8690
# 6 5.7136 0.8944 -0.6922 5.7099 4.8690 41.4253
#
#
#
# Elastic Compliance Matrix: (Units=1/GPa)
#
#
# Indices 1 2 3 4 5 6 
#
# 1 0.012160 -0.006414 -0.001106 0.005168 -0.004177 -0.001778
# 2 -0.006414 0.013053 -0.005580 -0.001485 0.006085 -0.000001
# 3 -0.001106 -0.005580 0.033842 0.007931 -0.007572 0.000635
# 4 0.005168 -0.001485 0.007931 0.052458 -0.014711 -0.006050
# 5 -0.004177 0.006085 -0.007572 -0.014711 0.044905 -0.002932
# 6 -0.001778 -0.000001 0.000635 -0.006050 -0.002932 0.025574
#
#
# Mechanical properties :
#
#
# Convention : Reuss Voigt Hill
#
# Bulk Modulus (GPa) = 30.43561 55.76052 43.09807
# Shear Modulus (GPa) = 22.81613 30.14051 26.47832
#
# Velocity S-wave (km/s) = 3.34685 3.84672 3.60546
# Velocity P-wave (km/s) = 5.46602 6.86331 6.20413
#
# Compressibility (1/GPa) = 0.03285625
#
# Stress axis : x y z
#
# Youngs Moduli (GPa) = 82.23750 76.61222 29.54878
#
# Poissons Ratio (x) = 0.49137 0.03268
# Poissons Ratio (y) = 0.52745 0.16488
# Poissons Ratio (z) = 0.09094 0.42748
#
# Static dielectric constant tensor:
#      x y z
#    x 1.747290 0.029720 -0.003140 
#    y 0.029720 1.692070 -0.018630 
#    z -0.003140 -0.018630 1.740130 
# 
# From -- ./inp_files/266309.got.cif
#   From: 2010.05.17/outbox.cif.g08.bks.cpg/sg2_134_cif.got.tgz:266309.got - 2010.06.03 11:33:40.
