data_PCOD9054958
_publ_section_title
;
Structure prediction by ZEFSAII (Michael W. Deem and Ramdas Pophale) SiO2 
 PCOD9054958
Probable space group: P -1
;
_chemical_formula_sum "Si O2"
_cell_formula_units_Z 16
_cell_length_a 11.362866
_cell_length_b 8.526832
_cell_length_c 19.748293
_cell_angle_alpha 81.406844
_cell_angle_beta 157.293115
_cell_angle_gamma 101.908603
_cell_volume 718.449582
_symmetry_space_group_name_H-M "P -1"
_symmetry_group_IT_number 2
_symmetry_cell_setting 'triclinic'
loop_
_space_group_symop_operation_xyz
x,y,z
-x,-y,-z
loop_
_atom_site_type_symbol
_atom_site_label
_atom_site_fract_x
_atom_site_fract_y
_atom_site_fract_z
Si Si1 0.471988 0.283662 0.800237
Si Si2 0.839220 0.467523 0.663717
Si Si3 0.738529 0.606879 0.991027
Si Si4 0.250316 0.879468 0.916782
Si Si5 0.785068 0.126291 0.854579
Si Si6 0.097636 0.966042 0.454888
Si Si7 0.834746 0.096529 0.661717
Si Si8 0.850655 0.275899 0.268328
O O1 0.551744 0.474892 0.847400
O O2 0.666959 0.232293 0.844704
O O3 0.116222 0.185585 0.611358
O O4 0.598600 0.202985 0.938450
O O5 0.500000 0.500000 0.500000
O O6 0.834303 0.278920 0.664182
O O7 0.933143 0.549643 0.634786
O O8 0.085582 0.490279 0.855593
O O9 0.483707 0.690768 0.889535
O O10 0.001022 0.742416 0.088027
O O11 0.102472 0.767931 0.783581
O O12 0.032608 0.998262 0.820429
O O13 0.500000 0.000000 0.000000
O O14 0.460710 0.021775 0.661128
O O15 0.000000 0.000000 0.000000
O O16 0.073298 0.918880 0.366218
O O17 0.946695 0.128944 0.369809
O O18 0.500000 0.000000 0.500000
#
# Coordination Sequence:
#
# PCOD9054958 Si02
#       8
#     2   2   2   2   2   2   2   2
#     4  12  25  46  72  99 139 182 237 281 345 407
#     4  12  24  38  64 108 148 180 220 287 354 413
#     4  12  26  44  71 104 142 180 233 285 347 411
#     4  11  21  39  68 101 133 175 220 286 342 414
#     4  12  29  49  71  97 135 192 238 286 337 407
#     4  11  25  47  70 102 136 183 233 286 339 415
#     4  11  23  37  64  99 143 173 225 274 356 404
#     4  11  22  41  71 105 140 175 222 284 358 409
#
# _framework density 22.270177
#
# number of rings (size 3 to 8) (size 9 to 14) (size 15 to 20)
#    0.000    0.500    3.750    6.375    3.500    0.000 
#    0.000    5.000    0.000    0.000    0.000    0.000 
#    0.000    0.000    0.000    0.000    0.000    0.000 
#
# Total GULP energy -89253.665361 kJ/mol
# GULP energy per Si atom -5578.354085 kJ/mol
# Density = 2.221949 g / cm^3
# Si number density = 22.270177 Si / 1000 Ang^3
#
#
#
# Elastic Constant Matrix: (Units=GPa)
#
#
# Indices 1 2 3 4 5 6 
#
# 1 89.7072 26.0012 25.9860 6.6360 21.4310 -7.7998
# 2 26.0012 113.6814 46.7371 15.3931 9.8549 -6.7777
# 3 25.9860 46.7371 134.7137 2.8445 27.4036 -9.3820
# 4 6.6360 15.3931 2.8445 33.0138 1.3630 9.1662
# 5 21.4310 9.8549 27.4036 1.3630 41.6151 9.5815
# 6 -7.7998 -6.7777 -9.3820 9.1662 9.5815 25.6497
#
#
#
# Elastic Compliance Matrix: (Units=1/GPa)
#
#
# Indices 1 2 3 4 5 6 
#
# 1 0.014947 -0.001556 0.000367 -0.004546 -0.009604 0.009481
# 2 -0.001556 0.011515 -0.003232 -0.005762 -0.000440 0.003611
# 3 0.000367 -0.003232 0.010516 -0.000910 -0.007777 0.006334
# 4 -0.004546 -0.005762 -0.000910 0.039239 0.007652 -0.020119
# 5 -0.009604 -0.000440 -0.007777 0.007652 0.039316 -0.023302
# 6 0.009481 0.003611 0.006334 -0.020119 -0.023302 0.061035
#
#
# Mechanical properties :
#
#
# Convention : Reuss Voigt Hill
#
# Bulk Modulus (GPa) = 35.54295 59.50565 47.52430
# Shear Modulus (GPa) = 25.66865 36.01427 30.84146
#
# Velocity S-wave (km/s) = 3.39868 4.02575 3.72543
# Velocity P-wave (km/s) = 5.60321 6.95606 6.31596
#
# Compressibility (1/GPa) = 0.02813497
#
# Stress axis : x y z
#
# Youngs Moduli (GPa) = 66.90163 86.84453 95.09181
#
# Poissons Ratio (x) = 0.13513 -0.03485
# Poissons Ratio (y) = 0.10410 0.30735
# Poissons Ratio (z) = -0.02452 0.28070
#
# Static dielectric constant tensor:
#      x y z
#    x 1.817130 -0.045640 -0.051320 
#    y -0.045640 1.935130 0.106560 
#    z -0.051320 0.106560 1.863140 
# 
# From -- ./inp_files/594101.got.cif
#   From: 2010.05.17/outbox.cif.g08.bks.cpg/sg2_298_cif.got.tgz:594101.got - 2010.06.03 11:33:40.
