data_PCOD9054876
_publ_section_title
;
Structure prediction by ZEFSAII (Michael W. Deem and Ramdas Pophale) SiO2 
 PCOD9054876
Probable space group: P -1
;
_chemical_formula_sum "Si O2"
_cell_formula_units_Z 14
_cell_length_a 15.897212
_cell_length_b 13.975894
_cell_length_c 7.277738
_cell_angle_alpha 75.546675
_cell_angle_beta 88.175581
_cell_angle_gamma 23.946870
_cell_volume 550.621616
_symmetry_space_group_name_H-M "P -1"
_symmetry_group_IT_number 2
_symmetry_cell_setting 'triclinic'
loop_
_space_group_symop_operation_xyz
x,y,z
-x,-y,-z
loop_
_atom_site_type_symbol
_atom_site_label
_atom_site_fract_x
_atom_site_fract_y
_atom_site_fract_z
Si Si1 0.199178 0.767420 0.861393
Si Si2 0.271963 0.946934 0.263212
Si Si3 0.350273 0.822479 0.892908
Si Si4 0.053225 0.689631 0.580521
Si Si5 0.275768 0.652949 0.481497
Si Si6 0.747908 0.741393 0.308197
Si Si7 0.719825 0.838275 0.866745
O O1 0.276524 0.788453 0.920408
O O2 0.251266 0.716006 0.662402
O O3 0.373875 0.487678 0.042710
O O4 0.914006 0.079337 0.754954
O O5 0.456223 0.659147 0.454032
O O6 0.022117 0.202076 0.258704
O O7 0.317674 0.011177 0.282794
O O8 0.299229 0.915653 0.056722
O O9 0.187754 0.055175 0.644950
O O10 0.187191 0.636075 0.512124
O O11 0.191602 0.436005 0.679415
O O12 0.000000 0.500000 0.500000
O O13 0.478670 0.017798 0.275647
O O14 0.691301 0.870446 0.074111
O O15 0.000000 0.500000 0.000000
#
# Coordination Sequence:
#
# PCOD9054876 Si02
#       7
#     2   2   2   2   2   2   2
#     4   8  16  36  57  84 122 166 200 262 320 364
#     4  11  21  39  62  90 124 168 205 263 322 380
#     4   9  19  36  61  88 125 159 212 260 313 380
#     4  11  21  39  61  91 121 166 214 256 324 383
#     4   9  18  36  62  83 124 165 206 262 319 371
#     4  11  24  42  67  94 128 173 216 273 327 387
#     4  11  23  43  66  95 132 168 216 270 327 388
#
# _framework density 25.425809000000001
#
# number of rings (size 3 to 8) (size 9 to 14) (size 15 to 20)
#    0.000    2.000    2.857    0.857    0.000    0.571 
#    0.000   32.857    0.000    0.000    0.000    0.000 
#    0.000    0.000    0.000    0.000    0.000    0.000 
#
# Total GULP energy -78174.765043 kJ/mol
# GULP energy per Si atom -5583.911789 kJ/mol
# Density = 2.536794 g / cm^3
# Si number density = 25.425809 Si / 1000 Ang^3
#
#
#
# Elastic Constant Matrix: (Units=GPa)
#
#
# Indices 1 2 3 4 5 6 
#
# 1 64.2154 37.4669 29.0249 -10.8983 9.6578 -8.9141
# 2 37.4669 106.6340 28.1767 -33.7745 4.2449 5.9709
# 3 29.0249 28.1767 117.2694 -25.7691 7.3093 -5.3306
# 4 -10.8983 -33.7745 -25.7691 40.5637 -7.8324 8.0589
# 5 9.6578 4.2449 7.3093 -7.8324 44.4278 -10.1936
# 6 -8.9141 5.9709 -5.3306 8.0589 -10.1936 29.7104
#
#
#
# Elastic Compliance Matrix: (Units=1/GPa)
#
#
# Indices 1 2 3 4 5 6 
#
# 1 0.023826 -0.009812 -0.004486 -0.006970 -0.002595 0.009316
# 2 -0.009812 0.017876 0.000924 0.014979 0.000564 -0.010240
# 3 -0.004486 0.000924 0.010830 0.006720 -0.000037 -0.001424
# 4 -0.006970 0.014979 0.006720 0.043018 0.003247 -0.014450
# 5 -0.002595 0.000564 -0.000037 0.003247 0.025170 0.006857
# 6 0.009316 -0.010240 -0.001424 -0.014450 0.006857 0.044528
#
#
# Mechanical properties :
#
#
# Convention : Reuss Voigt Hill
#
# Bulk Modulus (GPa) = 38.78329 53.05064 45.91697
# Shear Modulus (GPa) = 24.92641 35.83707 30.38174
#
# Velocity S-wave (km/s) = 3.13446 3.75837 3.46051
# Velocity P-wave (km/s) = 5.32789 6.30428 5.83654
#
# Compressibility (1/GPa) = 0.02578430
#
# Stress axis : x y z
#
# Youngs Moduli (GPa) = 41.97172 55.93979 92.33748
#
# Poissons Ratio (x) = 0.54888 0.41421
# Poissons Ratio (y) = 0.41183 -0.08533
# Poissons Ratio (z) = 0.18828 -0.05170
#
# Static dielectric constant tensor:
#      x y z
#    x 2.014770 -0.100070 0.103570 
#    y -0.100070 2.100310 -0.075430 
#    z 0.103570 -0.075430 2.061450 
# 
# From -- ./inp_files/335366.got.cif
#   From: 2010.05.17/outbox.cif.g08.bks.cpg/sg2_168_cif.got.tgz:335366.got - 2010.06.03 11:33:40.
