data_PCOD9054742
_publ_section_title
;
Structure prediction by ZEFSAII (Michael W. Deem and Ramdas Pophale) SiO2 
 PCOD9054742
Probable space group: P -1
;
_chemical_formula_sum "Si O2"
_cell_formula_units_Z 16
_cell_length_a 16.684501
_cell_length_b 9.564676
_cell_length_c 12.663724
_cell_angle_alpha 133.473056
_cell_angle_beta 156.272643
_cell_angle_gamma 51.078482
_cell_volume 590.114153
_symmetry_space_group_name_H-M "P -1"
_symmetry_group_IT_number 2
_symmetry_cell_setting 'triclinic'
loop_
_space_group_symop_operation_xyz
x,y,z
-x,-y,-z
loop_
_atom_site_type_symbol
_atom_site_label
_atom_site_fract_x
_atom_site_fract_y
_atom_site_fract_z
Si Si1 0.760258 0.151608 0.846004
Si Si2 0.208038 0.661563 0.228944
Si Si3 0.362241 0.264009 0.524879
Si Si4 0.351483 0.239518 0.137258
Si Si5 0.757116 0.319839 0.370352
Si Si6 0.250934 0.647239 0.861458
Si Si7 0.310344 0.244172 0.836966
Si Si8 0.988241 0.102679 0.712002
O O1 0.846263 0.281731 0.925879
O O2 0.524977 0.210794 0.603464
O O3 0.766910 0.926123 0.713425
O O4 0.839949 0.205477 0.085815
O O5 0.265644 0.438638 0.185461
O O6 0.415761 0.770567 0.563594
O O7 0.048091 0.745825 0.159600
O O8 0.265061 0.468780 0.493843
O O9 0.511030 0.302466 0.823293
O O10 0.323273 0.255657 0.985766
O O11 0.220368 0.074718 0.950600
O O12 0.909432 0.199022 0.558764
O O13 0.820157 0.352420 0.342989
O O14 0.539850 0.220104 0.065281
O O15 0.239717 0.440449 0.797739
O O16 0.159670 0.074200 0.540151
#
# Coordination Sequence:
#
# PCOD9054742 Si02
#       8
#     2   2   2   2   2   2   2   2
#     4   9  18  34  62  96 121 167 221 271 316 392
#     4  11  23  42  71  92 129 174 225 269 341 381
#     4   8  17  32  56  95 124 160 223 264 318 383
#     4  11  24  45  62  98 136 172 220 277 327 394
#     4  11  21  38  62 101 131 174 218 266 328 396
#     4   9  19  35  63  95 130 168 220 267 323 393
#     4  11  21  42  63  96 140 173 218 273 326 392
#     4  12  27  39  67 102 135 175 219 272 327 400
#
# _framework density 27.113398
#
# number of rings (size 3 to 8) (size 9 to 14) (size 15 to 20)
#    0.750    1.000    2.500    2.625    5.250    0.000 
#    0.000    0.625    0.000    2.250    0.000    0.875 
#    0.000    0.000    0.000    0.000    0.000    0.000 
#
# Total GULP energy -89791.197882 kJ/mol
# GULP energy per Si atom -5611.949868 kJ/mol
# Density = 2.705169 g / cm^3
# Si number density = 27.113398 Si / 1000 Ang^3
#
#
#
# Elastic Constant Matrix: (Units=GPa)
#
#
# Indices 1 2 3 4 5 6 
#
# 1 162.6418 18.8526 39.2985 0.1802 4.9914 9.7627
# 2 18.8526 94.1767 31.1489 8.0123 -3.4526 -8.4864
# 3 39.2985 31.1489 119.6289 5.0103 17.5160 -0.6912
# 4 0.1802 8.0123 5.0103 27.7562 -7.7758 -2.3104
# 5 4.9914 -3.4526 17.5160 -7.7758 40.6170 -3.5325
# 6 9.7627 -8.4864 -0.6912 -2.3104 -3.5325 36.1480
#
#
#
# Elastic Compliance Matrix: (Units=1/GPa)
#
#
# Indices 1 2 3 4 5 6 
#
# 1 0.006876 -0.000936 -0.002018 0.000368 -0.000167 -0.002108
# 2 -0.000936 0.012409 -0.003174 -0.002057 0.002424 0.003211
# 3 -0.002018 -0.003174 0.010708 -0.002509 -0.005177 -0.000662
# 4 0.000368 -0.002057 -0.002509 0.039742 0.008711 0.002761
# 5 -0.000167 0.002424 -0.005177 0.008711 0.029088 0.003915
# 6 -0.002108 0.003211 -0.000662 0.002761 0.003915 0.029534
#
#
# Mechanical properties :
#
#
# Convention : Reuss Voigt Hill
#
# Bulk Modulus (GPa) = 56.38131 61.67193 59.02662
# Shear Modulus (GPa) = 34.12412 40.04740 37.08576
#
# Velocity S-wave (km/s) = 3.55148 3.84739 3.70239
# Velocity P-wave (km/s) = 6.13654 6.52164 6.33202
#
# Compressibility (1/GPa) = 0.01773637
#
# Stress axis : x y z
#
# Youngs Moduli (GPa) = 145.43536 80.58911 93.38993
#
# Poissons Ratio (x) = 0.07546 0.18846
# Poissons Ratio (y) = 0.13618 0.29638
# Poissons Ratio (z) = 0.29349 0.25576
#
# Static dielectric constant tensor:
#      x y z
#    x 2.037150 -0.032140 -0.010120 
#    y -0.032140 2.127320 -0.003750 
#    z -0.010120 -0.003750 2.136130 
# 
# From -- ./inp_files/577851.got.cif
#   From: 2010.05.17/outbox.cif.g08.bks.cpg/sg2_289_cif.got.tgz:577851.got - 2010.06.03 11:33:40.
