data_PCOD9054750
_publ_section_title
;
Structure prediction by ZEFSAII (Michael W. Deem and Ramdas Pophale) SiO2 
 PCOD9054750
Probable space group: P -1
;
_chemical_formula_sum "Si O2"
_cell_formula_units_Z 16
_cell_length_a 15.665266
_cell_length_b 10.351713
_cell_length_c 9.177651
_cell_angle_alpha 41.340694
_cell_angle_beta 125.985972
_cell_angle_gamma 104.407352
_cell_volume 742.155561
_symmetry_space_group_name_H-M "P -1"
_symmetry_group_IT_number 2
_symmetry_cell_setting 'triclinic'
loop_
_space_group_symop_operation_xyz
x,y,z
-x,-y,-z
loop_
_atom_site_type_symbol
_atom_site_label
_atom_site_fract_x
_atom_site_fract_y
_atom_site_fract_z
Si Si1 0.517331 0.140452 0.528112
Si Si2 0.885674 0.032423 0.774565
Si Si3 0.712600 0.500698 0.969203
Si Si4 0.870496 0.631083 0.225974
Si Si5 0.825350 0.549808 0.745824
Si Si6 0.316509 0.251349 0.833519
Si Si7 0.658353 0.368588 0.305782
Si Si8 0.036717 0.142276 0.299944
O O1 0.580004 0.276527 0.395101
O O2 0.500000 0.000000 0.500000
O O3 0.394488 0.284218 0.339007
O O4 0.364217 0.401160 0.849004
O O5 0.786955 0.220570 0.590646
O O6 0.906267 0.022931 0.631217
O O7 0.857291 0.827481 0.947218
O O8 0.000000 0.000000 0.000000
O O9 0.806828 0.511255 0.169689
O O10 0.656384 0.365772 0.128019
O O11 0.776530 0.468822 0.907194
O O12 0.801530 0.718723 0.229122
O O13 0.000000 0.500000 0.500000
O O14 0.722234 0.652295 0.444605
O O15 0.880944 0.730019 0.677845
O O16 0.925631 0.338859 0.968950
O O17 0.402475 0.015032 0.139645
O O18 0.000000 0.000000 0.500000
#
# Coordination Sequence:
#
# PCOD9054750 Si02
#       8
#     2   2   2   2   2   2   2   2
#     4  12  23  45  71  99 130 171 234 282 340 388
#     4  12  22  37  64  98 134 169 223 272 328 397
#     4  11  23  43  68  96 130 180 222 279 329 402
#     4  11  21  38  62  96 128 167 220 272 328 383
#     4  11  25  45  63  97 142 177 226 267 343 408
#     4  11  25  42  68  96 136 177 216 286 334 395
#     4  11  23  42  69 101 128 169 230 280 335 392
#     4  11  25  42  64  95 140 188 216 267 336 411
#
# _framework density 21.558821999999999
#
# number of rings (size 3 to 8) (size 9 to 14) (size 15 to 20)
#    0.000    0.750    5.000    4.125    3.500    1.500 
#    0.000    0.625    0.000    0.000    0.000    0.000 
#    0.000    0.000    0.000    0.000    0.000    0.000 
#
# Total GULP energy -89245.561571 kJ/mol
# GULP energy per Si atom -5577.847598 kJ/mol
# Density = 2.150975 g / cm^3
# Si number density = 21.558822 Si / 1000 Ang^3
#
#
#
# Elastic Constant Matrix: (Units=GPa)
#
#
# Indices 1 2 3 4 5 6 
#
# 1 83.9066 20.8151 27.1155 -3.6682 0.2514 5.8797
# 2 20.8151 39.2195 8.5254 -5.8845 -3.0717 3.8409
# 3 27.1155 8.5254 114.5457 4.4455 10.7767 5.0186
# 4 -3.6682 -5.8845 4.4455 32.5704 -4.0100 -8.1248
# 5 0.2514 -3.0717 10.7767 -4.0100 59.9490 -6.9470
# 6 5.8797 3.8409 5.0186 -8.1248 -6.9470 25.2510
#
#
#
# Elastic Compliance Matrix: (Units=1/GPa)
#
#
# Indices 1 2 3 4 5 6 
#
# 1 0.014718 -0.006966 -0.002899 0.000364 -0.000069 -0.001693
# 2 -0.006966 0.030364 -0.000961 0.004912 0.002008 -0.000673
# 3 -0.002899 -0.000961 0.009934 -0.002815 -0.002324 -0.002698
# 4 0.000364 0.004912 -0.002815 0.035692 0.004589 0.012475
# 5 -0.000069 0.002008 -0.002324 0.004589 0.018283 0.006679
# 6 -0.001693 -0.000673 -0.002698 0.012475 0.006679 0.046487
#
#
# Mechanical properties :
#
#
# Convention : Reuss Voigt Hill
#
# Bulk Modulus (GPa) = 29.97294 38.95375 34.46334
# Shear Modulus (GPa) = 26.56040 35.63513 31.09777
#
# Velocity S-wave (km/s) = 3.51379 4.07003 3.80210
# Velocity P-wave (km/s) = 5.51320 6.33993 5.94096
#
# Compressibility (1/GPa) = 0.03336343
#
# Stress axis : x y z
#
# Youngs Moduli (GPa) = 67.94542 32.93413 100.66411
#
# Poissons Ratio (x) = 0.22942 0.29182
# Poissons Ratio (y) = 0.47331 0.09674
# Poissons Ratio (z) = 0.19697 0.03165
#
# Static dielectric constant tensor:
#      x y z
#    x 2.072890 0.105310 -0.056270 
#    y 0.105310 1.826380 -0.014630 
#    z -0.056270 -0.014630 1.828080 
# 
# From -- ./inp_files/304606.got.cif
#   From: 2010.05.17/outbox.cif.g08.bks.cpg/sg2_153_cif.got.tgz:304606.got - 2010.06.03 11:33:40.
