data_PCOD9054355
_publ_section_title
;
Structure prediction by ZEFSAII (Michael W. Deem and Ramdas Pophale) SiO2 
 PCOD9054355
Probable space group: P -1
;
_chemical_formula_sum "Si O2"
_cell_formula_units_Z 14
_cell_length_a 11.798212
_cell_length_b 5.407324
_cell_length_c 13.333383
_cell_angle_alpha 101.210796
_cell_angle_beta 45.740009
_cell_angle_gamma 117.064635
_cell_volume 532.283957
_symmetry_space_group_name_H-M "P -1"
_symmetry_group_IT_number 2
_symmetry_cell_setting 'triclinic'
loop_
_space_group_symop_operation_xyz
x,y,z
-x,-y,-z
loop_
_atom_site_type_symbol
_atom_site_label
_atom_site_fract_x
_atom_site_fract_y
_atom_site_fract_z
Si Si1 0.156864 0.221344 0.063748
Si Si2 0.871789 0.372014 0.424701
Si Si3 0.413333 0.568059 0.658422
Si Si4 0.521756 0.689309 0.829375
Si Si5 0.868803 0.829409 0.316955
Si Si6 0.730299 0.356971 0.734335
Si Si7 0.144062 0.778647 0.874102
O O1 0.980757 0.249552 0.145336
O O2 0.324774 0.523373 0.984018
O O3 0.081143 0.007189 0.186626
O O4 0.187018 0.037163 0.943464
O O5 0.825636 0.565427 0.394649
O O6 0.797055 0.376690 0.580344
O O7 0.085873 0.511569 0.308150
O O8 0.798021 0.040713 0.420645
O O9 0.500000 0.500000 0.500000
O O10 0.502407 0.606947 0.715299
O O11 0.222014 0.292695 0.743322
O O12 0.333505 0.795415 0.725872
O O13 0.629887 0.550352 0.809044
O O14 0.607759 0.027936 0.810016
O O15 0.000000 0.500000 0.000000
#
# Coordination Sequence:
#
# PCOD9054355 Si02
#       7
#     2   2   2   2   2   2   2
#     4  11  24  40  67 102 138 196 239 279 348 450
#     4  11  25  47  71  96 134 188 242 292 355 425
#     4  12  24  40  69 110 145 175 230 300 362 421
#     4  12  25  43  70 103 141 182 232 295 361 419
#     4  12  25  43  70 103 141 182 232 295 361 419
#     4  11  25  47  71  96 134 188 242 292 355 425
#     4  11  20  43  65  93 149 205 236 267 349 449
#
# _framework density 26.301749000000001
#
# number of rings (size 3 to 8) (size 9 to 14) (size 15 to 20)
#    0.000    0.571    2.857    6.000    0.000    3.429 
#    0.000   11.429    0.000    0.000    0.000    0.000 
#    0.000    0.000    0.000    0.000    0.000    0.000 
#
# Total GULP energy -78316.350864 kJ/mol
# GULP energy per Si atom -5594.025062 kJ/mol
# Density = 2.624188 g / cm^3
# Si number density = 26.301749 Si / 1000 Ang^3
#
#
#
# Elastic Constant Matrix: (Units=GPa)
#
#
# Indices 1 2 3 4 5 6 
#
# 1 109.5869 44.4874 -3.8326 4.3891 -11.1525 -17.5673
# 2 44.4874 148.1681 5.0286 -16.3870 7.0242 -10.7997
# 3 -3.8326 5.0286 95.6268 9.7692 -9.9775 -21.7842
# 4 4.3891 -16.3870 9.7692 53.7790 -2.2426 -0.5493
# 5 -11.1525 7.0242 -9.9775 -2.2426 42.7710 3.9470
# 6 -17.5673 -10.7997 -21.7842 -0.5493 3.9470 44.3620
#
#
#
# Elastic Compliance Matrix: (Units=1/GPa)
#
#
# Indices 1 2 3 4 5 6 
#
# 1 0.011951 -0.003769 0.002358 -0.002349 0.003737 0.004611
# 2 -0.003769 0.008383 -0.001092 0.002959 -0.002484 0.000269
# 3 0.002358 -0.001092 0.012697 -0.002639 0.003008 0.006602
# 4 -0.002349 0.002959 -0.002639 0.020132 -0.000547 -0.001208
# 5 0.003737 -0.002484 0.003008 -0.000547 0.025428 0.000083
# 6 0.004611 0.000269 0.006602 -0.001208 0.000083 0.027653
#
#
# Mechanical properties :
#
#
# Convention : Reuss Voigt Hill
#
# Bulk Modulus (GPa) = 35.68469 49.41649 42.55059
# Shear Modulus (GPa) = 41.46195 48.69563 45.07879
#
# Velocity S-wave (km/s) = 3.97469 4.30748 4.14443
# Velocity P-wave (km/s) = 5.88737 6.60063 6.25417
#
# Compressibility (1/GPa) = 0.02802322
#
# Stress axis : x y z
#
# Youngs Moduli (GPa) = 83.67262 119.29518 78.76066
#
# Poissons Ratio (x) = 0.44965 -0.18568
# Poissons Ratio (y) = 0.31538 0.08601
# Poissons Ratio (z) = -0.19726 0.13027
#
# Static dielectric constant tensor:
#      x y z
#    x 2.112770 -0.073290 0.007670 
#    y -0.073290 2.141250 0.000690 
#    z 0.007670 0.000690 2.192840 
# 
# From -- ./inp_files/510418.got.cif
#   From: 2010.05.17/outbox.cif.g08.bks.cpg/sg2_256_cif.got.tgz:510418.got - 2010.06.03 11:33:40.
