data_PCOD9054838
_publ_section_title
;
Structure prediction by ZEFSAII (Michael W. Deem and Ramdas Pophale) SiO2 
 PCOD9054838
Probable space group: P -1
;
_chemical_formula_sum "Si O2"
_cell_formula_units_Z 16
_cell_length_a 10.794609
_cell_length_b 10.505989
_cell_length_c 9.584322
_cell_angle_alpha 75.113375
_cell_angle_beta 113.793017
_cell_angle_gamma 70.570891
_cell_volume 836.051478
_symmetry_space_group_name_H-M "P -1"
_symmetry_group_IT_number 2
_symmetry_cell_setting 'triclinic'
loop_
_space_group_symop_operation_xyz
x,y,z
-x,-y,-z
loop_
_atom_site_type_symbol
_atom_site_label
_atom_site_fract_x
_atom_site_fract_y
_atom_site_fract_z
Si Si1 0.440601 0.670911 0.383367
Si Si2 0.941479 0.676787 0.930618
Si Si3 0.439689 0.883712 0.544622
Si Si4 0.614690 0.849242 0.896922
Si Si5 0.461441 0.837789 0.095080
Si Si6 0.130843 0.021016 0.738245
Si Si7 0.926980 0.170041 0.857532
Si Si8 0.903784 0.889664 0.613028
O O1 0.500000 0.500000 0.500000
O O2 0.485111 0.700781 0.241542
O O3 0.253483 0.761647 0.273809
O O4 0.300262 0.914788 0.911801
O O5 0.779323 0.765082 0.917652
O O6 0.926465 0.744787 0.749599
O O7 0.000000 0.500000 0.000000
O O8 0.052428 0.722580 0.053360
O O9 0.498530 0.833002 0.742219
O O10 0.499878 0.747321 0.502673
O O11 0.500000 0.000000 0.500000
O O12 0.253598 0.973704 0.432981
O O13 0.559697 0.026018 0.850281
O O14 0.598650 0.794672 0.058426
O O15 0.027129 0.145685 0.770816
O O16 0.128168 0.101398 0.569117
O O17 0.045105 0.922905 0.695695
O O18 0.000000 0.000000 0.000000
#
# Coordination Sequence:
#
# PCOD9054838 Si02
#       8
#     2   2   2   2   2   2   2   2
#     4  12  26  41  63  96 132 168 205 265 329 379
#     4  12  25  42  63  94 134 169 204 258 331 386
#     4  12  21  39  65  91 121 164 215 257 308 380
#     4  11  23  39  67  91 123 166 216 262 310 378
#     4  11  21  42  66  95 121 165 218 267 310 376
#     4  11  21  38  68  93 117 158 228 267 298 363
#     4  12  21  44  70  89 122 175 226 255 303 387
#     4  11  22  39  64  95 120 163 214 265 307 370
#
# _framework density 19.137577
#
# number of rings (size 3 to 8) (size 9 to 14) (size 15 to 20)
#    0.000    0.500    8.750    0.000    1.750    0.000 
#    2.250    1.250    0.000    0.000    0.000    0.000 
#    0.000    0.000    0.000    0.000    0.000    0.000 
#
# Total GULP energy -89374.749719 kJ/mol
# GULP energy per Si atom -5585.921857 kJ/mol
# Density = 1.909402 g / cm^3
# Si number density = 19.137577 Si / 1000 Ang^3
#
#
#
# Elastic Constant Matrix: (Units=GPa)
#
#
# Indices 1 2 3 4 5 6 
#
# 1 80.4906 32.4912 41.5053 -4.1511 -23.9967 0.6487
# 2 32.4912 96.3257 61.2662 3.3476 -22.4733 20.4227
# 3 41.5053 61.2662 124.0125 3.8232 -29.9068 13.1591
# 4 -4.1511 3.3476 3.8232 24.2076 4.5732 -0.4654
# 5 -23.9967 -22.4733 -29.9068 4.5732 50.8383 5.7476
# 6 0.6487 20.4227 13.1591 -0.4654 5.7476 27.7063
#
#
#
# Elastic Compliance Matrix: (Units=1/GPa)
#
#
# Indices 1 2 3 4 5 6 
#
# 1 0.016841 -0.003312 -0.003500 0.003238 0.003799 0.002975
# 2 -0.003312 0.019065 -0.005598 -0.003562 0.005303 -0.012477
# 3 -0.003500 -0.005598 0.013492 -0.002853 0.004425 -0.003165
# 4 0.003238 -0.003562 -0.002853 0.044126 -0.006369 0.005967
# 5 0.003799 0.005303 0.004425 -0.006369 0.028350 -0.012087
# 6 0.002975 -0.012477 -0.003165 0.005967 -0.012087 0.049331
#
#
# Mechanical properties :
#
#
# Convention : Reuss Voigt Hill
#
# Bulk Modulus (GPa) = 40.68556 63.48382 52.08469
# Shear Modulus (GPa) = 24.48394 31.58817 28.03606
#
# Velocity S-wave (km/s) = 3.58070 4.06715 3.83165
# Velocity P-wave (km/s) = 6.19685 7.43639 6.84474
#
# Compressibility (1/GPa) = 0.02457875
#
# Stress axis : x y z
#
# Youngs Moduli (GPa) = 59.37953 52.45184 74.12067
#
# Poissons Ratio (x) = 0.17370 0.25941
# Poissons Ratio (y) = 0.19664 0.41492
# Poissons Ratio (z) = 0.20781 0.29362
#
# Static dielectric constant tensor:
#      x y z
#    x 1.717150 0.001380 -0.003940 
#    y 0.001380 1.627620 0.027730 
#    z -0.003940 0.027730 1.698990 
# 
# From -- ./inp_files/253107.got.cif
#   From: 2010.05.17/outbox.cif.g08.bks.cpg/sg2_127_cif.got.tgz:253107.got - 2010.06.03 11:33:40.
