data_PCOD9054067
_publ_section_title
;
Structure prediction by ZEFSAII (Michael W. Deem and Ramdas Pophale) SiO2 
 PCOD9054067
Probable space group: P -1
;
_chemical_formula_sum "Si O2"
_cell_formula_units_Z 16
_cell_length_a 8.813667
_cell_length_b 13.864086
_cell_length_c 13.920471
_cell_angle_alpha 30.566466
_cell_angle_beta 56.840601
_cell_angle_gamma 68.922340
_cell_volume 698.951633
_symmetry_space_group_name_H-M "P -1"
_symmetry_group_IT_number 2
_symmetry_cell_setting 'triclinic'
loop_
_space_group_symop_operation_xyz
x,y,z
-x,-y,-z
loop_
_atom_site_type_symbol
_atom_site_label
_atom_site_fract_x
_atom_site_fract_y
_atom_site_fract_z
Si Si1 0.359916 0.498630 0.839030
Si Si2 0.289658 0.478355 0.554902
Si Si3 0.153765 0.823781 0.318763
Si Si4 0.226868 0.234971 0.264073
Si Si5 0.093140 0.240900 0.999141
Si Si6 0.210958 0.845485 0.507603
Si Si7 0.693875 0.984099 0.397846
Si Si8 0.247829 0.300409 0.522281
O O1 0.302779 0.693157 0.659258
O O2 0.575289 0.522718 0.719143
O O3 0.330842 0.445199 0.006464
O O4 0.221775 0.330375 0.968307
O O5 0.500000 0.500000 0.500000
O O6 0.280812 0.695257 0.338576
O O7 0.233965 0.323591 0.620796
O O8 0.145894 0.400849 0.759204
O O9 0.208610 0.829616 0.407354
O O10 0.946078 0.705096 0.457911
O O11 0.152953 0.048246 0.105779
O O12 0.249575 0.177604 0.414466
O O13 0.008269 0.209687 0.341543
O O14 0.292311 0.066544 0.326969
O O15 0.876158 0.171177 0.169361
O O16 0.691904 0.891940 0.371569
O O17 0.500000 0.000000 0.500000
#
# Coordination Sequence:
#
# PCOD9054067 Si02
#       8
#     2   2   2   2   2   2   2   2
#     4  12  23  41  71 101 138 186 240 283 351 420
#     4  12  25  47  77 103 136 184 243 296 350 426
#     4  11  23  45  71  98 143 179 227 302 356 408
#     4  11  22  40  66  99 138 188 237 278 347 422
#     4  11  23  45  74 102 137 187 235 283 359 420
#     4  11  20  40  66  97 135 184 231 291 336 420
#     4  11  25  45  69 107 152 186 232 293 353 425
#     4  11  25  46  64 108 145 177 240 299 347 420
#
# _framework density 22.891427
#
# number of rings (size 3 to 8) (size 9 to 14) (size 15 to 20)
#    0.000    0.750    6.250    2.250    0.000    5.000 
#    0.000    0.000    0.000    0.000    0.000    0.000 
#    0.000    0.000    0.000    0.000    0.000    0.000 
#
# Total GULP energy -89335.601231 kJ/mol
# GULP energy per Si atom -5583.475077 kJ/mol
# Density = 2.283932 g / cm^3
# Si number density = 22.891427 Si / 1000 Ang^3
#
#
#
# Elastic Constant Matrix: (Units=GPa)
#
#
# Indices 1 2 3 4 5 6 
#
# 1 79.1381 17.4370 1.5750 -17.4914 -5.5712 -9.0027
# 2 17.4370 80.3278 -19.2382 -21.2631 -0.0972 10.1703
# 3 1.5750 -19.2382 44.1579 -3.1215 5.2732 1.1329
# 4 -17.4914 -21.2631 -3.1215 33.5275 0.9090 6.7178
# 5 -5.5712 -0.0972 5.2732 0.9090 43.1248 1.0376
# 6 -9.0027 10.1703 1.1329 6.7178 1.0376 43.5822
#
#
#
# Elastic Compliance Matrix: (Units=1/GPa)
#
#
# Indices 1 2 3 4 5 6 
#
# 1 0.014873 -0.002528 -0.001553 0.005393 0.001924 0.002826
# 2 -0.002528 0.020095 0.010221 0.013941 -0.001642 -0.007587
# 3 -0.001553 0.010221 0.028386 0.009378 -0.003731 -0.004801
# 4 0.005393 0.013941 0.009378 0.044223 -0.001130 -0.009173
# 5 0.001924 -0.001642 -0.003731 -0.001130 0.023902 0.000483
# 6 0.002826 -0.007587 -0.004801 -0.009173 0.000483 0.026827
#
#
# Mechanical properties :
#
#
# Convention : Reuss Voigt Hill
#
# Bulk Modulus (GPa) = 13.22174 22.57460 17.89817
# Shear Modulus (GPa) = 29.19938 37.63690 33.41814
#
# Velocity S-wave (km/s) = 3.57537 4.05921 3.82495
# Velocity P-wave (km/s) = 4.77836 5.64381 5.22902
#
# Compressibility (1/GPa) = 0.07563303
#
# Stress axis : x y z
#
# Youngs Moduli (GPa) = 67.23601 49.76444 35.22865
#
# Poissons Ratio (x) = 0.12582 0.05471
# Poissons Ratio (y) = 0.17000 -0.36008
# Poissons Ratio (z) = 0.10442 -0.50865
#
# Static dielectric constant tensor:
#      x y z
#    x 1.855760 0.004410 -0.007030 
#    y 0.004410 1.926770 -0.020470 
#    z -0.007030 -0.020470 1.867260 
# 
# From -- ./inp_files/503555.got.cif
#   From: 2010.05.17/outbox.cif.g08.bks.cpg/sg2_252_cif.got.tgz:503555.got - 2010.06.03 11:33:40.
