data_PCOD9054877
_publ_section_title
;
Structure prediction by ZEFSAII (Michael W. Deem and Ramdas Pophale) SiO2 
 PCOD9054877
Probable space group: P -1
;
_chemical_formula_sum "Si O2"
_cell_formula_units_Z 16
_cell_length_a 6.901198
_cell_length_b 7.266046
_cell_length_c 15.896943
_cell_angle_alpha 94.102979
_cell_angle_beta 110.046960
_cell_angle_gamma 69.170809
_cell_volume 698.753273
_symmetry_space_group_name_H-M "P -1"
_symmetry_group_IT_number 2
_symmetry_cell_setting 'triclinic'
loop_
_space_group_symop_operation_xyz
x,y,z
-x,-y,-z
loop_
_atom_site_type_symbol
_atom_site_label
_atom_site_fract_x
_atom_site_fract_y
_atom_site_fract_z
Si Si1 0.149235 0.362713 0.707013
Si Si2 0.662862 0.712335 0.961110
Si Si3 0.026982 0.016984 0.147813
Si Si4 0.678653 0.639194 0.445092
Si Si5 0.968600 0.274763 0.392492
Si Si6 0.176613 0.860421 0.339203
Si Si7 0.400685 0.090866 0.872650
Si Si8 0.144711 0.714901 0.015080
O O1 0.230514 0.288910 0.622886
O O2 0.099841 0.596240 0.699295
O O3 0.939033 0.302037 0.692889
O O4 0.339386 0.248005 0.795312
O O5 0.568068 0.868487 0.877916
O O6 0.668148 0.493424 0.946183
O O7 0.914274 0.695282 0.009569
O O8 0.540320 0.813190 0.031394
O O9 0.825107 0.950094 0.143720
O O10 0.903944 0.223674 0.087970
O O11 0.177096 0.965763 0.251892
O O12 0.160140 0.883235 0.085340
O O13 0.810448 0.689460 0.542403
O O14 0.418341 0.747998 0.409118
O O15 0.776536 0.401113 0.433595
O O16 0.026087 0.044822 0.379468
#
# Coordination Sequence:
#
# PCOD9054877 Si02
#       8
#     2   2   2   2   2   2   2   2
#     4   9  21  39  56  88 120 145 195 249 267 360
#     4   9  18  31  53  74 100 150 174 221 283 321
#     4   9  20  34  48  78 106 136 186 229 270 340
#     4   9  21  42  58  91 118 146 199 237 282 361
#     4   9  21  42  59  89 119 147 198 236 286 358
#     4  11  21  39  62  85 119 157 186 241 297 334
#     4   9  18  34  50  76 108 135 187 225 276 332
#     4   9  18  33  50  73 108 137 183 227 263 338
#
# _framework density 22.897925000000001
#
# number of rings (size 3 to 8) (size 9 to 14) (size 15 to 20)
#    0.750    2.000    0.000    0.375    3.500    1.500 
#    6.750    0.000    0.000    0.000    0.000    0.000 
#    0.000    0.000    0.000    0.000    0.000    0.000 
#
# Total GULP energy -89130.878492 kJ/mol
# GULP energy per Si atom -5570.679906 kJ/mol
# Density = 2.284581 g / cm^3
# Si number density = 22.897925 Si / 1000 Ang^3
#
#
#
# Elastic Constant Matrix: (Units=GPa)
#
#
# Indices 1 2 3 4 5 6 
#
# 1 33.0866 17.3861 -8.3954 -7.7409 2.8155 -5.5485
# 2 17.3861 102.8460 2.6069 -17.2453 16.2231 -18.1183
# 3 -8.3954 2.6069 49.6590 -20.4178 5.1926 -12.1001
# 4 -7.7409 -17.2453 -20.4178 26.6764 -6.9346 6.3796
# 5 2.8155 16.2231 5.1926 -6.9346 24.1286 -7.1953
# 6 -5.5485 -18.1183 -12.1001 6.3796 -7.1953 24.6999
#
#
#
# Elastic Compliance Matrix: (Units=1/GPa)
#
#
# Indices 1 2 3 4 5 6 
#
# 1 0.044381 -0.001946 0.020849 0.025175 0.002773 0.013061
# 2 -0.001946 0.013691 0.005202 0.008958 -0.005025 0.008376
# 3 0.020849 0.005202 0.044166 0.038760 0.001868 0.020669
# 4 0.025175 0.008958 0.038760 0.079516 0.009566 0.013463
# 5 0.002773 -0.005025 0.001868 0.009566 0.049795 0.009887
# 6 0.013061 0.008376 0.020669 0.013463 0.009887 0.059093
#
#
# Mechanical properties :
#
#
# Convention : Reuss Voigt Hill
#
# Bulk Modulus (GPa) = 6.64690 23.19855 14.92272
# Shear Modulus (GPa) = 17.08923 26.70057 21.89490
#
# Velocity S-wave (km/s) = 2.73485 3.41848 3.09560
# Velocity P-wave (km/s) = 3.58911 5.07293 4.39411
#
# Compressibility (1/GPa) = 0.15044615
#
# Stress axis : x y z
#
# Youngs Moduli (GPa) = 22.53233 73.04183 22.64171
#
# Poissons Ratio (x) = 0.14215 -0.47205
# Poissons Ratio (y) = 0.04385 -0.11778
# Poissons Ratio (z) = -0.46977 -0.37995
#
# Static dielectric constant tensor:
#      x y z
#    x 1.909530 -0.007360 0.000810 
#    y -0.007360 1.894850 -0.001900 
#    z 0.000810 -0.001900 1.879340 
# 
# From -- ./inp_files/554515.got.cif
#   From: 2010.05.17/outbox.cif.g08.bks.cpg/sg2_278_cif.got.tgz:554515.got - 2010.06.03 11:33:40.
