data_PCOD9054446
_publ_section_title
;
Structure prediction by ZEFSAII (Michael W. Deem and Ramdas Pophale) SiO2 
 PCOD9054446
Probable space group: P -1
;
_chemical_formula_sum "Si O2"
_cell_formula_units_Z 16
_cell_length_a 11.573367
_cell_length_b 9.788343
_cell_length_c 9.457212
_cell_angle_alpha 54.894102
_cell_angle_beta 108.937510
_cell_angle_gamma 121.888964
_cell_volume 743.849611
_symmetry_space_group_name_H-M "P -1"
_symmetry_group_IT_number 2
_symmetry_cell_setting 'triclinic'
loop_
_space_group_symop_operation_xyz
x,y,z
-x,-y,-z
loop_
_atom_site_type_symbol
_atom_site_label
_atom_site_fract_x
_atom_site_fract_y
_atom_site_fract_z
Si Si1 0.615580 0.899290 0.830408
Si Si2 0.668175 0.343711 0.020355
Si Si3 0.770924 0.307320 0.591753
Si Si4 0.561112 0.367997 0.667582
Si Si5 0.943256 0.668241 0.300148
Si Si6 0.178129 0.259632 0.051519
Si Si7 0.037708 0.042483 0.652515
Si Si8 0.306460 0.008043 0.863558
O O1 0.690421 0.778569 0.879596
O O2 0.671526 0.091311 0.650696
O O3 0.455082 0.771904 0.852885
O O4 0.664610 0.962253 0.974871
O O5 0.607401 0.411037 0.822968
O O6 0.781772 0.527962 0.022236
O O7 0.718283 0.197966 0.065504
O O8 0.686736 0.376256 0.621054
O O9 0.831028 0.456443 0.401014
O O10 0.911722 0.314346 0.703862
O O11 0.500000 0.500000 0.500000
O O12 0.443013 0.156687 0.752759
O O13 0.963604 0.769598 0.399602
O O14 0.890366 0.774988 0.108587
O O15 0.074343 0.123113 0.203212
O O16 0.183530 0.049970 0.740658
O O17 0.000000 0.000000 0.500000
#
# Coordination Sequence:
#
# PCOD9054446 Si02
#       8
#     2   2   2   2   2   2   2   2
#     4  11  20  46  70  97 134 187 225 277 336 418
#     4  11  25  42  67 107 136 178 235 278 339 407
#     4  11  22  41  74  95 135 179 233 276 338 412
#     4  11  23  41  71 101 136 183 225 287 341 397
#     4  11  25  45  69 102 135 183 227 277 351 408
#     4  12  26  45  71  98 142 184 219 285 347 404
#     4  12  27  43  72 102 137 177 235 287 334 409
#     4  11  22  43  71  98 140 178 232 276 345 402
#
# _framework density 21.509726000000001
#
# number of rings (size 3 to 8) (size 9 to 14) (size 15 to 20)
#    0.000    0.750    5.000    3.000    5.250    2.500 
#    0.000    0.625    0.000    0.000    0.000    0.000 
#    0.000    0.000    0.000    0.000    0.000    0.000 
#
# Total GULP energy -89491.200491 kJ/mol
# GULP energy per Si atom -5593.200031 kJ/mol
# Density = 2.146077 g / cm^3
# Si number density = 21.509726 Si / 1000 Ang^3
#
#
#
# Elastic Constant Matrix: (Units=GPa)
#
#
# Indices 1 2 3 4 5 6 
#
# 1 109.3793 4.3460 1.9656 -4.0600 -5.2858 -6.9528
# 2 4.3460 71.5102 9.9302 -10.7644 2.5402 -17.8117
# 3 1.9656 9.9302 60.1738 -16.1570 3.4514 -9.3435
# 4 -4.0600 -10.7644 -16.1570 28.3941 5.4166 -2.7298
# 5 -5.2858 2.5402 3.4514 5.4166 23.8182 -3.5595
# 6 -6.9528 -17.8117 -9.3435 -2.7298 -3.5595 19.2370
#
#
#
# Elastic Compliance Matrix: (Units=1/GPa)
#
#
# Indices 1 2 3 4 5 6 
#
# 1 0.009634 0.000945 0.000896 0.002358 0.002198 0.005534
# 2 0.000945 0.021208 0.003643 0.012867 -0.002040 0.023196
# 3 0.000896 0.003643 0.023568 0.017495 -0.005090 0.016685
# 4 0.002358 0.012867 0.017495 0.055250 -0.011929 0.026897
# 5 0.002198 -0.002040 -0.005090 -0.011929 0.046644 0.003372
# 6 0.005534 0.023196 0.016685 0.026897 0.003372 0.088005
#
#
# Mechanical properties :
#
#
# Convention : Reuss Voigt Hill
#
# Bulk Modulus (GPa) = 15.29555 30.39410 22.84483
# Shear Modulus (GPa) = 19.59747 29.27797 24.43772
#
# Velocity S-wave (km/s) = 3.02171 3.69338 3.37430
# Velocity P-wave (km/s) = 4.39326 5.68763 5.08183
#
# Compressibility (1/GPa) = 0.06537847
#
# Stress axis : x y z
#
# Youngs Moduli (GPa) = 103.79508 47.15286 42.42984
#
# Poissons Ratio (x) = -0.04458 -0.03801
# Poissons Ratio (y) = -0.09813 -0.15457
# Poissons Ratio (z) = -0.09297 -0.17178
#
# Static dielectric constant tensor:
#      x y z
#    x 1.750020 -0.004580 0.001230 
#    y -0.004580 1.767420 -0.017530 
#    z 0.001230 -0.017530 1.776540 
# 
# From -- ./inp_files/242592.got.cif
#   From: 2010.05.17/outbox.cif.g08.bks.cpg/sg2_122_cif.got.tgz:242592.got - 2010.06.03 11:33:40.
