data_PCOD9054022
_publ_section_title
;
Structure prediction by ZEFSAII (Michael W. Deem and Ramdas Pophale) SiO2 
 PCOD9054022
Probable space group: P -1
;
_chemical_formula_sum "Si O2"
_cell_formula_units_Z 16
_cell_length_a 28.072747
_cell_length_b 17.564709
_cell_length_c 12.014327
_cell_angle_alpha 157.517495
_cell_angle_beta 146.751699
_cell_angle_gamma 20.622612
_cell_volume 779.850096
_symmetry_space_group_name_H-M "P -1"
_symmetry_group_IT_number 2
_symmetry_cell_setting 'triclinic'
loop_
_space_group_symop_operation_xyz
x,y,z
-x,-y,-z
loop_
_atom_site_type_symbol
_atom_site_label
_atom_site_fract_x
_atom_site_fract_y
_atom_site_fract_z
Si Si1 0.610369 0.448504 0.705438
Si Si2 0.795094 0.262737 0.229370
Si Si3 0.648744 0.256214 0.120719
Si Si4 0.940980 0.257256 0.825425
Si Si5 0.360921 0.373719 0.218518
Si Si6 0.109086 0.244775 0.717162
Si Si7 0.569299 0.659693 0.155500
Si Si8 0.169688 0.361406 0.218323
O O1 0.500000 0.500000 0.500000
O O2 0.644226 0.551075 0.817632
O O3 0.754729 0.080335 0.513364
O O4 0.557270 0.633097 0.965710
O O5 0.715508 0.260277 0.156084
O O6 0.725559 0.370500 0.117708
O O7 0.770092 0.541965 0.581682
O O8 0.956633 0.937714 0.132134
O O9 0.629527 0.451278 0.445638
O O10 0.510782 0.378050 0.990763
O O11 0.745237 0.907655 0.886407
O O12 0.782005 0.483840 0.841636
O O13 0.947595 0.464460 0.066607
O O14 0.000000 0.000000 0.500000
O O15 0.500000 0.000000 0.000000
O O16 0.981474 0.326736 0.603424
O O17 0.154438 0.239826 0.921030
O O18 0.500000 0.000000 0.500000
#
# Coordination Sequence:
#
# PCOD9054022 Si02
#       8
#     2   2   2   2   2   2   2   2
#     4  12  25  45  71 100 140 189 242 303 359 428
#     4  12  25  43  71 103 143 187 245 292 355 441
#     4  12  23  46  71 105 140 188 243 296 359 430
#     4  12  22  40  70 111 146 188 242 298 359 436
#     4  12  25  41  73 112 145 182 246 310 362 416
#     4  11  21  38  68 104 141 178 234 297 361 413
#     4  12  28  48  72 101 146 200 240 292 376 442
#     4  11  20  39  72 105 138 183 230 295 358 429
#
# _framework density 20.516763999999998
#
# number of rings (size 3 to 8) (size 9 to 14) (size 15 to 20)
#    0.000    0.250    7.500    1.875    1.750    0.000 
#    0.000    3.125    0.000    0.000    0.000    0.000 
#    0.000    0.000    0.000    0.000    0.000    0.000 
#
# Total GULP energy -89387.149336 kJ/mol
# GULP energy per Si atom -5586.696833 kJ/mol
# Density = 2.047007 g / cm^3
# Si number density = 20.516764 Si / 1000 Ang^3
#
#
#
# Elastic Constant Matrix: (Units=GPa)
#
#
# Indices 1 2 3 4 5 6 
#
# 1 98.8325 21.0430 35.6067 4.4289 13.0862 -3.8173
# 2 21.0430 128.3589 30.8710 1.2555 -1.4925 0.9758
# 3 35.6067 30.8710 71.1587 5.6993 0.2297 -1.4065
# 4 4.4289 1.2555 5.6993 31.9022 2.4559 2.9254
# 5 13.0862 -1.4925 0.2297 2.4559 36.0733 1.8355
# 6 -3.8173 0.9758 -1.4065 2.9254 1.8355 42.0107
#
#
#
# Elastic Compliance Matrix: (Units=1/GPa)
#
#
# Indices 1 2 3 4 5 6 
#
# 1 0.013222 -0.000732 -0.006223 -0.000439 -0.004821 0.001251
# 2 -0.000732 0.008753 -0.003471 0.000368 0.000647 -0.000440
# 3 -0.006223 -0.003471 0.018875 -0.002559 0.002156 0.000231
# 4 -0.000439 0.000368 -0.002559 0.032205 -0.001885 -0.002294
# 5 -0.004821 0.000647 0.002156 -0.001885 0.029690 -0.001547
# 6 0.001251 -0.000440 0.000231 -0.002294 -0.001547 0.024162
#
#
# Mechanical properties :
#
#
# Convention : Reuss Voigt Hill
#
# Bulk Modulus (GPa) = 50.00585 52.59906 51.30246
# Shear Modulus (GPa) = 32.37770 36.05255 34.21513
#
# Velocity S-wave (km/s) = 3.97685 4.19647 4.08814
# Velocity P-wave (km/s) = 6.74635 7.01237 6.88064
#
# Compressibility (1/GPa) = 0.01999766
#
# Stress axis : x y z
#
# Youngs Moduli (GPa) = 75.62917 114.24937 52.97877
#
# Poissons Ratio (x) = 0.08366 0.32970
# Poissons Ratio (y) = 0.05538 0.18389
# Poissons Ratio (z) = 0.47065 0.39657
#
# Static dielectric constant tensor:
#      x y z
#    x 1.734990 -0.014380 0.024310 
#    y -0.014380 1.756170 -0.031800 
#    z 0.024310 -0.031800 1.687450 
# 
# From -- ./inp_files/477726.got.cif
#   From: 2010.05.17/outbox.cif.g08.bks.cpg/sg2_239_cif.got.tgz:477726.got - 2010.06.03 11:33:40.
