data_PCOD9054392
_publ_section_title
;
Structure prediction by ZEFSAII (Michael W. Deem and Ramdas Pophale) SiO2 
 PCOD9054392
Probable space group: P -1
;
_chemical_formula_sum "Si O2"
_cell_formula_units_Z 16
_cell_length_a 10.731797
_cell_length_b 6.588420
_cell_length_c 12.315356
_cell_angle_alpha 54.183164
_cell_angle_beta 95.092888
_cell_angle_gamma 98.005254
_cell_volume 699.186468
_symmetry_space_group_name_H-M "P -1"
_symmetry_group_IT_number 2
_symmetry_cell_setting 'triclinic'
loop_
_space_group_symop_operation_xyz
x,y,z
-x,-y,-z
loop_
_atom_site_type_symbol
_atom_site_label
_atom_site_fract_x
_atom_site_fract_y
_atom_site_fract_z
Si Si1 0.261885 0.227650 0.074425
Si Si2 0.900901 0.270439 0.860655
Si Si3 0.815571 0.272397 0.095211
Si Si4 0.585649 0.377352 0.630739
Si Si5 0.239830 0.274072 0.319182
Si Si6 0.182095 0.730807 0.467279
Si Si7 0.071488 0.212243 0.705139
Si Si8 0.522626 0.095263 0.093213
O O1 0.247379 0.244631 0.198541
O O2 0.410107 0.266925 0.050564
O O3 0.205679 0.955836 0.110607
O O4 0.187578 0.446216 0.948942
O O5 0.867191 0.540099 0.728148
O O6 0.023183 0.205373 0.827424
O O7 0.892613 0.294360 0.981383
O O8 0.667922 0.196937 0.083239
O O9 0.868589 0.045144 0.234285
O O10 0.500000 0.500000 0.500000
O O11 0.637322 0.575390 0.665571
O O12 0.705453 0.298137 0.598903
O O13 0.509525 0.136395 0.754614
O O14 0.214771 0.992768 0.451776
O O15 0.160921 0.468591 0.611863
O O16 0.052720 0.769097 0.382674
O O17 0.500000 0.000000 0.000000
#
# Coordination Sequence:
#
# PCOD9054392 Si02
#       8
#     2   2   2   2   2   2   2   2
#     4  11  21  43  69  99 137 177 224 280 343 410
#     4  11  21  44  66  95 138 176 223 286 334 394
#     4  11  25  38  67 103 130 178 228 275 345 398
#     4  12  25  45  70 101 141 172 230 291 337 408
#     4  11  20  43  73  98 127 186 227 264 355 404
#     4  11  24  46  68  91 137 185 223 276 345 402
#     4  11  23  46  65  96 141 175 229 286 324 405
#     4  12  21  44  71  98 141 179 218 288 348 406
#
# _framework density 22.883738000000001
#
# number of rings (size 3 to 8) (size 9 to 14) (size 15 to 20)
#    0.000    0.750    6.250    2.250    0.000    1.500 
#    2.250    1.250    0.000    0.000    0.000    0.000 
#    0.000    0.000    0.000    0.000    0.000    0.000 
#
# Total GULP energy -89495.762035 kJ/mol
# GULP energy per Si atom -5593.485127 kJ/mol
# Density = 2.283165 g / cm^3
# Si number density = 22.883738 Si / 1000 Ang^3
#
#
#
# Elastic Constant Matrix: (Units=GPa)
#
#
# Indices 1 2 3 4 5 6 
#
# 1 86.0168 23.2097 33.2255 -14.4276 -2.1955 -12.0638
# 2 23.2097 97.5124 21.1748 -26.8523 9.3605 -5.9796
# 3 33.2255 21.1748 81.2730 -35.7210 5.5880 -15.8003
# 4 -14.4276 -26.8523 -35.7210 39.8025 -1.0944 8.1232
# 5 -2.1955 9.3605 5.5880 -1.0944 42.8722 -11.3693
# 6 -12.0638 -5.9796 -15.8003 8.1232 -11.3693 37.5453
#
#
#
# Elastic Compliance Matrix: (Units=1/GPa)
#
#
# Indices 1 2 3 4 5 6 
#
# 1 0.014861 -0.003050 -0.006025 -0.002657 0.003003 0.003238
# 2 -0.003050 0.013560 0.002188 0.010144 -0.003445 -0.001137
# 3 -0.006025 0.002188 0.023745 0.019848 -0.002484 0.003359
# 4 -0.002657 0.010144 0.019848 0.049286 -0.004448 -0.002895
# 5 0.003003 -0.003445 -0.002484 -0.004448 0.026671 0.008410
# 6 0.003238 -0.001137 0.003359 -0.002895 0.008410 0.032080
#
#
# Mechanical properties :
#
#
# Convention : Reuss Voigt Hill
#
# Bulk Modulus (GPa) = 26.04763 46.66912 36.35838
# Shear Modulus (GPa) = 26.77004 36.52347 31.64676
#
# Velocity S-wave (km/s) = 3.42399 3.99939 3.72282
# Velocity P-wave (km/s) = 5.19989 6.46259 5.86532
#
# Compressibility (1/GPa) = 0.03839120
#
# Stress axis : x y z
#
# Youngs Moduli (GPa) = 67.28913 73.74525 42.11450
#
# Poissons Ratio (x) = 0.22493 0.25376
# Poissons Ratio (y) = 0.20524 -0.09215
# Poissons Ratio (z) = 0.40545 -0.16136
#
# Static dielectric constant tensor:
#      x y z
#    x 1.848590 -0.013500 0.026980 
#    y -0.013500 1.904710 -0.063920 
#    z 0.026980 -0.063920 1.924970 
# 
# From -- ./inp_files/409901.got.cif
#   From: 2010.05.17/outbox.cif.g08.bks.cpg/sg2_205_cif.got.tgz:409901.got - 2010.06.03 11:33:40.
