data_PCOD9054870
_publ_section_title
;
Structure prediction by ZEFSAII (Michael W. Deem and Ramdas Pophale) SiO2 
 PCOD9054870
Probable space group: P -1
;
_chemical_formula_sum "Si O2"
_cell_formula_units_Z 14
_cell_length_a 16.841195
_cell_length_b 14.174982
_cell_length_c 9.281586
_cell_angle_alpha 110.553031
_cell_angle_beta 127.196876
_cell_angle_gamma 27.349449
_cell_volume 698.436724
_symmetry_space_group_name_H-M "P -1"
_symmetry_group_IT_number 2
_symmetry_cell_setting 'triclinic'
loop_
_space_group_symop_operation_xyz
x,y,z
-x,-y,-z
loop_
_atom_site_type_symbol
_atom_site_label
_atom_site_fract_x
_atom_site_fract_y
_atom_site_fract_z
Si Si1 0.633010 0.483032 0.648078
Si Si2 0.850273 0.939876 0.051504
Si Si3 0.958356 0.688018 0.445305
Si Si4 0.397274 0.836452 0.821266
Si Si5 0.869874 0.515542 0.874292
Si Si6 0.576065 0.692576 0.437593
Si Si7 0.198873 0.394642 0.825770
O O1 0.500000 0.500000 0.500000
O O2 0.590277 0.585237 0.506792
O O3 0.916832 0.214415 0.826563
O O4 0.535853 0.632036 0.761357
O O5 0.730673 0.096910 0.146353
O O6 0.956919 0.734404 0.110910
O O7 0.661089 0.095229 0.801012
O O8 0.204534 0.491453 0.530851
O O9 0.013330 0.614422 0.632157
O O10 0.784808 0.938431 0.360227
O O11 0.844660 0.685568 0.265847
O O12 0.550393 0.786552 0.036641
O O13 0.633646 0.729621 0.634324
O O14 0.821286 0.546690 0.004389
O O15 0.000000 0.500000 0.000000
#
# Coordination Sequence:
#
# PCOD9054870 Si02
#       7
#     2   2   2   2   2   2   2
#     4  11  27  48  70  95 123 167 225 283 343 394
#     4  11  24  43  65  97 131 169 222 267 327 396
#     4  11  23  39  63 102 135 176 221 253 316 392
#     4  12  22  43  69  91 135 174 210 274 323 382
#     4  11  21  39  59  95 141 177 218 261 305 379
#     4  11  22  43  64  92 134 171 215 277 320 382
#     4  11  22  38  62 101 138 176 221 252 309 393
#
# _framework density 20.044765000000002
#
# number of rings (size 3 to 8) (size 9 to 14) (size 15 to 20)
#    0.000    0.857    8.571    0.429    2.000    1.714 
#    0.000    0.714    0.000    0.000    0.000    0.000 
#    0.000    0.000    0.000    0.000    0.000    0.000 
#
# Total GULP energy -78033.944193 kJ/mol
# GULP energy per Si atom -5573.853157 kJ/mol
# Density = 1.999914 g / cm^3
# Si number density = 20.044765 Si / 1000 Ang^3
#
#
#
# Elastic Constant Matrix: (Units=GPa)
#
#
# Indices 1 2 3 4 5 6 
#
# 1 84.3699 32.3721 57.6166 2.6427 27.7006 -9.4560
# 2 32.3721 76.8589 50.3024 0.8035 10.6832 -29.0304
# 3 57.6166 50.3024 164.2603 -11.3460 10.2425 -5.7833
# 4 2.6427 0.8035 -11.3460 25.4061 -7.0220 -2.6275
# 5 27.7006 10.6832 10.2425 -7.0220 50.6987 3.4411
# 6 -9.4560 -29.0304 -5.7833 -2.6275 3.4411 23.0710
#
#
#
# Elastic Compliance Matrix: (Units=1/GPa)
#
#
# Indices 1 2 3 4 5 6 
#
# 1 0.021953 0.000922 -0.007443 -0.008120 -0.012435 0.009221
# 2 0.000922 0.038764 -0.010127 -0.003779 -0.010389 0.047736
# 3 -0.007443 -0.010127 0.011431 0.006416 0.005665 -0.013042
# 4 -0.008120 -0.003779 0.006416 0.045792 0.010471 -0.002821
# 5 -0.012435 -0.010389 0.005665 0.010471 0.030377 -0.020088
# 6 0.009221 0.047736 -0.013042 -0.002821 -0.020088 0.106596
#
#
# Mechanical properties :
#
#
# Convention : Reuss Voigt Hill
#
# Bulk Modulus (GPa) = 25.73949 67.34127 46.54038
# Shear Modulus (GPa) = 16.60248 32.18169 24.39208
#
# Velocity S-wave (km/s) = 2.88109 4.01120 3.49217
# Velocity P-wave (km/s) = 4.89249 7.42438 6.28720
#
# Compressibility (1/GPa) = 0.03885080
#
# Stress axis : x y z
#
# Youngs Moduli (GPa) = 45.55260 25.79693 87.48429
#
# Poissons Ratio (x) = -0.02377 0.65116
# Poissons Ratio (y) = -0.04198 0.88593
# Poissons Ratio (z) = 0.33906 0.26124
#
# Static dielectric constant tensor:
#      x y z
#    x 1.936130 -0.087120 0.049280 
#    y -0.087120 1.785620 -0.011920 
#    z 0.049280 -0.011920 1.745200 
# 
# From -- ./inp_files/313599.got.cif
#   From: 2010.05.17/outbox.cif.g08.bks.cpg/sg2_157_cif.got.tgz:313599.got - 2010.06.03 11:33:40.
