data_PCOD9054805
_publ_section_title
;
Structure prediction by ZEFSAII (Michael W. Deem and Ramdas Pophale) SiO2 
 PCOD9054805
Probable space group: P -1
;
_chemical_formula_sum "Si O2"
_cell_formula_units_Z 16
_cell_length_a 23.417384
_cell_length_b 12.179079
_cell_length_c 11.869588
_cell_angle_alpha 34.903528
_cell_angle_beta 27.764607
_cell_angle_gamma 28.006832
_cell_volume 728.725296
_symmetry_space_group_name_H-M "P -1"
_symmetry_group_IT_number 2
_symmetry_cell_setting 'triclinic'
loop_
_space_group_symop_operation_xyz
x,y,z
-x,-y,-z
loop_
_atom_site_type_symbol
_atom_site_label
_atom_site_fract_x
_atom_site_fract_y
_atom_site_fract_z
Si Si1 0.819772 0.197251 0.144149
Si Si2 0.907550 0.620786 0.234882
Si Si3 0.586787 0.744642 0.623346
Si Si4 0.886844 0.558028 0.750854
Si Si5 0.529708 0.442110 0.845785
Si Si6 0.031113 0.122238 0.439396
Si Si7 0.198163 0.871306 0.020960
Si Si8 0.713004 0.102322 0.639536
O O1 0.775892 0.151207 0.139419
O O2 0.751789 0.169321 0.398743
O O3 0.799108 0.443592 0.976030
O O4 0.000000 0.000000 0.000000
O O5 0.737043 0.690212 0.467382
O O6 0.011150 0.353857 0.229289
O O7 0.997758 0.568513 0.238865
O O8 0.884480 0.855459 0.030474
O O9 0.628133 0.533068 0.641849
O O10 0.500000 0.000000 0.500000
O O11 0.479225 0.735117 0.908751
O O12 0.000000 0.500000 0.500000
O O13 0.762379 0.837728 0.754870
O O14 0.361995 0.688565 0.939965
O O15 0.557161 0.331711 0.766362
O O16 0.907657 0.202707 0.687412
O O17 0.000000 0.000000 0.500000
O O18 0.185111 0.944603 0.387809
#
# Coordination Sequence:
#
# PCOD9054805 Si02
#       8
#     2   2   2   2   2   2   2   2
#     4  12  21  41  67  94 126 170 218 269 326 382
#     4  11  21  38  66  94 119 172 219 258 320 389
#     4  11  23  42  67  91 131 178 214 259 323 401
#     4  11  21  39  67  96 125 167 219 272 324 380
#     4  11  26  43  64  96 134 173 216 266 333 387
#     4  11  23  39  64  95 130 165 220 275 322 382
#     4  12  23  42  68  93 129 175 217 265 329 393
#     4  11  24  41  64  97 132 168 218 277 319 388
#
# _framework density 21.956146
#
# number of rings (size 3 to 8) (size 9 to 14) (size 15 to 20)
#    0.000    0.750    6.250    1.500    1.750    2.000 
#    0.000    3.125    0.000    0.000    0.000    0.000 
#    0.000    0.000    0.000    0.000    0.000    0.000 
#
# Total GULP energy -89255.128800 kJ/mol
# GULP energy per Si atom -5578.445550 kJ/mol
# Density = 2.190617 g / cm^3
# Si number density = 21.956146 Si / 1000 Ang^3
#
#
#
# Elastic Constant Matrix: (Units=GPa)
#
#
# Indices 1 2 3 4 5 6 
#
# 1 55.5635 9.8071 9.9701 -9.0937 10.2968 8.5853
# 2 9.8071 102.6073 29.3845 -29.2158 21.1054 17.5453
# 3 9.9701 29.3845 51.7989 -24.3630 18.4472 3.4970
# 4 -9.0937 -29.2158 -24.3630 38.5418 2.5241 -1.9516
# 5 10.2968 21.1054 18.4472 2.5241 34.6191 2.7063
# 6 8.5853 17.5453 3.4970 -1.9516 2.7063 40.5273
#
#
#
# Elastic Compliance Matrix: (Units=1/GPa)
#
#
# Indices 1 2 3 4 5 6 
#
# 1 0.021000 0.002513 0.002163 0.008591 -0.009190 -0.004696
# 2 0.002513 0.017025 0.002079 0.015325 -0.012845 -0.006487
# 3 0.002163 0.002079 0.040858 0.029508 -0.025697 -0.001747
# 4 0.008591 0.015325 0.029508 0.060003 -0.031527 -0.006006
# 5 -0.009190 -0.012845 -0.025697 -0.031527 0.055088 0.004528
# 6 -0.004696 -0.006487 -0.001747 -0.006006 0.004528 0.028037
#
#
# Mechanical properties :
#
#
# Convention : Reuss Voigt Hill
#
# Bulk Modulus (GPa) = 10.82340 34.25479 22.53910
# Shear Modulus (GPa) = 20.89431 33.45818 27.17624
#
# Velocity S-wave (km/s) = 3.08821 3.90790 3.52199
# Velocity P-wave (km/s) = 4.20194 5.99980 5.17948
#
# Compressibility (1/GPa) = 0.09239238
#
# Stress axis : x y z
#
# Youngs Moduli (GPa) = 47.61806 58.73617 24.47504
#
# Poissons Ratio (x) = -0.14759 -0.05294
# Poissons Ratio (y) = -0.11965 -0.05087
# Poissons Ratio (z) = -0.10300 -0.12209
#
# Static dielectric constant tensor:
#      x y z
#    x 1.688530 0.050470 -0.046630 
#    y 0.050470 1.851240 0.023440 
#    z -0.046630 0.023440 1.792880 
# 
# From -- ./inp_files/474746.got.cif
#   From: 2010.05.17/outbox.cif.g08.bks.cpg/sg2_238_cif.got.tgz:474746.got - 2010.06.03 11:33:40.
