data_PCOD9054366
_publ_section_title
;
Structure prediction by ZEFSAII (Michael W. Deem and Ramdas Pophale) SiO2 
 PCOD9054366
Probable space group: P -1
;
_chemical_formula_sum "Si O2"
_cell_formula_units_Z 16
_cell_length_a 12.581141
_cell_length_b 19.733303
_cell_length_c 9.457605
_cell_angle_alpha 141.369026
_cell_angle_beta 145.836632
_cell_angle_gamma 38.127177
_cell_volume 754.415224
_symmetry_space_group_name_H-M "P -1"
_symmetry_group_IT_number 2
_symmetry_cell_setting 'triclinic'
loop_
_space_group_symop_operation_xyz
x,y,z
-x,-y,-z
loop_
_atom_site_type_symbol
_atom_site_label
_atom_site_fract_x
_atom_site_fract_y
_atom_site_fract_z
Si Si1 0.712252 0.515296 0.116068
Si Si2 0.066009 0.581122 0.507184
Si Si3 0.470905 0.788126 0.905242
Si Si4 0.573913 0.540373 0.501290
Si Si5 0.669983 0.973711 0.443473
Si Si6 0.038229 0.971672 0.658642
Si Si7 0.951038 0.848042 0.813557
Si Si8 0.562368 0.222988 0.818298
O O1 0.787769 0.456303 0.254480
O O2 0.559179 0.653297 0.190989
O O3 0.909401 0.517032 0.249984
O O4 0.593650 0.454635 0.793026
O O5 0.206577 0.546149 0.464470
O O6 0.937945 0.721829 0.603196
O O7 0.578222 0.667499 0.741399
O O8 0.230863 0.849079 0.699562
O O9 0.561435 0.886919 0.143414
O O10 0.490574 0.758620 0.044892
O O11 0.500000 0.500000 0.500000
O O12 0.799474 0.926510 0.653634
O O13 0.834263 0.968732 0.498452
O O14 0.524468 0.110879 0.534720
O O15 0.000000 0.000000 0.500000
O O16 0.083843 0.073727 0.957249
O O17 0.190932 0.815559 0.984545
#
# Coordination Sequence:
#
# PCOD9054366 Si02
#       8
#     2   2   2   2   2   2   2   2
#     4  11  25  45  69  98 134 181 227 279 330 406
#     4  11  26  45  68 102 130 183 231 270 341 401
#     4  12  24  42  68 101 133 176 223 275 338 391
#     4  12  26  44  66  98 139 176 221 281 336 395
#     4  11  24  43  72  99 130 177 228 277 320 408
#     4  11  26  43  64 102 138 173 212 283 348 387
#     4  11  21  43  73  96 132 175 227 277 325 402
#     4  11  20  43  70 100 130 173 229 272 330 393
#
# _framework density 21.208479000000001
#
# number of rings (size 3 to 8) (size 9 to 14) (size 15 to 20)
#    0.000    0.750    5.000    2.250    3.500    3.000 
#    2.250    0.000    0.000    0.000    0.000    0.000 
#    0.000    0.000    0.000    0.000    0.000    0.000 
#
# Total GULP energy -89564.646383 kJ/mol
# GULP energy per Si atom -5597.790399 kJ/mol
# Density = 2.116021 g / cm^3
# Si number density = 21.208479 Si / 1000 Ang^3
#
#
#
# Elastic Constant Matrix: (Units=GPa)
#
#
# Indices 1 2 3 4 5 6 
#
# 1 103.1303 22.7720 29.8184 -0.1780 -9.0127 2.4746
# 2 22.7720 101.5921 18.6730 8.7173 -21.4835 -0.4589
# 3 29.8184 18.6730 92.7465 19.6360 -1.1665 -2.0507
# 4 -0.1780 8.7173 19.6360 33.3543 -5.0279 -2.0064
# 5 -9.0127 -21.4835 -1.1665 -5.0279 22.9184 -3.2801
# 6 2.4746 -0.4589 -2.0507 -2.0064 -3.2801 28.9810
#
#
#
# Elastic Compliance Matrix: (Units=1/GPa)
#
#
# Indices 1 2 3 4 5 6 
#
# 1 0.011527 -0.001332 -0.004115 0.003354 0.003719 -0.000643
# 2 -0.001332 0.013011 -0.001922 -0.000425 0.011693 0.001478
# 3 -0.004115 -0.001922 0.014257 -0.008585 -0.004546 0.000221
# 4 0.003354 -0.000425 -0.008585 0.036666 0.008907 0.002646
# 5 0.003719 0.011693 -0.004546 0.008907 0.058754 0.006812
# 6 -0.000643 0.001478 0.000221 0.002646 0.006812 0.035554
#
#
# Mechanical properties :
#
#
# Convention : Reuss Voigt Hill
#
# Bulk Modulus (GPa) = 41.56710 48.88841 45.22775
# Shear Modulus (GPa) = 25.97068 32.13112 29.05090
#
# Velocity S-wave (km/s) = 3.50314 3.89654 3.70507
# Velocity P-wave (km/s) = 6.00038 6.58372 6.29881
#
# Compressibility (1/GPa) = 0.02405749
#
# Stress axis : x y z
#
# Youngs Moduli (GPa) = 86.75572 76.85922 70.13895
#
# Poissons Ratio (x) = 0.10234 0.28865
# Poissons Ratio (y) = 0.11552 0.13479
# Poissons Ratio (z) = 0.35703 0.14770
#
# Static dielectric constant tensor:
#      x y z
#    x 1.781370 -0.017210 0.053990 
#    y -0.017210 1.758420 0.005290 
#    z 0.053990 0.005290 1.767180 
# 
# From -- ./inp_files/280189.got.cif
#   From: 2010.05.17/outbox.cif.g08.bks.cpg/sg2_141_cif.got.tgz:280189.got - 2010.06.03 11:33:40.
