data_PCOD9054381
_publ_section_title
;
Structure prediction by ZEFSAII (Michael W. Deem and Ramdas Pophale) SiO2 
 PCOD9054381
Probable space group: P -1
;
_chemical_formula_sum "Si O2"
_cell_formula_units_Z 16
_cell_length_a 8.988263
_cell_length_b 14.574044
_cell_length_c 8.213957
_cell_angle_alpha 104.267400
_cell_angle_beta 93.470000
_cell_angle_gamma 43.291494
_cell_volume 703.530866
_symmetry_space_group_name_H-M "P -1"
_symmetry_group_IT_number 2
_symmetry_cell_setting 'triclinic'
loop_
_space_group_symop_operation_xyz
x,y,z
-x,-y,-z
loop_
_atom_site_type_symbol
_atom_site_label
_atom_site_fract_x
_atom_site_fract_y
_atom_site_fract_z
Si Si1 0.895437 0.648682 0.992485
Si Si2 0.958498 0.118331 0.966733
Si Si3 0.473122 0.904955 0.906537
Si Si4 0.094533 0.665070 0.314875
Si Si5 0.110132 0.580355 0.618487
Si Si6 0.596099 0.382486 0.267684
Si Si7 0.450495 0.276277 0.431230
Si Si8 0.818490 0.156133 0.621625
O O1 0.631110 0.773548 0.988923
O O2 0.998413 0.626728 0.810016
O O3 0.000000 0.500000 0.000000
O O4 0.960515 0.693458 0.158880
O O5 0.829445 0.156605 0.813089
O O6 0.801506 0.262870 0.113577
O O7 0.209670 0.029580 0.924555
O O8 0.000000 0.000000 0.000000
O O9 0.548929 0.822772 0.704882
O O10 0.500000 0.000000 0.000000
O O11 0.000280 0.666911 0.479418
O O12 0.349337 0.511295 0.238470
O O13 0.119223 0.765793 0.389598
O O14 0.319749 0.556585 0.628268
O O15 0.215263 0.430016 0.518244
O O16 0.575387 0.295958 0.334315
O O17 0.589135 0.219750 0.578319
O O18 0.000000 0.000000 0.500000
#
# Coordination Sequence:
#
# PCOD9054381 Si02
#       8
#     2   2   2   2   2   2   2   2
#     4  12  29  48  74 105 149 205 251 293 366 464
#     4  12  26  42  73 102 142 197 243 304 376 429
#     4  12  26  50  68 103 157 198 240 299 374 450
#     4  11  24  44  75 113 146 184 250 310 366 446
#     4  11  23  44  77 106 146 187 237 315 381 417
#     4  11  20  43  72 114 141 180 238 317 377 424
#     4  11  22  42  74 105 145 182 238 308 371 437
#     4  12  22  40  68 110 144 180 243 312 373 431
#
# _framework density 22.742429000000001
#
# number of rings (size 3 to 8) (size 9 to 14) (size 15 to 20)
#    0.000    0.500    5.000    4.500    1.750    3.000 
#    0.000    0.000    0.000    3.750    0.000    0.000 
#    0.000    0.000    0.000    0.000    0.000    0.000 
#
# Total GULP energy -89241.947590 kJ/mol
# GULP energy per Si atom -5577.621724 kJ/mol
# Density = 2.269067 g / cm^3
# Si number density = 22.742429 Si / 1000 Ang^3
#
#
#
# Elastic Constant Matrix: (Units=GPa)
#
#
# Indices 1 2 3 4 5 6 
#
# 1 64.8859 28.1539 59.2516 -7.8868 23.5528 0.9324
# 2 28.1539 118.7405 51.6651 -3.9515 11.5876 -3.2577
# 3 59.2516 51.6651 133.0850 -1.0858 17.4546 -4.9567
# 4 -7.8868 -3.9515 -1.0858 47.6091 4.7768 12.4963
# 5 23.5528 11.5876 17.4546 4.7768 41.1838 -3.0608
# 6 0.9324 -3.2577 -4.9567 12.4963 -3.0608 47.5907
#
#
#
# Elastic Compliance Matrix: (Units=1/GPa)
#
#
# Indices 1 2 3 4 5 6 
#
# 1 0.034307 -0.000828 -0.013089 0.008210 -0.015180 -0.005224
# 2 -0.000828 0.010253 -0.003469 0.000709 -0.001016 0.000105
# 3 -0.013089 -0.003469 0.014374 -0.003080 0.002913 0.002512
# 4 0.008210 0.000709 -0.003080 0.025017 -0.007045 -0.007455
# 5 -0.015180 -0.001016 0.002913 -0.007045 0.033166 0.004514
# 6 -0.005224 0.000105 0.002512 -0.007455 0.004514 0.023632
#
#
# Mechanical properties :
#
#
# Convention : Reuss Voigt Hill
#
# Bulk Modulus (GPa) = 41.38668 66.09475 53.74072
# Shear Modulus (GPa) = 27.23693 39.11944 33.17819
#
# Velocity S-wave (km/s) = 3.46443 4.15192 3.82366
# Velocity P-wave (km/s) = 5.85154 7.21872 6.57079
#
# Compressibility (1/GPa) = 0.02416236
#
# Stress axis : x y z
#
# Youngs Moduli (GPa) = 29.14898 97.53317 69.56767
#
# Poissons Ratio (x) = 0.08073 0.91058
# Poissons Ratio (y) = 0.02413 0.24132
# Poissons Ratio (z) = 0.38154 0.33833
#
# Static dielectric constant tensor:
#      x y z
#    x 1.882540 0.002740 -0.042480 
#    y 0.002740 1.848470 -0.026550 
#    z -0.042480 -0.026550 1.838700 
# 
# From -- ./inp_files/208358.got.cif
#   From: 2010.05.17/outbox.cif.g08.bks.cpg/sg2_105_cif.got.tgz:208358.got - 2010.06.03 11:33:40.
