data_PCOD9054454
_publ_section_title
;
Structure prediction by ZEFSAII (Michael W. Deem and Ramdas Pophale) SiO2 
 PCOD9054454
Probable space group: P -1
;
_chemical_formula_sum "Si O2"
_cell_formula_units_Z 16
_cell_length_a 15.607310
_cell_length_b 18.700767
_cell_length_c 12.383901
_cell_angle_alpha 151.315409
_cell_angle_beta 136.519815
_cell_angle_gamma 24.124175
_cell_volume 655.152214
_symmetry_space_group_name_H-M "P -1"
_symmetry_group_IT_number 2
_symmetry_cell_setting 'triclinic'
loop_
_space_group_symop_operation_xyz
x,y,z
-x,-y,-z
loop_
_atom_site_type_symbol
_atom_site_label
_atom_site_fract_x
_atom_site_fract_y
_atom_site_fract_z
Si Si1 0.320829 0.063475 0.864124
Si Si2 0.623476 0.172247 0.208809
Si Si3 0.123877 0.537909 0.219002
Si Si4 0.323775 0.373451 0.531452
Si Si5 0.764446 0.244476 0.929865
Si Si6 0.117220 0.167910 0.402074
Si Si7 0.920975 0.134545 0.490995
Si Si8 0.753915 0.826223 0.683316
O O1 0.224923 0.076917 0.897954
O O2 0.454931 0.809282 0.577469
O O3 0.183176 0.306468 0.980097
O O4 0.500000 0.000000 0.000000
O O5 0.359760 0.390945 0.277366
O O6 0.694133 0.269243 0.431071
O O7 0.697359 0.029603 0.971919
O O8 0.088581 0.676006 0.265373
O O9 0.916579 0.760593 0.408850
O O10 0.392924 0.160953 0.383983
O O11 0.128693 0.545368 0.491904
O O12 0.212988 0.610663 0.816428
O O13 0.825087 0.064842 0.841624
O O14 0.500000 0.500000 0.000000
O O15 0.913068 0.069668 0.727797
O O16 0.271754 0.101731 0.369837
O O17 0.000000 0.000000 0.500000
O O18 0.000000 0.500000 0.500000
#
# Coordination Sequence:
#
# PCOD9054454 Si02
#       8
#     2   2   2   2   2   2   2   2
#     4  10  17  35  64  97 123 151 193 250 311 359
#     4  11  20  38  63  95 122 153 202 251 304 358
#     4  10  20  39  64  94 123 154 202 249 307 362
#     4  11  19  38  67  92 123 155 199 251 306 360
#     4  11  27  44  60  85 125 169 206 245 303 363
#     4  10  20  38  64  93 122 155 201 253 301 360
#     4  11  26  43  61  87 125 165 208 250 296 360
#     4  10  19  33  61  96 123 148 194 256 301 350
#
# _framework density 24.421803000000001
#
# number of rings (size 3 to 8) (size 9 to 14) (size 15 to 20)
#    0.000    1.500    5.000    3.000    1.750    2.000 
#    0.000    1.250    5.500    0.000    0.000    0.000 
#    0.000    0.000    0.000    0.000    0.000    0.000 
#
# Total GULP energy -89176.668571 kJ/mol
# GULP energy per Si atom -5573.541786 kJ/mol
# Density = 2.436622 g / cm^3
# Si number density = 24.421803 Si / 1000 Ang^3
#
#
#
# Elastic Constant Matrix: (Units=GPa)
#
#
# Indices 1 2 3 4 5 6 
#
# 1 146.4742 36.5172 21.7740 -1.9430 13.7143 40.5882
# 2 36.5172 61.2389 -5.3256 2.8904 2.0873 20.3257
# 3 21.7740 -5.3256 63.1828 -10.4694 12.3789 7.4417
# 4 -1.9430 2.8904 -10.4694 19.0372 0.9701 4.5013
# 5 13.7143 2.0873 12.3789 0.9701 50.0291 7.7717
# 6 40.5882 20.3257 7.4417 4.5013 7.7717 50.1620
#
#
#
# Elastic Compliance Matrix: (Units=1/GPa)
#
#
# Indices 1 2 3 4 5 6 
#
# 1 0.010074 -0.004285 -0.002641 0.001701 -0.001028 -0.006017
# 2 -0.004285 0.021103 0.003846 -0.000197 0.000227 -0.005672
# 3 -0.002641 0.003846 0.020029 0.011021 -0.004181 -0.002734
# 4 0.001701 -0.000197 0.011021 0.060821 -0.003137 -0.007904
# 5 -0.001028 0.000227 -0.004181 -0.003137 0.021621 -0.001709
# 6 -0.006017 -0.005672 -0.002734 -0.007904 -0.001709 0.028482
#
#
# Mechanical properties :
#
#
# Convention : Reuss Voigt Hill
#
# Bulk Modulus (GPa) = 22.19915 41.86968 32.03442
# Shear Modulus (GPa) = 27.27680 38.37435 32.82557
#
# Velocity S-wave (km/s) = 3.34564 3.96828 3.67019
# Velocity P-wave (km/s) = 4.90245 6.17883 5.57727
#
# Compressibility (1/GPa) = 0.04504676
#
# Stress axis : x y z
#
# Youngs Moduli (GPa) = 99.26454 47.38569 49.92808
#
# Poissons Ratio (x) = 0.20306 0.13186
# Poissons Ratio (y) = 0.42537 -0.19205
# Poissons Ratio (z) = 0.26216 -0.18227
#
# Static dielectric constant tensor:
#      x y z
#    x 1.965670 -0.082330 0.113470 
#    y -0.082330 2.032330 0.095300 
#    z 0.113470 0.095300 1.860100 
# 
# From -- ./inp_files/457024.got.cif
#   From: 2010.05.17/outbox.cif.g08.bks.cpg/sg2_229_cif.got.tgz:457024.got - 2010.06.03 11:33:40.
