data_PCOD9054944
_publ_section_title
;
Structure prediction by ZEFSAII (Michael W. Deem and Ramdas Pophale) SiO2 
 PCOD9054944
Probable space group: P -1
;
_chemical_formula_sum "Si O2"
_cell_formula_units_Z 16
_cell_length_a 9.707200
_cell_length_b 8.535784
_cell_length_c 19.160554
_cell_angle_alpha 87.714354
_cell_angle_beta 29.965219
_cell_angle_gamma 93.303373
_cell_volume 778.711892
_symmetry_space_group_name_H-M "P -1"
_symmetry_group_IT_number 2
_symmetry_cell_setting 'triclinic'
loop_
_space_group_symop_operation_xyz
x,y,z
-x,-y,-z
loop_
_atom_site_type_symbol
_atom_site_label
_atom_site_fract_x
_atom_site_fract_y
_atom_site_fract_z
Si Si1 0.312550 0.091576 0.676486
Si Si2 0.835415 0.826862 0.598445
Si Si3 0.737201 0.244728 0.371099
Si Si4 0.401913 0.728008 0.333950
Si Si5 0.591842 0.597355 0.592729
Si Si6 0.334988 0.301763 0.182021
Si Si7 0.236625 0.640469 0.258498
Si Si8 0.705967 0.169692 0.913738
O O1 0.537472 0.205006 0.526776
O O2 0.416900 0.122760 0.709014
O O3 0.012462 0.138177 0.797513
O O4 0.304476 0.914750 0.654655
O O5 0.631859 0.741202 0.629201
O O6 0.705239 0.819811 0.732580
O O7 0.079328 0.721007 0.498445
O O8 0.000000 0.000000 0.500000
O O9 0.630313 0.377712 0.369155
O O10 0.053883 0.278470 0.258645
O O11 0.489032 0.567798 0.327512
O O12 0.390357 0.732549 0.255915
O O13 0.901556 0.606148 0.422545
O O14 0.356459 0.478410 0.199923
O O15 0.586302 0.271380 0.023853
O O16 0.284118 0.740059 0.165535
O O17 0.500000 0.000000 0.000000
#
# Coordination Sequence:
#
# PCOD9054944 Si02
#       8
#     2   2   2   2   2   2   2   2
#     4  11  23  43  63 100 129 171 215 275 325 377
#     4  11  22  37  67 102 133 169 212 270 330 377
#     4  11  23  38  69  98 132 161 224 274 318 376
#     4  11  22  41  68  97 133 163 222 273 323 387
#     4  11  21  39  67 103 130 164 217 276 325 379
#     4  12  24  45  67  98 133 173 216 264 327 399
#     4  11  23  44  65  96 132 177 213 263 329 391
#     4  12  27  45  66  95 133 177 218 263 330 395
#
# _framework density 20.546754
#
# number of rings (size 3 to 8) (size 9 to 14) (size 15 to 20)
#    0.000    0.750    6.250    1.875    7.000    1.000 
#    0.000    2.500    0.000    0.000    0.000    0.000 
#    0.000    0.000    0.000    0.000    0.000    0.000 
#
# Total GULP energy -89503.819091 kJ/mol
# GULP energy per Si atom -5593.988693 kJ/mol
# Density = 2.049999 g / cm^3
# Si number density = 20.546754 Si / 1000 Ang^3
#
#
#
# Elastic Constant Matrix: (Units=GPa)
#
#
# Indices 1 2 3 4 5 6 
#
# 1 93.7722 19.6910 40.5958 10.6705 21.8599 2.8111
# 2 19.6910 36.0051 15.4180 4.7175 8.4168 0.4813
# 3 40.5958 15.4180 87.8639 17.1237 12.6951 -9.3686
# 4 10.6705 4.7175 17.1237 23.0799 -3.4656 2.1118
# 5 21.8599 8.4168 12.6951 -3.4656 34.3120 0.7786
# 6 2.8111 0.4813 -9.3686 2.1118 0.7786 40.6476
#
#
#
# Elastic Compliance Matrix: (Units=1/GPa)
#
#
# Indices 1 2 3 4 5 6 
#
# 1 0.015994 -0.004305 -0.004994 -0.003784 -0.007626 -0.001863
# 2 -0.004305 0.032747 -0.002409 -0.003596 -0.004754 -0.000367
# 3 -0.004994 -0.002409 0.017383 -0.011142 -0.003899 0.005034
# 4 -0.003784 -0.003596 -0.011142 0.056568 0.013253 -0.005456
# 5 -0.007626 -0.004754 -0.003899 0.013253 0.037989 -0.001731
# 6 -0.001863 -0.000367 0.005034 -0.005456 -0.001731 0.026212
#
#
# Mechanical properties :
#
#
# Convention : Reuss Voigt Hill
#
# Bulk Modulus (GPa) = 23.41440 41.00562 32.21001
# Shear Modulus (GPa) = 22.26731 29.07034 25.66883
#
# Velocity S-wave (km/s) = 3.29559 3.76551 3.53836
# Velocity P-wave (km/s) = 5.08936 6.23747 5.69244
#
# Compressibility (1/GPa) = 0.04270875
#
# Stress axis : x y z
#
# Youngs Moduli (GPa) = 62.52211 30.53699 57.52898
#
# Poissons Ratio (x) = 0.13147 0.28728
# Poissons Ratio (y) = 0.26918 0.13856
# Poissons Ratio (z) = 0.31222 0.07355
#
# Static dielectric constant tensor:
#      x y z
#    x 1.739300 0.014030 0.018130 
#    y 0.014030 1.763090 0.005560 
#    z 0.018130 0.005560 1.706220 
# 
# From -- ./inp_files/175169.got.cif
#   From: 2010.05.17/outbox.cif.g08.bks.cpg/sg2_88_cif.got.tgz:175169.got - 2010.06.03 11:33:40.
