data_PCOD9054255
_publ_section_title
;
Structure prediction by ZEFSAII (Michael W. Deem and Ramdas Pophale) SiO2 
 PCOD9054255
Probable space group: P -1
;
_chemical_formula_sum "Si O2"
_cell_formula_units_Z 16
_cell_length_a 8.795492
_cell_length_b 14.365404
_cell_length_c 14.796522
_cell_angle_alpha 29.956064
_cell_angle_beta 113.422491
_cell_angle_gamma 94.585679
_cell_volume 699.526547
_symmetry_space_group_name_H-M "P -1"
_symmetry_group_IT_number 2
_symmetry_cell_setting 'triclinic'
loop_
_space_group_symop_operation_xyz
x,y,z
-x,-y,-z
loop_
_atom_site_type_symbol
_atom_site_label
_atom_site_fract_x
_atom_site_fract_y
_atom_site_fract_z
Si Si1 0.536059 0.679126 0.402191
Si Si2 0.655594 0.867558 0.730153
Si Si3 0.884959 0.340689 0.258082
Si Si4 0.902201 0.271791 0.115156
Si Si5 0.965650 0.106513 0.647181
Si Si6 0.885161 0.941604 0.950656
Si Si7 0.076401 0.435912 0.471688
Si Si8 0.313265 0.277220 0.414354
O O1 0.500000 0.500000 0.500000
O O2 0.684124 0.692773 0.360814
O O3 0.648063 0.618375 0.577057
O O4 0.333123 0.920391 0.171832
O O5 0.870799 0.817465 0.790369
O O6 0.500000 0.000000 0.500000
O O7 0.520767 0.038634 0.636636
O O8 0.726174 0.613531 0.985714
O O9 0.890419 0.243777 0.242122
O O10 0.831478 0.241464 0.412746
O O11 0.114997 0.273821 0.383483
O O12 0.854593 0.128878 0.159291
O O13 0.757189 0.539037 0.836140
O O14 0.022496 0.271683 0.557877
O O15 0.886755 0.041910 0.769150
O O16 0.981628 0.673979 0.195358
O O17 0.000000 0.000000 0.000000
O O18 0.000000 0.500000 0.500000
#
# Coordination Sequence:
#
# PCOD9054255 Si02
#       8
#     2   2   2   2   2   2   2   2
#     4  12  25  44  77 108 143 192 247 297 376 446
#     4  11  20  41  73 104 142 195 248 302 364 436
#     4  11  23  43  70 104 146 195 241 304 366 438
#     4  11  23  42  71 103 150 193 242 304 372 437
#     4  12  26  46  73 109 151 195 244 309 373 438
#     4  12  26  50  77 105 150 197 245 311 370 438
#     4  12  26  50  75 108 147 190 247 307 370 444
#     4  11  22  41  72 105 140 193 246 298 371 435
#
# _framework density 22.872613000000001
#
# number of rings (size 3 to 8) (size 9 to 14) (size 15 to 20)
#    0.000    0.500    6.250    2.625    3.500    0.500 
#    0.000    6.875    0.000    0.000    0.000    0.000 
#    0.000    0.000    0.000    0.000    0.000    0.000 
#
# Total GULP energy -89387.816064 kJ/mol
# GULP energy per Si atom -5586.738504 kJ/mol
# Density = 2.282055 g / cm^3
# Si number density = 22.872613 Si / 1000 Ang^3
#
#
#
# Elastic Constant Matrix: (Units=GPa)
#
#
# Indices 1 2 3 4 5 6 
#
# 1 89.1430 48.6687 64.1539 -10.9887 -1.7559 -29.0122
# 2 48.6687 140.7658 22.2857 -22.2423 2.3399 -37.7086
# 3 64.1539 22.2857 122.2495 -35.3349 -6.7106 -26.4628
# 4 -10.9887 -22.2423 -35.3349 48.7152 -3.7835 -5.6096
# 5 -1.7559 2.3399 -6.7106 -3.7835 46.7644 0.2712
# 6 -29.0122 -37.7086 -26.4628 -5.6096 0.2712 36.1772
#
#
#
# Elastic Compliance Matrix: (Units=1/GPa)
#
#
# Indices 1 2 3 4 5 6 
#
# 1 0.024096 -0.007121 -0.013379 -0.007509 -0.001272 0.000960
# 2 -0.007121 0.015765 0.009618 0.014989 0.001420 0.020070
# 3 -0.013379 0.009618 0.024397 0.021751 0.004158 0.020483
# 4 -0.007509 0.014989 0.021751 0.045636 0.005593 0.032547
# 5 -0.001272 0.001420 0.004158 0.005593 0.022290 0.004202
# 6 0.000960 0.020070 0.020483 0.032547 0.004202 0.069329
#
#
# Mechanical properties :
#
#
# Convention : Reuss Voigt Hill
#
# Bulk Modulus (GPa) = 23.53330 69.15277 46.34303
# Shear Modulus (GPa) = 21.05774 40.80135 30.92955
#
# Velocity S-wave (km/s) = 3.03752 4.22815 3.68129
# Velocity P-wave (km/s) = 4.75534 7.35771 6.19472
#
# Compressibility (1/GPa) = 0.04249298
#
# Stress axis : x y z
#
# Youngs Moduli (GPa) = 41.50000 63.43327 40.98896
#
# Poissons Ratio (x) = 0.45171 0.54841
# Poissons Ratio (y) = 0.29552 -0.39424
# Poissons Ratio (z) = 0.55525 -0.61011
#
# Static dielectric constant tensor:
#      x y z
#    x 1.893070 0.036430 -0.024170 
#    y 0.036430 1.921040 0.026910 
#    z -0.024170 0.026910 1.861430 
# 
# From -- ./inp_files/505091.got.cif
#   From: 2010.05.17/outbox.cif.g08.bks.cpg/sg2_253_cif.got.tgz:505091.got - 2010.06.03 11:33:40.
