data_PCOD9054652
_publ_section_title
;
Structure prediction by ZEFSAII (Michael W. Deem and Ramdas Pophale) SiO2 
 PCOD9054652
Probable space group: P -1
;
_chemical_formula_sum "Si O2"
_cell_formula_units_Z 12
_cell_length_a 11.913276
_cell_length_b 19.132635
_cell_length_c 14.378347
_cell_angle_alpha 16.525226
_cell_angle_beta 44.601058
_cell_angle_gamma 33.797029
_cell_volume 438.023495
_symmetry_space_group_name_H-M "P -1"
_symmetry_group_IT_number 2
_symmetry_cell_setting 'triclinic'
loop_
_space_group_symop_operation_xyz
x,y,z
-x,-y,-z
loop_
_atom_site_type_symbol
_atom_site_label
_atom_site_fract_x
_atom_site_fract_y
_atom_site_fract_z
Si Si1 0.764048 0.352492 0.818593
Si Si2 0.260446 0.316346 0.417831
Si Si3 0.117759 0.537878 0.668363
Si Si4 0.382101 0.407047 0.057332
Si Si5 0.498889 0.670836 0.375487
Si Si6 0.757744 0.446398 0.237026
O O1 0.567726 0.403754 0.921132
O O2 0.796849 0.548212 0.615955
O O3 0.678268 0.465680 0.619560
O O4 0.013833 0.926944 0.213825
O O5 0.311221 0.496312 0.092915
O O6 0.491014 0.873526 0.851398
O O7 0.053801 0.426184 0.339450
O O8 0.391562 0.207295 0.893881
O O9 0.103467 0.548337 0.775787
O O10 0.500000 0.000000 0.500000
O O11 0.181637 0.632366 0.806978
O O12 0.500000 0.500000 0.500000
O O13 0.270883 0.800986 0.393797
#
# Coordination Sequence:
#
# PCOD9054652 Si02
#       6
#     2   2   2   2   2   2
#     4  11  21  37  63  84 114 150 190 237 281 334
#     4  11  22  38  58  88 115 149 191 234 282 336
#     4  11  21  39  59  84 116 151 190 234 282 336
#     4   9  17  39  61  78 116 158 180 230 290 331
#     4   9  19  39  61  80 114 157 185 229 290 336
#     4   9  20  39  61  80 118 155 185 231 288 332
#
# _framework density 27.395790000000002
#
# number of rings (size 3 to 8) (size 9 to 14) (size 15 to 20)
#    0.000    2.000    5.000    1.000    0.000    1.333 
#    9.000    2.500    0.000    0.000    0.000    0.000 
#    0.000    0.000    0.000    0.000    0.000    0.000 
#
# Total GULP energy -66892.794649 kJ/mol
# GULP energy per Si atom -5574.399554 kJ/mol
# Density = 2.733344 g / cm^3
# Si number density = 27.395790 Si / 1000 Ang^3
#
#
#
# Elastic Constant Matrix: (Units=GPa)
#
#
# Indices 1 2 3 4 5 6 
#
# 1 225.2895 50.9427 41.7726 2.9885 32.3844 35.4241
# 2 50.9427 99.0283 31.1371 7.5347 11.2455 34.9404
# 3 41.7726 31.1371 57.4986 -9.3604 21.6655 24.7670
# 4 2.9885 7.5347 -9.3604 42.0653 6.3028 -1.1606
# 5 32.3844 11.2455 21.6655 6.3028 38.0647 23.0944
# 6 35.4241 34.9404 24.7670 -1.1606 23.0944 56.4497
#
#
#
# Elastic Compliance Matrix: (Units=1/GPa)
#
#
# Indices 1 2 3 4 5 6 
#
# 1 0.005695 -0.001877 -0.001828 -0.000034 -0.003016 -0.000377
# 2 -0.001877 0.015970 -0.007182 -0.005626 0.007102 -0.008577
# 3 -0.001828 -0.007182 0.030396 0.010277 -0.014307 -0.001679
# 4 -0.000034 -0.005626 0.010277 0.028922 -0.011570 0.004323
# 5 -0.003016 0.007102 -0.014307 -0.011570 0.046094 -0.015322
# 6 -0.000377 -0.008577 -0.001679 0.004323 -0.015322 0.030354
#
#
# Mechanical properties :
#
#
# Convention : Reuss Voigt Hill
#
# Bulk Modulus (GPa) = 33.01660 69.94682 51.48171
# Shear Modulus (GPa) = 26.41301 44.51354 35.46328
#
# Velocity S-wave (km/s) = 3.10841 4.03529 3.60179
# Velocity P-wave (km/s) = 4.99608 6.87741 6.01081
#
# Compressibility (1/GPa) = 0.03028780
#
# Stress axis : x y z
#
# Youngs Moduli (GPa) = 175.58095 62.61861 32.89917
#
# Poissons Ratio (x) = 0.11754 0.06013
# Poissons Ratio (y) = 0.32958 0.23627
# Poissons Ratio (z) = 0.32091 0.44971
#
# Static dielectric constant tensor:
#      x y z
#    x 2.130100 -0.073700 -0.046120 
#    y -0.073700 2.276700 -0.030170 
#    z -0.046120 -0.030170 2.209590 
# 
# From -- ./inp_files/186292.got.cif
#   From: 2010.05.17/outbox.cif.g08.bks.cpg/sg2_94_cif.got.tgz:186292.got - 2010.06.03 11:33:40.
