data_PCOD9054082
_publ_section_title
;
Structure prediction by ZEFSAII (Michael W. Deem and Ramdas Pophale) SiO2 
 PCOD9054082
Probable space group: P -1
;
_chemical_formula_sum "Si O2"
_cell_formula_units_Z 16
_cell_length_a 19.523785
_cell_length_b 9.048214
_cell_length_c 12.539422
_cell_angle_alpha 37.640387
_cell_angle_beta 34.818692
_cell_angle_gamma 35.539897
_cell_volume 682.107075
_symmetry_space_group_name_H-M "P -1"
_symmetry_group_IT_number 2
_symmetry_cell_setting 'triclinic'
loop_
_space_group_symop_operation_xyz
x,y,z
-x,-y,-z
loop_
_atom_site_type_symbol
_atom_site_label
_atom_site_fract_x
_atom_site_fract_y
_atom_site_fract_z
Si Si1 0.875627 0.305367 0.697885
Si Si2 0.161768 0.190327 0.066443
Si Si3 0.520773 0.199206 0.124993
Si Si4 0.660145 0.681689 0.915637
Si Si5 0.464913 0.588022 0.616047
Si Si6 0.756477 0.514107 0.362240
Si Si7 0.851749 0.895713 0.631900
Si Si8 0.297798 0.190200 0.529026
O O1 0.795653 0.555722 0.573034
O O2 0.031210 0.240313 0.528290
O O3 0.790932 0.415164 0.851949
O O4 0.875712 0.025621 0.820040
O O5 0.151238 0.453740 0.866675
O O6 0.325022 0.011128 0.969028
O O7 0.102783 0.243688 0.230617
O O8 0.448654 0.160251 0.342974
O O9 0.500000 0.500000 0.000000
O O10 0.437749 0.190001 0.133640
O O11 0.579152 0.601806 0.150632
O O12 0.720915 0.869751 0.777252
O O13 0.500000 0.500000 0.500000
O O14 0.604642 0.576131 0.487481
O O15 0.332241 0.887962 0.621072
O O16 0.750647 0.727846 0.336516
O O17 0.818358 0.210607 0.504809
#
# Coordination Sequence:
#
# PCOD9054082 Si02
#       8
#     2   2   2   2   2   2   2   2
#     4  11  25  48  71  95 143 191 236 285 331 415
#     4  12  23  43  71 104 137 181 234 290 346 403
#     4  11  20  40  68 100 132 173 227 283 351 408
#     4  11  25  44  72  98 138 191 224 284 358 411
#     4  12  26  43  68 107 142 171 227 298 359 416
#     4  12  26  41  75 105 138 183 226 294 351 416
#     4  12  27  48  65 103 145 187 239 280 338 411
#     4  11  23  42  69 100 139 176 226 289 346 409
#
# _framework density 23.456727999999998
#
# number of rings (size 3 to 8) (size 9 to 14) (size 15 to 20)
#    0.000    0.500    5.000    4.125    3.500    1.500 
#    2.250    0.625    0.000    0.000    0.000    0.000 
#    0.000    0.000    0.000    0.000    0.000    0.000 
#
# Total GULP energy -89509.407391 kJ/mol
# GULP energy per Si atom -5594.337962 kJ/mol
# Density = 2.340334 g / cm^3
# Si number density = 23.456728 Si / 1000 Ang^3
#
#
#
# Elastic Constant Matrix: (Units=GPa)
#
#
# Indices 1 2 3 4 5 6 
#
# 1 63.4224 22.0163 35.6360 -4.2772 2.6193 18.4281
# 2 22.0163 75.0782 25.6645 7.7155 -1.3345 8.9265
# 3 35.6360 25.6645 133.7006 -3.2617 3.6320 -2.7592
# 4 -4.2772 7.7155 -3.2617 32.0494 4.6595 -1.7643
# 5 2.6193 -1.3345 3.6320 4.6595 38.0212 9.3088
# 6 18.4281 8.9265 -2.7592 -1.7643 9.3088 31.4767
#
#
#
# Elastic Compliance Matrix: (Units=1/GPa)
#
#
# Indices 1 2 3 4 5 6 
#
# 1 0.024817 -0.003651 -0.006207 0.002471 0.002000 -0.014491
# 2 -0.003651 0.016248 -0.002422 -0.005231 0.002612 -0.003748
# 3 -0.006207 -0.002422 0.009815 0.001401 -0.002215 0.005914
# 4 0.002471 -0.005231 0.001401 0.033945 -0.005555 0.003705
# 5 0.002000 0.002612 -0.002215 -0.005555 0.029904 -0.011261
# 6 -0.014491 -0.003748 0.005914 0.003705 -0.011261 0.045372
#
#
# Mechanical properties :
#
#
# Convention : Reuss Voigt Hill
#
# Bulk Modulus (GPa) = 37.99362 48.75942 43.37652
# Shear Modulus (GPa) = 25.84873 32.90176 29.37525
#
# Velocity S-wave (km/s) = 3.32320 3.74927 3.54265
# Velocity P-wave (km/s) = 5.56394 6.29085 5.93853
#
# Compressibility (1/GPa) = 0.02632021
#
# Stress axis : x y z
#
# Youngs Moduli (GPa) = 40.29556 61.54783 101.88541
#
# Poissons Ratio (x) = 0.22472 0.63238
# Poissons Ratio (y) = 0.14712 0.24672
# Poissons Ratio (z) = 0.25010 0.14904
#
# Static dielectric constant tensor:
#      x y z
#    x 1.910940 -0.006050 0.019870 
#    y -0.006050 1.969080 -0.036010 
#    z 0.019870 -0.036010 1.907230 
# 
# From -- ./inp_files/461790.got.cif
#   From: 2010.05.17/outbox.cif.g08.bks.cpg/sg2_231_cif.got.tgz:461790.got - 2010.06.03 11:33:40.
