data_PCOD9054473
_publ_section_title
;
Structure prediction by ZEFSAII (Michael W. Deem and Ramdas Pophale) SiO2 
 PCOD9054473
Probable space group: P -1
;
_chemical_formula_sum "Si O2"
_cell_formula_units_Z 16
_cell_length_a 7.452407
_cell_length_b 23.799101
_cell_length_c 9.486409
_cell_angle_alpha 30.905226
_cell_angle_beta 123.811763
_cell_angle_gamma 127.864993
_cell_volume 680.382607
_symmetry_space_group_name_H-M "P -1"
_symmetry_group_IT_number 2
_symmetry_cell_setting 'triclinic'
loop_
_space_group_symop_operation_xyz
x,y,z
-x,-y,-z
loop_
_atom_site_type_symbol
_atom_site_label
_atom_site_fract_x
_atom_site_fract_y
_atom_site_fract_z
Si Si1 0.013386 0.563654 0.515521
Si Si2 0.505666 0.697902 0.459876
Si Si3 0.064965 0.622928 0.888670
Si Si4 0.987904 0.864462 0.372522
Si Si5 0.194997 0.877679 0.153613
Si Si6 0.212338 0.346067 0.563066
Si Si7 0.132810 0.061832 0.559061
Si Si8 0.490487 0.713733 0.720856
O O1 0.237379 0.677011 0.370373
O O2 0.000000 0.500000 0.500000
O O3 0.799050 0.595319 0.418430
O O4 0.043273 0.472313 0.839386
O O5 0.718094 0.816497 0.315105
O O6 0.569474 0.646066 0.453557
O O7 0.523463 0.648555 0.733144
O O8 0.326511 0.638924 0.928438
O O9 0.050795 0.745825 0.671876
O O10 0.932497 0.606411 0.717502
O O11 0.022347 0.931433 0.389190
O O12 0.144525 0.925241 0.180394
O O13 0.355121 0.799456 0.417584
O O14 0.946366 0.787196 0.200054
O O15 0.271714 0.978804 0.856566
O O16 0.282981 0.194751 0.316392
O O17 0.000000 0.000000 0.500000
#
# Coordination Sequence:
#
# PCOD9054473 Si02
#       8
#     2   2   2   2   2   2   2   2
#     4  12  23  36  56  87 122 150 185 242 298 338
#     4   9  18  37  59  83 111 150 199 230 277 339
#     4   9  19  39  59  79 111 151 199 240 271 345
#     4   8  19  37  58  80 108 152 197 232 276 349
#     4   9  17  36  61  78 112 157 200 231 274 355
#     4   9  20  37  61  86 108 151 205 234 272 348
#     4  11  21  33  55  92 117 145 187 247 301 337
#     4   9  18  38  61  82 111 158 202 231 281 353
#
# _framework density 23.516179000000001
#
# number of rings (size 3 to 8) (size 9 to 14) (size 15 to 20)
#    0.000    3.000    2.500    1.125    0.000    3.500 
#    6.750    2.500    0.000    0.000    0.000    0.000 
#    0.000    0.000    0.000    0.000    0.000    0.000 
#
# Total GULP energy -89124.863779 kJ/mol
# GULP energy per Si atom -5570.303986 kJ/mol
# Density = 2.346265 g / cm^3
# Si number density = 23.516179 Si / 1000 Ang^3
#
#
#
# Elastic Constant Matrix: (Units=GPa)
#
#
# Indices 1 2 3 4 5 6 
#
# 1 127.5697 47.7114 14.0202 6.8718 -24.4856 -26.5028
# 2 47.7114 125.9665 10.0857 6.4066 -16.2771 -41.3983
# 3 14.0202 10.0857 52.8106 -11.8722 -12.6548 -2.7169
# 4 6.8718 6.4066 -11.8722 22.6126 -0.8356 -10.0498
# 5 -24.4856 -16.2771 -12.6548 -0.8356 22.1173 -0.7400
# 6 -26.5028 -41.3983 -2.7169 -10.0498 -0.7400 45.6403
#
#
#
# Elastic Compliance Matrix: (Units=1/GPa)
#
#
# Indices 1 2 3 4 5 6 
#
# 1 0.011941 -0.000695 0.000541 0.000280 0.013249 0.006612
# 2 -0.000695 0.013496 0.001548 0.003293 0.010602 0.012827
# 3 0.000541 0.001548 0.027241 0.017724 0.018246 0.007538
# 4 0.000280 0.003293 0.017724 0.061051 0.015780 0.017904
# 5 0.013249 0.010602 0.018246 0.015780 0.079494 0.023160
# 6 0.006612 0.012827 0.007538 0.017904 0.023160 0.042151
#
#
# Mechanical properties :
#
#
# Convention : Reuss Voigt Hill
#
# Bulk Modulus (GPa) = 18.02967 49.99792 34.01380
# Shear Modulus (GPa) = 19.91431 33.70936 26.81184
#
# Velocity S-wave (km/s) = 2.91320 3.79021 3.38027
# Velocity P-wave (km/s) = 4.35881 6.36093 5.45255
#
# Compressibility (1/GPa) = 0.05546413
#
# Stress axis : x y z
#
# Youngs Moduli (GPa) = 83.74455 74.09569 36.70958
#
# Poissons Ratio (x) = 0.05152 -0.01985
# Poissons Ratio (y) = 0.05823 -0.05682
# Poissons Ratio (z) = -0.04528 -0.11468
#
# Static dielectric constant tensor:
#      x y z
#    x 2.009400 -0.034630 0.056700 
#    y -0.034630 1.938690 -0.053250 
#    z 0.056700 -0.053250 1.935590 
# 
# From -- ./inp_files/224814.got.cif
#   From: 2010.05.17/outbox.cif.g08.bks.cpg/sg2_113_cif.got.tgz:224814.got - 2010.06.03 11:33:40.
