data_PCOD9054439
_publ_section_title
;
Structure prediction by ZEFSAII (Michael W. Deem and Ramdas Pophale) SiO2 
 PCOD9054439
Probable space group: P -1
;
_chemical_formula_sum "Si O2"
_cell_formula_units_Z 15
_cell_length_a 10.074584
_cell_length_b 14.255486
_cell_length_c 9.267399
_cell_angle_alpha 124.324746
_cell_angle_beta 108.324469
_cell_angle_gamma 37.872235
_cell_volume 651.977181
_symmetry_space_group_name_H-M "P -1"
_symmetry_group_IT_number 2
_symmetry_cell_setting 'triclinic'
loop_
_space_group_symop_operation_xyz
x,y,z
-x,-y,-z
loop_
_atom_site_type_symbol
_atom_site_label
_atom_site_fract_x
_atom_site_fract_y
_atom_site_fract_z
Si Si1 0.633085 0.463259 0.245619
Si Si2 0.207327 0.283000 0.418506
Si Si3 0.997024 0.952388 0.618356
Si Si4 0.035318 0.174539 0.929557
Si Si5 0.500000 0.000000 0.000000
Si Si6 0.159142 0.616264 0.467813
Si Si7 0.287519 0.485197 0.103293
Si Si8 0.492630 0.240245 0.710087
O O1 0.658251 0.499808 0.444237
O O2 0.504833 0.426263 0.154504
O O3 0.514862 0.627605 0.243368
O O4 0.882459 0.294336 0.120880
O O5 0.372252 0.237301 0.550942
O O6 0.000000 0.500000 0.500000
O O7 0.076643 0.265853 0.440704
O O8 0.343629 0.156324 0.215990
O O9 0.753193 0.056540 0.659060
O O10 0.049183 0.029992 0.796396
O O11 0.000000 0.000000 0.500000
O O12 0.158882 0.744004 0.516012
O O13 0.895450 0.323175 0.879742
O O14 0.278391 0.073145 0.931093
O O15 0.203169 0.506913 0.252097
O O16 0.358817 0.335077 0.896837
#
# Coordination Sequence:
#
# PCOD9054439 Si02
#       8
#     2   2   2   2   1   2   2   2
#     4  11  20  45  74 104 142 189 255 303 359 446
#     4  12  26  51  72 104 153 198 247 309 372 441
#     4  12  23  43  69 105 143 186 238 306 369 430
#     4  11  21  44  73 102 144 196 239 302 378 437
#     4  12  26  48  78 108 146 198 248 306 376 444
#     4  12  26  43  71 112 147 186 253 302 366 452
#     4  11  22  43  74 106 140 190 248 304 367 448
#     4  11  22  44  75  97 139 200 240 298 374 434
#
# _framework density 23.006938000000002
#
# number of rings (size 3 to 8) (size 9 to 14) (size 15 to 20)
#    0.000    0.533    6.667    2.800    0.000    1.600 
#    4.800    0.000    0.000    0.000    0.000    0.000 
#    0.000    0.000    0.000    0.000    0.000    0.000 
#
# Total GULP energy -83669.373820 kJ/mol
# GULP energy per Si atom -5577.958255 kJ/mol
# Density = 2.295457 g / cm^3
# Si number density = 23.006938 Si / 1000 Ang^3
#
#
#
# Elastic Constant Matrix: (Units=GPa)
#
#
# Indices 1 2 3 4 5 6 
#
# 1 80.1584 49.9823 30.5785 1.6364 -10.6004 -30.8580
# 2 49.9823 69.8040 43.4426 4.1754 -9.1003 -37.0170
# 3 30.5785 43.4426 187.9706 -6.4652 -24.0810 -16.7058
# 4 1.6364 4.1754 -6.4652 31.4745 -14.7426 3.8636
# 5 -10.6004 -9.1003 -24.0810 -14.7426 30.2930 -3.4515
# 6 -30.8580 -37.0170 -16.7058 3.8636 -3.4515 50.5008
#
#
#
# Elastic Compliance Matrix: (Units=1/GPa)
#
#
# Indices 1 2 3 4 5 6 
#
# 1 0.023710 -0.014576 0.000894 0.003568 0.006855 0.004295
# 2 -0.014576 0.037775 -0.004894 -0.006978 0.000985 0.017765
# 3 0.000894 -0.004894 0.007406 0.005668 0.007430 -0.000517
# 4 0.003568 -0.006978 0.005668 0.046092 0.025768 -0.002825
# 5 0.006855 0.000985 0.007430 0.025768 0.055196 0.009169
# 6 0.004295 0.017765 -0.000517 -0.002825 0.009169 0.036119
#
#
# Mechanical properties :
#
#
# Convention : Reuss Voigt Hill
#
# Bulk Modulus (GPa) = 31.50621 65.10443 48.30532
# Shear Modulus (GPa) = 19.68260 36.71564 28.19912
#
# Velocity S-wave (km/s) = 2.92808 3.99914 3.50477
# Velocity P-wave (km/s) = 5.01552 7.04864 6.11714
#
# Compressibility (1/GPa) = 0.03173977
#
# Stress axis : x y z
#
# Youngs Moduli (GPa) = 42.17643 26.47246 135.01750
#
# Poissons Ratio (x) = 0.38586 -0.12074
# Poissons Ratio (y) = 0.61476 0.66080
# Poissons Ratio (z) = -0.03772 0.12956
#
# Static dielectric constant tensor:
#      x y z
#    x 1.918470 -0.000770 0.023680 
#    y -0.000770 1.864020 0.006500 
#    z 0.023680 0.006500 1.977820 
# 
# From -- ./inp_files/214579.got.cif
#   From: 2010.05.17/outbox.cif.g08.bks.cpg/sg2_108_cif.got.tgz:214579.got - 2010.06.03 11:33:40.
