data_PCOD9054354
_publ_section_title
;
Structure prediction by ZEFSAII (Michael W. Deem and Ramdas Pophale) SiO2 
 PCOD9054354
Probable space group: P -1
;
_chemical_formula_sum "Si O2"
_cell_formula_units_Z 14
_cell_length_a 8.753387
_cell_length_b 11.536607
_cell_length_c 14.765173
_cell_angle_alpha 150.009307
_cell_angle_beta 132.662573
_cell_angle_gamma 56.052137
_cell_volume 546.423385
_symmetry_space_group_name_H-M "P -1"
_symmetry_group_IT_number 2
_symmetry_cell_setting 'triclinic'
loop_
_space_group_symop_operation_xyz
x,y,z
-x,-y,-z
loop_
_atom_site_type_symbol
_atom_site_label
_atom_site_fract_x
_atom_site_fract_y
_atom_site_fract_z
Si Si1 0.186696 0.660882 0.144591
Si Si2 0.796494 0.332191 0.533073
Si Si3 0.961902 0.197192 0.010636
Si Si4 0.436887 0.066348 0.309864
Si Si5 0.365692 0.415722 0.676380
Si Si6 0.803207 0.862331 0.414324
Si Si7 0.723840 0.143888 0.176995
O O1 0.157089 0.695397 0.049747
O O2 0.394073 0.541566 0.171526
O O3 0.190627 0.904847 0.364552
O O4 0.000000 0.500000 0.000000
O O5 0.570118 0.263475 0.438884
O O6 0.790690 0.231234 0.362287
O O7 0.969024 0.198372 0.568222
O O8 0.880336 0.600515 0.748370
O O9 0.772456 0.067840 0.904322
O O10 0.106718 0.015246 0.901610
O O11 0.360766 0.198156 0.457651
O O12 0.610620 0.889560 0.287791
O O13 0.252265 0.342851 0.674168
O O14 0.289500 0.632666 0.740297
O O15 0.500000 0.000000 0.000000
#
# Coordination Sequence:
#
# PCOD9054354 Si02
#       7
#     2   2   2   2   2   2   2
#     4  11  20  42  79 109 139 192 253 311 373 439
#     4  12  28  47  77 118 151 196 261 313 375 459
#     4  12  25  50  79 111 150 201 256 313 382 445
#     4  11  23  46  76 115 156 191 250 328 379 442
#     4  11  23  45  79 104 150 205 248 307 377 458
#     4  11  22  47  73 113 154 191 254 314 381 450
#     4  12  28  52  77 109 156 208 252 307 383 455
#
# _framework density 25.621155999999999
#
# number of rings (size 3 to 8) (size 9 to 14) (size 15 to 20)
#    0.000    0.571    4.286    4.714    0.000    6.286 
#    0.000    3.571    0.000    0.000    0.000    0.000 
#    0.000    0.000    0.000    0.000    0.000    0.000 
#
# Total GULP energy -78585.248497 kJ/mol
# GULP energy per Si atom -5613.232036 kJ/mol
# Density = 2.556284 g / cm^3
# Si number density = 25.621156 Si / 1000 Ang^3
#
#
#
# Elastic Constant Matrix: (Units=GPa)
#
#
# Indices 1 2 3 4 5 6 
#
# 1 131.8804 18.9768 70.5998 -4.0422 34.4382 -12.0121
# 2 18.9768 97.8672 43.5794 4.6179 5.7995 -10.1068
# 3 70.5998 43.5794 161.4518 -5.9120 26.3183 -4.6957
# 4 -4.0422 4.6179 -5.9120 33.4579 3.9352 6.6221
# 5 34.4382 5.7995 26.3183 3.9352 59.5680 -1.5513
# 6 -12.0121 -10.1068 -4.6957 6.6221 -1.5513 37.2896
#
#
#
# Elastic Compliance Matrix: (Units=1/GPa)
#
#
# Indices 1 2 3 4 5 6 
#
# 1 0.011252 0.000190 -0.004105 0.000592 -0.004675 0.002860
# 2 0.000190 0.012199 -0.003471 -0.003027 0.000527 0.003490
# 3 -0.004105 -0.003471 0.009208 0.002096 -0.001536 -0.001540
# 4 0.000592 -0.003027 0.002096 0.032370 -0.003274 -0.006251
# 5 -0.004675 0.000527 -0.001536 -0.003274 0.020330 -0.000129
# 6 0.002860 0.003490 -0.001540 -0.006251 -0.000129 0.029595
#
#
# Mechanical properties :
#
#
# Convention : Reuss Voigt Hill
#
# Bulk Modulus (GPa) = 55.90452 73.05683 64.48067
# Shear Modulus (GPa) = 36.84931 43.26600 40.05765
#
# Velocity S-wave (km/s) = 3.79652 4.11382 3.95835
# Velocity P-wave (km/s) = 6.40977 7.15128 6.79065
#
# Compressibility (1/GPa) = 0.01788764
#
# Stress axis : x y z
#
# Youngs Moduli (GPa) = 88.87315 81.97600 108.60107
#
# Poissons Ratio (x) = -0.01562 0.44579
# Poissons Ratio (y) = -0.01693 0.37697
# Poissons Ratio (z) = 0.36481 0.28455
#
# Static dielectric constant tensor:
#      x y z
#    x 2.044820 -0.011900 0.038150 
#    y -0.011900 2.006110 0.004710 
#    z 0.038150 0.004710 2.009360 
# 
# From -- ./inp_files/501301.got.cif
#   From: 2010.05.17/outbox.cif.g08.bks.cpg/sg2_251_cif.got.tgz:501301.got - 2010.06.03 11:33:40.
