data_PCOD9054358
_publ_section_title
;
Structure prediction by ZEFSAII (Michael W. Deem and Ramdas Pophale) SiO2 
 PCOD9054358
Probable space group: P -1
;
_chemical_formula_sum "Si O2"
_cell_formula_units_Z 14
_cell_length_a 23.597876
_cell_length_b 9.599701
_cell_length_c 7.487966
_cell_angle_alpha 110.031434
_cell_angle_beta 136.370345
_cell_angle_gamma 36.464678
_cell_volume 564.559632
_symmetry_space_group_name_H-M "P -1"
_symmetry_group_IT_number 2
_symmetry_cell_setting 'triclinic'
loop_
_space_group_symop_operation_xyz
x,y,z
-x,-y,-z
loop_
_atom_site_type_symbol
_atom_site_label
_atom_site_fract_x
_atom_site_fract_y
_atom_site_fract_z
Si Si1 0.189503 0.721942 0.292460
Si Si2 0.615452 0.374295 0.871473
Si Si3 0.237363 0.267889 0.684637
Si Si4 0.344611 0.401657 0.139694
Si Si5 0.688120 0.787379 0.559445
Si Si6 0.312994 0.839411 0.620712
Si Si7 0.133803 0.199946 0.995265
O O1 0.258278 0.615088 0.200566
O O2 0.267694 0.451878 0.428845
O O3 0.241859 0.799468 0.522179
O O4 0.000000 0.000000 0.000000
O O5 0.500000 0.500000 0.500000
O O6 0.662242 0.472372 0.984408
O O7 0.493173 0.543920 0.829054
O O8 0.771394 0.035202 0.044196
O O9 0.339247 0.139070 0.680299
O O10 0.292685 0.021195 0.767473
O O11 0.263355 0.369045 0.911064
O O12 0.051944 0.546504 0.330702
O O13 0.532564 0.074498 0.442820
O O14 0.827829 0.685026 0.888037
O O15 0.206466 0.039217 0.283803
#
# Coordination Sequence:
#
# PCOD9054358 Si02
#       7
#     2   2   2   2   2   2   2
#     4  12  24  41  63  92 127 165 206 251 305 372
#     4  10  17  35  64  89 117 159 215 246 291 361
#     4  11  23  38  66  96 124 154 208 264 307 347
#     4  12  23  41  64  96 125 158 206 264 303 356
#     4  11  22  40  66  91 122 167 209 243 306 380
#     4  10  19  40  64  86 123 167 207 243 304 378
#     4  10  18  37  62  91 119 167 206 243 297 375
#
# _framework density 24.798092
#
# number of rings (size 3 to 8) (size 9 to 14) (size 15 to 20)
#    0.000    1.143    7.143    4.286    0.000    0.571 
#    0.000    3.571    0.000    0.000    0.000    0.000 
#    0.000    0.000    0.000    0.000    0.000    0.000 
#
# Total GULP energy -78419.126454 kJ/mol
# GULP energy per Si atom -5601.366175 kJ/mol
# Density = 2.474165 g / cm^3
# Si number density = 24.798092 Si / 1000 Ang^3
#
#
#
# Elastic Constant Matrix: (Units=GPa)
#
#
# Indices 1 2 3 4 5 6 
#
# 1 115.8559 51.7766 32.2708 -11.1973 15.5431 23.0590
# 2 51.7766 156.0734 24.2326 -1.7613 20.3059 23.3179
# 3 32.2708 24.2326 84.9250 1.2897 39.5708 -5.5029
# 4 -11.1973 -1.7613 1.2897 45.3409 -0.5272 21.5450
# 5 15.5431 20.3059 39.5708 -0.5272 34.9200 5.0068
# 6 23.0590 23.3179 -5.5029 21.5450 5.0068 61.3666
#
#
#
# Elastic Compliance Matrix: (Units=1/GPa)
#
#
# Indices 1 2 3 4 5 6 
#
# 1 0.013381 -0.002771 -0.007230 0.007025 0.005030 -0.007500
# 2 -0.002771 0.008020 0.000224 0.000472 -0.003409 -0.001874
# 3 -0.007230 0.000224 0.031073 -0.008330 -0.033841 0.011104
# 4 0.007025 0.000472 -0.008330 0.031420 0.008708 -0.015307
# 5 0.005030 -0.003409 -0.033841 0.008708 0.068621 -0.012285
# 6 -0.007500 -0.001874 0.011104 -0.015307 -0.012285 0.027198
#
#
# Mechanical properties :
#
#
# Convention : Reuss Voigt Hill
#
# Bulk Modulus (GPa) = 30.37720 63.71268 47.04494
# Shear Modulus (GPa) = 23.78227 44.89714 34.33970
#
# Velocity S-wave (km/s) = 3.10019 4.25962 3.72529
# Velocity P-wave (km/s) = 5.00912 7.06688 6.12504
#
# Compressibility (1/GPa) = 0.03291942
#
# Stress axis : x y z
#
# Youngs Moduli (GPa) = 74.73544 124.68116 32.18243
#
# Poissons Ratio (x) = 0.34549 0.23269
# Poissons Ratio (y) = 0.20709 -0.00721
# Poissons Ratio (z) = 0.54036 -0.02793
#
# Static dielectric constant tensor:
#      x y z
#    x 2.035070 0.012150 -0.097740 
#    y 0.012150 1.944550 0.029190 
#    z -0.097740 0.029190 1.999580 
# 
# From -- ./inp_files/242789.got.cif
#   From: 2010.05.17/outbox.cif.g08.bks.cpg/sg2_122_cif.got.tgz:242789.got - 2010.06.03 11:33:40.
