data_PCOD9054943
_publ_section_title
;
Structure prediction by ZEFSAII (Michael W. Deem and Ramdas Pophale) SiO2 
 PCOD9054943
Probable space group: P -1
;
_chemical_formula_sum "Si O2"
_cell_formula_units_Z 16
_cell_length_a 11.475592
_cell_length_b 10.193877
_cell_length_c 11.620044
_cell_angle_alpha 132.390247
_cell_angle_beta 122.826273
_cell_angle_gamma 38.873903
_cell_volume 629.655022
_symmetry_space_group_name_H-M "P -1"
_symmetry_group_IT_number 2
_symmetry_cell_setting 'triclinic'
loop_
_space_group_symop_operation_xyz
x,y,z
-x,-y,-z
loop_
_atom_site_type_symbol
_atom_site_label
_atom_site_fract_x
_atom_site_fract_y
_atom_site_fract_z
Si Si1 0.595976 0.674731 0.356542
Si Si2 0.201933 0.992507 0.405485
Si Si3 0.319558 0.329578 0.859383
Si Si4 0.377630 0.777017 0.890946
Si Si5 0.913204 0.517101 0.587595
Si Si6 0.636738 0.478292 0.653474
Si Si7 0.015290 0.544630 0.170585
Si Si8 0.968360 0.111620 0.925571
O O1 0.388304 0.919386 0.411682
O O2 0.672840 0.678756 0.278988
O O3 0.603433 0.453055 0.214104
O O4 0.711892 0.625414 0.503299
O O5 0.271916 0.772010 0.388382
O O6 0.044946 0.240616 0.526993
O O7 0.100224 0.997804 0.246018
O O8 0.208649 0.256294 0.806734
O O9 0.520979 0.197791 0.940487
O O10 0.195142 0.604644 0.996081
O O11 0.495575 0.702597 0.794844
O O12 0.160880 0.005443 0.906495
O O13 0.000000 0.500000 0.500000
O O14 0.926918 0.616076 0.772250
O O15 0.500000 0.500000 0.500000
O O16 0.817557 0.453945 0.726945
O O17 0.000000 0.500000 0.000000
O O18 0.000000 0.000000 0.000000
#
# Coordination Sequence:
#
# PCOD9054943 Si02
#       8
#     2   2   2   2   2   2   2   2
#     4  11  21  42  71 106 145 185 247 309 368 440
#     4  11  24  44  74 109 139 194 255 310 373 442
#     4  12  22  42  67 106 150 190 236 309 379 433
#     4  11  21  39  67 101 142 186 244 305 358 433
#     4  12  26  47  75 108 147 192 249 319 380 444
#     4  11  25  49  76 102 146 202 255 307 363 455
#     4  12  25  49  73 101 155 198 238 310 384 438
#     4  12  21  36  69 108 142 188 246 302 372 443
#
# _framework density 25.410741000000002
#
# number of rings (size 3 to 8) (size 9 to 14) (size 15 to 20)
#    0.000    0.500    7.500    2.625    0.000    1.000 
#    2.250    1.875    0.000    0.000    0.000    0.000 
#    0.000    0.000    0.000    0.000    0.000    0.000 
#
# Total GULP energy -89294.509450 kJ/mol
# GULP energy per Si atom -5580.906841 kJ/mol
# Density = 2.535290 g / cm^3
# Si number density = 25.410741 Si / 1000 Ang^3
#
#
#
# Elastic Constant Matrix: (Units=GPa)
#
#
# Indices 1 2 3 4 5 6 
#
# 1 143.5043 21.0797 28.9021 -13.6026 -4.0809 -33.5699
# 2 21.0797 89.9183 22.8433 -0.3513 -3.0899 -35.3488
# 3 28.9021 22.8433 160.2507 -40.1190 7.7564 -12.0584
# 4 -13.6026 -0.3513 -40.1190 56.4312 -9.2275 0.2199
# 5 -4.0809 -3.0899 7.7564 -9.2275 39.9390 -9.1806
# 6 -33.5699 -35.3488 -12.0584 0.2199 -9.1806 46.9844
#
#
#
# Elastic Compliance Matrix: (Units=1/GPa)
#
#
# Indices 1 2 3 4 5 6 
#
# 1 0.009117 0.001356 -0.000874 0.002132 0.003536 0.007991
# 2 0.001356 0.017094 -0.001880 -0.000126 0.005094 0.014343
# 3 -0.000874 -0.001880 0.008036 0.005398 -0.000575 -0.000114
# 4 0.002132 -0.000126 0.005398 0.022926 0.005318 0.003745
# 5 0.003536 0.005094 -0.000575 0.005318 0.029899 0.012028
# 6 0.007991 0.014343 -0.000114 0.003745 0.012028 0.040087
#
#
# Mechanical properties :
#
#
# Convention : Reuss Voigt Hill
#
# Bulk Modulus (GPa) = 31.79513 59.92483 45.85998
# Shear Modulus (GPa) = 35.60253 50.06080 42.83166
#
# Velocity S-wave (km/s) = 3.74716 4.44336 4.11003
# Velocity P-wave (km/s) = 5.59118 7.06811 6.37258
#
# Compressibility (1/GPa) = 0.03145136
#
# Stress axis : x y z
#
# Youngs Moduli (GPa) = 109.68344 58.49995 124.43491
#
# Poissons Ratio (x) = -0.07931 0.10872
# Poissons Ratio (y) = -0.14871 0.23396
# Poissons Ratio (z) = 0.09583 0.10999
#
# Static dielectric constant tensor:
#      x y z
#    x 2.185810 -0.023540 0.056630 
#    y -0.023540 1.994000 0.054070 
#    z 0.056630 0.054070 2.029930 
# 
# From -- ./inp_files/426531.got.cif
#   From: 2010.05.17/outbox.cif.g08.bks.cpg/sg2_214_cif.got.tgz:426531.got - 2010.06.03 11:33:40.
