data_PCOD9054496
_publ_section_title
;
Structure prediction by ZEFSAII (Michael W. Deem and Ramdas Pophale) SiO2 
 PCOD9054496
Probable space group: P -1
;
_chemical_formula_sum "Si O2"
_cell_formula_units_Z 16
_cell_length_a 11.449012
_cell_length_b 10.552840
_cell_length_c 16.719864
_cell_angle_alpha 46.568062
_cell_angle_beta 144.120161
_cell_angle_gamma 121.451644
_cell_volume 856.816965
_symmetry_space_group_name_H-M "P -1"
_symmetry_group_IT_number 2
_symmetry_cell_setting 'triclinic'
loop_
_space_group_symop_operation_xyz
x,y,z
-x,-y,-z
loop_
_atom_site_type_symbol
_atom_site_label
_atom_site_fract_x
_atom_site_fract_y
_atom_site_fract_z
Si Si1 0.391698 0.101810 0.283199
Si Si2 0.782560 0.056073 0.890998
Si Si3 0.791635 0.921814 0.135537
Si Si4 0.251363 0.814460 0.452359
Si Si5 0.225907 0.524099 0.303007
Si Si6 0.600344 0.523528 0.412296
Si Si7 0.453078 0.738616 0.094681
Si Si8 0.862830 0.536636 0.987002
O O1 0.371786 0.038957 0.208620
O O2 0.608263 0.155315 0.407044
O O3 0.230187 0.264117 0.143490
O O4 0.330149 0.941853 0.372827
O O5 0.751587 0.266252 0.775218
O O6 0.787138 0.988994 0.012972
O O7 0.000000 0.000000 0.000000
O O8 0.641587 0.771370 0.130392
O O9 0.016623 0.862931 0.311622
O O10 0.696067 0.086472 0.061860
O O11 0.292862 0.619835 0.524959
O O12 0.397856 0.452291 0.367490
O O13 0.269902 0.451556 0.447372
O O14 0.010976 0.495505 0.161120
O O15 0.536992 0.692173 0.250438
O O16 0.321423 0.582280 0.066132
O O17 0.000000 0.500000 0.000000
#
# Coordination Sequence:
#
# PCOD9054496 Si02
#       8
#     2   2   2   2   2   2   2   2
#     4  11  22  33  62  94 124 149 206 253 301 354
#     4  12  19  38  63  92 120 159 203 251 303 352
#     4  11  24  43  64  85 124 169 201 244 305 370
#     4  11  21  38  59  92 122 157 197 255 304 353
#     4  11  21  34  63  94 123 153 197 261 306 346
#     4  11  21  38  59  95 120 155 201 250 305 355
#     4  11  24  43  63  88 122 167 207 239 304 374
#     4  12  20  38  61  91 123 159 204 253 297 356
#
# _framework density 18.673767999999999
#
# number of rings (size 3 to 8) (size 9 to 14) (size 15 to 20)
#    0.000    0.750    7.500    0.750    0.000    1.500 
#    0.000    1.875    0.000    3.000    0.000    0.000 
#    0.000    0.000    0.000    0.000    0.000    0.000 
#
# Total GULP energy -89364.537965 kJ/mol
# GULP energy per Si atom -5585.283623 kJ/mol
# Density = 1.863127 g / cm^3
# Si number density = 18.673768 Si / 1000 Ang^3
#
#
#
# Elastic Constant Matrix: (Units=GPa)
#
#
# Indices 1 2 3 4 5 6 
#
# 1 49.6177 17.5167 26.0911 14.4315 10.5309 6.3337
# 2 17.5167 51.2571 22.7775 9.1432 3.1894 1.8685
# 3 26.0911 22.7775 121.7042 24.6788 10.1881 -1.9636
# 4 14.4315 9.1432 24.6788 33.4422 -7.0256 -0.2792
# 5 10.5309 3.1894 10.1881 -7.0256 30.4007 -1.4400
# 6 6.3337 1.8685 -1.9636 -0.2792 -1.4400 21.3974
#
#
#
# Elastic Compliance Matrix: (Units=1/GPa)
#
#
# Indices 1 2 3 4 5 6 
#
# 1 0.031253 -0.006306 -0.001919 -0.013168 -0.013035 -0.009925
# 2 -0.006306 0.023137 -0.002691 -0.001563 0.000279 -0.000402
# 3 -0.001919 -0.002691 0.011047 -0.007505 -0.004422 0.001421
# 4 -0.013168 -0.001563 -0.007505 0.045369 0.017969 0.005147
# 5 -0.013035 0.000279 -0.004422 0.017969 0.043326 0.006579
# 6 -0.009925 -0.000402 0.001421 0.005147 0.006579 0.050348
#
#
# Mechanical properties :
#
#
# Convention : Reuss Voigt Hill
#
# Bulk Modulus (GPa) = 22.93334 39.48329 31.20831
# Shear Modulus (GPa) = 20.76021 27.46098 24.11059
#
# Velocity S-wave (km/s) = 3.33788 3.83895 3.59715
# Velocity P-wave (km/s) = 5.21181 6.39060 5.83107
#
# Compressibility (1/GPa) = 0.04360464
#
# Stress axis : x y z
#
# Youngs Moduli (GPa) = 31.99730 43.22167 90.52515
#
# Poissons Ratio (x) = 0.27256 0.17368
# Poissons Ratio (y) = 0.20177 0.24361
# Poissons Ratio (z) = 0.06139 0.11631
#
# Static dielectric constant tensor:
#      x y z
#    x 1.635480 -0.020530 0.003710 
#    y -0.020530 1.657890 -0.000450 
#    z 0.003710 -0.000450 1.675430 
# 
# From -- ./inp_files/281419.got.cif
#   From: 2010.05.17/outbox.cif.g08.bks.cpg/sg2_141_cif.got.tgz:281419.got - 2010.06.03 11:33:40.
