data_PCOD9054062
_publ_section_title
;
Structure prediction by ZEFSAII (Michael W. Deem and Ramdas Pophale) SiO2 
 PCOD9054062
Probable space group: P -1
;
_chemical_formula_sum "Si O2"
_cell_formula_units_Z 16
_cell_length_a 15.276650
_cell_length_b 9.507316
_cell_length_c 10.425630
_cell_angle_alpha 111.276358
_cell_angle_beta 154.780242
_cell_angle_gamma 69.225256
_cell_volume 599.887089
_symmetry_space_group_name_H-M "P -1"
_symmetry_group_IT_number 2
_symmetry_cell_setting 'triclinic'
loop_
_space_group_symop_operation_xyz
x,y,z
-x,-y,-z
loop_
_atom_site_type_symbol
_atom_site_label
_atom_site_fract_x
_atom_site_fract_y
_atom_site_fract_z
Si Si1 0.639822 0.355594 0.173265
Si Si2 0.329450 0.486293 0.466616
Si Si3 0.659795 0.897270 0.100978
Si Si4 0.262211 0.636565 0.151479
Si Si5 0.915201 0.659222 0.284322
Si Si6 0.084958 0.203183 0.126182
Si Si7 0.517195 0.074021 0.760511
Si Si8 0.052960 0.060419 0.776215
O O1 0.679404 0.392064 0.387864
O O2 0.850091 0.355154 0.370523
O O3 0.500000 0.500000 0.000000
O O4 0.541897 0.206676 0.942005
O O5 0.317893 0.583210 0.353089
O O6 0.534006 0.370985 0.670683
O O7 0.155592 0.368781 0.228544
O O8 0.742237 0.725793 0.175345
O O9 0.872080 0.980213 0.436659
O O10 0.500000 0.000000 0.000000
O O11 0.538513 0.913940 0.810100
O O12 0.142437 0.499212 0.892702
O O13 0.088082 0.772641 0.985327
O O14 0.910745 0.788314 0.209514
O O15 0.299644 0.113298 0.420734
O O16 0.994062 0.118178 0.857455
O O17 0.737220 0.048827 0.971415
#
# Coordination Sequence:
#
# PCOD9054062 Si02
#       8
#     2   2   2   2   2   2   2   2
#     4  12  21  39  68  94 130 173 219 271 338 394
#     4  11  24  39  67 100 132 181 220 272 334 400
#     4  11  25  42  66  99 127 175 229 279 324 399
#     4  11  24  41  65 103 133 173 229 277 330 403
#     4  11  20  40  66  90 126 171 225 269 324 396
#     4  12  23  44  68  97 139 176 218 277 347 391
#     4  11  23  43  64  98 129 173 227 272 338 403
#     4  11  22  43  71  88 127 186 222 266 333 401
#
# _framework density 26.671686000000001
#
# number of rings (size 3 to 8) (size 9 to 14) (size 15 to 20)
#    0.000    0.750    6.250    2.250    1.750    1.000 
#    4.500    1.875    0.000    0.000    0.000    0.000 
#    0.000    0.000    0.000    0.000    0.000    0.000 
#
# Total GULP energy -89383.360595 kJ/mol
# GULP energy per Si atom -5586.460037 kJ/mol
# Density = 2.661098 g / cm^3
# Si number density = 26.671686 Si / 1000 Ang^3
#
#
#
# Elastic Constant Matrix: (Units=GPa)
#
#
# Indices 1 2 3 4 5 6 
#
# 1 80.2677 36.2108 29.1027 -2.4640 19.3197 -36.4133
# 2 36.2108 103.6197 33.6530 -29.4234 15.4964 -21.6540
# 3 29.1027 33.6530 94.0100 -32.9143 11.4452 -10.1711
# 4 -2.4640 -29.4234 -32.9143 56.2450 -17.6767 17.7647
# 5 19.3197 15.4964 11.4452 -17.6767 39.2226 -10.0903
# 6 -36.4133 -21.6540 -10.1711 17.7647 -10.0903 44.8544
#
#
#
# Elastic Compliance Matrix: (Units=1/GPa)
#
#
# Indices 1 2 3 4 5 6 
#
# 1 0.035176 -0.006856 -0.011389 -0.022016 -0.013950 0.028245
# 2 -0.006856 0.013828 -0.000512 0.007499 0.000992 -0.001754
# 3 -0.011389 -0.000512 0.017670 0.014157 0.004439 -0.010094
# 4 -0.022016 0.007499 0.014157 0.041721 0.016411 -0.023874
# 5 -0.013950 0.000992 0.004439 0.016411 0.035953 -0.008251
# 6 0.028245 -0.001754 -0.010094 -0.023874 -0.008251 0.049687
#
#
# Mechanical properties :
#
#
# Convention : Reuss Voigt Hill
#
# Bulk Modulus (GPa) = 34.29534 52.87005 43.58269
# Shear Modulus (GPa) = 20.72379 39.99311 30.35845
#
# Velocity S-wave (km/s) = 2.79049 3.87649 3.37742
# Velocity P-wave (km/s) = 4.82376 6.31678 5.62007
#
# Compressibility (1/GPa) = 0.02915848
#
# Stress axis : x y z
#
# Youngs Moduli (GPa) = 28.42883 72.31873 56.59251
#
# Poissons Ratio (x) = 0.49585 0.64452
# Poissons Ratio (y) = 0.19492 0.02900
# Poissons Ratio (z) = 0.32377 0.03705
#
# Static dielectric constant tensor:
#      x y z
#    x 2.607830 -0.007240 0.180940 
#    y -0.007240 2.364290 -0.127600 
#    z 0.180940 -0.127600 2.177140 
# 
# From -- ./inp_files/457623.got.cif
#   From: 2010.05.17/outbox.cif.g08.bks.cpg/sg2_229_cif.got.tgz:457623.got - 2010.06.03 11:33:40.
