data_PCOD9054219
_publ_section_title
;
Structure prediction by ZEFSAII (Michael W. Deem and Ramdas Pophale) SiO2 
 PCOD9054219
Probable space group: P -1
;
_chemical_formula_sum "Si O2"
_cell_formula_units_Z 14
_cell_length_a 14.204049
_cell_length_b 5.760273
_cell_length_c 23.069501
_cell_angle_alpha 101.900226
_cell_angle_beta 21.188999
_cell_angle_gamma 91.254143
_cell_volume 585.007192
_symmetry_space_group_name_H-M "P -1"
_symmetry_group_IT_number 2
_symmetry_cell_setting 'triclinic'
loop_
_space_group_symop_operation_xyz
x,y,z
-x,-y,-z
loop_
_atom_site_type_symbol
_atom_site_label
_atom_site_fract_x
_atom_site_fract_y
_atom_site_fract_z
Si Si1 0.815510 0.737437 0.716758
Si Si2 0.262421 0.147251 0.418786
Si Si3 0.788125 0.257383 0.097199
Si Si4 0.533896 0.793545 0.147744
Si Si5 0.764183 0.066492 0.452294
Si Si6 0.129763 0.433002 0.832665
Si Si7 0.344942 0.661213 0.039249
O O1 0.953621 0.421897 0.603952
O O2 0.062790 0.780274 0.611996
O O3 0.686056 0.941605 0.748430
O O4 0.524585 0.814994 0.925854
O O5 0.488198 0.241763 0.267239
O O6 0.356902 0.868985 0.314750
O O7 0.290122 0.079996 0.467906
O O8 0.758201 0.499043 0.168016
O O9 0.944218 0.280949 0.950574
O O10 0.000000 0.000000 0.000000
O O11 0.599238 0.547581 0.054976
O O12 0.878356 0.706955 0.961473
O O13 0.448352 0.249640 0.611931
O O14 0.002575 0.850762 0.260538
O O15 0.500000 0.500000 0.000000
#
# Coordination Sequence:
#
# PCOD9054219 Si02
#       7
#     2   2   2   2   2   2   2
#     4  12  26  46  74 100 141 189 232 291 348 416
#     4  12  24  43  77 110 135 183 237 291 349 415
#     4  11  20  41  70 104 149 180 217 289 365 411
#     4  12  28  44  71 109 146 177 233 297 351 416
#     4  12  25  47  77 102 137 193 241 276 349 429
#     4  11  24  42  71 109 140 179 235 288 348 419
#     4  12  27  50  70  98 145 192 235 286 348 420
#
# _framework density 23.931329000000002
#
# number of rings (size 3 to 8) (size 9 to 14) (size 15 to 20)
#    0.000    0.286    7.143    1.714    2.000    2.857 
#    0.000    0.714    0.000    0.000    0.000    0.000 
#    0.000    0.000    0.000    0.000    0.000    0.000 
#
# Total GULP energy -78172.813569 kJ/mol
# GULP energy per Si atom -5583.772398 kJ/mol
# Density = 2.387686 g / cm^3
# Si number density = 23.931329 Si / 1000 Ang^3
#
#
#
# Elastic Constant Matrix: (Units=GPa)
#
#
# Indices 1 2 3 4 5 6 
#
# 1 80.5704 18.3996 35.1446 10.1122 -3.1752 17.1446
# 2 18.3996 49.6103 31.6595 6.2801 8.4786 9.6998
# 3 35.1446 31.6595 202.1405 28.1562 -4.2914 10.3836
# 4 10.1122 6.2801 28.1562 55.3154 -1.6554 -3.5081
# 5 -3.1752 8.4786 -4.2914 -1.6554 33.7962 10.6094
# 6 17.1446 9.6998 10.3836 -3.5081 10.6094 35.0081
#
#
#
# Elastic Compliance Matrix: (Units=1/GPa)
#
#
# Indices 1 2 3 4 5 6 
#
# 1 0.016096 -0.004088 -0.001344 -0.002160 0.004778 -0.008016
# 2 -0.004088 0.025340 -0.003164 -0.000853 -0.006495 -0.002198
# 3 -0.001344 -0.003164 0.006116 -0.002524 0.001644 -0.001030
# 4 -0.002160 -0.000853 -0.002524 0.020105 -0.000661 0.004258
# 5 0.004778 -0.006495 0.001644 -0.000661 0.035571 -0.011874
# 6 -0.008016 -0.002198 -0.001030 0.004258 -0.011874 0.037430
#
#
# Mechanical properties :
#
#
# Convention : Reuss Voigt Hill
#
# Bulk Modulus (GPa) = 32.93871 55.85874 44.39873
# Shear Modulus (GPa) = 29.76692 41.29843 35.53267
#
# Velocity S-wave (km/s) = 3.53065 4.15867 3.85746
# Velocity P-wave (km/s) = 5.51492 6.81552 6.19942
#
# Compressibility (1/GPa) = 0.03035941
#
# Stress axis : x y z
#
# Youngs Moduli (GPa) = 62.12536 39.46296 163.51166
#
# Poissons Ratio (x) = 0.16132 0.21981
# Poissons Ratio (y) = 0.25396 0.51740
# Poissons Ratio (z) = 0.08352 0.12487
#
# Static dielectric constant tensor:
#      x y z
#    x 1.979890 0.043180 -0.002630 
#    y 0.043180 2.014640 -0.017160 
#    z -0.002630 -0.017160 1.991530 
# 
# From -- ./inp_files/101089.got.cif
#   From: 2010.05.17/outbox.cif.g08.bks.cpg/sg2_51_cif.got.tgz:101089.got - 2010.06.03 11:33:40.
