data_PCOD9054155
_publ_section_title
;
Structure prediction by ZEFSAII (Michael W. Deem and Ramdas Pophale) SiO2 
 PCOD9054155
Probable space group: P -1
;
_chemical_formula_sum "Si O2"
_cell_formula_units_Z 14
_cell_length_a 11.277084
_cell_length_b 14.415673
_cell_length_c 14.303643
_cell_angle_alpha 40.530666
_cell_angle_beta 30.208481
_cell_angle_gamma 59.444191
_cell_volume 677.414126
_symmetry_space_group_name_H-M "P -1"
_symmetry_group_IT_number 2
_symmetry_cell_setting 'triclinic'
loop_
_space_group_symop_operation_xyz
x,y,z
-x,-y,-z
loop_
_atom_site_type_symbol
_atom_site_label
_atom_site_fract_x
_atom_site_fract_y
_atom_site_fract_z
Si Si1 0.669976 0.241031 0.213008
Si Si2 0.342200 0.611912 0.394121
Si Si3 0.822136 0.808079 0.775012
Si Si4 0.876515 0.039460 0.144008
Si Si5 0.147807 0.688717 0.771476
Si Si6 0.755607 0.571647 0.839574
Si Si7 0.379206 0.287016 0.672846
O O1 0.769434 0.174604 0.108101
O O2 0.854373 0.254647 0.165743
O O3 0.370172 0.113849 0.531263
O O4 0.691377 0.415727 0.064751
O O5 0.328333 0.433447 0.553179
O O6 0.457021 0.674598 0.371940
O O7 0.055818 0.608514 0.574150
O O8 0.552103 0.724157 0.086590
O O9 0.766987 0.718782 0.780393
O O10 0.016056 0.757999 0.737134
O O11 0.000000 0.000000 0.500000
O O12 0.119261 0.121281 0.986318
O O13 0.000000 0.000000 0.000000
O O14 0.448032 0.742864 0.500182
O O15 0.000000 0.500000 0.000000
O O16 0.500000 0.500000 0.000000
#
# Coordination Sequence:
#
# PCOD9054155 Si02
#       7
#     2   2   2   2   2   2   2
#     4  11  23  42  69 100 140 185 237 296 355 420
#     4  11  23  45  76  99 134 189 245 292 358 419
#     4  12  28  47  71 108 147 190 244 299 358 429
#     4  11  23  37  62 106 141 171 224 301 359 414
#     4  12  20  42  77 103 133 180 244 298 349 422
#     4  12  27  48  69 100 148 196 237 289 367 442
#     4  11  20  40  75 107 132 175 243 305 344 417
#
# _framework density 20.666826
#
# number of rings (size 3 to 8) (size 9 to 14) (size 15 to 20)
#    0.000    0.571    7.143    0.857    0.000    4.571 
#    2.571    0.000    0.000    0.000    0.000    0.000 
#    0.000    0.000    0.000    0.000    0.000    0.000 
#
# Total GULP energy -77958.503968 kJ/mol
# GULP energy per Si atom -5568.464569 kJ/mol
# Density = 2.061979 g / cm^3
# Si number density = 20.666826 Si / 1000 Ang^3
#
#
#
# Elastic Constant Matrix: (Units=GPa)
#
#
# Indices 1 2 3 4 5 6 
#
# 1 89.0809 50.4347 42.0754 5.6518 -23.4645 7.2442
# 2 50.4347 121.7019 64.4826 8.6616 -7.4482 17.1866
# 3 42.0754 64.4826 149.2163 -6.2114 -22.1428 4.1449
# 4 5.6518 8.6616 -6.2114 41.9246 -0.4682 1.6710
# 5 -23.4645 -7.4482 -22.1428 -0.4682 31.8087 0.0587
# 6 7.2442 17.1866 4.1449 1.6710 0.0587 25.6753
#
#
#
# Elastic Compliance Matrix: (Units=1/GPa)
#
#
# Indices 1 2 3 4 5 6 
#
# 1 0.018307 -0.006287 -0.000766 -0.001123 0.011484 -0.000786
# 2 -0.006287 0.014371 -0.005075 -0.002655 -0.004832 -0.006842
# 3 -0.000766 -0.005075 0.009940 0.002610 0.005201 0.001827
# 4 -0.001123 -0.002655 0.002610 0.024945 0.000734 0.000047
# 5 0.011484 -0.004832 0.005201 0.000734 0.042412 -0.000990
# 6 -0.000786 -0.006842 0.001827 0.000047 -0.000990 0.043454
#
#
# Mechanical properties :
#
#
# Convention : Reuss Voigt Hill
#
# Bulk Modulus (GPa) = 54.45839 74.88717 64.67278
# Shear Modulus (GPa) = 27.20253 33.41547 30.30900
#
# Velocity S-wave (km/s) = 3.63194 4.02539 3.83371
# Velocity P-wave (km/s) = 6.63293 7.61046 7.13845
#
# Compressibility (1/GPa) = 0.01836264
#
# Stress axis : x y z
#
# Youngs Moduli (GPa) = 54.62271 69.58671 100.59892
#
# Poissons Ratio (x) = 0.43750 0.07706
# Poissons Ratio (y) = 0.34342 0.51052
# Poissons Ratio (z) = 0.04184 0.35314
#
# Static dielectric constant tensor:
#      x y z
#    x 1.742140 -0.015780 0.028630 
#    y -0.015780 1.754450 0.061520 
#    z 0.028630 0.061520 1.727800 
# 
# From -- ./inp_files/522239.got.cif
#   From: 2010.05.17/outbox.cif.g08.bks.cpg/sg2_262_cif.got.tgz:522239.got - 2010.06.03 11:33:40.
