data_PCOD9054815
_publ_section_title
;
Structure prediction by ZEFSAII (Michael W. Deem and Ramdas Pophale) SiO2 
 PCOD9054815
Probable space group: P -1
;
_chemical_formula_sum "Si O2"
_cell_formula_units_Z 16
_cell_length_a 8.968838
_cell_length_b 18.279277
_cell_length_c 21.308795
_cell_angle_alpha 162.286431
_cell_angle_beta 139.834192
_cell_angle_gamma 38.373190
_cell_volume 657.040236
_symmetry_space_group_name_H-M "P -1"
_symmetry_group_IT_number 2
_symmetry_cell_setting 'triclinic'
loop_
_space_group_symop_operation_xyz
x,y,z
-x,-y,-z
loop_
_atom_site_type_symbol
_atom_site_label
_atom_site_fract_x
_atom_site_fract_y
_atom_site_fract_z
Si Si1 0.494271 0.745755 0.365346
Si Si2 0.272848 0.651325 0.091209
Si Si3 0.981383 0.891669 0.825892
Si Si4 0.021190 0.444303 0.568099
Si Si5 0.219471 0.147960 0.956456
Si Si6 0.205599 0.136104 0.686048
Si Si7 0.558751 0.782878 0.048186
Si Si8 0.685383 0.745342 0.797707
O O1 0.378811 0.780753 0.287545
O O2 0.780261 0.641975 0.383735
O O3 0.404548 0.983966 0.576175
O O4 0.407258 0.510384 0.169477
O O5 0.055597 0.835786 0.133843
O O6 0.500000 0.500000 0.000000
O O7 0.157421 0.431093 0.897484
O O8 0.962700 0.765496 0.650069
O O9 0.062582 0.670985 0.723343
O O10 0.717260 0.062083 0.900115
O O11 0.164762 0.056387 0.010261
O O12 0.769815 0.546625 0.607332
O O13 0.345600 0.191366 0.968546
O O14 0.404057 0.887469 0.824966
O O15 0.229624 0.336296 0.170745
O O16 0.293557 0.112656 0.766774
O O17 0.000000 0.000000 0.500000
#
# Coordination Sequence:
#
# PCOD9054815 Si02
#       8
#     2   2   2   2   2   2   2   2
#     4  11  22  39  69  96 130 176 227 276 331 401
#     4  11  26  46  67  98 139 183 227 280 343 410
#     4  11  22  38  68  98 131 175 223 274 335 407
#     4  11  21  38  67 101 127 168 228 269 332 407
#     4  11  24  42  67  95 135 175 221 277 345 397
#     4  11  24  42  66 100 134 177 233 282 335 396
#     4  11  21  41  67  99 135 176 225 284 335 403
#     4  11  23  43  65  95 134 177 215 279 340 402
#
# _framework density 24.351628000000002
#
# number of rings (size 3 to 8) (size 9 to 14) (size 15 to 20)
#    0.000    1.000    3.750    3.375    1.750    2.500 
#    0.000    7.500    0.000    0.000    0.000    0.000 
#    0.000    0.000    0.000    0.000    0.000    0.000 
#
# Total GULP energy -89551.481352 kJ/mol
# GULP energy per Si atom -5596.967585 kJ/mol
# Density = 2.429620 g / cm^3
# Si number density = 24.351628 Si / 1000 Ang^3
#
#
#
# Elastic Constant Matrix: (Units=GPa)
#
#
# Indices 1 2 3 4 5 6 
#
# 1 137.0663 45.7627 33.5516 -6.8856 -28.7307 0.5117
# 2 45.7627 144.5324 30.9232 -23.2325 -10.7608 -2.0278
# 3 33.5516 30.9232 133.9346 -12.2857 -8.2586 11.5504
# 4 -6.8856 -23.2325 -12.2857 23.3989 3.1439 -9.4633
# 5 -28.7307 -10.7608 -8.2586 3.1439 52.5341 -11.4212
# 6 0.5117 -2.0278 11.5504 -9.4633 -11.4212 40.5373
#
#
#
# Elastic Compliance Matrix: (Units=1/GPa)
#
#
# Indices 1 2 3 4 5 6 
#
# 1 0.009465 -0.002329 -0.001710 -0.000465 0.004783 0.001490
# 2 -0.002329 0.009466 -0.000973 0.009391 0.000635 0.003152
# 3 -0.001710 -0.000973 0.008474 0.002209 -0.000376 -0.002032
# 4 -0.000465 0.009391 0.002209 0.058515 0.001546 0.013942
# 5 0.004783 0.000635 -0.000376 0.001546 0.023142 0.006960
# 6 0.001490 0.003152 -0.002032 0.013942 0.006960 0.030602
#
#
# Mechanical properties :
#
#
# Convention : Reuss Voigt Hill
#
# Bulk Modulus (GPa) = 57.53288 70.66757 64.10022
# Shear Modulus (GPa) = 32.15811 43.64713 37.90262
#
# Velocity S-wave (km/s) = 3.63791 4.23823 3.94949
# Velocity P-wave (km/s) = 6.42830 7.28236 6.86862
#
# Compressibility (1/GPa) = 0.01738137
#
# Stress axis : x y z
#
# Youngs Moduli (GPa) = 105.64831 105.64625 118.00874
#
# Poissons Ratio (x) = 0.24604 0.20176
# Poissons Ratio (y) = 0.24604 0.11485
# Poissons Ratio (z) = 0.18062 0.10282
#
# Static dielectric constant tensor:
#      x y z
#    x 1.926810 0.008550 0.013450 
#    y 0.008550 1.981360 0.007520 
#    z 0.013450 0.007520 1.954200 
# 
# From -- ./inp_files/591277.got.cif
#   From: 2010.05.17/outbox.cif.g08.bks.cpg/sg2_296_cif.got.tgz:591277.got - 2010.06.03 11:33:40.
