data_PCOD9054832
_publ_section_title
;
Structure prediction by ZEFSAII (Michael W. Deem and Ramdas Pophale) SiO2 
 PCOD9054832
Probable space group: P -1
;
_chemical_formula_sum "Si O2"
_cell_formula_units_Z 16
_cell_length_a 18.133512
_cell_length_b 16.096272
_cell_length_c 11.423009
_cell_angle_alpha 148.310588
_cell_angle_beta 148.452323
_cell_angle_gamma 22.413987
_cell_volume 631.025663
_symmetry_space_group_name_H-M "P -1"
_symmetry_group_IT_number 2
_symmetry_cell_setting 'triclinic'
loop_
_space_group_symop_operation_xyz
x,y,z
-x,-y,-z
loop_
_atom_site_type_symbol
_atom_site_label
_atom_site_fract_x
_atom_site_fract_y
_atom_site_fract_z
Si Si1 0.624824 0.008455 0.841681
Si Si2 0.200716 0.499018 0.252655
Si Si3 0.876833 0.324605 0.402675
Si Si4 0.805265 0.050665 0.762789
Si Si5 0.276986 0.102085 0.907462
Si Si6 0.006445 0.053702 0.710038
Si Si7 0.387703 0.697762 0.430421
Si Si8 0.559104 0.725535 0.301246
O O1 0.641658 0.827364 0.581387
O O2 0.461841 0.244176 0.829938
O O3 0.581957 0.015522 0.928371
O O4 0.831512 0.941553 0.043056
O O5 0.186437 0.496357 0.371748
O O6 0.368884 0.498768 0.457956
O O7 0.964105 0.709004 0.152567
O O8 0.286915 0.260121 0.043137
O O9 0.696872 0.476380 0.245584
O O10 0.082738 0.181427 0.435431
O O11 0.921676 0.137991 0.325277
O O12 0.659612 0.250545 0.708996
O O13 0.667993 0.108769 0.753826
O O14 0.000000 0.000000 0.000000
O O15 0.317971 0.916564 0.662563
O O16 0.775597 0.288739 0.718608
O O17 0.000000 0.000000 0.500000
#
# Coordination Sequence:
#
# PCOD9054832 Si02
#       8
#     2   2   2   2   2   2   2   2
#     4  11  23  44  68  94 143 180 213 285 341 385
#     4  11  21  38  68 102 124 169 228 272 325 407
#     4  11  22  43  70  95 131 175 231 270 324 406
#     4  11  23  41  68 102 135 172 226 284 329 393
#     4  11  21  40  66  97 136 169 213 282 338 387
#     4  11  22  41  66  96 141 175 211 284 342 385
#     4  11  21  39  66  95 132 173 219 270 338 401
#     4  11  24  45  71  96 133 184 229 268 334 408
#
# _framework density 25.355544999999999
#
# number of rings (size 3 to 8) (size 9 to 14) (size 15 to 20)
#    0.000    1.000    6.250    1.875    0.000    2.000 
#    0.000    6.250    2.750    0.000    0.000    0.000 
#    0.000    0.000    0.000    0.000    0.000    0.000 
#
# Total GULP energy -89352.667493 kJ/mol
# GULP energy per Si atom -5584.541718 kJ/mol
# Density = 2.529783 g / cm^3
# Si number density = 25.355545 Si / 1000 Ang^3
#
#
#
# Elastic Constant Matrix: (Units=GPa)
#
#
# Indices 1 2 3 4 5 6 
#
# 1 85.1792 58.3082 28.5384 -22.1017 -9.1098 13.9879
# 2 58.3082 115.6939 25.8733 -29.4278 -9.0026 15.0196
# 3 28.5384 25.8733 107.8064 -31.9258 4.1805 6.3746
# 4 -22.1017 -29.4278 -31.9258 42.5397 0.0256 -11.9468
# 5 -9.1098 -9.0026 4.1805 0.0256 49.9650 -18.4129
# 6 13.9879 15.0196 6.3746 -11.9468 -18.4129 49.0136
#
#
#
# Elastic Compliance Matrix: (Units=1/GPa)
#
#
# Indices 1 2 3 4 5 6 
#
# 1 0.019176 -0.008291 -0.002488 0.001933 0.001651 -0.001517
# 2 -0.008291 0.014319 0.000480 0.005870 0.000910 -0.000311
# 3 -0.002488 0.000480 0.012337 0.008459 -0.001193 0.000572
# 4 0.001933 0.005870 0.008459 0.036802 0.003154 0.006705
# 5 0.001651 0.000910 -0.001193 0.003154 0.023958 0.009174
# 6 -0.001517 -0.000311 0.000572 0.006705 0.009174 0.025937
#
#
# Mechanical properties :
#
#
# Convention : Reuss Voigt Hill
#
# Bulk Modulus (GPa) = 39.63051 59.34661 49.48856
# Shear Modulus (GPa) = 30.95196 41.36762 36.15979
#
# Velocity S-wave (km/s) = 3.49767 4.04357 3.78048
# Velocity P-wave (km/s) = 5.65468 6.72734 6.21420
#
# Compressibility (1/GPa) = 0.02523309
#
# Stress axis : x y z
#
# Youngs Moduli (GPa) = 52.14729 69.83650 81.05665
#
# Poissons Ratio (x) = 0.57902 0.20170
# Poissons Ratio (y) = 0.43236 -0.03888
# Poissons Ratio (z) = 0.12976 -0.03350
#
# Static dielectric constant tensor:
#      x y z
#    x 2.088520 0.015980 0.060110 
#    y 0.015980 2.055260 0.055310 
#    z 0.060110 0.055310 2.099210 
# 
# From -- ./inp_files/472525.got.cif
#   From: 2010.05.17/outbox.cif.g08.bks.cpg/sg2_237_cif.got.tgz:472525.got - 2010.06.03 11:33:40.
