data_PCOD9054626
_publ_section_title
;
Structure prediction by ZEFSAII (Michael W. Deem and Ramdas Pophale) SiO2 
 PCOD9054626
Probable space group: P -1
;
_chemical_formula_sum "Si O2"
_cell_formula_units_Z 16
_cell_length_a 9.234197
_cell_length_b 9.761752
_cell_length_c 17.090421
_cell_angle_alpha 89.211342
_cell_angle_beta 94.648177
_cell_angle_gamma 150.317318
_cell_volume 755.348965
_symmetry_space_group_name_H-M "P -1"
_symmetry_group_IT_number 2
_symmetry_cell_setting 'triclinic'
loop_
_space_group_symop_operation_xyz
x,y,z
-x,-y,-z
loop_
_atom_site_type_symbol
_atom_site_label
_atom_site_fract_x
_atom_site_fract_y
_atom_site_fract_z
Si Si1 0.699379 0.561799 0.059493
Si Si2 0.189699 0.151069 0.140222
Si Si3 0.685873 0.458694 0.685225
Si Si4 0.618587 0.228015 0.954721
Si Si5 0.128517 0.973274 0.461080
Si Si6 0.006412 0.703031 0.859194
Si Si7 0.794666 0.452756 0.523759
Si Si8 0.024030 0.005673 0.692605
O O1 0.008885 0.893394 0.081917
O O2 0.533345 0.410772 0.136589
O O3 0.500000 0.500000 0.000000
O O4 0.673300 0.395880 0.016726
O O5 0.072025 0.037369 0.223517
O O6 0.134793 0.267583 0.118757
O O7 0.889083 0.587238 0.767238
O O8 0.726843 0.391971 0.614205
O O9 0.349709 0.206795 0.699805
O O10 0.797017 0.699547 0.660290
O O11 0.902362 0.488175 0.909053
O O12 0.349323 0.018976 0.882755
O O13 0.500000 0.000000 0.000000
O O14 0.477187 0.227683 0.473296
O O15 0.000000 0.000000 0.500000
O O16 0.993370 0.743214 0.507823
O O17 0.009654 0.896219 0.368686
O O18 0.000000 0.500000 0.500000
#
# Coordination Sequence:
#
# PCOD9054626 Si02
#       8
#     2   2   2   2   2   2   2   2
#     4  12  21  38  62  88 122 154 207 267 325 373
#     4  11  21  37  61  96 120 157 210 272 328 370
#     4  11  21  39  64  94 126 166 216 270 321 392
#     4  12  25  40  59  89 121 166 209 256 316 392
#     4  12  22  42  68  97 131 172 223 272 324 385
#     4  11  21  39  62  88 121 161 213 261 318 385
#     4  12  25  42  65 101 137 175 219 268 330 396
#     4  11  22  37  65  97 128 161 218 275 323 377
#
# _framework density 21.182262000000001
#
# number of rings (size 3 to 8) (size 9 to 14) (size 15 to 20)
#    0.000    0.500    5.000    6.000    0.000    0.000 
#    0.000    3.750    0.000    0.000    0.000    0.000 
#    0.000    0.000    0.000    0.000    0.000    0.000 
#
# Total GULP energy -89236.701353 kJ/mol
# GULP energy per Si atom -5577.293835 kJ/mol
# Density = 2.113405 g / cm^3
# Si number density = 21.182262 Si / 1000 Ang^3
#
#
#
# Elastic Constant Matrix: (Units=GPa)
#
#
# Indices 1 2 3 4 5 6 
#
# 1 94.3153 27.1180 43.4391 4.1421 -3.5139 -1.1216
# 2 27.1180 102.6776 25.6909 -12.9798 4.3025 6.9575
# 3 43.4391 25.6909 118.3148 -13.0616 -5.5150 2.0208
# 4 4.1421 -12.9798 -13.0616 37.9768 -3.2707 1.1136
# 5 -3.5139 4.3025 -5.5150 -3.2707 24.5738 -3.6569
# 6 -1.1216 6.9575 2.0208 1.1136 -3.6569 49.7923
#
#
#
# Elastic Compliance Matrix: (Units=1/GPa)
#
#
# Indices 1 2 3 4 5 6 
#
# 1 0.013994 -0.003125 -0.004895 -0.004220 0.001055 0.001122
# 2 -0.003125 0.011530 -0.001023 0.003772 -0.002477 -0.001906
# 3 -0.004895 -0.001023 0.011057 0.004210 0.002472 -0.000329
# 4 -0.004220 0.003772 0.004210 0.029864 0.003476 -0.001206
# 5 0.001055 -0.002477 0.002472 0.003476 0.042792 0.003335
# 6 0.001122 -0.001906 -0.000329 -0.001206 0.003335 0.020660
#
#
# Mechanical properties :
#
#
# Convention : Reuss Voigt Hill
#
# Bulk Modulus (GPa) = 54.06736 56.42264 55.24500
# Shear Modulus (GPa) = 32.43638 37.07254 34.75446
#
# Velocity S-wave (km/s) = 3.91743 4.18804 4.05499
# Velocity P-wave (km/s) = 6.78542 7.07678 6.93263
#
# Compressibility (1/GPa) = 0.01849545
#
# Stress axis : x y z
#
# Youngs Moduli (GPa) = 71.46058 86.72824 90.44084
#
# Poissons Ratio (x) = 0.27101 0.44272
# Poissons Ratio (y) = 0.22330 0.09251
# Poissons Ratio (z) = 0.34981 0.08871
#
# Static dielectric constant tensor:
#      x y z
#    x 1.935100 0.044410 -0.122350 
#    y 0.044410 1.785140 -0.047970 
#    z -0.122350 -0.047970 1.916860 
# 
# From -- ./inp_files/557262.got.cif
#   From: 2010.05.17/outbox.cif.g08.bks.cpg/sg2_279_cif.got.tgz:557262.got - 2010.06.03 11:33:40.
