data_PCOD9054719
_publ_section_title
;
Structure prediction by ZEFSAII (Michael W. Deem and Ramdas Pophale) SiO2 
 PCOD9054719
Probable space group: P -1
;
_chemical_formula_sum "Si O2"
_cell_formula_units_Z 14
_cell_length_a 8.243987
_cell_length_b 12.475180
_cell_length_c 8.922635
_cell_angle_alpha 61.695434
_cell_angle_beta 48.766609
_cell_angle_gamma 58.809367
_cell_volume 577.630685
_symmetry_space_group_name_H-M "P -1"
_symmetry_group_IT_number 2
_symmetry_cell_setting 'triclinic'
loop_
_space_group_symop_operation_xyz
x,y,z
-x,-y,-z
loop_
_atom_site_type_symbol
_atom_site_label
_atom_site_fract_x
_atom_site_fract_y
_atom_site_fract_z
Si Si1 0.976150 0.616314 0.327211
Si Si2 0.646763 0.805189 0.619620
Si Si3 0.417183 0.682985 0.072656
Si Si4 0.748356 0.059284 0.455227
Si Si5 0.551501 0.874249 0.152351
Si Si6 0.775526 0.599002 0.138778
Si Si7 0.157050 0.983207 0.057309
O O1 0.834180 0.736643 0.431316
O O2 0.833903 0.595222 0.283182
O O3 0.000000 0.500000 0.500000
O O4 0.225073 0.633809 0.142949
O O5 0.413928 0.868926 0.628784
O O6 0.720650 0.917808 0.578682
O O7 0.600466 0.702131 0.829901
O O8 0.550146 0.591474 0.189810
O O9 0.293470 0.832582 0.098994
O O10 0.655228 0.136940 0.613035
O O11 0.002465 0.039292 0.258927
O O12 0.713465 0.751820 0.052551
O O13 0.500000 0.000000 0.000000
O O14 0.704775 0.922602 0.141532
O O15 0.000000 0.500000 0.000000
O O16 0.000000 0.000000 0.000000
#
# Coordination Sequence:
#
# PCOD9054719 Si02
#       7
#     2   2   2   2   2   2   2
#     4  12  28  50  77 106 146 205 264 308 377 465
#     4  11  21  40  72 109 147 193 246 306 375 458
#     4  12  25  49  78 108 153 200 250 318 392 442
#     4  11  21  37  71 109 148 190 241 306 385 449
#     4  12  24  45  70 110 154 189 253 319 373 455
#     4  12  28  51  75 110 157 202 254 316 380 453
#     4  12  21  39  73 110 144 193 241 310 387 446
#
# _framework density 24.236939
#
# number of rings (size 3 to 8) (size 9 to 14) (size 15 to 20)
#    0.000    0.286    7.143    2.571    0.000    3.429 
#    0.000    1.429    0.000    0.000    0.000    0.000 
#    0.000    0.000    0.000    0.000    0.000    0.000 
#
# Total GULP energy -78104.233028 kJ/mol
# GULP energy per Si atom -5578.873788 kJ/mol
# Density = 2.418178 g / cm^3
# Si number density = 24.236939 Si / 1000 Ang^3
#
#
#
# Elastic Constant Matrix: (Units=GPa)
#
#
# Indices 1 2 3 4 5 6 
#
# 1 105.7645 10.8380 26.6137 -0.3245 16.8198 -26.6825
# 2 10.8380 115.5559 27.3822 20.2450 7.3933 -23.1199
# 3 26.6137 27.3822 106.8291 11.0296 2.8649 -4.3516
# 4 -0.3245 20.2450 11.0296 47.3656 -4.8090 3.1947
# 5 16.8198 7.3933 2.8649 -4.8090 26.5517 4.8480
# 6 -26.6825 -23.1199 -4.3516 3.1947 4.8480 32.9146
#
#
#
# Elastic Compliance Matrix: (Units=1/GPa)
#
#
# Indices 1 2 3 4 5 6 
#
# 1 0.017705 0.005164 -0.004024 -0.004214 -0.016692 0.020316
# 2 0.005164 0.014174 -0.003190 -0.007500 -0.011171 0.016094
# 3 -0.004024 -0.003190 0.010986 -0.000625 0.002947 -0.004424
# 4 -0.004214 -0.007500 -0.000625 0.026540 0.012026 -0.013114
# 5 -0.016692 -0.011171 0.002947 0.012026 0.058835 -0.030822
# 6 0.020316 0.016094 -0.004424 -0.013114 -0.030822 0.063383
#
#
# Mechanical properties :
#
#
# Convention : Reuss Voigt Hill
#
# Bulk Modulus (GPa) = 25.79658 50.86859 38.33258
# Shear Modulus (GPa) = 23.96405 38.92073 31.44239
#
# Velocity S-wave (km/s) = 3.14784 4.01165 3.60570
# Velocity P-wave (km/s) = 4.88656 6.51854 5.76063
#
# Compressibility (1/GPa) = 0.03876483
#
# Stress axis : x y z
#
# Youngs Moduli (GPa) = 56.47999 70.55173 91.02306
#
# Poissons Ratio (x) = -0.36432 0.36630
# Poissons Ratio (y) = -0.29166 0.29037
# Poissons Ratio (z) = 0.22729 0.22507
#
# Static dielectric constant tensor:
#      x y z
#    x 2.118340 0.148760 0.213280 
#    y 0.148760 1.907060 -0.056480 
#    z 0.213280 -0.056480 1.751450 
# 
# From -- ./inp_files/184622.got.cif
#   From: 2010.05.17/outbox.cif.g08.bks.cpg/sg2_93_cif.got.tgz:184622.got - 2010.06.03 11:33:40.
