data_PCOD9054986
_publ_section_title
;
Structure prediction by ZEFSAII (Michael W. Deem and Ramdas Pophale) SiO2 
 PCOD9054986
Probable space group: P -1
;
_chemical_formula_sum "Si O2"
_cell_formula_units_Z 12
_cell_length_a 6.457082
_cell_length_b 16.811674
_cell_length_c 9.497008
_cell_angle_alpha 46.025638
_cell_angle_beta 63.475187
_cell_angle_gamma 43.723125
_cell_volume 509.626447
_symmetry_space_group_name_H-M "P -1"
_symmetry_group_IT_number 2
_symmetry_cell_setting 'triclinic'
loop_
_space_group_symop_operation_xyz
x,y,z
-x,-y,-z
loop_
_atom_site_type_symbol
_atom_site_label
_atom_site_fract_x
_atom_site_fract_y
_atom_site_fract_z
Si Si1 0.263668 0.668022 0.828563
Si Si2 0.656539 0.010042 0.307054
Si Si3 0.626066 0.238462 0.573203
Si Si4 0.792973 0.809742 0.286119
Si Si5 0.789927 0.413476 0.336622
Si Si6 0.691671 0.254905 0.981395
O O1 0.398558 0.730842 0.624690
O O2 0.078989 0.665136 0.760490
O O3 0.500000 0.500000 0.000000
O O4 0.170908 0.744988 0.911196
O O5 0.022798 0.892951 0.347504
O O6 0.500000 0.000000 0.500000
O O7 0.592781 0.158575 0.132810
O O8 0.587409 0.955976 0.258842
O O9 0.559424 0.381127 0.477974
O O10 0.413379 0.206213 0.725741
O O11 0.967162 0.674501 0.508049
O O12 0.045337 0.801686 0.139635
O O13 0.599468 0.581299 0.169042
#
# Coordination Sequence:
#
# PCOD9054986 Si02
#       6
#     2   2   2   2   2   2
#     4   8  17  39  61  86 124 161 209 247 296 376
#     4  11  25  44  64  89 128 173 214 257 312 381
#     4   9  21  43  64  88 130 163 212 252 321 374
#     4  11  22  41  66  95 130 165 203 268 317 372
#     4   8  20  42  64  91 132 164 207 255 313 382
#     4  11  21  39  69  97 127 163 214 261 315 369
#
# _framework density 23.546659999999999
#
# number of rings (size 3 to 8) (size 9 to 14) (size 15 to 20)
#    1.000    1.333    0.000    2.000    0.000    4.000 
#    3.000    8.333    0.000    0.000    0.000    0.000 
#    0.000    0.000    0.000    0.000    0.000    0.000 
#
# Total GULP energy -66901.623930 kJ/mol
# GULP energy per Si atom -5575.135328 kJ/mol
# Density = 2.349307 g / cm^3
# Si number density = 23.546660 Si / 1000 Ang^3
#
#
#
# Elastic Constant Matrix: (Units=GPa)
#
#
# Indices 1 2 3 4 5 6 
#
# 1 48.7541 7.1856 34.3208 -10.7298 -19.0035 -11.2739
# 2 7.1856 83.4636 54.3488 -20.6723 -12.2902 8.3009
# 3 34.3208 54.3488 115.5780 -26.8717 -26.1616 -3.7892
# 4 -10.7298 -20.6723 -26.8717 48.1293 17.5241 -2.0496
# 5 -19.0035 -12.2902 -26.1616 17.5241 28.7879 3.6098
# 6 -11.2739 8.3009 -3.7892 -2.0496 3.6098 20.8402
#
#
#
# Elastic Compliance Matrix: (Units=1/GPa)
#
#
# Indices 1 2 3 4 5 6 
#
# 1 0.034674 0.002956 -0.007816 -0.000500 0.015673 0.013395
# 2 0.002956 0.019509 -0.009388 0.003187 0.000774 -0.007699
# 3 -0.007816 -0.009388 0.017017 0.002066 0.004792 0.001978
# 4 -0.000500 0.003187 0.002066 0.028921 -0.015238 0.004319
# 5 0.015673 0.000774 0.004792 -0.015238 0.059388 -0.002744
# 6 0.013395 -0.007699 0.001978 0.004319 -0.002744 0.059557
#
#
# Mechanical properties :
#
#
# Convention : Reuss Voigt Hill
#
# Bulk Modulus (GPa) = 23.41639 48.83401 36.12520
# Shear Modulus (GPa) = 19.09884 29.68086 24.38985
#
# Velocity S-wave (km/s) = 2.85108 3.55422 3.22189
# Velocity P-wave (km/s) = 4.56119 6.13413 5.40519
#
# Compressibility (1/GPa) = 0.04270512
#
# Stress axis : x y z
#
# Youngs Moduli (GPa) = 28.84008 51.25879 58.76327
#
# Poissons Ratio (x) = -0.15153 0.45929
# Poissons Ratio (y) = -0.08526 0.55165
# Poissons Ratio (z) = 0.22541 0.48120
#
# Static dielectric constant tensor:
#      x y z
#    x 1.921120 0.017160 0.032470 
#    y 0.017160 1.903010 0.003410 
#    z 0.032470 0.003410 1.909220 
# 
# From -- ./inp_files/167050.got.cif
#   From: 2010.05.17/outbox.cif.g08.bks.cpg/sg2_84_cif.got.tgz:167050.got - 2010.06.03 11:33:40.
