data_PCOD9054288
_publ_section_title
;
Structure prediction by ZEFSAII (Michael W. Deem and Ramdas Pophale) SiO2 
 PCOD9054288
Probable space group: P -1
;
_chemical_formula_sum "Si O2"
_cell_formula_units_Z 12
_cell_length_a 9.144731
_cell_length_b 8.160074
_cell_length_c 12.023910
_cell_angle_alpha 129.686969
_cell_angle_beta 120.902850
_cell_angle_gamma 56.652314
_cell_volume 558.042662
_symmetry_space_group_name_H-M "P -1"
_symmetry_group_IT_number 2
_symmetry_cell_setting 'triclinic'
loop_
_space_group_symop_operation_xyz
x,y,z
-x,-y,-z
loop_
_atom_site_type_symbol
_atom_site_label
_atom_site_fract_x
_atom_site_fract_y
_atom_site_fract_z
Si Si1 0.477672 0.091072 0.405147
Si Si2 0.482219 0.658265 0.956734
Si Si3 0.475839 0.463170 0.314096
Si Si4 0.087480 0.672840 0.162623
Si Si5 0.813269 0.062812 0.890579
Si Si6 0.712647 0.942832 0.230581
O O1 0.476929 0.347751 0.516226
O O2 0.500000 0.000000 0.500000
O O3 0.290928 0.085815 0.276111
O O4 0.647332 0.935781 0.329673
O O5 0.465564 0.522108 0.784260
O O6 0.500000 0.500000 0.000000
O O7 0.309447 0.860035 0.013471
O O8 0.637334 0.770355 0.058652
O O9 0.256941 0.542624 0.252706
O O10 0.591781 0.201752 0.268415
O O11 0.164827 0.777900 0.134144
O O12 0.924992 0.862288 0.248154
O O13 0.000000 0.500000 0.000000
O O14 0.000000 0.000000 0.000000
#
# Coordination Sequence:
#
# PCOD9054288 Si02
#       6
#     2   2   2   2   2   2
#     4  11  24  48  71  95 142 187 223 286 357 406
#     4  11  20  42  68  95 136 187 222 273 343 408
#     4  12  23  43  72 100 142 181 230 286 349 402
#     4  12  24  41  70 106 136 176 232 289 339 406
#     4  11  24  43  70  99 134 179 237 280 330 421
#     4  11  25  42  68 103 137 182 233 279 345 421
#
# _framework density 21.503736
#
# number of rings (size 3 to 8) (size 9 to 14) (size 15 to 20)
#    0.000    0.667    5.000    3.000    4.667    0.667 
#    0.000    3.333    0.000    0.000    0.000    0.000 
#    0.000    0.000    0.000    0.000    0.000    0.000 
#
# Total GULP energy -66852.763801 kJ/mol
# GULP energy per Si atom -5571.063650 kJ/mol
# Density = 2.145479 g / cm^3
# Si number density = 21.503736 Si / 1000 Ang^3
#
#
#
# Elastic Constant Matrix: (Units=GPa)
#
#
# Indices 1 2 3 4 5 6 
#
# 1 119.3049 41.5204 39.8448 1.3381 0.0167 -19.9101
# 2 41.5204 107.3084 41.6877 -1.9247 17.9842 -18.4463
# 3 39.8448 41.6877 131.3223 15.1619 22.4440 -20.7976
# 4 1.3381 -1.9247 15.1619 37.0625 4.8945 6.3565
# 5 0.0167 17.9842 22.4440 4.8945 49.0078 -1.7112
# 6 -19.9101 -18.4463 -20.7976 6.3565 -1.7112 36.1098
#
#
#
# Elastic Compliance Matrix: (Units=1/GPa)
#
#
# Indices 1 2 3 4 5 6 
#
# 1 0.010731 -0.003179 -0.002040 -0.000589 0.002272 0.003330
# 2 -0.003179 0.012521 -0.002091 0.001596 -0.003691 0.002983
# 3 -0.002040 -0.002091 0.010800 -0.004793 -0.003535 0.004703
# 4 -0.000589 0.001596 -0.004793 0.030600 -0.001717 -0.007738
# 5 0.002272 -0.003691 -0.003535 -0.001717 0.023505 -0.001253
# 6 0.003330 0.002983 0.004703 -0.007738 -0.001253 0.035065
#
#
# Mechanical properties :
#
#
# Convention : Reuss Voigt Hill
#
# Bulk Modulus (GPa) = 51.45935 67.11570 59.28753
# Shear Modulus (GPa) = 34.64490 40.09486 37.36988
#
# Velocity S-wave (km/s) = 4.01822 4.32273 4.17325
# Velocity P-wave (km/s) = 6.74615 7.49624 7.13106
#
# Compressibility (1/GPa) = 0.01943281
#
# Stress axis : x y z
#
# Youngs Moduli (GPa) = 93.18443 79.86286 92.59140
#
# Poissons Ratio (x) = 0.25387 0.18888
# Poissons Ratio (y) = 0.29621 0.19364
# Poissons Ratio (z) = 0.19009 0.16702
#
# Static dielectric constant tensor:
#      x y z
#    x 0.745050 0.830760 -0.335790 
#    y 0.830760 1.298440 0.195750 
#    z -0.335790 0.195750 1.644940 
# 
# From -- ./inp_files/148290.got.cif
#   From: 2010.05.17/outbox.cif.g08.bks.cpg/sg2_75_cif.got.tgz:148290.got - 2010.06.03 11:33:40.
