data_PCOD9054880
_publ_section_title
;
Structure prediction by ZEFSAII (Michael W. Deem and Ramdas Pophale) SiO2 
 PCOD9054880
Probable space group: P -1
;
_chemical_formula_sum "Si O2"
_cell_formula_units_Z 16
_cell_length_a 8.490529
_cell_length_b 16.722776
_cell_length_c 7.914504
_cell_angle_alpha 61.176369
_cell_angle_beta 128.165637
_cell_angle_gamma 104.662986
_cell_volume 772.418945
_symmetry_space_group_name_H-M "P -1"
_symmetry_group_IT_number 2
_symmetry_cell_setting 'triclinic'
loop_
_space_group_symop_operation_xyz
x,y,z
-x,-y,-z
loop_
_atom_site_type_symbol
_atom_site_label
_atom_site_fract_x
_atom_site_fract_y
_atom_site_fract_z
Si Si1 0.410495 0.014114 0.612198
Si Si2 0.106498 0.857005 0.549209
Si Si3 0.978444 0.361651 0.790331
Si Si4 0.757230 0.323678 0.346912
Si Si5 0.152982 0.991324 0.950255
Si Si6 0.797136 0.446609 0.908840
Si Si7 0.061835 0.168658 0.196557
Si Si8 0.391361 0.426973 0.111942
O O1 0.270247 0.929302 0.634326
O O2 0.500000 0.000000 0.500000
O O3 0.269671 0.107755 0.421659
O O4 0.610745 0.013501 0.856309
O O5 0.187752 0.783018 0.542738
O O6 0.027979 0.803025 0.711042
O O7 0.917104 0.920110 0.294189
O O8 0.895841 0.364302 0.542885
O O9 0.815627 0.396372 0.790882
O O10 0.056934 0.257355 0.988380
O O11 0.174376 0.416581 0.897595
O O12 0.777634 0.377086 0.126511
O O13 0.535011 0.336911 0.267707
O O14 0.089453 0.901148 0.908536
O O15 0.000000 0.000000 0.000000
O O16 0.632531 0.529538 0.761250
O O17 0.000000 0.500000 0.000000
O O18 0.500000 0.500000 0.000000
#
# Coordination Sequence:
#
# PCOD9054880 Si02
#       8
#     2   2   2   2   2   2   2   2
#     4  11  23  39  64  88 126 171 214 262 309 366
#     4  11  24  40  61  92 131 165 212 264 312 370
#     4  11  23  40  68  93 128 169 207 259 320 372
#     4  11  23  40  66  96 126 166 209 259 314 374
#     4  11  21  39  62  91 119 168 215 252 309 373
#     4   9  20  43  65  92 125 159 203 259 319 379
#     4  11  24  40  61  93 129 167 212 262 315 368
#     4   9  22  41  65  94 125 157 212 259 311 387
#
# _framework density 20.714146
#
# number of rings (size 3 to 8) (size 9 to 14) (size 15 to 20)
#    0.000    1.500    3.750    2.250    1.750    7.000 
#    0.000    3.750    0.000    0.000    0.000    0.000 
#    0.000    0.000    0.000    0.000    0.000    0.000 
#
# Total GULP energy -89215.831396 kJ/mol
# GULP energy per Si atom -5575.989462 kJ/mol
# Density = 2.066700 g / cm^3
# Si number density = 20.714146 Si / 1000 Ang^3
#
#
#
# Elastic Constant Matrix: (Units=GPa)
#
#
# Indices 1 2 3 4 5 6 
#
# 1 92.5518 28.9869 33.2343 1.5490 17.0553 -21.0712
# 2 28.9869 88.2839 34.2640 -2.2463 18.3546 -30.4667
# 3 33.2343 34.2640 81.4731 15.7494 23.3476 4.0610
# 4 1.5490 -2.2463 15.7494 28.8900 4.3659 0.9998
# 5 17.0553 18.3546 23.3476 4.3659 39.1062 -2.9244
# 6 -21.0712 -30.4667 4.0610 0.9998 -2.9244 34.3323
#
#
#
# Elastic Compliance Matrix: (Units=1/GPa)
#
#
# Indices 1 2 3 4 5 6 
#
# 1 0.016561 0.003605 -0.008927 0.004227 -0.003007 0.014040
# 2 0.003605 0.025809 -0.014195 0.009295 -0.004292 0.026158
# 3 -0.008927 -0.014195 0.027296 -0.013890 -0.005790 -0.021393
# 4 0.004227 0.009295 -0.013890 0.042576 -0.001838 0.011090
# 5 -0.003007 -0.004292 -0.005790 -0.001838 0.032398 -0.002156
# 6 0.014040 0.026158 -0.021393 0.011090 -0.002156 0.062981
#
#
# Mechanical properties :
#
#
# Convention : Reuss Voigt Hill
#
# Bulk Modulus (GPa) = 32.64631 50.58659 41.61645
# Shear Modulus (GPa) = 19.46544 31.52061 25.49303
#
# Velocity S-wave (km/s) = 3.06881 3.90512 3.51195
# Velocity P-wave (km/s) = 5.32460 6.69385 6.04810
#
# Compressibility (1/GPa) = 0.03063134
#
# Stress axis : x y z
#
# Youngs Moduli (GPa) = 60.38250 38.74639 36.63559
#
# Poissons Ratio (x) = -0.13968 0.32704
# Poissons Ratio (y) = -0.21767 0.52005
# Poissons Ratio (z) = 0.53903 0.55001
#
# Static dielectric constant tensor:
#      x y z
#    x 1.809840 -0.020660 0.075290 
#    y -0.020660 1.805790 0.130430 
#    z 0.075290 0.130430 2.291930 
# 
# From -- ./inp_files/214824.got.cif
#   From: 2010.05.17/outbox.cif.g08.bks.cpg/sg2_108_cif.got.tgz:214824.got - 2010.06.03 11:33:40.
