data_PCOD9054447
_publ_section_title
;
Structure prediction by ZEFSAII (Michael W. Deem and Ramdas Pophale) SiO2 
 PCOD9054447
Probable space group: P -1
;
_chemical_formula_sum "Si O2"
_cell_formula_units_Z 14
_cell_length_a 8.848327
_cell_length_b 10.789284
_cell_length_c 7.898240
_cell_angle_alpha 55.999353
_cell_angle_beta 67.196658
_cell_angle_gamma 64.599380
_cell_volume 553.587475
_symmetry_space_group_name_H-M "P -1"
_symmetry_group_IT_number 2
_symmetry_cell_setting 'triclinic'
loop_
_space_group_symop_operation_xyz
x,y,z
-x,-y,-z
loop_
_atom_site_type_symbol
_atom_site_label
_atom_site_fract_x
_atom_site_fract_y
_atom_site_fract_z
Si Si1 0.465053 0.578513 0.643794
Si Si2 0.016855 0.927171 0.734197
Si Si3 0.015516 0.631215 0.767472
Si Si4 0.341051 0.337833 0.088735
Si Si5 0.185284 0.435393 0.549451
Si Si6 0.388691 0.876195 0.640687
Si Si7 0.312180 0.122483 0.952221
O O1 0.500000 0.500000 0.500000
O O2 0.662062 0.541610 0.648710
O O3 0.398599 0.768036 0.549194
O O4 0.366529 0.494802 0.878417
O O5 0.190483 0.950818 0.715801
O O6 0.051096 0.751565 0.791984
O O7 0.840451 0.960590 0.889633
O O8 0.000000 0.000000 0.500000
O O9 0.828445 0.675232 0.726823
O O10 0.158115 0.558580 0.624742
O O11 0.000000 0.500000 0.000000
O O12 0.516362 0.247711 0.168275
O O13 0.314156 0.237843 0.016378
O O14 0.000000 0.500000 0.500000
O O15 0.248732 0.254395 0.728124
O O16 0.500000 0.000000 0.500000
O O17 0.500000 0.000000 0.000000
#
# Coordination Sequence:
#
# PCOD9054447 Si02
#       7
#     2   2   2   2   2   2   2
#     4  12  25  45  74 110 146 195 250 313 383 443
#     4  11  25  44  75 100 144 203 252 305 382 458
#     4  11  20  46  72 102 142 193 258 305 374 451
#     4  11  24  44  75 103 148 195 251 319 371 452
#     4  12  26  42  75 111 150 190 253 318 377 441
#     4  12  27  45  74 111 149 194 257 311 379 455
#     4  11  26  48  72 109 159 201 245 317 396 449
#
# _framework density 25.289591000000001
#
# number of rings (size 3 to 8) (size 9 to 14) (size 15 to 20)
#    0.000    0.571    4.286    4.714    6.000    1.143 
#    0.000    0.714    0.000    0.000    0.000    0.000 
#    0.000    0.000    0.000    0.000    0.000    0.000 
#
# Total GULP energy -77990.401895 kJ/mol
# GULP energy per Si atom -5570.742993 kJ/mol
# Density = 2.523203 g / cm^3
# Si number density = 25.289591 Si / 1000 Ang^3
#
#
#
# Elastic Constant Matrix: (Units=GPa)
#
#
# Indices 1 2 3 4 5 6 
#
# 1 202.1632 26.3124 43.1666 1.4773 -24.6565 -47.9769
# 2 26.3124 91.9384 21.7350 -11.0870 -21.5904 -7.7117
# 3 43.1666 21.7350 92.6189 -17.2716 -17.0872 -23.9268
# 4 1.4773 -11.0870 -17.2716 31.3875 -4.9935 -4.7864
# 5 -24.6565 -21.5904 -17.0872 -4.9935 60.1306 5.9262
# 6 -47.9769 -7.7117 -23.9268 -4.7864 5.9262 61.7123
#
#
#
# Elastic Compliance Matrix: (Units=1/GPa)
#
#
# Indices 1 2 3 4 5 6 
#
# 1 0.006586 -0.000885 -0.001634 -0.000653 0.001452 0.004186
# 2 -0.000885 0.013008 -0.000714 0.005048 0.004463 0.000623
# 3 -0.001634 -0.000714 0.015557 0.009763 0.003806 0.005064
# 4 -0.000653 0.005048 0.009763 0.041155 0.007104 0.006418
# 5 0.001452 0.004463 0.003806 0.007104 0.020326 0.001761
# 6 0.004186 0.000623 0.005064 0.006418 0.001761 0.021828
#
#
# Mechanical properties :
#
#
# Convention : Reuss Voigt Hill
#
# Bulk Modulus (GPa) = 34.86337 63.23873 49.05105
# Shear Modulus (GPa) = 37.17775 50.34650 43.76212
#
# Velocity S-wave (km/s) = 3.83832 4.46668 4.16437
# Velocity P-wave (km/s) = 5.78439 7.18761 6.52384
#
# Compressibility (1/GPa) = 0.02868340
#
# Stress axis : x y z
#
# Youngs Moduli (GPa) = 151.84126 76.87512 64.27926
#
# Poissons Ratio (x) = 0.06805 0.10505
# Poissons Ratio (y) = 0.13441 0.04591
# Poissons Ratio (z) = 0.24816 0.05491
#
# Static dielectric constant tensor:
#      x y z
#    x 2.314790 -0.077490 0.074130 
#    y -0.077490 2.142090 0.063670 
#    z 0.074130 0.063670 1.982710 
# 
# From -- ./inp_files/174032.got.cif
#   From: 2010.05.17/outbox.cif.g08.bks.cpg/sg2_88_cif.got.tgz:174032.got - 2010.06.03 11:33:40.
