data_PCOD9054608
_publ_section_title
;
Structure prediction by ZEFSAII (Michael W. Deem and Ramdas Pophale) SiO2 
 PCOD9054608
Probable space group: P -1
;
_chemical_formula_sum "Si O2"
_cell_formula_units_Z 16
_cell_length_a 13.347633
_cell_length_b 30.812560
_cell_length_c 30.563530
_cell_angle_alpha 170.670352
_cell_angle_beta 24.391863
_cell_angle_gamma 155.314815
_cell_volume 832.260706
_symmetry_space_group_name_H-M "P -1"
_symmetry_group_IT_number 2
_symmetry_cell_setting 'triclinic'
loop_
_space_group_symop_operation_xyz
x,y,z
-x,-y,-z
loop_
_atom_site_type_symbol
_atom_site_label
_atom_site_fract_x
_atom_site_fract_y
_atom_site_fract_z
Si Si1 0.532265 0.909756 0.089874
Si Si2 0.474655 0.003207 0.460696
Si Si3 0.309542 0.058296 0.041643
Si Si4 0.762321 0.440923 0.566872
Si Si5 0.997937 0.509963 0.634576
Si Si6 0.073103 0.077465 0.394948
Si Si7 0.238935 0.448931 0.137626
Si Si8 0.834096 0.387750 0.166319
O O1 0.666566 0.125341 0.284913
O O2 0.265282 0.987370 0.263308
O O3 0.665551 0.939457 0.018887
O O4 0.558671 0.613210 0.801211
O O5 0.551472 0.307353 0.716473
O O6 0.500000 0.000000 0.500000
O O7 0.193058 0.889739 0.448870
O O8 0.659827 0.824866 0.187613
O O9 0.102691 0.228185 0.308994
O O10 0.569723 0.216797 0.112009
O O11 0.229073 0.750850 0.782129
O O12 0.000000 0.500000 0.500000
O O13 0.843834 0.528728 0.670354
O O14 0.838904 0.534272 0.764754
O O15 0.184713 0.349778 0.595219
O O16 0.035112 0.825280 0.125468
O O17 0.001071 0.474575 0.227928
#
# Coordination Sequence:
#
# PCOD9054608 Si02
#       8
#     2   2   2   2   2   2   2   2
#     4  11  21  37  61  91 118 150 205 251 299 344
#     4  12  22  42  67  89 116 158 206 256 302 349
#     4  11  21  37  57  87 125 163 196 236 296 366
#     4  12  21  38  62  89 119 162 203 249 289 347
#     4  12  25  38  58  88 128 166 198 243 299 357
#     4  11  22  37  64  92 117 150 199 265 301 347
#     4  12  25  40  60  92 124 161 201 248 304 359
#     4  11  21  37  59  89 125 156 200 240 298 368
#
# _framework density 19.224744999999999
#
# number of rings (size 3 to 8) (size 9 to 14) (size 15 to 20)
#    0.000    0.500    5.000    6.000    0.000    1.000 
#    0.000    0.000    0.000    4.500    0.000    0.000 
#    0.000    0.000    0.000    0.000    0.000    0.000 
#
# Total GULP energy -89443.848605 kJ/mol
# GULP energy per Si atom -5590.240538 kJ/mol
# Density = 1.918099 g / cm^3
# Si number density = 19.224745 Si / 1000 Ang^3
#
#
#
# Elastic Constant Matrix: (Units=GPa)
#
#
# Indices 1 2 3 4 5 6 
#
# 1 80.7865 36.9447 5.5868 -15.0441 6.6517 6.2402
# 2 36.9447 55.4109 -5.9682 -8.7725 15.5642 -1.0242
# 3 5.5868 -5.9682 74.1134 -1.8348 2.4666 1.7388
# 4 -15.0441 -8.7725 -1.8348 31.8308 10.3238 -3.8998
# 5 6.6517 15.5642 2.4666 10.3238 20.2430 -2.1296
# 6 6.2402 -1.0242 1.7388 -3.8998 -2.1296 21.3314
#
#
#
# Elastic Compliance Matrix: (Units=1/GPa)
#
#
# Indices 1 2 3 4 5 6 
#
# 1 0.019671 -0.012960 -0.002316 0.004674 0.000847 -0.005249
# 2 -0.012960 0.040203 0.005722 0.017477 -0.035749 0.004881
# 3 -0.002316 0.005722 0.014468 0.003646 -0.007291 -0.000288
# 4 0.004674 0.017477 0.003646 0.052796 -0.041854 0.004648
# 5 0.000847 -0.035749 -0.007291 -0.041854 0.098932 0.000855
# 6 -0.005249 0.004881 -0.000288 0.004648 0.000855 0.049608
#
#
# Mechanical properties :
#
#
# Convention : Reuss Voigt Hill
#
# Bulk Modulus (GPa) = 18.10441 31.49305 24.79873
# Shear Modulus (GPa) = 15.96440 26.26422 21.11431
#
# Velocity S-wave (km/s) = 2.88481 3.70018 3.31764
# Velocity P-wave (km/s) = 4.53143 5.88831 5.25386
#
# Compressibility (1/GPa) = 0.05523516
#
# Stress axis : x y z
#
# Youngs Moduli (GPa) = 50.83517 24.87382 69.11841
#
# Poissons Ratio (x) = 0.32237 0.16007
# Poissons Ratio (y) = 0.65883 -0.39552
# Poissons Ratio (z) = 0.11773 -0.14234
#
# Static dielectric constant tensor:
#      x y z
#    x 1.670750 0.030770 -0.009180 
#    y 0.030770 1.651700 -0.000260 
#    z -0.009180 -0.000260 1.658890 
# 
# From -- ./inp_files/369496.got.cif
#   From: 2010.05.17/outbox.cif.g08.bks.cpg/sg2_185_cif.got.tgz:369496.got - 2010.06.03 11:33:40.
