data_PCOD9054200
_publ_section_title
;
Structure prediction by ZEFSAII (Michael W. Deem and Ramdas Pophale) SiO2 
 PCOD9054200
Probable space group: P -1
;
_chemical_formula_sum "Si O2"
_cell_formula_units_Z 14
_cell_length_a 10.131832
_cell_length_b 9.032590
_cell_length_c 18.434352
_cell_angle_alpha 89.492133
_cell_angle_beta 148.932382
_cell_angle_gamma 74.075164
_cell_volume 729.109977
_symmetry_space_group_name_H-M "P -1"
_symmetry_group_IT_number 2
_symmetry_cell_setting 'triclinic'
loop_
_space_group_symop_operation_xyz
x,y,z
-x,-y,-z
loop_
_atom_site_type_symbol
_atom_site_label
_atom_site_fract_x
_atom_site_fract_y
_atom_site_fract_z
Si Si1 0.834159 0.827988 0.151485
Si Si2 0.797041 0.756604 0.717088
Si Si3 0.348581 0.634608 0.497516
Si Si4 0.660151 0.583275 0.370919
Si Si5 0.710406 0.308879 0.942137
Si Si6 0.808590 0.062785 0.782784
Si Si7 0.746032 0.532246 0.148851
O O1 0.801957 0.661871 0.127884
O O2 0.017734 0.786054 0.312829
O O3 0.032376 0.852232 0.185197
O O4 0.500000 0.000000 0.000000
O O5 0.532092 0.723629 0.604124
O O6 0.945951 0.660203 0.710924
O O7 0.728217 0.952609 0.690508
O O8 0.059990 0.657148 0.904368
O O9 0.500000 0.500000 0.500000
O O10 0.328892 0.530224 0.555601
O O11 0.427191 0.598371 0.199049
O O12 0.489763 0.785948 0.317422
O O13 0.000000 0.500000 0.500000
O O14 0.410798 0.372766 0.850289
O O15 0.925230 0.095294 0.041809
O O16 0.500000 0.500000 0.000000
#
# Coordination Sequence:
#
# PCOD9054200 Si02
#       7
#     2   2   2   2   2   2   2
#     4  12  21  38  64  94 129 167 218 268 324 386
#     4   9  21  40  66  96 132 164 225 271 324 386
#     4  12  24  42  67  95 129 171 225 271 327 389
#     4  12  25  42  66  96 135 177 218 269 328 395
#     4   9  21  39  66  91 134 170 217 258 335 386
#     4  10  22  41  66  96 128 180 213 268 328 385
#     4  10  17  35  64 100 127 165 214 272 315 390
#
# _framework density 19.201492999999999
#
# number of rings (size 3 to 8) (size 9 to 14) (size 15 to 20)
#    0.857    0.571    4.286    1.286    0.000    1.143 
#    0.000    3.571    0.000    0.000    0.000    0.000 
#    0.000    0.000    0.000    0.000    0.000    0.000 
#
# Total GULP energy -77935.966169 kJ/mol
# GULP energy per Si atom -5566.854726 kJ/mol
# Density = 1.915779 g / cm^3
# Si number density = 19.201493 Si / 1000 Ang^3
#
#
#
# Elastic Constant Matrix: (Units=GPa)
#
#
# Indices 1 2 3 4 5 6 
#
# 1 106.2006 46.6975 55.4671 -5.4818 7.7476 3.1266
# 2 46.6975 105.2284 38.9489 8.2854 23.4356 1.7037
# 3 55.4671 38.9489 132.6132 -1.7880 0.1150 0.4354
# 4 -5.4818 8.2854 -1.7880 32.1233 -5.3752 19.3324
# 5 7.7476 23.4356 0.1150 -5.3752 35.3547 -4.5794
# 6 3.1266 1.7037 0.4354 19.3324 -4.5794 27.5162
#
#
#
# Elastic Compliance Matrix: (Units=1/GPa)
#
#
# Indices 1 2 3 4 5 6 
#
# 1 0.014704 -0.005601 -0.004378 0.007834 0.000838 -0.006619
# 2 -0.005601 0.015846 -0.002451 -0.009833 -0.010127 0.004917
# 3 -0.004378 -0.002451 0.010096 0.000579 0.002709 0.000533
# 4 0.007834 -0.009833 0.000579 0.062022 0.008736 -0.042412
# 5 0.000838 -0.010127 0.002709 0.008736 0.036181 0.000373
# 6 -0.006619 0.004917 0.000533 -0.042412 0.000373 0.066642
#
#
# Mechanical properties :
#
#
# Convention : Reuss Voigt Hill
#
# Bulk Modulus (GPa) = 63.35451 69.58545 66.46998
# Shear Modulus (GPa) = 21.22129 32.52742 26.87436
#
# Velocity S-wave (km/s) = 3.32805 4.12029 3.74518
# Velocity P-wave (km/s) = 6.91622 7.67815 7.30712
#
# Compressibility (1/GPa) = 0.01578420
#
# Stress axis : x y z
#
# Youngs Moduli (GPa) = 68.00974 63.10775 99.05208
#
# Poissons Ratio (x) = 0.35346 0.43369
# Poissons Ratio (y) = 0.38092 0.24280
# Poissons Ratio (z) = 0.29777 0.15469
#
# Static dielectric constant tensor:
#      x y z
#    x 1.723940 -0.032950 0.024430 
#    y -0.032950 1.701280 -0.004550 
#    z 0.024430 -0.004550 1.722380 
# 
# From -- ./inp_files/593602.got.cif
#   From: 2010.05.17/outbox.cif.g08.bks.cpg/sg2_297_cif.got.tgz:593602.got - 2010.06.03 11:33:40.
