data_PCOD9054383
_publ_section_title
;
Structure prediction by ZEFSAII (Michael W. Deem and Ramdas Pophale) SiO2 
 PCOD9054383
Probable space group: P -1
;
_chemical_formula_sum "Si O2"
_cell_formula_units_Z 16
_cell_length_a 11.516479
_cell_length_b 15.663393
_cell_length_c 9.561261
_cell_angle_alpha 56.112711
_cell_angle_beta 71.518467
_cell_angle_gamma 117.830891
_cell_volume 782.128047
_symmetry_space_group_name_H-M "P -1"
_symmetry_group_IT_number 2
_symmetry_cell_setting 'triclinic'
loop_
_space_group_symop_operation_xyz
x,y,z
-x,-y,-z
loop_
_atom_site_type_symbol
_atom_site_label
_atom_site_fract_x
_atom_site_fract_y
_atom_site_fract_z
Si Si1 0.865428 0.866417 0.804319
Si Si2 0.814041 0.291027 0.268085
Si Si3 0.929865 0.685767 0.375578
Si Si4 0.457286 0.711476 0.041801
Si Si5 0.153897 0.147141 0.684414
Si Si6 0.540335 0.796321 0.609164
Si Si7 0.963198 0.214363 0.081990
Si Si8 0.677484 0.060463 0.791260
O O1 0.867973 0.745299 0.943531
O O2 0.626741 0.741554 0.994354
O O3 0.000000 0.000000 0.500000
O O4 0.993747 0.014856 0.739436
O O5 0.606885 0.218740 0.390036
O O6 0.886057 0.262153 0.146506
O O7 0.781047 0.202162 0.501498
O O8 0.000000 0.500000 0.000000
O O9 0.777864 0.483435 0.642822
O O10 0.805826 0.705550 0.441427
O O11 0.136516 0.833616 0.262755
O O12 0.986949 0.730243 0.149159
O O13 0.451786 0.710048 0.875703
O O14 0.557901 0.883464 0.918297
O O15 0.376950 0.241065 0.484772
O O16 0.000000 0.000000 0.000000
O O17 0.760839 0.002957 0.363364
O O18 0.500000 0.000000 0.000000
#
# Coordination Sequence:
#
# PCOD9054383 Si02
#       8
#     2   2   2   2   2   2   2   2
#     4  11  20  43  72  98 135 184 229 279 356 408
#     4  12  27  46  71 101 140 187 238 286 340 424
#     4  12  27  45  71 110 140 179 237 292 350 412
#     4  12  26  44  73 104 142 184 230 297 348 412
#     4  11  22  43  73 100 138 178 228 291 345 409
#     4  11  23  45  72  99 137 191 227 282 362 404
#     4  11  24  45  71  99 143 184 227 288 347 418
#     4  12  28  47  72 101 141 188 233 289 346 419
#
# _framework density 20.457011000000001
#
# number of rings (size 3 to 8) (size 9 to 14) (size 15 to 20)
#    0.000    0.500    7.500    1.875    3.500    2.500 
#    0.000    0.000    0.000    0.000    0.000    0.000 
#    0.000    0.000    0.000    0.000    0.000    0.000 
#
# Total GULP energy -89225.616020 kJ/mol
# GULP energy per Si atom -5576.601001 kJ/mol
# Density = 2.041045 g / cm^3
# Si number density = 20.457011 Si / 1000 Ang^3
#
#
#
# Elastic Constant Matrix: (Units=GPa)
#
#
# Indices 1 2 3 4 5 6 
#
# 1 121.9108 43.6070 39.7745 22.4835 -1.0702 -15.8699
# 2 43.6070 87.9879 49.0860 29.0425 6.5793 -13.0999
# 3 39.7745 49.0860 218.3961 27.2907 13.6422 3.4938
# 4 22.4835 29.0425 27.2907 47.9540 1.4278 6.1655
# 5 -1.0702 6.5793 13.6422 1.4278 27.0534 11.5661
# 6 -15.8699 -13.0999 3.4938 6.1655 11.5661 32.2084
#
#
#
# Elastic Compliance Matrix: (Units=1/GPa)
#
#
# Indices 1 2 3 4 5 6 
#
# 1 0.010844 -0.002955 -0.000946 -0.003391 -0.000340 0.005015
# 2 -0.002955 0.020093 -0.002298 -0.010775 -0.008430 0.012056
# 3 -0.000946 -0.002298 0.005532 -0.001111 -0.001707 -0.001175
# 4 -0.003391 -0.010775 -0.001111 0.031259 0.007669 -0.014670
# 5 -0.000340 -0.008430 -0.001707 0.007669 0.049078 -0.022503
# 6 0.005015 0.012056 -0.001175 -0.014670 -0.022503 0.049439
#
#
# Mechanical properties :
#
#
# Convention : Reuss Voigt Hill
#
# Bulk Modulus (GPa) = 41.54348 77.02552 59.28450
# Shear Modulus (GPa) = 26.78591 41.16500 33.97545
#
# Velocity S-wave (km/s) = 3.62246 4.49070 4.07974
# Velocity P-wave (km/s) = 6.15207 8.03882 7.15789
#
# Compressibility (1/GPa) = 0.02407117
#
# Stress axis : x y z
#
# Youngs Moduli (GPa) = 92.22105 49.76753 180.77198
#
# Poissons Ratio (x) = 0.14707 0.17099
# Poissons Ratio (y) = 0.27253 0.41537
# Poissons Ratio (z) = 0.08723 0.11435
#
# Static dielectric constant tensor:
#      x y z
#    x 1.214270 0.221880 0.124300 
#    y 0.221880 1.448040 -0.068700 
#    z 0.124300 -0.068700 1.664160 
# 
# From -- ./inp_files/272157.got.cif
#   From: 2010.05.17/outbox.cif.g08.bks.cpg/sg2_137_cif.got.tgz:272157.got - 2010.06.03 11:33:40.
