data_PCOD9054542
_publ_section_title
;
Structure prediction by ZEFSAII (Michael W. Deem and Ramdas Pophale) SiO2 
 PCOD9054542
Probable space group: P -1
;
_chemical_formula_sum "Si O2"
_cell_formula_units_Z 16
_cell_length_a 10.973209
_cell_length_b 15.066344
_cell_length_c 8.888086
_cell_angle_alpha 130.700751
_cell_angle_beta 128.172304
_cell_angle_gamma 40.484808
_cell_volume 700.682489
_symmetry_space_group_name_H-M "P -1"
_symmetry_group_IT_number 2
_symmetry_cell_setting 'triclinic'
loop_
_space_group_symop_operation_xyz
x,y,z
-x,-y,-z
loop_
_atom_site_type_symbol
_atom_site_label
_atom_site_fract_x
_atom_site_fract_y
_atom_site_fract_z
Si Si1 0.972946 0.669921 0.960958
Si Si2 0.083713 0.142877 0.359774
Si Si3 0.481710 0.345288 0.702997
Si Si4 0.769506 0.667385 0.250525
Si Si5 0.211245 0.683799 0.897361
Si Si6 0.113592 0.067950 0.643159
Si Si7 0.563986 0.033340 0.742129
Si Si8 0.534292 0.841919 0.749852
O O1 0.745735 0.739772 0.872148
O O2 0.100428 0.496200 0.894748
O O3 0.049014 0.687197 0.876649
O O4 0.997579 0.766265 0.201047
O O5 0.111236 0.271929 0.540996
O O6 0.138635 0.070877 0.485770
O O7 0.874779 0.221865 0.214444
O O8 0.223634 0.025197 0.208825
O O9 0.340560 0.334670 0.691039
O O10 0.376723 0.516551 0.791932
O O11 0.501053 0.264678 0.477738
O O12 0.682926 0.274860 0.864199
O O13 0.594236 0.796166 0.156570
O O14 0.317094 0.969877 0.783368
O O15 0.000000 0.000000 0.500000
O O16 0.500000 0.000000 0.500000
O O17 0.562836 0.934169 0.754657
#
# Coordination Sequence:
#
# PCOD9054542 Si02
#       8
#     2   2   2   2   2   2   2   2
#     4  11  24  40  66  97 128 168 220 254 327 385
#     4  11  20  41  68  94 129 168 222 263 315 379
#     4  10  19  35  64 100 136 160 203 275 329 366
#     4  10  19  38  64  95 126 164 207 277 310 371
#     4  10  21  37  63 102 130 167 212 261 325 388
#     4  12  27  45  61  91 135 178 206 265 326 389
#     4  10  17  35  65  97 118 154 211 269 317 347
#     4  12  20  41  66  92 126 168 217 264 312 380
#
# _framework density 22.834879000000001
#
# number of rings (size 3 to 8) (size 9 to 14) (size 15 to 20)
#    0.000    1.250    6.250    1.875    0.000    2.500 
#    2.250    1.875    0.000    9.750    0.000    0.000 
#    0.000    0.000    0.000    0.000    0.000    0.000 
#
# Total GULP energy -89353.121160 kJ/mol
# GULP energy per Si atom -5584.570073 kJ/mol
# Density = 2.278291 g / cm^3
# Si number density = 22.834879 Si / 1000 Ang^3
#
#
#
# Elastic Constant Matrix: (Units=GPa)
#
#
# Indices 1 2 3 4 5 6 
#
# 1 59.5932 21.2119 21.1428 6.7778 9.2667 -3.6501
# 2 21.2119 139.1377 48.2029 20.3977 6.5746 -21.1940
# 3 21.1428 48.2029 102.7673 22.0940 18.1188 -8.5252
# 4 6.7778 20.3977 22.0940 39.0299 -4.3316 -1.0160
# 5 9.2667 6.5746 18.1188 -4.3316 26.4265 2.4817
# 6 -3.6501 -21.1940 -8.5252 -1.0160 2.4817 24.1544
#
#
#
# Elastic Compliance Matrix: (Units=1/GPa)
#
#
# Indices 1 2 3 4 5 6 
#
# 1 0.019130 -0.001543 -0.001609 -0.002202 -0.005720 0.001464
# 2 -0.001543 0.010126 -0.002849 -0.003356 -0.001292 0.007637
# 3 -0.001609 -0.002849 0.015326 -0.008025 -0.010874 0.003446
# 4 -0.002202 -0.003356 -0.008025 0.033606 0.013185 -0.006050
# 5 -0.005720 -0.001292 -0.010874 0.013185 0.050771 -0.010497
# 6 0.001464 0.007637 0.003446 -0.006050 -0.010497 0.050363
#
#
# Mechanical properties :
#
#
# Convention : Reuss Voigt Hill
#
# Bulk Modulus (GPa) = 30.69365 53.62371 42.15868
# Shear Modulus (GPa) = 24.72997 31.98487 28.35742
#
# Velocity S-wave (km/s) = 3.29445 3.74666 3.52781
# Velocity P-wave (km/s) = 5.28602 6.50006 5.92422
#
# Compressibility (1/GPa) = 0.03258003
#
# Stress axis : x y z
#
# Youngs Moduli (GPa) = 52.27421 98.75745 65.24665
#
# Poissons Ratio (x) = 0.15239 0.10497
# Poissons Ratio (y) = 0.08066 0.18591
# Poissons Ratio (z) = 0.08410 0.28139
#
# Static dielectric constant tensor:
#      x y z
#    x 1.902530 -0.052240 -0.003560 
#    y -0.052240 1.890020 -0.004490 
#    z -0.003560 -0.004490 1.873390 
# 
# From -- ./inp_files/274476.got.cif
#   From: 2010.05.17/outbox.cif.g08.bks.cpg/sg2_138_cif.got.tgz:274476.got - 2010.06.03 11:33:40.
