data_PCOD9054671
_publ_section_title
;
Structure prediction by ZEFSAII (Michael W. Deem and Ramdas Pophale) SiO2 
 PCOD9054671
Probable space group: P -1
;
_chemical_formula_sum "Si O2"
_cell_formula_units_Z 16
_cell_length_a 14.219345
_cell_length_b 8.651170
_cell_length_c 12.829232
_cell_angle_alpha 135.052474
_cell_angle_beta 37.974983
_cell_angle_gamma 135.114685
_cell_volume 643.533118
_symmetry_space_group_name_H-M "P -1"
_symmetry_group_IT_number 2
_symmetry_cell_setting 'triclinic'
loop_
_space_group_symop_operation_xyz
x,y,z
-x,-y,-z
loop_
_atom_site_type_symbol
_atom_site_label
_atom_site_fract_x
_atom_site_fract_y
_atom_site_fract_z
Si Si1 0.482990 0.747837 0.847106
Si Si2 0.697178 0.763493 0.849079
Si Si3 0.607872 0.981832 0.231282
Si Si4 0.844649 0.461537 0.689779
Si Si5 0.328778 0.064450 0.425524
Si Si6 0.943729 0.377079 0.101578
Si Si7 0.982594 0.864826 0.341336
Si Si8 0.795881 0.699872 0.049724
O O1 0.613420 0.692162 0.777895
O O2 0.537216 0.778470 0.696099
O O3 0.315633 0.543327 0.916383
O O4 0.500000 0.000000 0.000000
O O5 0.723024 0.535602 0.759235
O O6 0.599957 0.844615 0.062455
O O7 0.863161 0.980219 0.787698
O O8 0.435536 0.026064 0.411155
O O9 0.755556 0.224435 0.202029
O O10 0.679938 0.845915 0.188929
O O11 0.866047 0.634799 0.850043
O O12 0.000000 0.500000 0.500000
O O13 0.763057 0.194055 0.664386
O O14 0.179823 0.160954 0.596625
O O15 0.980195 0.608644 0.249926
O O16 0.048263 0.217800 0.971203
O O17 0.000000 0.500000 0.000000
O O18 0.000000 0.000000 0.500000
#
# Coordination Sequence:
#
# PCOD9054671 Si02
#       8
#     2   2   2   2   2   2   2   2
#     4  12  20  35  64  99 137 171 226 284 332 395
#     4  11  21  37  64  97 133 177 221 271 340 403
#     4  11  24  43  64  96 133 184 227 275 337 413
#     4  11  22  37  63 100 140 175 217 281 344 401
#     4  12  23  39  65 101 142 175 226 282 346 399
#     4  12  25  45  72  97 136 183 236 280 338 415
#     4  12  24  41  69 106 137 173 227 289 344 396
#     4  11  24  42  67  99 135 181 236 281 338 410
#
# _framework density 24.862745
#
# number of rings (size 3 to 8) (size 9 to 14) (size 15 to 20)
#    0.000    0.500    6.250    3.375    0.000    2.500 
#    0.000    0.000    0.000    2.250    0.000    0.000 
#    0.000    0.000    0.000    0.000    0.000    0.000 
#
# Total GULP energy -89470.582552 kJ/mol
# GULP energy per Si atom -5591.911409 kJ/mol
# Density = 2.480616 g / cm^3
# Si number density = 24.862745 Si / 1000 Ang^3
#
#
#
# Elastic Constant Matrix: (Units=GPa)
#
#
# Indices 1 2 3 4 5 6 
#
# 1 140.3622 3.3230 29.5060 6.2120 -38.2456 -11.3799
# 2 3.3230 95.7822 18.0301 -9.5207 -4.0725 2.4717
# 3 29.5060 18.0301 76.6601 -15.7225 -8.4245 -1.1652
# 4 6.2120 -9.5207 -15.7225 32.8668 1.5994 -13.6688
# 5 -38.2456 -4.0725 -8.4245 1.5994 48.5000 -2.1693
# 6 -11.3799 2.4717 -1.1652 -13.6688 -2.1693 35.5868
#
#
#
# Elastic Compliance Matrix: (Units=1/GPa)
#
#
# Indices 1 2 3 4 5 6 
#
# 1 0.010361 0.000319 -0.003795 -0.003028 0.007748 0.002476
# 2 0.000319 0.011084 -0.002217 0.002100 0.000733 0.000111
# 3 -0.003795 -0.002217 0.016982 0.009520 -0.000403 0.003128
# 4 -0.003028 0.002100 0.009520 0.042673 -0.001272 0.015510
# 5 0.007748 0.000733 -0.000403 -0.001272 0.026922 0.003566
# 6 0.002476 0.000111 0.003128 0.015510 0.003566 0.035162
#
#
# Mechanical properties :
#
#
# Convention : Reuss Voigt Hill
#
# Bulk Modulus (GPa) = 36.97922 46.05808 41.51865
# Shear Modulus (GPa) = 30.56592 40.85376 35.70984
#
# Velocity S-wave (km/s) = 3.51006 4.05800 3.79394
# Velocity P-wave (km/s) = 5.59759 6.36566 5.99394
#
# Compressibility (1/GPa) = 0.02704222
#
# Stress axis : x y z
#
# Youngs Moduli (GPa) = 96.51975 90.22309 58.88502
#
# Poissons Ratio (x) = -0.02882 0.22346
# Poissons Ratio (y) = -0.03083 0.13053
# Poissons Ratio (z) = 0.36628 0.20000
#
# Static dielectric constant tensor:
#      x y z
#    x 2.082080 -0.031410 -0.063210 
#    y -0.031410 1.997260 0.042500 
#    z -0.063210 0.042500 2.093010 
# 
# From -- ./inp_files/529054.got.cif
#   From: 2010.05.17/outbox.cif.g08.bks.cpg/sg2_265_cif.got.tgz:529054.got - 2010.06.03 11:33:40.
