data_PCOD9054314
_publ_section_title
;
Structure prediction by ZEFSAII (Michael W. Deem and Ramdas Pophale) SiO2 
 PCOD9054314
Probable space group: P -1
;
_chemical_formula_sum "Si O2"
_cell_formula_units_Z 16
_cell_length_a 9.317544
_cell_length_b 7.965313
_cell_length_c 11.539351
_cell_angle_alpha 108.544544
_cell_angle_beta 113.221224
_cell_angle_gamma 81.728854
_cell_volume 746.005673
_symmetry_space_group_name_H-M "P -1"
_symmetry_group_IT_number 2
_symmetry_cell_setting 'triclinic'
loop_
_space_group_symop_operation_xyz
x,y,z
-x,-y,-z
loop_
_atom_site_type_symbol
_atom_site_label
_atom_site_fract_x
_atom_site_fract_y
_atom_site_fract_z
Si Si1 0.720266 0.761805 0.290141
Si Si2 0.663903 0.137063 0.459417
Si Si3 0.376996 0.154363 0.969700
Si Si4 0.974527 0.962579 0.120911
Si Si5 0.547984 0.697238 0.747478
Si Si6 0.939937 0.316579 0.724777
Si Si7 0.156412 0.297825 0.284894
Si Si8 0.413584 0.354793 0.561445
O O1 0.619552 0.788798 0.149042
O O2 0.640213 0.625339 0.318788
O O3 0.893367 0.717185 0.291527
O O4 0.711907 0.934886 0.407984
O O5 0.605440 0.202098 0.327834
O O6 0.808519 0.235331 0.582655
O O7 0.517307 0.190230 0.508241
O O8 0.421724 0.306510 0.108171
O O9 0.205731 0.079066 0.923520
O O10 0.500000 0.000000 0.000000
O O11 0.033907 0.145169 0.237248
O O12 0.059714 0.794980 0.178184
O O13 0.000000 0.000000 0.000000
O O14 0.703594 0.787502 0.766992
O O15 0.535449 0.514445 0.633319
O O16 0.911111 0.529155 0.765987
O O17 0.250386 0.359993 0.441638
#
# Coordination Sequence:
#
# PCOD9054314 Si02
#       8
#     2   2   2   2   2   2   2   2
#     4  11  25  40  63 103 140 174 224 278 342 410
#     4  11  20  42  70  94 135 178 225 282 333 397
#     4  11  24  45  66  95 139 182 222 278 340 406
#     4  11  25  44  70  97 134 186 225 272 340 407
#     4  11  21  43  72  94 137 176 228 283 328 400
#     4  11  24  43  67 106 137 172 225 287 345 393
#     4  11  22  45  71 103 136 174 233 285 332 401
#     4  11  23  41  70 103 130 182 227 277 342 394
#
# _framework density 21.447558000000001
#
# number of rings (size 3 to 8) (size 9 to 14) (size 15 to 20)
#    0.000    1.000    5.000    2.250    0.000    5.500 
#    0.000    0.000    0.000    0.000    0.000    0.000 
#    0.000    0.000    0.000    0.000    0.000    0.000 
#
# Total GULP energy -89171.495502 kJ/mol
# GULP energy per Si atom -5573.218469 kJ/mol
# Density = 2.139874 g / cm^3
# Si number density = 21.447558 Si / 1000 Ang^3
#
#
#
# Elastic Constant Matrix: (Units=GPa)
#
#
# Indices 1 2 3 4 5 6 
#
# 1 45.3418 14.3264 33.6677 -20.7251 4.1569 2.0497
# 2 14.3264 76.3187 29.6803 -10.5094 18.6028 1.8958
# 3 33.6677 29.6803 127.0753 -11.7536 13.4560 13.6017
# 4 -20.7251 -10.5094 -11.7536 40.9155 4.4185 -0.6400
# 5 4.1569 18.6028 13.4560 4.4185 31.9520 -7.9172
# 6 2.0497 1.8958 13.6017 -0.6400 -7.9172 31.9719
#
#
#
# Elastic Compliance Matrix: (Units=1/GPa)
#
#
# Indices 1 2 3 4 5 6 
#
# 1 0.035364 -0.000822 -0.007436 0.015905 -0.003065 0.000504
# 2 -0.000822 0.017252 -0.002022 0.004511 -0.010349 -0.002583
# 3 -0.007436 -0.002022 0.011182 -0.000751 -0.003724 -0.005098
# 4 0.015905 0.004511 -0.000751 0.034457 -0.009815 -0.002708
# 5 -0.003065 -0.010349 -0.003724 -0.009815 0.043884 0.013065
# 6 0.000504 -0.002583 -0.005098 -0.002708 0.013065 0.036748
#
#
# Mechanical properties :
#
#
# Convention : Reuss Voigt Hill
#
# Bulk Modulus (GPa) = 23.12770 44.89829 34.01299
# Shear Modulus (GPa) = 23.37989 32.37198 27.87594
#
# Velocity S-wave (km/s) = 3.30524 3.88926 3.60908
# Velocity P-wave (km/s) = 5.03716 6.41466 5.76718
#
# Compressibility (1/GPa) = 0.04323819
#
# Stress axis : x y z
#
# Youngs Moduli (GPa) = 28.27766 57.96547 89.42835
#
# Poissons Ratio (x) = 0.04764 0.66496
# Poissons Ratio (y) = 0.02324 0.18083
# Poissons Ratio (z) = 0.21026 0.11721
#
# Static dielectric constant tensor:
#      x y z
#    x 1.770530 0.035330 -0.032630 
#    y 0.035330 1.945690 -0.002130 
#    z -0.032630 -0.002130 1.817300 
# 
# From -- ./inp_files/383383.got.cif
#   From: 2010.05.17/outbox.cif.g08.bks.cpg/sg2_192_cif.got.tgz:383383.got - 2010.06.03 11:33:40.
