data_PCOD9054056
_publ_section_title
;
Structure prediction by ZEFSAII (Michael W. Deem and Ramdas Pophale) SiO2 
 PCOD9054056
Probable space group: P -1
;
_chemical_formula_sum "Si O2"
_cell_formula_units_Z 16
_cell_length_a 8.907149
_cell_length_b 7.075172
_cell_length_c 18.927912
_cell_angle_alpha 133.479880
_cell_angle_beta 111.836964
_cell_angle_gamma 50.423759
_cell_volume 662.414100
_symmetry_space_group_name_H-M "P -1"
_symmetry_group_IT_number 2
_symmetry_cell_setting 'triclinic'
loop_
_space_group_symop_operation_xyz
x,y,z
-x,-y,-z
loop_
_atom_site_type_symbol
_atom_site_label
_atom_site_fract_x
_atom_site_fract_y
_atom_site_fract_z
Si Si1 0.826120 0.585005 0.437326
Si Si2 0.669994 0.485436 0.922648
Si Si3 0.837037 0.730709 0.908050
Si Si4 0.962464 0.790719 0.751053
Si Si5 0.434525 0.709918 0.470881
Si Si6 0.735010 0.267614 0.128325
Si Si7 0.353642 0.266894 0.270625
Si Si8 0.278696 0.159144 0.860866
O O1 0.637185 0.640761 0.457921
O O2 0.000000 0.500000 0.500000
O O3 0.927749 0.293635 0.325697
O O4 0.730865 0.911818 0.459120
O O5 0.695765 0.693901 0.925077
O O6 0.485805 0.478593 0.868612
O O7 0.860942 0.139776 0.854891
O O8 0.650695 0.645079 0.034719
O O9 0.754328 0.749703 0.821664
O O10 0.053931 0.421756 0.872724
O O11 0.826401 0.026668 0.016301
O O12 0.783710 0.750644 0.700255
O O13 0.139323 0.602642 0.790163
O O14 0.500000 0.500000 0.500000
O O15 0.345904 0.577564 0.367298
O O16 0.717249 0.083917 0.144788
O O17 0.581059 0.018464 0.226463
#
# Coordination Sequence:
#
# PCOD9054056 Si02
#       8
#     2   2   2   2   2   2   2   2
#     4  11  28  52  83 113 145 191 251 312 379 448
#     4  11  21  39  67  94 141 189 239 290 351 433
#     4  11  21  39  67  96 135 191 245 286 354 426
#     4  12  27  42  66 107 144 188 236 297 369 433
#     4  11  28  54  81 111 149 191 247 315 380 447
#     4  11  20  40  65  94 139 190 240 291 346 433
#     4  12  27  42  68 105 142 187 239 301 362 432
#     4  11  20  40  65  97 135 190 243 289 349 428
#
# _framework density 24.154074999999999
#
# number of rings (size 3 to 8) (size 9 to 14) (size 15 to 20)
#    0.000    0.750    5.000    3.000    1.750    7.000 
#    0.000    0.000    0.000    0.000    0.000    0.000 
#    0.000    0.000    0.000    0.000    0.000    0.000 
#
# Total GULP energy -89434.629016 kJ/mol
# GULP energy per Si atom -5589.664314 kJ/mol
# Density = 2.409910 g / cm^3
# Si number density = 24.154075 Si / 1000 Ang^3
#
#
#
# Elastic Constant Matrix: (Units=GPa)
#
#
# Indices 1 2 3 4 5 6 
#
# 1 110.8721 35.1837 7.6327 0.7727 4.6845 -14.9544
# 2 35.1837 97.9529 11.4519 -6.6837 -9.2942 -14.3218
# 3 7.6327 11.4519 92.6384 -5.2501 5.4309 -7.1606
# 4 0.7727 -6.6837 -5.2501 24.7111 -7.1344 -0.0628
# 5 4.6845 -9.2942 5.4309 -7.1344 30.7203 -3.8398
# 6 -14.9544 -14.3218 -7.1606 -0.0628 -3.8398 51.0557
#
#
#
# Elastic Compliance Matrix: (Units=1/GPa)
#
#
# Indices 1 2 3 4 5 6 
#
# 1 0.010694 -0.004024 -0.000199 -0.002369 -0.003146 0.001736
# 2 -0.004024 0.013172 -0.001151 0.005295 0.006387 0.002842
# 3 -0.000199 -0.001151 0.011230 0.001561 -0.001808 0.001060
# 4 -0.002369 0.005295 0.001561 0.045952 0.012611 0.002015
# 5 -0.003146 0.006387 -0.001808 0.012611 0.038655 0.003539
# 6 0.001736 0.002842 0.001060 0.002015 0.003539 0.021309
#
#
# Mechanical properties :
#
#
# Convention : Reuss Voigt Hill
#
# Bulk Modulus (GPa) = 41.07505 45.55554 43.31529
# Shear Modulus (GPa) = 31.27428 37.77710 34.52569
#
# Velocity S-wave (km/s) = 3.60221 3.95904 3.78483
# Velocity P-wave (km/s) = 5.86034 6.30873 6.08866
#
# Compressibility (1/GPa) = 0.02434568
#
# Stress axis : x y z
#
# Youngs Moduli (GPa) = 93.51300 75.91949 89.04875
#
# Poissons Ratio (x) = 0.30551 0.01774
# Poissons Ratio (y) = 0.37631 0.10254
# Poissons Ratio (z) = 0.01863 0.08742
#
# Static dielectric constant tensor:
#      x y z
#    x 1.984420 0.056110 -0.010400 
#    y 0.056110 1.958190 -0.003920 
#    z -0.010400 -0.003920 1.889640 
# 
# From -- ./inp_files/588222.got.cif
#   From: 2010.05.17/outbox.cif.g08.bks.cpg/sg2_295_cif.got.tgz:588222.got - 2010.06.03 11:33:40.
