data_PCOD9054474
_publ_section_title
;
Structure prediction by ZEFSAII (Michael W. Deem and Ramdas Pophale) SiO2 
 PCOD9054474
Probable space group: P -1
;
_chemical_formula_sum "Si O2"
_cell_formula_units_Z 16
_cell_length_a 11.861925
_cell_length_b 16.545199
_cell_length_c 11.576586
_cell_angle_alpha 134.706479
_cell_angle_beta 107.806835
_cell_angle_gamma 35.991042
_cell_volume 736.463453
_symmetry_space_group_name_H-M "P -1"
_symmetry_group_IT_number 2
_symmetry_cell_setting 'triclinic'
loop_
_space_group_symop_operation_xyz
x,y,z
-x,-y,-z
loop_
_atom_site_type_symbol
_atom_site_label
_atom_site_fract_x
_atom_site_fract_y
_atom_site_fract_z
Si Si1 0.494383 0.959939 0.090743
Si Si2 0.714176 0.540555 0.778797
Si Si3 0.722593 0.196262 0.646731
Si Si4 0.691503 0.163367 0.245219
Si Si5 0.930234 0.193526 0.344533
Si Si6 0.427173 0.661460 0.988228
Si Si7 0.970587 0.285234 0.224340
Si Si8 0.496603 0.811305 0.565788
O O1 0.221088 0.136121 0.195492
O O2 0.528664 0.034298 0.264679
O O3 0.694676 0.691797 0.906278
O O4 0.500000 0.000000 0.000000
O O5 0.496080 0.680749 0.764379
O O6 0.943468 0.277037 0.533222
O O7 0.644719 0.559317 0.904492
O O8 0.657114 0.261578 0.827158
O O9 0.663730 0.118877 0.509079
O O10 0.529160 0.449133 0.782871
O O11 0.000000 0.000000 0.500000
O O12 0.757792 0.235357 0.370772
O O13 0.589424 0.174796 0.328276
O O14 0.939284 0.887800 0.008084
O O15 0.848886 0.326219 0.336973
O O16 0.184383 0.918175 0.111929
O O17 0.781920 0.533872 0.361208
#
# Coordination Sequence:
#
# PCOD9054474 Si02
#       8
#     2   2   2   2   2   2   2   2
#     4  11  21  43  59  97 140 171 211 257 320 396
#     4  11  22  36  60  91 131 169 202 268 319 375
#     4  11  26  46  67  92 128 174 219 273 317 379
#     4  11  21  33  56  99 133 156 207 260 326 396
#     4  12  21  36  64  97 131 163 208 265 338 389
#     4  11  23  43  64  90 128 164 217 266 326 371
#     4  11  22  36  62  98 135 169 200 264 329 389
#     4  12  23  40  66  95 130 178 216 251 326 389
#
# _framework density 21.725449999999999
#
# number of rings (size 3 to 8) (size 9 to 14) (size 15 to 20)
#    0.000    0.750    6.250    4.125    1.750    1.000 
#    0.000    0.625    0.000    1.500    0.000    0.000 
#    0.000    0.000    0.000    0.000    0.000    0.000 
#
# Total GULP energy -89343.860708 kJ/mol
# GULP energy per Si atom -5583.991294 kJ/mol
# Density = 2.167600 g / cm^3
# Si number density = 21.725450 Si / 1000 Ang^3
#
#
#
# Elastic Constant Matrix: (Units=GPa)
#
#
# Indices 1 2 3 4 5 6 
#
# 1 79.7236 0.1530 35.0234 -2.8764 24.2783 3.0111
# 2 0.1530 28.3966 16.3678 3.4548 6.9542 -3.8271
# 3 35.0234 16.3678 129.5878 6.2727 22.0876 -3.6376
# 4 -2.8764 3.4548 6.2727 31.9255 6.7193 0.4389
# 5 24.2783 6.9542 22.0876 6.7193 56.0549 -7.9991
# 6 3.0111 -3.8271 -3.6376 0.4389 -7.9991 29.6397
#
#
#
# Elastic Compliance Matrix: (Units=1/GPa)
#
#
# Indices 1 2 3 4 5 6 
#
# 1 0.016671 0.002979 -0.003966 0.003478 -0.006976 -0.003730
# 2 0.002979 0.039675 -0.005016 -0.002352 -0.003483 0.003299
# 3 -0.003966 -0.005016 0.009720 -0.001476 -0.001222 0.000640
# 4 0.003478 -0.002352 -0.001476 0.033271 -0.005004 -0.002681
# 5 -0.006976 -0.003483 -0.001222 -0.005004 0.023298 0.006471
# 6 -0.003730 0.003299 0.000640 -0.002681 0.006471 0.036408
#
#
# Mechanical properties :
#
#
# Convention : Reuss Voigt Hill
#
# Bulk Modulus (GPa) = 18.49840 37.86626 28.18233
# Shear Modulus (GPa) = 26.44551 35.93494 31.19023
#
# Velocity S-wave (km/s) = 3.49271 4.07141 3.79311
# Velocity P-wave (km/s) = 4.97981 6.29040 5.67308
#
# Compressibility (1/GPa) = 0.05405874
#
# Stress axis : x y z
#
# Youngs Moduli (GPa) = 59.98525 25.20509 102.88263
#
# Poissons Ratio (x) = -0.07508 0.40801
# Poissons Ratio (y) = -0.17868 0.51607
# Poissons Ratio (z) = 0.23789 0.12643
#
# Static dielectric constant tensor:
#      x y z
#    x 1.788330 -0.004670 -0.019090 
#    y -0.004670 1.841810 0.028960 
#    z -0.019090 0.028960 1.847210 
# 
# From -- ./inp_files/437405.got.cif
#   From: 2010.05.17/outbox.cif.g08.bks.cpg/sg2_219_cif.got.tgz:437405.got - 2010.06.03 11:33:40.
