data_PCOD9054946
_publ_section_title
;
Structure prediction by ZEFSAII (Michael W. Deem and Ramdas Pophale) SiO2 
 PCOD9054946
Probable space group: P -1
;
_chemical_formula_sum "Si O2"
_cell_formula_units_Z 16
_cell_length_a 12.939915
_cell_length_b 9.311677
_cell_length_c 12.245388
_cell_angle_alpha 142.850403
_cell_angle_beta 127.936867
_cell_angle_gamma 66.715147
_cell_volume 688.712025
_symmetry_space_group_name_H-M "P -1"
_symmetry_group_IT_number 2
_symmetry_cell_setting 'triclinic'
loop_
_space_group_symop_operation_xyz
x,y,z
-x,-y,-z
loop_
_atom_site_type_symbol
_atom_site_label
_atom_site_fract_x
_atom_site_fract_y
_atom_site_fract_z
Si Si1 0.694670 0.611230 0.084703
Si Si2 0.882163 0.869219 0.526060
Si Si3 0.508979 0.780248 0.702033
Si Si4 0.577241 0.064029 0.704669
Si Si5 0.670687 0.985732 0.120211
Si Si6 0.135086 0.087890 0.214458
Si Si7 0.905791 0.402203 0.545935
Si Si8 0.014941 0.367383 0.817752
O O1 0.739121 0.772821 0.318959
O O2 0.635897 0.758910 0.042220
O O3 0.834647 0.580891 0.099646
O O4 0.607289 0.355188 0.905355
O O5 0.888887 0.984209 0.718876
O O6 0.951991 0.634184 0.430052
O O7 0.957160 0.083257 0.627124
O O8 0.500000 0.500000 0.500000
O O9 0.496682 0.924033 0.669603
O O10 0.407468 0.822931 0.758044
O O11 0.643045 0.900881 0.926991
O O12 0.500000 0.000000 0.500000
O O13 0.724681 0.991161 0.768570
O O14 0.818975 0.136743 0.311136
O O15 0.154720 0.379900 0.406915
O O16 0.000000 0.000000 0.000000
O O17 0.924998 0.450745 0.716150
O O18 0.000000 0.500000 0.000000
#
# Coordination Sequence:
#
# PCOD9054946 Si02
#       8
#     2   2   2   2   2   2   2   2
#     4  11  23  44  68 102 142 185 243 290 367 439
#     4  11  22  42  68 105 143 187 233 296 365 439
#     4  11  27  49  71 102 141 190 252 304 363 437
#     4  12  29  49  72 105 148 193 243 303 365 440
#     4  11  24  45  75 100 137 193 243 306 367 431
#     4  12  27  44  70 108 142 188 241 302 371 428
#     4  11  22  41  67 101 141 178 235 299 369 433
#     4  11  21  39  67 104 142 185 236 300 360 434
#
# _framework density 23.231770999999998
#
# number of rings (size 3 to 8) (size 9 to 14) (size 15 to 20)
#    0.000    0.750    2.500    5.625    5.250    4.500 
#    0.000    0.000    0.000    0.000    0.000    0.000 
#    0.000    0.000    0.000    0.000    0.000    0.000 
#
# Total GULP energy -89374.491912 kJ/mol
# GULP energy per Si atom -5585.905745 kJ/mol
# Density = 2.317889 g / cm^3
# Si number density = 23.231771 Si / 1000 Ang^3
#
#
#
# Elastic Constant Matrix: (Units=GPa)
#
#
# Indices 1 2 3 4 5 6 
#
# 1 49.5664 22.1803 33.1588 -9.9714 -13.4939 3.6204
# 2 22.1803 125.2928 48.8796 4.8183 -3.7931 10.0948
# 3 33.1588 48.8796 148.0867 -16.4065 -13.7781 14.9660
# 4 -9.9714 4.8183 -16.4065 55.3660 9.8758 -4.9542
# 5 -13.4939 -3.7931 -13.7781 9.8758 31.2707 -4.3891
# 6 3.6204 10.0948 14.9660 -4.9542 -4.3891 42.3264
#
#
#
# Elastic Compliance Matrix: (Units=1/GPa)
#
#
# Indices 1 2 3 4 5 6 
#
# 1 0.027129 -0.003136 -0.004045 0.002466 0.008916 0.001071
# 2 -0.003136 0.009764 -0.002697 -0.002189 -0.000870 -0.001453
# 3 -0.004045 -0.002697 0.009041 0.001826 0.001070 -0.001883
# 4 0.002466 -0.002189 0.001826 0.020189 -0.004555 0.001556
# 5 0.008916 -0.000870 0.001070 -0.004555 0.037977 0.002472
# 6 0.001071 -0.001453 -0.001883 0.001556 0.002472 0.024985
#
#
# Mechanical properties :
#
#
# Convention : Reuss Voigt Hill
#
# Bulk Modulus (GPa) = 38.20030 59.04258 48.62144
# Shear Modulus (GPa) = 31.73259 40.37446 36.05352
#
# Velocity S-wave (km/s) = 3.69984 4.17333 3.94370
# Velocity P-wave (km/s) = 5.89326 6.97797 6.45843
#
# Compressibility (1/GPa) = 0.02617781
#
# Stress axis : x y z
#
# Youngs Moduli (GPa) = 36.86055 102.42215 110.60806
#
# Poissons Ratio (x) = 0.32117 0.44743
# Poissons Ratio (y) = 0.11558 0.29832
# Poissons Ratio (z) = 0.14911 0.27624
#
# Static dielectric constant tensor:
#      x y z
#    x 1.972680 -0.092250 0.063920 
#    y -0.092250 1.933220 -0.051310 
#    z 0.063920 -0.051310 1.899350 
# 
# From -- ./inp_files/448423.got.cif
#   From: 2010.05.17/outbox.cif.g08.bks.cpg/sg2_225_cif.got.tgz:448423.got - 2010.06.03 11:33:40.
