data_PCOD9054885
_publ_section_title
;
Structure prediction by ZEFSAII (Michael W. Deem and Ramdas Pophale) SiO2 
 PCOD9054885
Probable space group: P -1
;
_chemical_formula_sum "Si O2"
_cell_formula_units_Z 16
_cell_length_a 13.594229
_cell_length_b 12.721501
_cell_length_c 12.222399
_cell_angle_alpha 36.524590
_cell_angle_beta 42.977655
_cell_angle_gamma 31.711800
_cell_volume 653.448522
_symmetry_space_group_name_H-M "P -1"
_symmetry_group_IT_number 2
_symmetry_cell_setting 'triclinic'
loop_
_space_group_symop_operation_xyz
x,y,z
-x,-y,-z
loop_
_atom_site_type_symbol
_atom_site_label
_atom_site_fract_x
_atom_site_fract_y
_atom_site_fract_z
Si Si1 0.897663 0.476885 0.004960
Si Si2 0.468730 0.515669 0.167234
Si Si3 0.507842 0.612416 0.504649
Si Si4 0.218065 0.310190 0.718203
Si Si5 0.924056 0.283321 0.656589
Si Si6 0.910128 0.057451 0.404082
Si Si7 0.589984 0.796229 0.833439
Si Si8 0.671997 0.978613 0.425208
O O1 0.882693 0.282314 0.204256
O O2 0.694348 0.711312 0.936531
O O3 0.000000 0.500000 0.000000
O O4 0.034470 0.390625 0.861728
O O5 0.452440 0.535009 0.296714
O O6 0.584268 0.244014 0.283187
O O7 0.250260 0.673448 0.177165
O O8 0.575848 0.604393 0.966223
O O9 0.500000 0.500000 0.500000
O O10 0.668480 0.632687 0.350794
O O11 0.298918 0.858117 0.482859
O O12 0.163416 0.461306 0.527521
O O13 0.374333 0.035546 0.807802
O O14 0.983851 0.129037 0.624950
O O15 0.114310 0.161903 0.672475
O O16 0.000000 0.000000 0.500000
O O17 0.702341 0.838406 0.627618
O O18 0.500000 0.000000 0.500000
#
# Coordination Sequence:
#
# PCOD9054885 Si02
#       8
#     2   2   2   2   2   2   2   2
#     4  12  25  40  61  99 136 184 234 273 335 404
#     4  11  24  45  68 101 136 180 226 283 348 404
#     4  11  21  39  62  96 135 179 226 269 335 399
#     4  11  24  39  66  95 137 183 219 279 342 389
#     4  11  21  45  67  97 139 173 225 284 338 411
#     4  12  23  39  65  94 136 186 227 274 337 403
#     4  12  24  47  69  97 143 176 233 292 335 420
#     4  12  26  48  77 102 132 181 228 293 359 407
#
# _framework density 24.485479999999999
#
# number of rings (size 3 to 8) (size 9 to 14) (size 15 to 20)
#    0.000    0.500    6.250    3.750    1.750    1.500 
#    0.000    0.625    0.000    0.000    0.000    0.000 
#    0.000    0.000    0.000    0.000    0.000    0.000 
#
# Total GULP energy -89522.694819 kJ/mol
# GULP energy per Si atom -5595.168426 kJ/mol
# Density = 2.442975 g / cm^3
# Si number density = 24.485480 Si / 1000 Ang^3
#
#
#
# Elastic Constant Matrix: (Units=GPa)
#
#
# Indices 1 2 3 4 5 6 
#
# 1 107.1424 26.7608 24.9345 -15.1469 -14.3848 -22.9946
# 2 26.7608 101.9052 14.0857 -16.6620 -7.8892 -29.3540
# 3 24.9345 14.0857 106.2817 -20.2505 -24.5879 3.1335
# 4 -15.1469 -16.6620 -20.2505 38.4048 -0.5348 -2.0941
# 5 -14.3848 -7.8892 -24.5879 -0.5348 40.9519 0.0741
# 6 -22.9946 -29.3540 3.1335 -2.0941 0.0741 45.5616
#
#
#
# Elastic Compliance Matrix: (Units=1/GPa)
#
#
# Indices 1 2 3 4 5 6 
#
# 1 0.012131 -0.000208 -0.001377 0.004358 0.003440 0.006278
# 2 -0.000208 0.013723 -0.000273 0.006255 0.002472 0.009039
# 3 -0.001377 -0.000273 0.012600 0.006001 0.007110 -0.001473
# 4 0.004358 0.006255 0.006001 0.034132 0.006771 0.007375
# 5 0.003440 0.002472 0.007110 0.006771 0.030455 0.003102
# 6 0.006278 0.009039 -0.001473 0.007375 0.003102 0.031375
#
#
# Mechanical properties :
#
#
# Convention : Reuss Voigt Hill
#
# Bulk Modulus (GPa) = 28.78696 49.65459 39.22078
# Shear Modulus (GPa) = 33.39750 41.62022 37.50886
#
# Velocity S-wave (km/s) = 3.69721 4.12733 3.91817
# Velocity P-wave (km/s) = 5.47796 6.56021 6.04336
#
# Compressibility (1/GPa) = 0.03473795
#
# Stress axis : x y z
#
# Youngs Moduli (GPa) = 82.43219 72.86977 79.36570
#
# Poissons Ratio (x) = 0.01516 0.10932
# Poissons Ratio (y) = 0.01715 0.02164
# Poissons Ratio (z) = 0.11355 0.01987
#
# Static dielectric constant tensor:
#      x y z
#    x 2.036890 0.033270 0.035740 
#    y 0.033270 1.971480 0.006070 
#    z 0.035740 0.006070 1.898460 
# 
# From -- ./inp_files/533587.got.cif
#   From: 2010.05.17/outbox.cif.g08.bks.cpg/sg2_267_cif.got.tgz:533587.got - 2010.06.03 11:33:40.
