data_PCOD9054399
_publ_section_title
;
Structure prediction by ZEFSAII (Michael W. Deem and Ramdas Pophale) SiO2 
 PCOD9054399
Probable space group: P -1
;
_chemical_formula_sum "Si O2"
_cell_formula_units_Z 12
_cell_length_a 11.974774
_cell_length_b 9.234351
_cell_length_c 9.805780
_cell_angle_alpha 119.579594
_cell_angle_beta 42.484655
_cell_angle_gamma 130.029547
_cell_volume 560.370360
_symmetry_space_group_name_H-M "P -1"
_symmetry_group_IT_number 2
_symmetry_cell_setting 'triclinic'
loop_
_space_group_symop_operation_xyz
x,y,z
-x,-y,-z
loop_
_atom_site_type_symbol
_atom_site_label
_atom_site_fract_x
_atom_site_fract_y
_atom_site_fract_z
Si Si1 0.336133 0.338954 0.662758
Si Si2 0.145540 0.065018 0.272804
Si Si3 0.022577 0.671487 0.153819
Si Si4 0.903742 0.060008 0.236243
Si Si5 0.450834 0.476582 0.191510
Si Si6 0.112237 0.563495 0.569777
O O1 0.500000 0.500000 0.500000
O O2 0.152492 0.306150 0.732450
O O3 0.371898 0.426876 0.822942
O O4 0.291548 0.122703 0.627374
O O5 0.331699 0.254831 0.230071
O O6 0.047585 0.115694 0.259495
O O7 0.000000 0.000000 0.500000
O O8 0.181261 0.890450 0.114164
O O9 0.001290 0.593493 0.288244
O O10 0.000000 0.500000 0.000000
O O11 0.872859 0.236604 0.308706
O O12 0.000000 0.000000 0.000000
O O13 0.313674 0.568457 0.383728
O O14 0.500000 0.500000 0.000000
O O15 0.000000 0.500000 0.500000
#
# Coordination Sequence:
#
# PCOD9054399 Si02
#       6
#     2   2   2   2   2   2
#     4  11  23  45  64  93 135 168 210 274 334 371
#     4  11  20  44  67  91 125 177 216 257 325 392
#     4  11  24  42  71  94 126 173 227 262 316 400
#     4  11  23  41  70  95 126 173 222 264 323 394
#     4  12  25  41  66  99 138 169 212 278 333 373
#     4  12  23  42  69  99 128 172 226 267 315 399
#
# _framework density 21.414408999999999
#
# number of rings (size 3 to 8) (size 9 to 14) (size 15 to 20)
#    0.000    0.667    5.000    4.000    2.333    0.667 
#    3.000    0.833    0.000    0.000    0.000    0.000 
#    0.000    0.000    0.000    0.000    0.000    0.000 
#
# Total GULP energy -66998.392019 kJ/mol
# GULP energy per Si atom -5583.199335 kJ/mol
# Density = 2.136567 g / cm^3
# Si number density = 21.414409 Si / 1000 Ang^3
#
#
#
# Elastic Constant Matrix: (Units=GPa)
#
#
# Indices 1 2 3 4 5 6 
#
# 1 78.5715 26.7379 6.2654 4.4676 33.7257 -4.3020
# 2 26.7379 166.0241 16.9675 22.8239 -14.6036 -15.2522
# 3 6.2654 16.9675 63.3401 15.2223 12.0155 -15.1849
# 4 4.4676 22.8239 15.2223 37.5179 -5.8952 -0.2721
# 5 33.7257 -14.6036 12.0155 -5.8952 37.5515 6.1892
# 6 -4.3020 -15.2522 -15.1849 -0.2721 6.1892 40.5329
#
#
#
# Elastic Compliance Matrix: (Units=1/GPa)
#
#
# Indices 1 2 3 4 5 6 
#
# 1 0.031868 -0.007310 0.010895 -0.009694 -0.038199 0.010481
# 2 -0.007310 0.008645 -0.003483 -0.001262 0.010927 -0.000505
# 3 0.010895 -0.003483 0.026721 -0.013702 -0.024055 0.013437
# 4 -0.009694 -0.001262 -0.013702 0.037209 0.019998 -0.009441
# 5 -0.038199 0.010927 -0.024055 0.019998 0.079477 -0.020956
# 6 0.010481 -0.000505 0.013437 -0.009441 -0.020956 0.033764
#
#
# Mechanical properties :
#
#
# Convention : Reuss Voigt Hill
#
# Bulk Modulus (GPa) = 14.82889 45.31970 30.07429
# Shear Modulus (GPa) = 20.83682 40.31812 30.57747
#
# Velocity S-wave (km/s) = 3.12272 4.34378 3.78285
# Velocity P-wave (km/s) = 4.46561 6.80933 5.75798
#
# Compressibility (1/GPa) = 0.06743593
#
# Stress axis : x y z
#
# Youngs Moduli (GPa) = 31.37977 115.67728 37.42407
#
# Poissons Ratio (x) = 0.84562 -0.40772
# Poissons Ratio (y) = 0.22939 0.13035
# Poissons Ratio (z) = -0.34187 0.40293
#
# Static dielectric constant tensor:
#      x y z
#    x 1.720440 -0.003110 0.000740 
#    y -0.003110 1.888020 0.044270 
#    z 0.000740 0.044270 1.844490 
# 
# From -- ./inp_files/146116.got.cif
#   From: 2010.05.17/outbox.cif.g08.bks.cpg/sg2_74_cif.got.tgz:146116.got - 2010.06.03 11:33:40.
