data_PCOD9054914
_publ_section_title
;
Structure prediction by ZEFSAII (Michael W. Deem and Ramdas Pophale) SiO2 
 PCOD9054914
Probable space group: P -1
;
_chemical_formula_sum "Si O2"
_cell_formula_units_Z 16
_cell_length_a 11.227180
_cell_length_b 20.832512
_cell_length_c 21.344052
_cell_angle_alpha 19.006907
_cell_angle_beta 32.074179
_cell_angle_gamma 27.261251
_cell_volume 743.925855
_symmetry_space_group_name_H-M "P -1"
_symmetry_group_IT_number 2
_symmetry_cell_setting 'triclinic'
loop_
_space_group_symop_operation_xyz
x,y,z
-x,-y,-z
loop_
_atom_site_type_symbol
_atom_site_label
_atom_site_fract_x
_atom_site_fract_y
_atom_site_fract_z
Si Si1 0.460980 0.615858 0.247502
Si Si2 0.119135 0.041061 0.506922
Si Si3 0.937168 0.517463 0.438325
Si Si4 0.025441 0.913629 0.996946
Si Si5 0.149185 0.634668 0.793328
Si Si6 0.680408 0.977358 0.328272
Si Si7 0.916449 0.245538 0.540256
Si Si8 0.598761 0.730969 0.198732
O O1 0.347697 0.454104 0.467667
O O2 0.213404 0.867076 0.130233
O O3 0.569486 0.547503 0.192277
O O4 0.653436 0.639464 0.187115
O O5 0.987892 0.201159 0.357117
O O6 0.947393 0.144655 0.549897
O O7 0.160815 0.794304 0.695196
O O8 0.384654 0.040130 0.404372
O O9 0.000000 0.500000 0.500000
O O10 0.157101 0.276563 0.537370
O O11 0.968556 0.710526 0.213466
O O12 0.269250 0.870264 0.885464
O O13 0.000000 0.000000 0.000000
O O14 0.000000 0.500000 0.000000
O O15 0.829000 0.935358 0.367052
O O16 0.845186 0.513372 0.323802
O O17 0.660392 0.268113 0.664817
O O18 0.500000 0.000000 0.000000
#
# Coordination Sequence:
#
# PCOD9054914 Si02
#       8
#     2   2   2   2   2   2   2   2
#     4  11  23  43  66 100 129 173 225 272 338 393
#     4  11  26  45  70  92 140 179 220 282 326 402
#     4  11  21  39  64  98 135 167 213 275 333 387
#     4  11  23  37  65 101 135 168 215 275 332 397
#     4  11  27  45  66 100 132 181 228 269 337 400
#     4  11  24  42  65 102 131 178 223 270 340 397
#     4  11  24  47  67 101 132 175 228 273 337 400
#     4  11  25  44  71  98 132 173 223 281 330 396
#
# _framework density 21.50752
#
# number of rings (size 3 to 8) (size 9 to 14) (size 15 to 20)
#    0.000    1.000    6.250    1.125    5.250    1.000 
#    0.000    0.000    0.000    4.500    0.000    0.000 
#    0.000    0.000    0.000    0.000    0.000    0.000 
#
# Total GULP energy -89242.626468 kJ/mol
# GULP energy per Si atom -5577.664154 kJ/mol
# Density = 2.145857 g / cm^3
# Si number density = 21.507520 Si / 1000 Ang^3
#
#
#
# Elastic Constant Matrix: (Units=GPa)
#
#
# Indices 1 2 3 4 5 6 
#
# 1 93.3621 7.3786 18.6621 -1.1890 5.3938 16.7982
# 2 7.3786 59.8660 15.9786 0.3522 -5.1235 21.8462
# 3 18.6621 15.9786 149.3796 -9.1474 -12.2870 17.3503
# 4 -1.1890 0.3522 -9.1474 23.2378 4.1442 -5.9544
# 5 5.3938 -5.1235 -12.2870 4.1442 24.4997 -1.0815
# 6 16.7982 21.8462 17.3503 -5.9544 -1.0815 42.5296
#
#
#
# Elastic Compliance Matrix: (Units=1/GPa)
#
#
# Indices 1 2 3 4 5 6 
#
# 1 0.011942 0.000212 -0.001302 -0.000444 -0.003359 -0.004442
# 2 0.000212 0.021393 -0.000934 -0.004295 0.004192 -0.011187
# 3 -0.001302 -0.000934 0.007560 0.001854 0.003492 -0.001742
# 4 -0.000444 -0.004295 0.001854 0.047204 -0.007500 0.008043
# 5 -0.003359 0.004192 0.003492 -0.007500 0.045358 -0.002148
# 6 -0.004442 -0.011187 -0.001742 0.008043 -0.002148 0.032796
#
#
# Mechanical properties :
#
#
# Convention : Reuss Voigt Hill
#
# Bulk Modulus (GPa) = 27.13905 42.96069 35.04987
# Shear Modulus (GPa) = 27.38464 35.42600 31.40532
#
# Velocity S-wave (km/s) = 3.57215 4.06291 3.82540
# Velocity P-wave (km/s) = 5.44605 6.48288 5.98695
#
# Compressibility (1/GPa) = 0.03684728
#
# Stress axis : x y z
#
# Youngs Moduli (GPa) = 83.73700 46.74369 132.27470
#
# Poissons Ratio (x) = -0.00990 0.17224
# Poissons Ratio (y) = -0.01773 0.12351
# Poissons Ratio (z) = 0.10904 0.04365
#
# Static dielectric constant tensor:
#      x y z
#    x 1.978460 -0.129800 -0.006660 
#    y -0.129800 1.745140 -0.039750 
#    z -0.006660 -0.039750 1.791470 
# 
# From -- ./inp_files/596169.got.cif
#   From: 2010.05.17/outbox.cif.g08.bks.cpg/sg2_299_cif.got.tgz:596169.got - 2010.06.03 11:33:40.
