data_PCOD9054763
_publ_section_title
;
Structure prediction by ZEFSAII (Michael W. Deem and Ramdas Pophale) SiO2 
 PCOD9054763
Probable space group: P -1
;
_chemical_formula_sum "Si O2"
_cell_formula_units_Z 14
_cell_length_a 8.425176
_cell_length_b 4.965595
_cell_length_c 14.459681
_cell_angle_alpha 74.013163
_cell_angle_beta 97.407080
_cell_angle_gamma 97.133742
_cell_volume 574.186130
_symmetry_space_group_name_H-M "P -1"
_symmetry_group_IT_number 2
_symmetry_cell_setting 'triclinic'
loop_
_space_group_symop_operation_xyz
x,y,z
-x,-y,-z
loop_
_atom_site_type_symbol
_atom_site_label
_atom_site_fract_x
_atom_site_fract_y
_atom_site_fract_z
Si Si1 0.180708 0.023007 0.625492
Si Si2 0.193802 0.196394 0.406457
Si Si3 0.517212 0.963807 0.139817
Si Si4 0.281766 0.821052 0.291065
Si Si5 0.016378 0.723141 0.133187
Si Si6 0.766088 0.157093 0.012104
Si Si7 0.254623 0.471363 0.751701
O O1 0.288072 0.767259 0.676371
O O2 0.999057 0.875978 0.612146
O O3 0.227508 0.184119 0.518901
O O4 0.195012 0.238278 0.691696
O O5 0.262601 0.486871 0.337245
O O6 0.267147 0.955857 0.376524
O O7 0.435840 0.954043 0.234458
O O8 0.601490 0.670188 0.173327
O O9 0.656861 0.193319 0.090999
O O10 0.369702 0.969964 0.057531
O O11 0.133274 0.865591 0.206895
O O12 0.896497 0.492044 0.195667
O O13 0.893037 0.940421 0.069473
O O14 0.126822 0.625171 0.066704
#
# Coordination Sequence:
#
# PCOD9054763 Si02
#       7
#     2   2   2   2   2   2   2
#     4  11  22  39  63  92 120 155 206 255 297 347
#     4  11  22  39  63  92 120 155 206 255 297 347
#     4   9  20  36  61  90 130 158 199 240 312 359
#     4  11  21  38  63  92 122 163 196 249 296 363
#     4   9  16  32  63  90 120 154 211 242 296 347
#     4   8  16  34  62  90 120 162 196 254 292 358
#     4  11  21  38  63  92 122 163 196 249 296 363
#
# _framework density 24.382335000000001
#
# number of rings (size 3 to 8) (size 9 to 14) (size 15 to 20)
#    0.000    2.000    2.857    0.857    0.000    3.429 
#    0.000    4.286    0.000  120.000    0.000    0.000 
#    0.000    0.000    0.000    0.000    0.000    0.000 
#
# Total GULP energy -78171.360216 kJ/mol
# GULP energy per Si atom -5583.668587 kJ/mol
# Density = 2.432684 g / cm^3
# Si number density = 24.382335 Si / 1000 Ang^3
#
#
#
# Elastic Constant Matrix: (Units=GPa)
#
#
# Indices 1 2 3 4 5 6 
#
# 1 47.7646 3.0040 33.0427 15.7112 5.4800 -3.3446
# 2 3.0040 75.5688 17.3602 13.1683 20.5952 8.5052
# 3 33.0427 17.3602 109.8023 -21.9783 -12.2853 17.8340
# 4 15.7112 13.1683 -21.9783 3.9268 -21.8797 17.7952
# 5 5.4800 20.5952 -12.2853 -21.8797 25.5055 7.6928
# 6 -3.3446 8.5052 17.8340 17.7952 7.6928 8.4182
#
#
#
# Elastic Compliance Matrix: (Units=1/GPa)
#
#
# Indices 1 2 3 4 5 6 
#
# 1 0.018148 -0.002482 -0.001326 0.007443 0.006652 -0.009287
# 2 -0.002482 0.016427 0.000569 0.001673 -0.005921 -0.016912
# 3 -0.001326 0.000569 0.006638 -0.007375 -0.004737 0.004753
# 4 0.007443 0.001673 -0.007375 0.001888 -0.012112 0.023969
# 5 0.006652 -0.005921 -0.004737 -0.012112 0.022830 0.023401
# 6 -0.009287 -0.016912 0.004753 0.023969 0.023401 0.050067
#
#
# Mechanical properties :
#
#
# Convention : Reuss Voigt Hill
#
# Bulk Modulus (GPa) = 28.78964 37.77216 33.28090
# Shear Modulus (GPa) = 37.29862 19.55202 28.42532
#
# Velocity S-wave (km/s) = 3.91543 2.83484 3.41811
# Velocity P-wave (km/s) = 5.68102 5.12253 5.40899
#
# Compressibility (1/GPa) = 0.03473472
#
# Stress axis : x y z
#
# Youngs Moduli (GPa) = 55.10379 60.87656 150.63757
#
# Poissons Ratio (x) = 0.15107 0.19977
# Poissons Ratio (y) = 0.13674 -0.08567
# Poissons Ratio (z) = 0.07308 -0.03462
#
# Static dielectric constant tensor:
#      x y z
#    x 1.964040 0.028260 -0.028120 
#    y 0.028260 1.872240 0.007910 
#    z -0.028120 0.007910 1.990290 
# 
# From -- ./inp_files/46648.got.cif
#   From: 2010.05.17/outbox.cif.g08.bks.cpg/sg2_24_cif.got.tgz:46648.got - 2010.06.03 11:33:40.
