data_PCOD9054937
_publ_section_title
;
Structure prediction by ZEFSAII (Michael W. Deem and Ramdas Pophale) SiO2 
 PCOD9054937
Probable space group: P -1
;
_chemical_formula_sum "Si O2"
_cell_formula_units_Z 16
_cell_length_a 12.511892
_cell_length_b 14.986272
_cell_length_c 9.088670
_cell_angle_alpha 40.953237
_cell_angle_beta 73.331226
_cell_angle_gamma 51.064146
_cell_volume 807.766075
_symmetry_space_group_name_H-M "P -1"
_symmetry_group_IT_number 2
_symmetry_cell_setting 'triclinic'
loop_
_space_group_symop_operation_xyz
x,y,z
-x,-y,-z
loop_
_atom_site_type_symbol
_atom_site_label
_atom_site_fract_x
_atom_site_fract_y
_atom_site_fract_z
Si Si1 0.628992 0.567030 0.624432
Si Si2 0.885797 0.984205 0.996303
Si Si3 0.080096 0.566653 0.815433
Si Si4 0.898907 0.972981 0.487774
Si Si5 0.078675 0.563125 0.466535
Si Si6 0.362766 0.459375 0.990406
Si Si7 0.697846 0.183956 0.543167
Si Si8 0.677066 0.221571 0.022078
O O1 0.758308 0.550871 0.523466
O O2 0.461468 0.743250 0.437035
O O3 0.641693 0.549482 0.819741
O O4 0.649219 0.398262 0.762246
O O5 0.979513 0.773383 0.201721
O O6 0.746400 0.076934 0.045303
O O7 0.813334 0.101101 0.732527
O O8 0.000000 0.000000 0.000000
O O9 0.087239 0.548062 0.659177
O O10 0.239531 0.466033 0.952219
O O11 0.987203 0.776135 0.633398
O O12 0.000000 0.500000 0.000000
O O13 0.774588 0.028291 0.585114
O O14 0.808646 0.120936 0.213120
O O15 0.000000 0.000000 0.500000
O O16 0.000000 0.500000 0.500000
O O17 0.331076 0.642928 0.730662
O O18 0.525810 0.296219 0.066082
#
# Coordination Sequence:
#
# PCOD9054937 Si02
#       8
#     2   2   2   2   2   2   2   2
#     4  11  22  41  65  98 137 167 209 268 331 379
#     4  12  24  41  65 101 130 169 219 273 321 379
#     4  12  27  45  68  95 128 175 219 265 328 389
#     4  12  21  40  69 100 129 166 224 267 311 388
#     4  12  28  46  65  93 134 175 215 270 327 384
#     4  11  22  41  65  99 134 169 212 266 326 382
#     4  11  23  37  68 102 131 170 211 266 328 380
#     4  11  21  39  66  98 135 166 212 270 323 380
#
# _framework density 19.807715000000002
#
# number of rings (size 3 to 8) (size 9 to 14) (size 15 to 20)
#    0.000    0.500    6.250    3.000    5.250    1.000 
#    0.000    2.500    0.000    0.000    0.000    0.000 
#    0.000    0.000    0.000    0.000    0.000    0.000 
#
# Total GULP energy -89442.914349 kJ/mol
# GULP energy per Si atom -5590.182147 kJ/mol
# Density = 1.976263 g / cm^3
# Si number density = 19.807715 Si / 1000 Ang^3
#
#
#
# Elastic Constant Matrix: (Units=GPa)
#
#
# Indices 1 2 3 4 5 6 
#
# 1 134.6727 58.5079 39.8601 -2.3411 -1.1352 -13.4859
# 2 58.5079 128.2521 33.8292 7.5711 0.4530 -18.9275
# 3 39.8601 33.8292 68.8787 9.3826 15.7510 -3.7308
# 4 -2.3411 7.5711 9.3826 29.4966 1.8811 -0.6166
# 5 -1.1352 0.4530 15.7510 1.8811 36.1844 2.5030
# 6 -13.4859 -18.9275 -3.7308 -0.6166 2.5030 38.7529
#
#
#
# Elastic Compliance Matrix: (Units=1/GPa)
#
#
# Indices 1 2 3 4 5 6 
#
# 1 0.010777 -0.003467 -0.005486 0.003361 0.002496 0.001421
# 2 -0.003467 0.010850 -0.003054 -0.002071 0.000936 0.003705
# 3 -0.005486 -0.003054 0.022133 -0.006108 -0.009398 -0.000760
# 4 0.003361 -0.002071 -0.006108 0.036589 0.000882 0.000095
# 5 0.002496 0.000936 -0.009398 0.000882 0.031860 -0.001623
# 6 0.001421 0.003705 -0.000760 0.000095 -0.001623 0.028142
#
#
# Mechanical properties :
#
#
# Convention : Reuss Voigt Hill
#
# Bulk Modulus (GPa) = 50.64052 66.24420 58.44236
# Shear Modulus (GPa) = 29.24899 34.19388 31.72144
#
# Velocity S-wave (km/s) = 3.84688 4.15937 4.00618
# Velocity P-wave (km/s) = 6.73446 7.52220 7.13920
#
# Compressibility (1/GPa) = 0.01974703
#
# Stress axis : x y z
#
# Youngs Moduli (GPa) = 92.79040 92.16540 45.18213
#
# Poissons Ratio (x) = 0.31953 0.24785
# Poissons Ratio (y) = 0.32170 0.13798
# Poissons Ratio (z) = 0.50900 0.28146
#
# Static dielectric constant tensor:
#      x y z
#    x 1.680730 -0.023530 0.006990 
#    y -0.023530 1.760670 0.032900 
#    z 0.006990 0.032900 1.710410 
# 
# From -- ./inp_files/186831.got.cif
#   From: 2010.05.17/outbox.cif.g08.bks.cpg/sg2_94_cif.got.tgz:186831.got - 2010.06.03 11:33:40.
