data_PCOD9054240
_publ_section_title
;
Structure prediction by ZEFSAII (Michael W. Deem and Ramdas Pophale) SiO2 
 PCOD9054240
Probable space group: P -1
;
_chemical_formula_sum "Si O2"
_cell_formula_units_Z 14
_cell_length_a 15.664396
_cell_length_b 10.059903
_cell_length_c 12.631476
_cell_angle_alpha 123.999575
_cell_angle_beta 134.612382
_cell_angle_gamma 27.486932
_cell_volume 641.539182
_symmetry_space_group_name_H-M "P -1"
_symmetry_group_IT_number 2
_symmetry_cell_setting 'triclinic'
loop_
_space_group_symop_operation_xyz
x,y,z
-x,-y,-z
loop_
_atom_site_type_symbol
_atom_site_label
_atom_site_fract_x
_atom_site_fract_y
_atom_site_fract_z
Si Si1 0.044755 0.189673 0.602080
Si Si2 0.547286 0.766305 0.397742
Si Si3 0.711519 0.743470 0.144916
Si Si4 0.629888 0.950552 0.844955
Si Si5 0.536776 0.465413 0.391042
Si Si6 0.862250 0.278142 0.936606
Si Si7 0.982506 0.286229 0.828354
O O1 0.148252 0.252583 0.719121
O O2 0.009181 0.183614 0.691128
O O3 0.806063 0.460524 0.462731
O O4 0.219905 0.873292 0.566149
O O5 0.496984 0.685631 0.404180
O O6 0.500000 0.000000 0.500000
O O7 0.410302 0.904387 0.231910
O O8 0.599261 0.821182 0.193135
O O9 0.846352 0.455731 0.072883
O O10 0.500000 0.000000 0.000000
O O11 0.758570 0.642209 0.791975
O O12 0.804592 0.841647 0.024333
O O13 0.500000 0.500000 0.500000
O O14 0.376300 0.525399 0.213456
O O15 0.968522 0.191098 0.876033
O O16 0.000000 0.000000 0.000000
#
# Coordination Sequence:
#
# PCOD9054240 Si02
#       7
#     2   2   2   2   2   2   2
#     4  12  25  46  75 100 144 187 239 289 361 430
#     4  12  28  45  70 107 142 186 241 293 350 424
#     4  12  22  44  72 107 134 188 237 286 356 422
#     4  11  22  40  71 103 141 178 237 291 343 424
#     4  12  28  50  71 101 150 192 233 291 363 427
#     4  12  26  43  72 106 142 179 244 301 347 416
#     4  11  20  41  72 100 135 188 229 289 360 410
#
# _framework density 21.822516
#
# number of rings (size 3 to 8) (size 9 to 14) (size 15 to 20)
#    0.000    0.286    5.714    3.000    4.000    2.857 
#    0.000    2.857    0.000    0.000    0.000    0.000 
#    0.000    0.000    0.000    0.000    0.000    0.000 
#
# Total GULP energy -78359.901442 kJ/mol
# GULP energy per Si atom -5597.135817 kJ/mol
# Density = 2.177285 g / cm^3
# Si number density = 21.822516 Si / 1000 Ang^3
#
#
#
# Elastic Constant Matrix: (Units=GPa)
#
#
# Indices 1 2 3 4 5 6 
#
# 1 125.9753 38.8099 32.1067 3.9338 -15.4661 13.8976
# 2 38.8099 100.3847 33.3734 4.1441 -27.2268 7.4080
# 3 32.1067 33.3734 84.2425 -0.3534 -8.1334 2.5977
# 4 3.9338 4.1441 -0.3534 37.2836 6.7629 -1.8506
# 5 -15.4661 -27.2268 -8.1334 6.7629 48.8039 -0.1262
# 6 13.8976 7.4080 2.5977 -1.8506 -0.1262 40.4758
#
#
#
# Elastic Compliance Matrix: (Units=1/GPa)
#
#
# Indices 1 2 3 4 5 6 
#
# 1 0.009848 -0.002237 -0.002630 -0.001247 0.001600 -0.002855
# 2 -0.002237 0.014321 -0.004107 -0.002743 0.006972 -0.001693
# 3 -0.002630 -0.004107 0.014396 0.001067 -0.000871 0.000777
# 4 -0.001247 -0.002743 0.001067 0.028405 -0.005678 0.002143
# 5 0.001600 0.006972 -0.000871 -0.005678 0.025523 -0.001950
# 6 -0.002855 -0.001693 0.000777 0.002143 -0.001950 0.026038
#
#
# Mechanical properties :
#
#
# Convention : Reuss Voigt Hill
#
# Bulk Modulus (GPa) = 48.50203 57.68695 53.09449
# Shear Modulus (GPa) = 34.87938 39.06683 36.97310
#
# Velocity S-wave (km/s) = 4.00224 4.23567 4.12061
# Velocity P-wave (km/s) = 6.60539 7.10023 6.85727
#
# Compressibility (1/GPa) = 0.02061769
#
# Stress axis : x y z
#
# Youngs Moduli (GPa) = 101.54566 69.82743 69.46270
#
# Poissons Ratio (x) = 0.15619 0.18267
# Poissons Ratio (y) = 0.22714 0.28529
# Poissons Ratio (z) = 0.26704 0.28679
#
# Static dielectric constant tensor:
#      x y z
#    x 1.830110 -0.005230 0.029860 
#    y -0.005230 1.774710 0.032250 
#    z 0.029860 0.032250 1.788460 
# 
# From -- ./inp_files/306654.got.cif
#   From: 2010.05.17/outbox.cif.g08.bks.cpg/sg2_154_cif.got.tgz:306654.got - 2010.06.03 11:33:40.
