data_PCOD9054701
_publ_section_title
;
Structure prediction by ZEFSAII (Michael W. Deem and Ramdas Pophale) SiO2 
 PCOD9054701
Probable space group: P -1
;
_chemical_formula_sum "Si O2"
_cell_formula_units_Z 16
_cell_length_a 7.748324
_cell_length_b 10.987087
_cell_length_c 16.703716
_cell_angle_alpha 36.180147
_cell_angle_beta 69.707216
_cell_angle_gamma 56.053990
_cell_volume 680.520722
_symmetry_space_group_name_H-M "P -1"
_symmetry_group_IT_number 2
_symmetry_cell_setting 'triclinic'
loop_
_space_group_symop_operation_xyz
x,y,z
-x,-y,-z
loop_
_atom_site_type_symbol
_atom_site_label
_atom_site_fract_x
_atom_site_fract_y
_atom_site_fract_z
Si Si1 0.142341 0.255325 0.315163
Si Si2 0.426931 0.156023 0.073530
Si Si3 0.407460 0.362536 0.636236
Si Si4 0.724818 0.489637 0.961208
Si Si5 0.085728 0.977674 0.908096
Si Si6 0.664179 0.528958 0.221161
Si Si7 0.063350 0.502235 0.372359
Si Si8 0.508203 0.197050 0.449069
O O1 0.096827 0.399950 0.329785
O O2 0.913311 0.349675 0.263457
O O3 0.271298 0.969643 0.452670
O O4 0.282320 0.331628 0.199982
O O5 0.669553 0.090840 0.086088
O O6 0.433895 0.923331 0.232152
O O7 0.260050 0.395126 0.019872
O O8 0.393607 0.234460 0.944717
O O9 0.500000 0.500000 0.500000
O O10 0.376416 0.425440 0.702253
O O11 0.169340 0.450281 0.594248
O O12 0.904288 0.228754 0.040356
O O13 0.500000 0.500000 0.000000
O O14 0.955509 0.241543 0.753909
O O15 0.000000 0.000000 0.000000
O O16 0.530367 0.398811 0.290281
O O17 0.291378 0.314248 0.472539
O O18 0.500000 0.000000 0.500000
#
# Coordination Sequence:
#
# PCOD9054701 Si02
#       8
#     2   2   2   2   2   2   2   2
#     4  10  21  39  65  94 137 179 228 277 342 398
#     4  10  23  40  65  98 138 175 228 276 336 412
#     4  10  23  44  68  98 141 178 220 284 345 405
#     4  10  22  37  64  99 136 174 220 286 343 386
#     4  10  17  35  68  94 132 175 221 277 337 397
#     4  11  23  42  69  97 131 185 231 274 345 407
#     4   9  19  39  66  97 123 181 230 268 334 414
#     4  10  22  39  66  97 128 171 233 277 328 410
#
# _framework density 23.511405
#
# number of rings (size 3 to 8) (size 9 to 14) (size 15 to 20)
#    0.000    2.000    1.250    1.500    7.000    0.500 
#    2.250    1.875    2.750    0.000    0.000    0.000 
#    0.000    0.000    0.000    0.000    0.000    0.000 
#
# Total GULP energy -89297.136503 kJ/mol
# GULP energy per Si atom -5581.071031 kJ/mol
# Density = 2.345789 g / cm^3
# Si number density = 23.511405 Si / 1000 Ang^3
#
#
#
# Elastic Constant Matrix: (Units=GPa)
#
#
# Indices 1 2 3 4 5 6 
#
# 1 60.0845 26.6092 35.8537 -10.6521 -1.6510 -20.7899
# 2 26.6092 147.2187 70.9954 -10.7581 -3.4514 -1.4836
# 3 35.8537 70.9954 141.8804 -10.5532 -13.0136 -15.4134
# 4 -10.6521 -10.7581 -10.5532 48.9575 -9.1844 2.1525
# 5 -1.6510 -3.4514 -13.0136 -9.1844 35.5721 -5.0119
# 6 -20.7899 -1.4836 -15.4134 2.1525 -5.0119 25.7317
#
#
#
# Elastic Compliance Matrix: (Units=1/GPa)
#
#
# Indices 1 2 3 4 5 6 
#
# 1 0.027809 -0.003236 -0.002342 0.004711 0.004342 0.021330
# 2 -0.003236 0.009552 -0.004644 0.000328 -0.001567 -0.005178
# 3 -0.002342 -0.004644 0.011067 0.001490 0.004613 0.005243
# 4 0.004711 0.000328 0.001490 0.023035 0.007338 0.004221
# 5 0.004342 -0.001567 0.004613 0.007338 0.033446 0.012081
# 6 0.021330 -0.005178 0.005243 0.004221 0.012081 0.060938
#
#
# Mechanical properties :
#
#
# Convention : Reuss Voigt Hill
#
# Bulk Modulus (GPa) = 35.73430 68.45557 52.09493
# Shear Modulus (GPa) = 25.55973 36.43395 30.99684
#
# Velocity S-wave (km/s) = 3.30073 3.94080 3.63488
# Velocity P-wave (km/s) = 5.45510 7.06298 6.31046
#
# Compressibility (1/GPa) = 0.02798432
#
# Stress axis : x y z
#
# Youngs Moduli (GPa) = 35.95949 104.69034 90.35489
#
# Poissons Ratio (x) = 0.33875 0.21165
# Poissons Ratio (y) = 0.11636 0.41960
# Poissons Ratio (z) = 0.08423 0.48617
#
# Static dielectric constant tensor:
#      x y z
#    x 1.953160 0.031170 0.037740 
#    y 0.031170 1.902780 -0.014670 
#    z 0.037740 -0.014670 1.878930 
# 
# From -- ./inp_files/559536.got.cif
#   From: 2010.05.17/outbox.cif.g08.bks.cpg/sg2_280_cif.got.tgz:559536.got - 2010.06.03 11:33:40.
