data_PCOD9054889
_publ_section_title
;
Structure prediction by ZEFSAII (Michael W. Deem and Ramdas Pophale) SiO2 
 PCOD9054889
Probable space group: P -1
;
_chemical_formula_sum "Si O2"
_cell_formula_units_Z 16
_cell_length_a 5.346370
_cell_length_b 16.101045
_cell_length_c 13.281784
_cell_angle_alpha 49.366345
_cell_angle_beta 53.088505
_cell_angle_gamma 72.329196
_cell_volume 686.485395
_symmetry_space_group_name_H-M "P -1"
_symmetry_group_IT_number 2
_symmetry_cell_setting 'triclinic'
loop_
_space_group_symop_operation_xyz
x,y,z
-x,-y,-z
loop_
_atom_site_type_symbol
_atom_site_label
_atom_site_fract_x
_atom_site_fract_y
_atom_site_fract_z
Si Si1 0.797991 0.554423 0.816528
Si Si2 0.897516 0.705363 0.859279
Si Si3 0.456653 0.034276 0.097982
Si Si4 0.219857 0.417407 0.687078
Si Si5 0.424848 0.250418 0.381488
Si Si6 0.731530 0.900866 0.625807
Si Si7 0.569984 0.299917 0.854036
Si Si8 0.732543 0.953385 0.300530
O O1 0.962022 0.634034 0.801745
O O2 0.683536 0.630528 0.695224
O O3 0.030103 0.479399 0.768579
O O4 0.500000 0.500000 0.000000
O O5 0.742846 0.810320 0.779987
O O6 0.259992 0.742885 0.770676
O O7 0.651819 0.653135 0.043141
O O8 0.654487 0.985200 0.178660
O O9 0.539250 0.167810 0.975935
O O10 0.087547 0.985330 0.228811
O O11 0.500000 0.000000 0.000000
O O12 0.500000 0.500000 0.500000
O O13 0.404606 0.329264 0.768034
O O14 0.931557 0.358307 0.733966
O O15 0.193676 0.165237 0.437680
O O16 0.417788 0.175806 0.541640
O O17 0.433142 0.962939 0.656820
O O18 0.000000 0.000000 0.500000
#
# Coordination Sequence:
#
# PCOD9054889 Si02
#       8
#     2   2   2   2   2   2   2   2
#     4  11  25  47  73 110 148 194 253 317 376 437
#     4  11  23  40  75 106 148 188 243 302 375 447
#     4  12  28  49  74 106 147 199 254 308 367 455
#     4  12  29  53  79 106 149 198 253 316 377 444
#     4  11  25  38  69 112 147 193 238 304 384 454
#     4  11  21  39  63 107 150 188 230 293 371 455
#     4  12  26  50  79 108 143 198 255 303 377 453
#     4  12  24  44  71 105 151 195 239 303 379 447
#
# _framework density 23.307124999999999
#
# number of rings (size 3 to 8) (size 9 to 14) (size 15 to 20)
#    0.000    0.500    3.750    4.125    5.250    2.000 
#    2.250    0.000    0.000    0.000    0.000    0.000 
#    0.000    0.000    0.000    0.000    0.000    0.000 
#
# Total GULP energy -89213.533049 kJ/mol
# GULP energy per Si atom -5575.845816 kJ/mol
# Density = 2.325408 g / cm^3
# Si number density = 23.307125 Si / 1000 Ang^3
#
#
#
# Elastic Constant Matrix: (Units=GPa)
#
#
# Indices 1 2 3 4 5 6 
#
# 1 111.0575 9.8555 57.4383 -12.2628 -2.7464 -5.9018
# 2 9.8555 64.7387 25.7682 -3.9173 1.8594 9.3717
# 3 57.4383 25.7682 121.8578 -6.9253 -1.2263 -14.9732
# 4 -12.2628 -3.9173 -6.9253 21.9993 -12.0629 6.7158
# 5 -2.7464 1.8594 -1.2263 -12.0629 51.5941 -2.1450
# 6 -5.9018 9.3717 -14.9732 6.7158 -2.1450 25.2911
#
#
#
# Elastic Compliance Matrix: (Units=1/GPa)
#
#
# Indices 1 2 3 4 5 6 
#
# 1 0.012847 0.001375 -0.006271 0.007521 0.002117 -0.003042
# 2 0.001375 0.019741 -0.005962 0.006207 0.000166 -0.012158
# 3 -0.006271 -0.005962 0.013405 -0.003359 -0.000188 0.009558
# 4 0.007521 0.006207 -0.003359 0.062913 0.014056 -0.018047
# 5 0.002117 0.000166 -0.000188 0.014056 0.022709 -0.001485
# 6 -0.003042 -0.012158 0.009558 -0.018047 -0.001485 0.053660
#
#
# Mechanical properties :
#
#
# Convention : Reuss Voigt Hill
#
# Bulk Modulus (GPa) = 41.19239 53.75311 47.47275
# Shear Modulus (GPa) = 23.24670 33.41637 28.33153
#
# Velocity S-wave (km/s) = 3.16160 3.79058 3.49029
# Velocity P-wave (km/s) = 5.57133 6.50162 6.05437
#
# Compressibility (1/GPa) = 0.02427633
#
# Stress axis : x y z
#
# Youngs Moduli (GPa) = 77.83924 50.65474 74.60052
#
# Poissons Ratio (x) = -0.06966 0.46784
# Poissons Ratio (y) = -0.10704 0.44479
# Poissons Ratio (z) = 0.48815 0.30202
#
# Static dielectric constant tensor:
#      x y z
#    x 2.090980 0.060650 -0.149570 
#    y 0.060650 1.894180 0.031610 
#    z -0.149570 0.031610 2.215230 
# 
# From -- ./inp_files/485194.got.cif
#   From: 2010.05.17/outbox.cif.g08.bks.cpg/sg2_243_cif.got.tgz:485194.got - 2010.06.03 11:33:40.
