data_PCOD9054363
_publ_section_title
;
Structure prediction by ZEFSAII (Michael W. Deem and Ramdas Pophale) SiO2 
 PCOD9054363
Probable space group: P -1
;
_chemical_formula_sum "Si O2"
_cell_formula_units_Z 13
_cell_length_a 12.125435
_cell_length_b 21.415514
_cell_length_c 8.904151
_cell_angle_alpha 147.790197
_cell_angle_beta 44.721091
_cell_angle_gamma 150.408322
_cell_volume 605.797769
_symmetry_space_group_name_H-M "P -1"
_symmetry_group_IT_number 2
_symmetry_cell_setting 'triclinic'
loop_
_space_group_symop_operation_xyz
x,y,z
-x,-y,-z
loop_
_atom_site_type_symbol
_atom_site_label
_atom_site_fract_x
_atom_site_fract_y
_atom_site_fract_z
Si Si1 0.199934 0.861571 0.791700
Si Si2 0.979190 0.350870 0.746358
Si Si3 0.000434 0.135655 0.722868
Si Si4 0.603342 0.556875 0.348591
Si Si5 0.500000 0.500000 0.000000
Si Si6 0.245681 0.108164 0.049896
Si Si7 0.658636 0.006504 0.529737
O O1 0.022584 0.706277 0.534945
O O2 0.234648 0.007842 0.986649
O O3 0.434416 0.919151 0.658932
O O4 0.115530 0.838037 0.991800
O O5 0.761483 0.173029 0.675930
O O6 0.183161 0.414252 0.779444
O O7 0.000000 0.500000 0.000000
O O8 0.851055 0.066804 0.578558
O O9 0.251095 0.317023 0.829572
O O10 0.000000 0.000000 0.500000
O O11 0.500000 0.500000 0.500000
O O12 0.464355 0.450400 0.118175
O O13 0.663342 0.725806 0.630986
O O14 0.381942 0.120166 0.806955
O O15 0.000000 0.000000 0.000000
#
# Coordination Sequence:
#
# PCOD9054363 Si02
#       7
#     2   2   2   2   1   2   2
#     4  11  24  43  72 104 144 191 246 304 386 453
#     4  11  24  44  66 104 146 190 241 302 377 451
#     4  12  26  48  75 105 146 195 252 316 383 446
#     4  12  26  42  73 106 146 191 254 310 376 438
#     4  12  26  48  70 114 150 188 254 320 368 452
#     4  11  20  43  69 104 135 187 251 301 356 448
#     4  11  24  45  71 105 148 190 250 309 376 462
#
# _framework density 21.459305000000001
#
# number of rings (size 3 to 8) (size 9 to 14) (size 15 to 20)
#    0.000    0.615    4.615    5.077    6.462    0.000 
#    2.769    2.308    0.000    0.000    0.000    0.000 
#    0.000    0.000    0.000    0.000    0.000    0.000 
#
# Total GULP energy -72387.072643 kJ/mol
# GULP energy per Si atom -5568.236357 kJ/mol
# Density = 2.141046 g / cm^3
# Si number density = 21.459305 Si / 1000 Ang^3
#
#
#
# Elastic Constant Matrix: (Units=GPa)
#
#
# Indices 1 2 3 4 5 6 
#
# 1 129.1701 8.7585 53.6664 2.7072 14.8607 6.7086
# 2 8.7585 64.5729 26.5487 -26.1533 -0.7766 3.6529
# 3 53.6664 26.5487 119.6434 -6.2927 1.7085 -10.3159
# 4 2.7072 -26.1533 -6.2927 32.3771 -10.1760 3.3938
# 5 14.8607 -0.7766 1.7085 -10.1760 49.6773 -3.8341
# 6 6.7086 3.6529 -10.3159 3.3938 -3.8341 32.1534
#
#
#
# Elastic Compliance Matrix: (Units=1/GPa)
#
#
# Indices 1 2 3 4 5 6 
#
# 1 0.010616 -0.000372 -0.005123 -0.003002 -0.003927 -0.003968
# 2 -0.000372 0.027824 -0.005410 0.023756 0.005080 -0.006721
# 3 -0.005123 -0.005410 0.012257 -0.001833 0.001110 0.005942
# 4 -0.003002 0.023756 -0.001833 0.054458 0.011949 -0.006984
# 5 -0.003927 0.005080 0.001110 0.011949 0.023963 0.002194
# 6 -0.003968 -0.006721 0.005942 -0.006984 0.002194 0.035597
#
#
# Mechanical properties :
#
#
# Convention : Reuss Voigt Hill
#
# Bulk Modulus (GPa) = 34.61841 54.59265 44.60553
# Shear Modulus (GPa) = 25.49012 37.80243 31.64628
#
# Velocity S-wave (km/s) = 3.45024 4.20168 3.84436
# Velocity P-wave (km/s) = 5.66033 7.00244 6.36685
#
# Compressibility (1/GPa) = 0.02888636
#
# Stress axis : x y z
#
# Youngs Moduli (GPa) = 94.19467 35.94019 81.58826
#
# Poissons Ratio (x) = 0.01338 0.41800
# Poissons Ratio (y) = 0.03508 0.44136
# Poissons Ratio (z) = 0.48259 0.19442
#
# Static dielectric constant tensor:
#      x y z
#    x 1.759350 -0.025780 -0.006070 
#    y -0.025780 1.841300 -0.065280 
#    z -0.006070 -0.065280 1.752020 
# 
# From -- ./inp_files/160544.got.cif
#   From: 2010.05.17/outbox.cif.g08.bks.cpg/sg2_81_cif.got.tgz:160544.got - 2010.06.03 11:33:40.
