data_PCOD9054664
_publ_section_title
;
Structure prediction by ZEFSAII (Michael W. Deem and Ramdas Pophale) SiO2 
 PCOD9054664
Probable space group: P -1
;
_chemical_formula_sum "Si O2"
_cell_formula_units_Z 16
_cell_length_a 11.003718
_cell_length_b 16.540227
_cell_length_c 11.198886
_cell_angle_alpha 58.989355
_cell_angle_beta 124.369354
_cell_angle_gamma 156.014736
_cell_volume 683.896028
_symmetry_space_group_name_H-M "P -1"
_symmetry_group_IT_number 2
_symmetry_cell_setting 'triclinic'
loop_
_space_group_symop_operation_xyz
x,y,z
-x,-y,-z
loop_
_atom_site_type_symbol
_atom_site_label
_atom_site_fract_x
_atom_site_fract_y
_atom_site_fract_z
Si Si1 0.696412 0.287344 0.174113
Si Si2 0.161849 0.326110 0.000860
Si Si3 0.534601 0.919067 0.021435
Si Si4 0.479446 0.217962 0.461261
Si Si5 0.892789 0.088521 0.704542
Si Si6 0.379673 0.659101 0.302380
Si Si7 0.563925 0.401564 0.864272
Si Si8 0.004097 0.353559 0.666448
O O1 0.017475 0.458313 0.291236
O O2 0.407453 0.106788 0.235663
O O3 0.681857 0.205512 0.119844
O O4 0.666205 0.367991 0.023109
O O5 0.013676 0.317097 0.833113
O O6 0.500000 0.500000 0.000000
O O7 0.231324 0.401083 0.115206
O O8 0.886320 0.095555 0.037331
O O9 0.441613 0.788217 0.163416
O O10 0.500000 0.000000 0.000000
O O11 0.421848 0.225947 0.555479
O O12 0.725416 0.270307 0.565025
O O13 0.668908 0.408526 0.354682
O O14 0.186995 0.007525 0.391654
O O15 0.946965 0.232168 0.637942
O O16 0.204958 0.220053 0.830005
O O17 0.414183 0.599650 0.264663
#
# Coordination Sequence:
#
# PCOD9054664 Si02
#       8
#     2   2   2   2   2   2   2   2
#     4  11  21  40  68  98 134 171 222 284 339 399
#     4  12  22  42  70 101 133 164 220 291 344 394
#     4  11  21  37  63  97 133 169 214 272 341 405
#     4  11  25  44  68  93 141 187 231 276 321 407
#     4  12  24  43  71  99 134 179 234 283 333 396
#     4  11  25  43  64  97 139 183 218 272 342 412
#     4  11  23  42  64 102 137 171 219 281 355 402
#     4  11  23  45  68 105 129 178 238 282 333 395
#
# _framework density 23.395368999999999
#
# number of rings (size 3 to 8) (size 9 to 14) (size 15 to 20)
#    0.000    0.750    2.500    7.500    0.000    3.500 
#    2.250    0.625    0.000    0.000    0.000    0.000 
#    0.000    0.000    0.000    0.000    0.000    0.000 
#
# Total GULP energy -89487.363968 kJ/mol
# GULP energy per Si atom -5592.960248 kJ/mol
# Density = 2.334212 g / cm^3
# Si number density = 23.395369 Si / 1000 Ang^3
#
#
#
# Elastic Constant Matrix: (Units=GPa)
#
#
# Indices 1 2 3 4 5 6 
#
# 1 57.7281 18.2475 6.4475 2.7495 -25.5788 -13.2668
# 2 18.2475 114.3445 16.2757 15.4298 -7.1715 -3.5234
# 3 6.4475 16.2757 53.3286 9.1279 -25.8317 -12.1849
# 4 2.7495 15.4298 9.1279 28.2217 -4.6282 -16.1172
# 5 -25.5788 -7.1715 -25.8317 -4.6282 28.3235 16.8313
# 6 -13.2668 -3.5234 -12.1849 -16.1172 16.8313 46.7939
#
#
#
# Elastic Compliance Matrix: (Units=1/GPa)
#
#
# Indices 1 2 3 4 5 6 
#
# 1 0.045664 -0.007027 0.029065 -0.001802 0.068890 -0.005414
# 2 -0.007027 0.010887 -0.006506 -0.005478 -0.009658 -0.001280
# 3 0.029065 -0.006506 0.054796 -0.009564 0.078711 -0.009587
# 4 -0.001802 -0.005478 -0.009564 0.050254 -0.014986 0.019285
# 5 0.068890 -0.009658 0.078711 -0.014986 0.183307 -0.031795
# 6 -0.005414 -0.001280 -0.009587 0.019285 -0.031795 0.035322
#
#
# Mechanical properties :
#
#
# Convention : Reuss Voigt Hill
#
# Bulk Modulus (GPa) = 7.02196 34.14916 20.58556
# Shear Modulus (GPa) = 12.60598 32.96317 22.78458
#
# Velocity S-wave (km/s) = 2.32378 3.75769 3.12411
# Velocity P-wave (km/s) = 3.19497 5.78404 4.67242
#
# Compressibility (1/GPa) = 0.14241034
#
# Stress axis : x y z
#
# Youngs Moduli (GPa) = 21.89912 91.85231 18.24939
#
# Poissons Ratio (x) = 0.64547 -0.53041
# Poissons Ratio (y) = 0.15389 0.11873
# Poissons Ratio (z) = -0.63649 0.59760
#
# Static dielectric constant tensor:
#      x y z
#    x 1.975130 -0.004040 -0.041500 
#    y -0.004040 1.902730 0.012090 
#    z -0.041500 0.012090 1.843360 
# 
# From -- ./inp_files/436311.got.cif
#   From: 2010.05.17/outbox.cif.g08.bks.cpg/sg2_219_cif.got.tgz:436311.got - 2010.06.03 11:33:40.
