data_PCOD9054795
_publ_section_title
;
Structure prediction by ZEFSAII (Michael W. Deem and Ramdas Pophale) SiO2 
 PCOD9054795
Probable space group: P -1
;
_chemical_formula_sum "Si O2"
_cell_formula_units_Z 16
_cell_length_a 16.954681
_cell_length_b 9.059075
_cell_length_c 13.446056
_cell_angle_alpha 34.875100
_cell_angle_beta 43.295942
_cell_angle_gamma 60.386562
_cell_volume 781.391240
_symmetry_space_group_name_H-M "P -1"
_symmetry_group_IT_number 2
_symmetry_cell_setting 'triclinic'
loop_
_space_group_symop_operation_xyz
x,y,z
-x,-y,-z
loop_
_atom_site_type_symbol
_atom_site_label
_atom_site_fract_x
_atom_site_fract_y
_atom_site_fract_z
Si Si1 0.169106 0.877585 0.948215
Si Si2 0.999659 0.070241 0.313753
Si Si3 0.931598 0.859571 0.287959
Si Si4 0.776292 0.524658 0.024712
Si Si5 0.369522 0.741694 0.514006
Si Si6 0.182593 0.725128 0.321590
Si Si7 0.646933 0.857545 0.211241
Si Si8 0.758007 0.041464 0.663722
O O1 0.189470 0.609381 0.031486
O O2 0.125988 0.023820 0.814940
O O3 0.287566 0.050510 0.796043
O O4 0.061846 0.835704 0.148627
O O5 0.063677 0.828563 0.387791
O O6 0.105250 0.326308 0.104997
O O7 0.948656 0.056423 0.256949
O O8 0.890410 0.046543 0.501138
O O9 0.850594 0.560384 0.542978
O O10 0.695630 0.307184 0.292501
O O11 0.715181 0.756963 0.917121
O O12 0.510078 0.862177 0.332325
O O13 0.348744 0.441763 0.654695
O O14 0.316022 0.908456 0.390678
O O15 0.231685 0.733378 0.384924
O O16 0.276531 0.939686 0.051985
#
# Coordination Sequence:
#
# PCOD9054795 Si02
#       8
#     2   2   2   2   2   2   2   2
#     4  11  23  40  62  95 131 163 207 260 315 376
#     4  11  21  38  65  96 128 162 200 262 318 373
#     4  11  22  36  65  97 126 166 207 253 320 381
#     4  11  23  43  63  95 130 164 205 261 318 367
#     4  11  24  46  66  89 124 168 219 260 303 371
#     4  11  21  40  62  96 127 163 208 259 319 368
#     4  11  24  44  65  88 128 167 211 268 304 362
#     4  11  23  39  66  96 124 164 209 253 321 377
#
# _framework density 20.476296000000001
#
# number of rings (size 3 to 8) (size 9 to 14) (size 15 to 20)
#    0.000    1.000    3.750    4.875    1.750    5.000 
#    2.250    0.625    0.000    0.000    0.000    0.000 
#    0.000    0.000    0.000    0.000    0.000    0.000 
#
# Total GULP energy -89441.310352 kJ/mol
# GULP energy per Si atom -5590.081897 kJ/mol
# Density = 2.042969 g / cm^3
# Si number density = 20.476296 Si / 1000 Ang^3
#
#
#
# Elastic Constant Matrix: (Units=GPa)
#
#
# Indices 1 2 3 4 5 6 
#
# 1 105.1508 14.1020 54.8335 8.3438 -0.3460 8.6176
# 2 14.1020 51.4330 13.4249 2.8123 -7.1867 16.0208
# 3 54.8335 13.4249 80.3855 0.5910 0.6788 2.8097
# 4 8.3438 2.8123 0.5910 26.0806 7.3507 4.6480
# 5 -0.3460 -7.1867 0.6788 7.3507 29.2466 0.2473
# 6 8.6176 16.0208 2.8097 4.6480 0.2473 34.0421
#
#
#
# Elastic Compliance Matrix: (Units=1/GPa)
#
#
# Indices 1 2 3 4 5 6 
#
# 1 0.015586 -0.000355 -0.010471 -0.004742 0.001551 -0.002278
# 2 -0.000355 0.025047 -0.003593 -0.002485 0.006952 -0.011112
# 3 -0.010471 -0.003593 0.020100 0.003560 -0.002387 0.002214
# 4 -0.004742 -0.002485 0.003560 0.044057 -0.011790 -0.003854
# 5 0.001551 0.006952 -0.002387 -0.011790 0.038956 -0.002141
# 6 -0.002278 -0.011112 0.002214 -0.003854 -0.002141 0.035541
#
#
# Mechanical properties :
#
#
# Convention : Reuss Voigt Hill
#
# Bulk Modulus (GPa) = 31.35344 44.63224 37.99284
# Shear Modulus (GPa) = 22.85663 28.18112 25.51887
#
# Velocity S-wave (km/s) = 3.34465 3.71385 3.53408
# Velocity P-wave (km/s) = 5.50099 6.34307 5.93698
#
# Compressibility (1/GPa) = 0.03189443
#
# Stress axis : x y z
#
# Youngs Moduli (GPa) = 64.15871 39.92570 49.75241
#
# Poissons Ratio (x) = 0.01416 0.52097
# Poissons Ratio (y) = 0.02275 0.17876
# Poissons Ratio (z) = 0.67183 0.14346
#
# Static dielectric constant tensor:
#      x y z
#    x 1.738510 0.009830 0.032390 
#    y 0.009830 1.744300 -0.002080 
#    z 0.032390 -0.002080 1.727380 
# 
# From -- ./inp_files/176733.got.cif
#   From: 2010.05.17/outbox.cif.g08.bks.cpg/sg2_89_cif.got.tgz:176733.got - 2010.06.03 11:33:40.
