data_PCOD9054640
_publ_section_title
;
Structure prediction by ZEFSAII (Michael W. Deem and Ramdas Pophale) SiO2 
 PCOD9054640
Probable space group: P -1
;
_chemical_formula_sum "Si O2"
_cell_formula_units_Z 16
_cell_length_a 8.620146
_cell_length_b 10.860763
_cell_length_c 7.818400
_cell_angle_alpha 100.124442
_cell_angle_beta 77.893937
_cell_angle_gamma 117.697714
_cell_volume 631.083960
_symmetry_space_group_name_H-M "P -1"
_symmetry_group_IT_number 2
_symmetry_cell_setting 'triclinic'
loop_
_space_group_symop_operation_xyz
x,y,z
-x,-y,-z
loop_
_atom_site_type_symbol
_atom_site_label
_atom_site_fract_x
_atom_site_fract_y
_atom_site_fract_z
Si Si1 0.261711 0.122107 0.573021
Si Si2 0.681631 0.996437 0.154089
Si Si3 0.158178 0.569265 0.787244
Si Si4 0.626625 0.387039 0.589863
Si Si5 0.650214 0.200818 0.974372
Si Si6 0.895601 0.280619 0.671537
Si Si7 0.105480 0.318573 0.291687
Si Si8 0.114766 0.033407 0.210428
O O1 0.419802 0.276864 0.609239
O O2 0.235068 0.086210 0.370328
O O3 0.306293 0.013538 0.649119
O O4 0.072076 0.084182 0.697892
O O5 0.835512 0.014384 0.991716
O O6 0.623047 0.112267 0.131883
O O7 0.532187 0.848024 0.089258
O O8 0.304920 0.595575 0.616223
O O9 0.039547 0.405650 0.779304
O O10 0.026699 0.636123 0.772736
O O11 0.255466 0.640446 0.954235
O O12 0.751250 0.326081 0.636433
O O13 0.707406 0.544536 0.687136
O O14 0.774912 0.166930 0.807031
O O15 0.006398 0.268101 0.485810
O O16 0.115098 0.181469 0.193541
#
# Coordination Sequence:
#
# PCOD9054640 Si02
#       8
#     2   2   2   2   2   2   2   2
#     4  11  23  41  62  85 123 165 201 249 298 352
#     4  11  25  42  59  90 126 154 204 258 292 359
#     4   9  18  35  62  94 119 153 193 256 301 357
#     4   9  18  39  63  88 122 154 200 254 300 353
#     4  11  21  37  62  91 117 156 199 249 311 353
#     4   9  18  35  64  89 121 151 197 250 306 355
#     4   9  20  39  62  91 121 158 200 244 302 365
#     4  11  25  42  62  85 125 168 204 242 302 363
#
# _framework density 25.353203000000001
#
# number of rings (size 3 to 8) (size 9 to 14) (size 15 to 20)
#    0.000    2.000    1.250    3.750    3.500    0.500 
#    0.000    3.750    2.750    0.000    0.000    0.000 
#    0.000    0.000    0.000    0.000    0.000    0.000 
#
# Total GULP energy -89338.822631 kJ/mol
# GULP energy per Si atom -5583.676414 kJ/mol
# Density = 2.529550 g / cm^3
# Si number density = 25.353203 Si / 1000 Ang^3
#
#
#
# Elastic Constant Matrix: (Units=GPa)
#
#
# Indices 1 2 3 4 5 6 
#
# 1 58.8029 40.5220 18.0648 4.5155 5.7684 34.8934
# 2 40.5220 109.0049 36.1137 7.4739 1.6547 42.3607
# 3 18.0648 36.1137 56.7140 3.2538 9.4700 13.5818
# 4 4.5155 7.4739 3.2538 46.4500 7.3570 9.2106
# 5 5.7684 1.6547 9.4700 7.3570 31.8886 -0.8456
# 6 34.8934 42.3607 13.5818 9.2106 -0.8456 56.6546
#
#
#
# Elastic Compliance Matrix: (Units=1/GPa)
#
#
# Indices 1 2 3 4 5 6 
#
# 1 0.030172 -0.004733 -0.002243 0.001783 -0.005352 -0.014876
# 2 -0.004733 0.016241 -0.007404 -0.000518 0.002137 -0.007337
# 3 -0.002243 -0.007404 0.023855 0.000550 -0.006394 0.001014
# 4 0.001783 -0.000518 0.000550 0.023278 -0.005955 -0.004716
# 5 -0.005352 0.002137 -0.006394 -0.005955 0.035615 0.004731
# 6 -0.014876 -0.007337 0.001014 -0.004716 0.004731 0.032893
#
#
# Mechanical properties :
#
#
# Convention : Reuss Voigt Hill
#
# Bulk Modulus (GPa) = 24.09204 45.99144 35.04174
# Shear Modulus (GPa) = 24.43201 35.65338 30.04270
#
# Velocity S-wave (km/s) = 3.10766 3.75409 3.44607
# Velocity P-wave (km/s) = 4.73286 6.08035 5.44842
#
# Compressibility (1/GPa) = 0.04150748
#
# Stress axis : x y z
#
# Youngs Moduli (GPa) = 33.14308 61.57337 41.92044
#
# Poissons Ratio (x) = 0.29145 0.09401
# Poissons Ratio (y) = 0.15688 0.31038
# Poissons Ratio (z) = 0.07433 0.45589
#
# Static dielectric constant tensor:
#      x y z
#    x 2.152390 -0.045860 0.009280 
#    y -0.045860 2.039600 -0.020680 
#    z 0.009280 -0.020680 1.969980 
# 
# From -- ./inp_files/180217.got.cif
#   From: 2010.05.17/outbox.cif.g08.bks.cpg/sg2_91_cif.got.tgz:180217.got - 2010.06.03 11:33:40.
