data_PCOD9054959
_publ_section_title
;
Structure prediction by ZEFSAII (Michael W. Deem and Ramdas Pophale) SiO2 
 PCOD9054959
Probable space group: P -1
;
_chemical_formula_sum "Si O2"
_cell_formula_units_Z 14
_cell_length_a 9.374592
_cell_length_b 20.787903
_cell_length_c 11.508371
_cell_angle_alpha 31.343718
_cell_angle_beta 53.754943
_cell_angle_gamma 34.916223
_cell_volume 621.308390
_symmetry_space_group_name_H-M "P -1"
_symmetry_group_IT_number 2
_symmetry_cell_setting 'triclinic'
loop_
_space_group_symop_operation_xyz
x,y,z
-x,-y,-z
loop_
_atom_site_type_symbol
_atom_site_label
_atom_site_fract_x
_atom_site_fract_y
_atom_site_fract_z
Si Si1 0.345128 0.841701 0.451773
Si Si2 0.032849 0.754510 0.737838
Si Si3 0.961451 0.360903 0.458293
Si Si4 0.965209 0.792492 0.101767
Si Si5 0.067081 0.554882 0.241110
Si Si6 0.484068 0.136739 0.413312
Si Si7 0.442128 0.414456 0.886607
O O1 0.131566 0.843798 0.555782
O O2 0.623895 0.639041 0.586603
O O3 0.403099 0.861609 0.522451
O O4 0.243475 0.002639 0.168059
O O5 0.238757 0.575850 0.830934
O O6 0.056441 0.676089 0.971061
O O7 0.720220 0.919155 0.599904
O O8 0.946786 0.501678 0.312390
O O9 0.197685 0.239183 0.436829
O O10 0.039713 0.224113 0.732369
O O11 0.687740 0.484923 0.329922
O O12 0.929486 0.678432 0.232435
O O13 0.262217 0.685303 0.092713
O O14 0.452957 0.262457 0.141296
#
# Coordination Sequence:
#
# PCOD9054959 Si02
#       7
#     2   2   2   2   2   2   2
#     4  11  21  39  68 104 126 163 225 271 324 374
#     4  12  21  39  68 104 124 167 222 271 326 374
#     4  11  27  46  61 100 138 177 209 264 338 388
#     4  12  24  45  70  93 136 174 217 269 320 397
#     4  11  23  41  71  98 130 168 220 278 322 380
#     4  11  23  40  68  97 133 165 219 278 318 378
#     4  12  24  45  68  94 136 174 220 266 319 396
#
# _framework density 22.533093000000001
#
# number of rings (size 3 to 8) (size 9 to 14) (size 15 to 20)
#    0.000    0.571    7.143    3.000    0.000    2.857 
#    2.571    0.714    0.000    0.000    0.000    0.000 
#    0.000    0.000    0.000    0.000    0.000    0.000 
#
# Total GULP energy -78392.753670 kJ/mol
# GULP energy per Si atom -5599.482405 kJ/mol
# Density = 2.248181 g / cm^3
# Si number density = 22.533093 Si / 1000 Ang^3
#
#
#
# Elastic Constant Matrix: (Units=GPa)
#
#
# Indices 1 2 3 4 5 6 
#
# 1 32.8889 0.0405 6.0881 -5.7517 16.9988 -0.4503
# 2 0.0405 53.4849 12.2811 -3.4576 -5.4349 0.3193
# 3 6.0881 12.2811 114.3748 -9.8087 13.8081 6.8656
# 4 -5.7517 -3.4576 -9.8087 42.3797 2.4654 8.7833
# 5 16.9988 -5.4349 13.8081 2.4654 32.4601 0.8835
# 6 -0.4503 0.3193 6.8656 8.7833 0.8835 26.5329
#
#
#
# Elastic Compliance Matrix: (Units=1/GPa)
#
#
# Indices 1 2 3 4 5 6 
#
# 1 0.044343 -0.002426 0.001677 0.007959 -0.024906 -0.001458
# 2 -0.002426 0.019915 -0.002679 0.000319 0.005717 0.000117
# 3 0.001677 -0.002679 0.010146 0.003421 -0.005808 -0.003504
# 4 0.007959 0.000319 0.003421 0.027949 -0.007427 -0.009759
# 5 -0.024906 0.005717 -0.005808 -0.007427 0.047791 0.001879
# 6 -0.001458 0.000117 -0.003504 -0.009759 0.001879 0.041738
#
#
# Mechanical properties :
#
#
# Convention : Reuss Voigt Hill
#
# Bulk Modulus (GPa) = 14.80442 26.39644 20.60043
# Shear Modulus (GPa) = 22.59853 32.43046 27.51449
#
# Velocity S-wave (km/s) = 3.17030 3.79784 3.49817
# Velocity P-wave (km/s) = 4.47051 5.56520 5.04762
#
# Compressibility (1/GPa) = 0.06754740
#
# Stress axis : x y z
#
# Youngs Moduli (GPa) = 22.55161 50.21405 98.55641
#
# Poissons Ratio (x) = 0.12183 -0.16529
# Poissons Ratio (y) = 0.05472 0.26404
# Poissons Ratio (z) = -0.03782 0.13453
#
# Static dielectric constant tensor:
#      x y z
#    x 1.854450 0.027360 -0.000560 
#    y 0.027360 1.833420 0.001300 
#    z -0.000560 0.001300 1.805000 
# 
# From -- ./inp_files/246718.got.cif
#   From: 2010.05.17/outbox.cif.g08.bks.cpg/sg2_124_cif.got.tgz:246718.got - 2010.06.03 11:33:40.
