data_PCOD9054727
_publ_section_title
;
Structure prediction by ZEFSAII (Michael W. Deem and Ramdas Pophale) SiO2 
 PCOD9054727
Probable space group: P -1
;
_chemical_formula_sum "Si O2"
_cell_formula_units_Z 16
_cell_length_a 14.625646
_cell_length_b 14.765665
_cell_length_c 11.844315
_cell_angle_alpha 150.652893
_cell_angle_beta 141.360536
_cell_angle_gamma 50.444249
_cell_volume 774.634442
_symmetry_space_group_name_H-M "P -1"
_symmetry_group_IT_number 2
_symmetry_cell_setting 'triclinic'
loop_
_space_group_symop_operation_xyz
x,y,z
-x,-y,-z
loop_
_atom_site_type_symbol
_atom_site_label
_atom_site_fract_x
_atom_site_fract_y
_atom_site_fract_z
Si Si1 0.121518 0.987183 0.851223
Si Si2 0.069025 0.684380 0.916265
Si Si3 0.408638 0.611299 0.765188
Si Si4 0.260789 0.265290 0.135359
Si Si5 0.835474 0.306441 0.237041
Si Si6 0.950626 0.691775 0.204528
Si Si7 0.457089 0.791257 0.774816
Si Si8 0.708169 0.449568 0.837580
O O1 0.137339 0.869586 0.851180
O O2 0.067924 0.833387 0.537748
O O3 0.264528 0.111441 0.068275
O O4 0.012960 0.142057 0.936320
O O5 0.137059 0.724808 0.901653
O O6 0.952019 0.491873 0.583636
O O7 0.198023 0.650380 0.090624
O O8 0.276533 0.462557 0.425153
O O9 0.334315 0.669450 0.870748
O O10 0.433256 0.763863 0.854925
O O11 0.556473 0.513108 0.807808
O O12 0.396053 0.294235 0.210581
O O13 0.114306 0.218280 0.869682
O O14 0.817589 0.629356 0.095787
O O15 0.000000 0.500000 0.000000
O O16 0.332455 0.683112 0.455141
O O17 0.500000 0.000000 0.000000
#
# Coordination Sequence:
#
# PCOD9054727 Si02
#       8
#     2   2   2   2   2   2   2   2
#     4  12  24  41  69  97 134 175 230 274 331 403
#     4  11  25  45  68  98 130 177 234 284 331 377
#     4  11  21  44  66  93 140 176 216 269 340 398
#     4  11  21  38  58  98 129 173 209 255 332 404
#     4  11  24  45  71  93 130 181 232 284 327 386
#     4  12  23  37  63 100 137 175 210 270 337 400
#     4  11  23  36  64  92 134 174 212 261 331 413
#     4  11  23  41  65  96 141 170 216 279 334 402
#
# _framework density 20.654904999999999
#
# number of rings (size 3 to 8) (size 9 to 14) (size 15 to 20)
#    0.000    0.750    5.000    3.750    3.500    0.500 
#    0.000    0.000    0.000    4.500    0.000    0.000 
#    0.000    0.000    0.000    0.000    0.000    0.000 
#
# Total GULP energy -89329.819970 kJ/mol
# GULP energy per Si atom -5583.113748 kJ/mol
# Density = 2.060789 g / cm^3
# Si number density = 20.654905 Si / 1000 Ang^3
#
#
#
# Elastic Constant Matrix: (Units=GPa)
#
#
# Indices 1 2 3 4 5 6 
#
# 1 143.8948 38.2676 11.3595 3.2558 2.1265 4.4746
# 2 38.2676 107.4101 12.0250 6.0778 -3.6551 6.2221
# 3 11.3595 12.0250 44.0396 13.8163 2.3622 1.1666
# 4 3.2558 6.0778 13.8163 28.6677 4.7611 8.8529
# 5 2.1265 -3.6551 2.3622 4.7611 27.2921 11.0850
# 6 4.4746 6.2221 1.1666 8.8529 11.0850 35.7874
#
#
#
# Elastic Compliance Matrix: (Units=1/GPa)
#
#
# Indices 1 2 3 4 5 6 
#
# 1 0.007776 -0.002652 -0.001421 0.000610 -0.000794 -0.000370
# 2 -0.002652 0.010756 -0.002107 -0.000769 0.002841 -0.002160
# 3 -0.001421 -0.002107 0.027931 -0.013669 -0.001635 0.003521
# 4 0.000610 -0.000769 -0.013669 0.045052 -0.002865 -0.009754
# 5 -0.000794 0.002841 -0.001635 -0.002865 0.042983 -0.012946
# 6 -0.000370 -0.002160 0.003521 -0.009754 -0.012946 0.034673
#
#
# Mechanical properties :
#
#
# Convention : Reuss Voigt Hill
#
# Bulk Modulus (GPa) = 29.32114 46.51654 37.91884
# Shear Modulus (GPa) = 25.92043 33.92892 29.92467
#
# Velocity S-wave (km/s) = 3.54634 4.05737 3.81043
# Velocity P-wave (km/s) = 5.56734 6.67228 6.14470
#
# Compressibility (1/GPa) = 0.03410508
#
# Stress axis : x y z
#
# Youngs Moduli (GPa) = 128.59634 92.97188 35.80204
#
# Poissons Ratio (x) = 0.24652 0.05086
# Poissons Ratio (y) = 0.34098 0.07544
# Poissons Ratio (z) = 0.18270 0.19589
#
# Static dielectric constant tensor:
#      x y z
#    x 1.827010 -0.074820 -0.000960 
#    y -0.074820 1.801400 0.013620 
#    z -0.000960 0.013620 1.732070 
# 
# From -- ./inp_files/390288.got.cif
#   From: 2010.05.17/outbox.cif.g08.bks.cpg/sg2_196_cif.got.tgz:390288.got - 2010.06.03 11:33:40.
