data_PCOD9054258
_publ_section_title
;
Structure prediction by ZEFSAII (Michael W. Deem and Ramdas Pophale) SiO2 
 PCOD9054258
Probable space group: P -1
;
_chemical_formula_sum "Si O2"
_cell_formula_units_Z 16
_cell_length_a 10.532495
_cell_length_b 9.617102
_cell_length_c 18.298845
_cell_angle_alpha 131.542999
_cell_angle_beta 142.736668
_cell_angle_gamma 73.981487
_cell_volume 698.311752
_symmetry_space_group_name_H-M "P -1"
_symmetry_group_IT_number 2
_symmetry_cell_setting 'triclinic'
loop_
_space_group_symop_operation_xyz
x,y,z
-x,-y,-z
loop_
_atom_site_type_symbol
_atom_site_label
_atom_site_fract_x
_atom_site_fract_y
_atom_site_fract_z
Si Si1 0.032726 0.519205 0.869524
Si Si2 0.209447 0.362373 0.024751
Si Si3 0.129234 0.945323 0.103195
Si Si4 0.511547 0.806794 0.525671
Si Si5 0.332495 0.146770 0.546011
Si Si6 0.876226 0.638879 0.293171
Si Si7 0.197326 0.015675 0.672432
Si Si8 0.517795 0.830552 0.999048
O O1 0.104320 0.425467 0.802237
O O2 0.745100 0.431838 0.688751
O O3 0.043886 0.410402 0.912020
O O4 0.206576 0.785211 0.048436
O O5 0.453130 0.602968 0.243272
O O6 0.295085 0.228149 0.970284
O O7 0.061844 0.216247 0.976702
O O8 0.347579 0.156878 0.321314
O O9 0.000000 0.000000 0.000000
O O10 0.684003 0.854272 0.550224
O O11 0.429188 0.984561 0.549495
O O12 0.070599 0.065778 0.438111
O O13 0.128466 0.824023 0.515663
O O14 0.725145 0.758690 0.256486
O O15 0.739987 0.411023 0.195663
O O16 0.386892 0.065593 0.841052
O O17 0.500000 0.000000 0.000000
#
# Coordination Sequence:
#
# PCOD9054258 Si02
#       8
#     2   2   2   2   2   2   2   2
#     4  12  24  44  73 101 131 176 231 282 324 403
#     4  12  23  47  71 101 130 180 234 273 334 404
#     4  12  28  45  66 102 143 175 216 279 343 408
#     4  11  22  40  70 101 130 173 220 275 341 388
#     4  11  20  41  74 100 127 172 231 287 325 395
#     4  11  25  42  69 102 130 176 232 284 330 390
#     4  11  23  44  70 101 132 173 235 288 331 391
#     4  12  27  45  68  98 144 185 220 276 346 408
#
# _framework density 22.912405
#
# number of rings (size 3 to 8) (size 9 to 14) (size 15 to 20)
#    0.000    0.500    6.250    3.000    1.750    2.000 
#    0.000    0.000    0.000    0.000    0.000    0.000 
#    0.000    0.000    0.000    0.000    0.000    0.000 
#
# Total GULP energy -89582.674614 kJ/mol
# GULP energy per Si atom -5598.917163 kJ/mol
# Density = 2.286026 g / cm^3
# Si number density = 22.912405 Si / 1000 Ang^3
#
#
#
# Elastic Constant Matrix: (Units=GPa)
#
#
# Indices 1 2 3 4 5 6 
#
# 1 77.4906 13.2154 24.3617 -0.7393 -18.0975 17.6588
# 2 13.2154 133.2830 55.3583 -9.3253 -18.1751 27.6051
# 3 24.3617 55.3583 140.6793 -7.0855 -33.4400 14.0781
# 4 -0.7393 -9.3253 -7.0855 33.1371 15.2684 0.1621
# 5 -18.0975 -18.1751 -33.4400 15.2684 40.3921 -4.9445
# 6 17.6588 27.6051 14.0781 0.1621 -4.9445 18.5841
#
#
#
# Elastic Compliance Matrix: (Units=1/GPa)
#
#
# Indices 1 2 3 4 5 6 
#
# 1 0.019117 0.003735 -0.000964 -0.002179 0.007711 -0.020912
# 2 0.003735 0.013021 -0.003308 0.002494 0.001399 -0.020035
# 3 -0.000964 -0.003308 0.010210 -0.002160 0.007357 0.000072
# 4 -0.002179 0.002494 -0.002160 0.038043 -0.016604 -0.004747
# 5 0.007711 0.001399 0.007357 -0.016604 0.040719 -0.004001
# 6 -0.020912 -0.020035 0.000072 -0.004747 -0.004001 0.102364
#
#
# Mechanical properties :
#
#
# Convention : Reuss Voigt Hill
#
# Bulk Modulus (GPa) = 24.22795 59.70261 41.96528
# Shear Modulus (GPa) = 20.98149 35.65716 28.31933
#
# Velocity S-wave (km/s) = 3.02938 3.94920 3.51947
# Velocity P-wave (km/s) = 4.77842 6.84897 5.90515
#
# Compressibility (1/GPa) = 0.04127464
#
# Stress axis : x y z
#
# Youngs Moduli (GPa) = 52.31031 76.79809 97.94453
#
# Poissons Ratio (x) = -0.28688 0.09446
# Poissons Ratio (y) = -0.19540 0.32396
# Poissons Ratio (z) = 0.05045 0.25402
#
# Static dielectric constant tensor:
#      x y z
#    x 1.927950 -0.002630 0.022840 
#    y -0.002630 1.790440 0.002420 
#    z 0.022840 0.002420 1.893900 
# 
# From -- ./inp_files/566964.got.cif
#   From: 2010.05.17/outbox.cif.g08.bks.cpg/sg2_284_cif.got.tgz:566964.got - 2010.06.03 11:33:40.
