data_PCOD9054003
_publ_section_title
;
Structure prediction by ZEFSAII (Michael W. Deem and Ramdas Pophale) SiO2 
 PCOD9054003
Probable space group: P -1
;
_chemical_formula_sum "Si O2"
_cell_formula_units_Z 14
_cell_length_a 13.850128
_cell_length_b 24.827423
_cell_length_c 13.711938
_cell_angle_alpha 157.977823
_cell_angle_beta 147.286200
_cell_angle_gamma 22.543775
_cell_volume 674.210012
_symmetry_space_group_name_H-M "P -1"
_symmetry_group_IT_number 2
_symmetry_cell_setting 'triclinic'
loop_
_space_group_symop_operation_xyz
x,y,z
-x,-y,-z
loop_
_atom_site_type_symbol
_atom_site_label
_atom_site_fract_x
_atom_site_fract_y
_atom_site_fract_z
Si Si1 0.279985 0.038304 0.429068
Si Si2 0.377950 0.983991 0.647803
Si Si3 0.608988 0.601899 0.993658
Si Si4 0.119238 0.417271 0.194833
Si Si5 0.655082 0.336387 0.942391
Si Si6 0.743794 0.457891 0.649377
Si Si7 0.967141 0.649125 0.645942
O O1 0.009965 0.227622 0.473595
O O2 0.500000 0.000000 0.500000
O O3 0.309331 0.056339 0.598382
O O4 0.354018 0.830798 0.133243
O O5 0.672338 0.832611 0.673588
O O6 0.313076 0.850170 0.372799
O O7 0.220581 0.197285 0.928539
O O8 0.515645 0.552659 0.917873
O O9 0.738815 0.492654 0.818713
O O10 0.821672 0.577515 0.185148
O O11 0.257961 0.411178 0.209832
O O12 0.127310 0.510587 0.454016
O O13 0.913593 0.274272 0.079221
O O14 0.500000 0.500000 0.000000
O O15 0.500000 0.500000 0.500000
O O16 0.000000 0.500000 0.500000
#
# Coordination Sequence:
#
# PCOD9054003 Si02
#       7
#     2   2   2   2   2   2   2
#     4  11  20  39  69  94 137 191 224 274 356 415
#     4  11  24  42  71 100 136 181 232 285 356 408
#     4  11  22  40  68  94 139 187 228 285 349 418
#     4  12  23  43  71 102 139 182 233 291 352 413
#     4  11  23  47  70  98 139 185 232 291 356 424
#     4  12  25  40  66 109 144 181 239 291 348 428
#     4  12  24  47  71  98 137 182 235 292 352 425
#
# _framework density 20.765042999999999
#
# number of rings (size 3 to 8) (size 9 to 14) (size 15 to 20)
#    0.000    0.571    7.143    2.143    0.000    3.429 
#    2.571    1.429    0.000    0.000    0.000    0.000 
#    0.000    0.000    0.000    0.000    0.000    0.000 
#
# Total GULP energy -78101.582702 kJ/mol
# GULP energy per Si atom -5578.684479 kJ/mol
# Density = 2.071778 g / cm^3
# Si number density = 20.765043 Si / 1000 Ang^3
#
#
#
# Elastic Constant Matrix: (Units=GPa)
#
#
# Indices 1 2 3 4 5 6 
#
# 1 101.4673 24.6081 26.9027 -0.7064 18.2379 9.8929
# 2 24.6081 125.2865 65.1529 -9.9470 15.5281 -7.5747
# 3 26.9027 65.1529 113.7113 3.2544 16.0885 -1.7134
# 4 -0.7064 -9.9470 3.2544 39.3755 -11.1986 6.2954
# 5 18.2379 15.5281 16.0885 -11.1986 24.4951 0.4098
# 6 9.8929 -7.5747 -1.7134 6.2954 0.4098 29.3966
#
#
#
# Elastic Compliance Matrix: (Units=1/GPa)
#
#
# Indices 1 2 3 4 5 6 
#
# 1 0.012327 -0.001220 -0.001029 -0.001767 -0.008469 -0.004026
# 2 -0.001220 0.012159 -0.006542 0.002822 -0.001256 0.002576
# 3 -0.001029 -0.006542 0.013824 -0.004702 -0.006325 0.000562
# 4 -0.001767 0.002822 -0.004702 0.032440 0.017549 -0.006144
# 5 -0.008469 -0.001256 -0.006325 0.017549 0.060144 -0.002439
# 6 -0.004026 0.002576 0.000562 -0.006144 -0.002439 0.037419
#
#
# Mechanical properties :
#
#
# Convention : Reuss Voigt Hill
#
# Bulk Modulus (GPa) = 48.24683 63.75471 56.00077
# Shear Modulus (GPa) = 25.93310 33.57355 29.75332
#
# Velocity S-wave (km/s) = 3.53779 4.02534 3.78942
# Velocity P-wave (km/s) = 6.32242 7.23699 6.79511
#
# Compressibility (1/GPa) = 0.02072675
#
# Stress axis : x y z
#
# Youngs Moduli (GPa) = 81.12540 82.24446 72.33684
#
# Poissons Ratio (x) = 0.10034 0.07445
# Poissons Ratio (y) = 0.09897 0.47325
# Poissons Ratio (z) = 0.08349 0.53807
#
# Static dielectric constant tensor:
#      x y z
#    x 10.857750 10.013060 -0.543850 
#    y 10.013060 13.034050 -0.640360 
#    z -0.543850 -0.640360 1.876080 
# 
# From -- ./inp_files/535590.got.cif
#   From: 2010.05.17/outbox.cif.g08.bks.cpg/sg2_268_cif.got.tgz:535590.got - 2010.06.03 11:33:40.
