data_PCOD9054610
_publ_section_title
;
Structure prediction by ZEFSAII (Michael W. Deem and Ramdas Pophale) SiO2 
 PCOD9054610
Probable space group: P -1
;
_chemical_formula_sum "Si O2"
_cell_formula_units_Z 16
_cell_length_a 12.039763
_cell_length_b 12.812035
_cell_length_c 12.198763
_cell_angle_alpha 69.692591
_cell_angle_beta 114.773693
_cell_angle_gamma 55.655092
_cell_volume 885.752058
_symmetry_space_group_name_H-M "P -1"
_symmetry_group_IT_number 2
_symmetry_cell_setting 'triclinic'
loop_
_space_group_symop_operation_xyz
x,y,z
-x,-y,-z
loop_
_atom_site_type_symbol
_atom_site_label
_atom_site_fract_x
_atom_site_fract_y
_atom_site_fract_z
Si Si1 0.343867 0.820549 0.350353
Si Si2 0.264987 0.596833 0.201095
Si Si3 0.036640 0.551950 0.099471
Si Si4 0.561816 0.876429 0.468429
Si Si5 0.553065 0.576002 0.303155
Si Si6 0.056814 0.839761 0.249367
Si Si7 0.440323 0.860375 0.029873
Si Si8 0.440119 0.061047 0.130613
O O1 0.529291 0.617344 0.573259
O O2 0.370079 0.929826 0.347786
O O3 0.420417 0.738436 0.287785
O O4 0.120371 0.922537 0.245626
O O5 0.135021 0.597041 0.087876
O O6 0.407510 0.359859 0.794100
O O7 0.111013 0.759427 0.176724
O O8 0.217801 0.357781 0.324287
O O9 0.000000 0.500000 0.000000
O O10 0.811201 0.739266 0.004234
O O11 0.500000 0.000000 0.500000
O O12 0.582016 0.930996 0.345743
O O13 0.769777 0.357118 0.527973
O O14 0.385181 0.606074 0.184908
O O15 0.810140 0.995291 0.122446
O O16 0.464068 0.938252 0.103596
O O17 0.494644 0.878918 0.931692
#
# Coordination Sequence:
#
# PCOD9054610 Si02
#       8
#     2   2   2   2   2   2   2   2
#     4   8  16  30  52  82 109 133 177 228 277 313
#     4   8  16  30  52  82 109 133 177 228 277 313
#     4  11  21  37  58  81 108 141 180 232 271 316
#     4  11  21  37  58  81 108 141 180 232 271 316
#     4   9  17  32  52  79 111 139 173 227 276 317
#     4   9  17  32  52  79 111 139 173 227 276 317
#     4  11  22  34  55  80 117 148 176 220 259 347
#     4  11  24  37  50  85 114 144 187 211 274 328
#
# _framework density 18.063745999999998
#
# number of rings (size 3 to 8) (size 9 to 14) (size 15 to 20)
#    0.000    2.250    3.750    1.500    0.000    4.000 
#    0.000    2.500    0.000    1.500    0.000    0.000 
#    0.000    0.000    0.000    0.000    0.000    0.000 
#
# Total GULP energy -89242.660866 kJ/mol
# GULP energy per Si atom -5577.666304 kJ/mol
# Density = 1.802263 g / cm^3
# Si number density = 18.063746 Si / 1000 Ang^3
#
#
#
# Elastic Constant Matrix: (Units=GPa)
#
#
# Indices 1 2 3 4 5 6 
#
# 1 116.6739 19.2541 28.0813 23.9658 -15.2408 12.2100
# 2 19.2541 40.4423 8.5964 15.4422 -2.1431 12.6089
# 3 28.0813 8.5964 78.8091 3.8143 -12.8503 -0.0403
# 4 23.9658 15.4422 3.8143 25.5312 3.9239 4.5477
# 5 -15.2408 -2.1431 -12.8503 3.9239 34.0292 5.1365
# 6 12.2100 12.6089 -0.0403 4.5477 5.1365 23.4057
#
#
#
# Elastic Compliance Matrix: (Units=1/GPa)
#
#
# Indices 1 2 3 4 5 6 
#
# 1 0.013463 0.001947 -0.003137 -0.013233 0.007575 -0.007168
# 2 0.001947 0.039798 -0.002608 -0.023235 0.008048 -0.019711
# 3 -0.003137 -0.002608 0.014587 0.001450 0.003466 0.002024
# 4 -0.013233 -0.023235 0.001450 0.066086 -0.015986 0.010091
# 5 0.007575 0.008048 0.003466 -0.015986 0.038495 -0.013623
# 6 -0.007168 -0.019711 0.002024 0.010091 -0.013623 0.058116
#
#
# Mechanical properties :
#
#
# Convention : Reuss Voigt Hill
#
# Bulk Modulus (GPa) = 16.59725 38.64320 27.62023
# Shear Modulus (GPa) = 19.36294 28.59280 23.97787
#
# Velocity S-wave (km/s) = 3.27757 3.98286 3.64731
# Velocity P-wave (km/s) = 4.85092 6.52611 5.74985
#
# Compressibility (1/GPa) = 0.06025093
#
# Stress axis : x y z
#
# Youngs Moduli (GPa) = 74.27907 25.12689 68.55250
#
# Poissons Ratio (x) = -0.04892 0.21507
# Poissons Ratio (y) = -0.14461 0.17879
# Poissons Ratio (z) = 0.23304 0.06553
#
# Static dielectric constant tensor:
#      x y z
#    x 1.649420 0.036030 -0.013070 
#    y 0.036030 1.584920 -0.016140 
#    z -0.013070 -0.016140 1.677010 
# 
# From -- ./inp_files/432833.got.cif
#   From: 2010.05.17/outbox.cif.g08.bks.cpg/sg2_217_cif.got.tgz:432833.got - 2010.06.03 11:33:40.
