data_PCOD9054893
_publ_section_title
;
Structure prediction by ZEFSAII (Michael W. Deem and Ramdas Pophale) SiO2 
 PCOD9054893
Probable space group: P -1
;
_chemical_formula_sum "Si O2"
_cell_formula_units_Z 14
_cell_length_a 8.490112
_cell_length_b 17.183501
_cell_length_c 7.774568
_cell_angle_alpha 93.750920
_cell_angle_beta 65.666719
_cell_angle_gamma 45.752263
_cell_volume 622.744387
_symmetry_space_group_name_H-M "P -1"
_symmetry_group_IT_number 2
_symmetry_cell_setting 'triclinic'
loop_
_space_group_symop_operation_xyz
x,y,z
-x,-y,-z
loop_
_atom_site_type_symbol
_atom_site_label
_atom_site_fract_x
_atom_site_fract_y
_atom_site_fract_z
Si Si1 0.929258 0.636200 0.669678
Si Si2 0.566601 0.853108 0.599814
Si Si3 0.055017 0.708175 0.098467
Si Si4 0.653799 0.233272 0.432538
Si Si5 0.222069 0.488444 0.851570
Si Si6 0.773999 0.915800 0.983495
Si Si7 0.407335 0.387993 0.207745
O O1 0.730032 0.771424 0.692005
O O2 0.713577 0.645649 0.830139
O O3 0.145487 0.562098 0.719521
O O4 0.128420 0.537721 0.406079
O O5 0.805932 0.804479 0.364163
O O6 0.446398 0.820635 0.545750
O O7 0.314383 0.998696 0.801553
O O8 0.914441 0.789349 0.993288
O O9 0.174666 0.576535 0.016515
O O10 0.331930 0.661629 0.002504
O O11 0.514007 0.336201 0.660246
O O12 0.525413 0.315034 0.326356
O O13 0.989960 0.125610 0.245256
O O14 0.000000 0.500000 0.000000
O O15 0.500000 0.000000 0.000000
#
# Coordination Sequence:
#
# PCOD9054893 Si02
#       7
#     2   2   2   2   2   2   2
#     4   9  19  37  59  85 120 160 196 233 297 361
#     4  11  21  40  63  86 121 161 197 243 292 361
#     4  11  23  38  61  93 121 154 198 254 302 342
#     4   9  20  40  63  85 116 166 197 236 304 354
#     4  11  21  39  63  91 124 152 193 253 303 356
#     4  11  24  42  61  86 120 161 206 245 288 355
#     4   8  18  35  58  86 121 154 197 241 292 357
#
# _framework density 22.481134000000001
#
# number of rings (size 3 to 8) (size 9 to 14) (size 15 to 20)
#    0.000    2.000    1.429    2.571    0.000    6.857 
#    2.571    0.714    0.000    0.000    0.000    0.000 
#    0.000    0.000    0.000    0.000    0.000    0.000 
#
# Total GULP energy -78092.549542 kJ/mol
# GULP energy per Si atom -5578.039253 kJ/mol
# Density = 2.242997 g / cm^3
# Si number density = 22.481134 Si / 1000 Ang^3
#
#
#
# Elastic Constant Matrix: (Units=GPa)
#
#
# Indices 1 2 3 4 5 6 
#
# 1 47.2161 30.2927 49.1975 6.2785 -23.8443 1.9140
# 2 30.2927 72.6283 20.7850 2.5254 -0.1942 3.9798
# 3 49.1975 20.7850 142.1582 3.7531 -36.0684 25.8993
# 4 6.2785 2.5254 3.7531 35.5722 -3.1972 6.2116
# 5 -23.8443 -0.1942 -36.0684 -3.1972 37.3020 -0.4358
# 6 1.9140 3.9798 25.8993 6.2116 -0.4358 38.0155
#
#
#
# Elastic Compliance Matrix: (Units=1/GPa)
#
#
# Indices 1 2 3 4 5 6 
#
# 1 0.065099 -0.023441 -0.013710 -0.007651 0.027697 0.010085
# 2 -0.023441 0.023049 0.001991 0.001663 -0.012832 -0.003008
# 3 -0.013710 0.001991 0.014611 0.002960 0.005512 -0.009893
# 4 -0.007651 0.001663 0.002960 0.030254 0.000494 -0.006743
# 5 0.027697 -0.012832 0.005512 0.000494 0.049779 -0.003317
# 6 0.010085 -0.003008 -0.009893 -0.006743 -0.003317 0.033916
#
#
# Mechanical properties :
#
#
# Convention : Reuss Voigt Hill
#
# Bulk Modulus (GPa) = 30.82800 51.39477 41.11139
# Shear Modulus (GPa) = 16.78744 32.95978 24.87361
#
# Velocity S-wave (km/s) = 2.73561 3.83313 3.32990
# Velocity P-wave (km/s) = 4.87039 6.51931 5.75422
#
# Compressibility (1/GPa) = 0.03243804
#
# Stress axis : x y z
#
# Youngs Moduli (GPa) = 15.36110 43.38605 68.44263
#
# Poissons Ratio (x) = 1.01703 0.93835
# Poissons Ratio (y) = 0.36009 -0.13626
# Poissons Ratio (z) = 0.21060 -0.08638
#
# Static dielectric constant tensor:
#      x y z
#    x 1.899910 -0.027530 0.045470 
#    y -0.027530 1.874280 -0.011350 
#    z 0.045470 -0.011350 1.831160 
# 
# From -- ./inp_files/175513.got.cif
#   From: 2010.05.17/outbox.cif.g08.bks.cpg/sg2_88_cif.got.tgz:175513.got - 2010.06.03 11:33:40.
