data_PCOD9054971
_publ_section_title
;
Structure prediction by ZEFSAII (Michael W. Deem and Ramdas Pophale) SiO2 
 PCOD9054971
Probable space group: P -1
;
_chemical_formula_sum "Si O2"
_cell_formula_units_Z 16
_cell_length_a 6.220487
_cell_length_b 17.459455
_cell_length_c 9.066604
_cell_angle_alpha 47.512296
_cell_angle_beta 94.755964
_cell_angle_gamma 90.449140
_cell_volume 722.076786
_symmetry_space_group_name_H-M "P -1"
_symmetry_group_IT_number 2
_symmetry_cell_setting 'triclinic'
loop_
_space_group_symop_operation_xyz
x,y,z
-x,-y,-z
loop_
_atom_site_type_symbol
_atom_site_label
_atom_site_fract_x
_atom_site_fract_y
_atom_site_fract_z
Si Si1 0.745877 0.079969 0.070159
Si Si2 0.979933 0.125597 0.594400
Si Si3 0.698069 0.432029 0.169878
Si Si4 0.981222 0.405482 0.937415
Si Si5 0.384717 0.003947 0.330232
Si Si6 0.234618 0.735584 0.388007
Si Si7 0.957537 0.827889 0.801129
Si Si8 0.242687 0.544251 0.418272
O O1 0.532575 0.027891 0.172414
O O2 0.824559 0.141463 0.142145
O O3 0.710356 0.159738 0.830282
O O4 0.912141 0.979187 0.190884
O O5 0.973588 0.221450 0.582278
O O6 0.067312 0.141546 0.413038
O O7 0.734540 0.099719 0.575887
O O8 0.834209 0.513377 0.162551
O O9 0.631729 0.334868 0.390543
O O10 0.500000 0.500000 0.000000
O O11 0.873301 0.393356 0.106673
O O12 0.784778 0.443023 0.774046
O O13 0.070650 0.293370 0.033011
O O14 0.215966 0.102103 0.210317
O O15 0.500000 0.000000 0.500000
O O16 0.219038 0.652203 0.365835
O O17 0.500000 0.500000 0.500000
O O18 0.000000 0.500000 0.500000
#
# Coordination Sequence:
#
# PCOD9054971 Si02
#       8
#     2   2   2   2   2   2   2   2
#     4  11  23  43  66 101 140 186 242 300 372 445
#     4  11  23  43  66 102 142 180 244 302 363 452
#     4  11  25  46  69 104 141 184 251 314 375 447
#     4  11  24  44  73 103 139 192 248 309 375 464
#     4  11  21  39  68  99 136 189 243 302 357 443
#     4  12  25  46  71 104 148 194 237 315 388 441
#     4  11  21  40  71  98 136 187 243 296 369 446
#     4  12  27  51  78 112 154 199 253 317 385 465
#
# _framework density 22.158308000000002
#
# number of rings (size 3 to 8) (size 9 to 14) (size 15 to 20)
#    0.000    0.750    6.250    1.875    0.000    3.500 
#    2.250    0.000    0.000    0.000    0.000    0.000 
#    0.000    0.000    0.000    0.000    0.000    0.000 
#
# Total GULP energy -89102.684528 kJ/mol
# GULP energy per Si atom -5568.917783 kJ/mol
# Density = 2.210787 g / cm^3
# Si number density = 22.158308 Si / 1000 Ang^3
#
#
#
# Elastic Constant Matrix: (Units=GPa)
#
#
# Indices 1 2 3 4 5 6 
#
# 1 71.3518 23.9644 32.4223 -2.4892 9.3245 -3.1005
# 2 23.9644 108.2921 8.2162 -9.8242 17.2376 -11.0822
# 3 32.4223 8.2162 149.2971 -7.0750 10.5723 3.0637
# 4 -2.4892 -9.8242 -7.0750 27.7387 -7.7768 2.6841
# 5 9.3245 17.2376 10.5723 -7.7768 24.1067 7.1300
# 6 -3.1005 -11.0822 3.0637 2.6841 7.1300 15.6677
#
#
#
# Elastic Compliance Matrix: (Units=1/GPa)
#
#
# Indices 1 2 3 4 5 6 
#
# 1 0.017274 -0.002245 -0.003430 -0.002345 -0.005994 0.005631
# 2 -0.002245 0.013358 0.000369 -0.000648 -0.013554 0.015211
# 3 -0.003430 0.000369 0.007621 0.001551 -0.001313 -0.001576
# 4 -0.002345 -0.000648 0.001551 0.043295 0.019890 -0.017694
# 5 -0.005994 -0.013554 -0.001313 0.019890 0.074651 -0.047895
# 6 0.005631 0.015211 -0.001576 -0.017694 -0.047895 0.100834
#
#
# Mechanical properties :
#
#
# Convention : Reuss Voigt Hill
#
# Bulk Modulus (GPa) = 36.17603 50.90520 43.54061
# Shear Modulus (GPa) = 18.05973 31.12514 24.59244
#
# Velocity S-wave (km/s) = 2.85797 3.75196 3.33506
# Velocity P-wave (km/s) = 5.22037 6.46474 5.87559
#
# Compressibility (1/GPa) = 0.02764261
#
# Stress axis : x y z
#
# Youngs Moduli (GPa) = 57.89128 74.85981 131.20852
#
# Poissons Ratio (x) = 0.16804 0.45004
# Poissons Ratio (y) = 0.12995 -0.04845
# Poissons Ratio (z) = 0.19857 -0.02764
#
# Static dielectric constant tensor:
#      x y z
#    x 1.905430 0.031410 0.025650 
#    y 0.031410 1.833410 0.042390 
#    z 0.025650 0.042390 1.864160 
# 
# From -- ./inp_files/138586.got.cif
#   From: 2010.05.17/outbox.cif.g08.bks.cpg/sg2_70_cif.got.tgz:138586.got - 2010.06.03 11:33:40.
