data_PCOD9054642
_publ_section_title
;
Structure prediction by ZEFSAII (Michael W. Deem and Ramdas Pophale) SiO2 
 PCOD9054642
Probable space group: P -1
;
_chemical_formula_sum "Si O2"
_cell_formula_units_Z 16
_cell_length_a 26.662595
_cell_length_b 27.378187
_cell_length_c 12.192922
_cell_angle_alpha 27.144362
_cell_angle_beta 27.049252
_cell_angle_gamma 10.389064
_cell_volume 719.425790
_symmetry_space_group_name_H-M "P -1"
_symmetry_group_IT_number 2
_symmetry_cell_setting 'triclinic'
loop_
_space_group_symop_operation_xyz
x,y,z
-x,-y,-z
loop_
_atom_site_type_symbol
_atom_site_label
_atom_site_fract_x
_atom_site_fract_y
_atom_site_fract_z
Si Si1 0.941109 0.576585 0.833514
Si Si2 0.292065 0.638170 0.463601
Si Si3 0.269582 0.935945 0.190580
Si Si4 0.974771 0.199896 0.555180
Si Si5 0.430241 0.757612 0.986966
Si Si6 0.310526 0.073007 0.015511
Si Si7 0.492376 0.630947 0.782928
Si Si8 0.903036 0.342554 0.739025
O O1 0.983688 0.661975 0.547186
O O2 0.000000 0.500000 0.000000
O O3 0.629299 0.813795 0.942459
O O4 0.143818 0.330900 0.847007
O O5 0.523814 0.336724 0.610667
O O6 0.424379 0.633411 0.245803
O O7 0.135260 0.779427 0.368597
O O8 0.049363 0.822128 0.655473
O O9 0.366149 0.854348 0.040744
O O10 0.291023 0.029669 0.024245
O O11 0.701045 0.494219 0.557975
O O12 0.160811 0.124004 0.287795
O O13 0.180001 0.957101 0.726352
O O14 0.728036 0.532583 0.808728
O O15 0.166858 0.034051 0.874827
O O16 0.655027 0.504816 0.830506
O O17 0.500000 0.500000 0.000000
#
# Coordination Sequence:
#
# PCOD9054642 Si02
#       8
#     2   2   2   2   2   2   2   2
#     4  12  25  45  69  93 123 165 214 272 326 379
#     4  11  21  39  66  99 131 170 213 258 316 387
#     4  11  23  41  67  97 129 171 217 262 314 376
#     4  11  21  37  62  92 122 160 206 260 315 376
#     4  12  24  43  63  94 135 172 212 266 316 379
#     4  11  23  42  66  93 122 159 217 272 315 371
#     4  12  23  39  59  90 130 168 199 248 319 392
#     4  12  26  42  63  94 128 171 218 262 323 388
#
# _framework density 22.239958000000001
#
# number of rings (size 3 to 8) (size 9 to 14) (size 15 to 20)
#    0.000    0.500    0.000   11.250    0.000    0.000 
#    0.000    3.750    0.000    0.000    0.000    0.000 
#    0.000    0.000    0.000    0.000    0.000    0.000 
#
# Total GULP energy -89599.238597 kJ/mol
# GULP energy per Si atom -5599.952412 kJ/mol
# Density = 2.218934 g / cm^3
# Si number density = 22.239958 Si / 1000 Ang^3
#
#
#
# Elastic Constant Matrix: (Units=GPa)
#
#
# Indices 1 2 3 4 5 6 
#
# 1 92.9505 10.2417 37.6378 0.9537 -3.8606 8.9113
# 2 10.2417 116.8423 8.8472 8.8744 -3.0127 -0.6547
# 3 37.6378 8.8472 61.3366 7.9984 -8.2719 -4.5335
# 4 0.9537 8.8744 7.9984 53.1781 2.0424 2.7781
# 5 -3.8606 -3.0127 -8.2719 2.0424 29.7939 7.0542
# 6 8.9113 -0.6547 -4.5335 2.7781 7.0542 37.1154
#
#
#
# Elastic Compliance Matrix: (Units=1/GPa)
#
#
# Indices 1 2 3 4 5 6 
#
# 1 0.015297 -0.000738 -0.009824 0.001580 0.000269 -0.005055
# 2 -0.000738 0.008789 -0.000519 -0.001415 0.000688 0.000244
# 3 -0.009824 -0.000519 0.023840 -0.003739 0.004437 0.004698
# 4 0.001580 -0.001415 -0.003739 0.019750 -0.001860 -0.001986
# 5 0.000269 0.000688 0.004437 -0.001860 0.036522 -0.006313
# 6 -0.005055 0.000244 0.004698 -0.001986 -0.006313 0.030083
#
#
# Mechanical properties :
#
#
# Convention : Reuss Voigt Hill
#
# Bulk Modulus (GPa) = 38.81531 42.73141 40.77336
# Shear Modulus (GPa) = 30.29706 38.31099 34.30403
#
# Velocity S-wave (km/s) = 3.69491 4.15495 3.93166
# Velocity P-wave (km/s) = 5.97445 6.50182 6.24370
#
# Compressibility (1/GPa) = 0.02576303
#
# Stress axis : x y z
#
# Youngs Moduli (GPa) = 65.37132 113.77680 41.94680
#
# Poissons Ratio (x) = 0.08402 0.41208
# Poissons Ratio (y) = 0.04827 0.02178
# Poissons Ratio (z) = 0.64219 0.05909
#
# Static dielectric constant tensor:
#      x y z
#    x 1.840000 0.022500 0.030980 
#    y 0.022500 1.796290 0.006530 
#    z 0.030980 0.006530 1.836070 
# 
# From -- ./inp_files/477187.got.cif
#   From: 2010.05.17/outbox.cif.g08.bks.cpg/sg2_239_cif.got.tgz:477187.got - 2010.06.03 11:33:40.
