data_PCOD9054543
_publ_section_title
;
Structure prediction by ZEFSAII (Michael W. Deem and Ramdas Pophale) SiO2 
 PCOD9054543
Probable space group: P -1
;
_chemical_formula_sum "Si O2"
_cell_formula_units_Z 14
_cell_length_a 10.583113
_cell_length_b 5.038335
_cell_length_c 19.628863
_cell_angle_alpha 64.612628
_cell_angle_beta 129.388639
_cell_angle_gamma 91.975450
_cell_volume 687.175050
_symmetry_space_group_name_H-M "P -1"
_symmetry_group_IT_number 2
_symmetry_cell_setting 'triclinic'
loop_
_space_group_symop_operation_xyz
x,y,z
-x,-y,-z
loop_
_atom_site_type_symbol
_atom_site_label
_atom_site_fract_x
_atom_site_fract_y
_atom_site_fract_z
Si Si1 0.292248 0.203109 0.049468
Si Si2 0.096707 0.634244 0.574024
Si Si3 0.371156 0.702330 0.851451
Si Si4 0.037905 0.745761 0.157978
Si Si5 0.551942 0.833937 0.269343
Si Si6 0.772991 0.763415 0.825743
Si Si7 0.849642 0.686433 0.226890
O O1 0.215824 0.359189 0.078752
O O2 0.429357 0.359344 0.051520
O O3 0.418979 0.861949 0.157114
O O4 0.143641 0.183336 0.952161
O O5 0.300774 0.496308 0.638559
O O6 0.089913 0.495394 0.661986
O O7 0.000000 0.500000 0.500000
O O8 0.000000 0.000000 0.500000
O O9 0.362458 0.911540 0.756137
O O10 0.234188 0.946240 0.826878
O O11 0.305646 0.421172 0.843526
O O12 0.002353 0.618011 0.232225
O O13 0.179008 0.498681 0.186009
O O14 0.095865 0.043434 0.155714
O O15 0.423514 0.985982 0.270431
#
# Coordination Sequence:
#
# PCOD9054543 Si02
#       7
#     2   2   2   2   2   2   2
#     4   8  20  36  58  82 118 152 196 221 262 324
#     4  11  22  39  64  84 104 138 189 242 292 334
#     4   8  19  35  52  77 115 146 180 232 270 327
#     4  12  21  35  55  86 118 162 177 225 264 335
#     4   7  19  38  57  85 107 145 189 237 266 324
#     4   9  22  35  56  79 121 151 200 211 263 322
#     4  11  21  36  55  85 117 141 186 227 294 332
#
# _framework density 20.373266000000001
#
# number of rings (size 3 to 8) (size 9 to 14) (size 15 to 20)
#    1.714    0.571    0.000    3.429    0.000   10.286 
#    0.000    0.000    0.000    5.143    0.000    0.000 
#    0.000    0.000    0.000    0.000    0.000    0.000 
#
# Total GULP energy -78050.400518 kJ/mol
# GULP energy per Si atom -5575.028608 kJ/mol
# Density = 2.032690 g / cm^3
# Si number density = 20.373266 Si / 1000 Ang^3
#
#
#
# Elastic Constant Matrix: (Units=GPa)
#
#
# Indices 1 2 3 4 5 6 
#
# 1 92.9101 14.0547 25.4184 -3.2826 1.4847 -2.1563
# 2 14.0547 75.7653 26.2130 0.7770 1.7430 -10.6942
# 3 25.4184 26.2130 85.5722 -15.8769 6.6258 -17.5118
# 4 -3.2826 0.7770 -15.8769 26.8884 -9.9956 5.1130
# 5 1.4847 1.7430 6.6258 -9.9956 25.7775 -2.1090
# 6 -2.1563 -10.6942 -17.5118 5.1130 -2.1090 20.1246
#
#
#
# Elastic Compliance Matrix: (Units=1/GPa)
#
#
# Indices 1 2 3 4 5 6 
#
# 1 0.011905 -0.001290 -0.003709 -0.000181 0.000073 -0.002584
# 2 -0.001290 0.015707 -0.003995 -0.004527 -0.001246 0.005752
# 3 -0.003709 -0.003995 0.017731 0.008043 -0.000067 0.010858
# 4 -0.000181 -0.004527 0.008043 0.049534 0.016947 -0.006235
# 5 0.000073 -0.001246 -0.000067 0.016947 0.045441 -0.000256
# 6 -0.002584 0.005752 0.010858 -0.006235 -0.000256 0.063476
#
#
# Mechanical properties :
#
#
# Convention : Reuss Voigt Hill
#
# Bulk Modulus (GPa) = 36.55513 42.84665 39.70089
# Shear Modulus (GPa) = 21.65431 27.12887 24.39159
#
# Velocity S-wave (km/s) = 3.26372 3.65306 3.46386
# Velocity P-wave (km/s) = 5.67311 6.23455 5.96044
#
# Compressibility (1/GPa) = 0.02735594
#
# Stress axis : x y z
#
# Youngs Moduli (GPa) = 83.99505 63.66609 56.39826
#
# Poissons Ratio (x) = 0.08211 0.20920
# Poissons Ratio (y) = 0.10833 0.22530
# Poissons Ratio (z) = 0.31157 0.25433
#
# Static dielectric constant tensor:
#      x y z
#    x 1.780720 -0.002050 0.011110 
#    y -0.002050 1.732660 -0.001160 
#    z 0.011110 -0.001160 1.746710 
# 
# From -- ./inp_files/584842.got.cif
#   From: 2010.05.17/outbox.cif.g08.bks.cpg/sg2_293_cif.got.tgz:584842.got - 2010.06.03 11:33:40.
