data_PCOD9054931
_publ_section_title
;
Structure prediction by ZEFSAII (Michael W. Deem and Ramdas Pophale) SiO2 
 PCOD9054931
Probable space group: P -1
;
_chemical_formula_sum "Si O2"
_cell_formula_units_Z 16
_cell_length_a 9.639153
_cell_length_b 14.941861
_cell_length_c 11.774958
_cell_angle_alpha 30.085550
_cell_angle_beta 77.819523
_cell_angle_gamma 89.155252
_cell_volume 780.749975
_symmetry_space_group_name_H-M "P -1"
_symmetry_group_IT_number 2
_symmetry_cell_setting 'triclinic'
loop_
_space_group_symop_operation_xyz
x,y,z
-x,-y,-z
loop_
_atom_site_type_symbol
_atom_site_label
_atom_site_fract_x
_atom_site_fract_y
_atom_site_fract_z
Si Si1 0.547501 0.677529 0.628536
Si Si2 0.665236 0.714149 0.805773
Si Si3 0.849230 0.823204 0.291977
Si Si4 0.396004 0.888090 0.245613
Si Si5 0.957768 0.626229 0.776745
Si Si6 0.929829 0.398233 0.453537
Si Si7 0.066698 0.201920 0.927366
Si Si8 0.793288 0.955142 0.733380
O O1 0.584894 0.765267 0.653145
O O2 0.704355 0.693063 0.525013
O O3 0.473551 0.783485 0.435998
O O4 0.445950 0.461763 0.910348
O O5 0.796258 0.642770 0.811495
O O6 0.737170 0.879434 0.701942
O O7 0.822770 0.829581 0.155223
O O8 0.984845 0.738508 0.363760
O O9 0.912253 0.027016 0.119656
O O10 0.244577 0.728123 0.398580
O O11 0.338404 0.024549 0.185792
O O12 0.500000 0.000000 0.000000
O O13 0.981022 0.539944 0.747863
O O14 0.079199 0.838228 0.523081
O O15 0.000000 0.500000 0.000000
O O16 0.942669 0.589787 0.305663
O O17 0.130695 0.175361 0.068223
#
# Coordination Sequence:
#
# PCOD9054931 Si02
#       8
#     2   2   2   2   2   2   2   2
#     4  11  24  43  63  95 137 173 210 280 338 378
#     4  11  23  41  66  90 135 175 216 275 333 385
#     4  11  23  44  66  99 136 167 218 276 326 392
#     4  11  24  43  67  95 138 174 216 276 330 395
#     4  11  21  39  66  93 131 170 221 274 314 393
#     4  11  23  44  67  99 126 176 227 259 332 394
#     4  11  22  40  74  95 131 169 222 275 323 387
#     4  11  22  42  65 100 125 175 230 261 328 400
#
# _framework density 20.493115
#
# number of rings (size 3 to 8) (size 9 to 14) (size 15 to 20)
#    0.000    1.000    3.750    4.500    1.750    2.500 
#    2.250    2.500    0.000    0.000    0.000    0.000 
#    0.000    0.000    0.000    0.000    0.000    0.000 
#
# Total GULP energy -89334.369022 kJ/mol
# GULP energy per Si atom -5583.398064 kJ/mol
# Density = 2.044647 g / cm^3
# Si number density = 20.493115 Si / 1000 Ang^3
#
#
#
# Elastic Constant Matrix: (Units=GPa)
#
#
# Indices 1 2 3 4 5 6 
#
# 1 105.1224 31.8454 51.8879 4.0086 1.0497 -0.6786
# 2 31.8454 89.9303 27.2112 -3.9562 -9.1164 3.4599
# 3 51.8879 27.2112 93.5314 20.2194 1.0116 -7.4291
# 4 4.0086 -3.9562 20.2194 40.5913 -4.0609 2.3191
# 5 1.0497 -9.1164 1.0116 -4.0609 43.5458 15.6001
# 6 -0.6786 3.4599 -7.4291 2.3191 15.6001 29.5561
#
#
#
# Elastic Compliance Matrix: (Units=1/GPa)
#
#
# Indices 1 2 3 4 5 6 
#
# 1 0.013922 -0.002454 -0.007626 0.002282 0.000091 -0.001537
# 2 -0.002454 0.014381 -0.004428 0.004801 0.005891 -0.006339
# 3 -0.007626 -0.004428 0.019182 -0.010262 -0.005283 0.008759
# 4 0.002282 0.004801 -0.010262 0.031285 0.007513 -0.009509
# 5 0.000091 0.005891 -0.005283 0.007513 0.032003 -0.019497
# 6 -0.001537 -0.006339 0.008759 -0.009509 -0.019497 0.047779
#
#
# Mechanical properties :
#
#
# Convention : Reuss Voigt Hill
#
# Bulk Modulus (GPa) = 54.14236 56.71924 55.43080
# Shear Modulus (GPa) = 25.80994 34.58129 30.19562
#
# Velocity S-wave (km/s) = 3.55272 4.11233 3.84272
# Velocity P-wave (km/s) = 6.58074 7.09123 6.84075
#
# Compressibility (1/GPa) = 0.01846983
#
# Stress axis : x y z
#
# Youngs Moduli (GPa) = 71.82649 69.53813 52.13308
#
# Poissons Ratio (x) = 0.17063 0.39757
# Poissons Ratio (y) = 0.17625 0.23082
# Poissons Ratio (z) = 0.54776 0.30788
#
# Static dielectric constant tensor:
#      x y z
#    x 1.765850 0.039510 0.036710 
#    y 0.039510 1.751260 0.055350 
#    z 0.036710 0.055350 1.758890 
# 
# From -- ./inp_files/398129.got.cif
#   From: 2010.05.17/outbox.cif.g08.bks.cpg/sg2_200_cif.got.tgz:398129.got - 2010.06.03 11:33:40.
