data_PCOD9054144
_publ_section_title
;
Structure prediction by ZEFSAII (Michael W. Deem and Ramdas Pophale) SiO2 
 PCOD9054144
Probable space group: P -1
;
_chemical_formula_sum "Si O2"
_cell_formula_units_Z 16
_cell_length_a 9.336567
_cell_length_b 8.553716
_cell_length_c 17.607327
_cell_angle_alpha 118.951142
_cell_angle_beta 142.151821
_cell_angle_gamma 79.255578
_cell_volume 702.962674
_symmetry_space_group_name_H-M "P -1"
_symmetry_group_IT_number 2
_symmetry_cell_setting 'triclinic'
loop_
_space_group_symop_operation_xyz
x,y,z
-x,-y,-z
loop_
_atom_site_type_symbol
_atom_site_label
_atom_site_fract_x
_atom_site_fract_y
_atom_site_fract_z
Si Si1 0.787951 0.382901 0.747567
Si Si2 0.471249 0.977228 0.715920
Si Si3 0.203645 0.408968 0.738441
Si Si4 0.335859 0.629746 0.471497
Si Si5 0.279426 0.206174 0.580852
Si Si6 0.745027 0.730677 0.030706
Si Si7 0.191714 0.043135 0.749863
Si Si8 0.974274 0.800675 0.980548
O O1 0.675098 0.286677 0.597479
O O2 0.555935 0.312782 0.691052
O O3 0.886392 0.615048 0.846203
O O4 0.023195 0.328652 0.858098
O O5 0.459288 0.781063 0.625878
O O6 0.283735 0.035590 0.597537
O O7 0.377852 0.971287 0.761530
O O8 0.738510 0.148978 0.861719
O O9 0.190409 0.337090 0.629575
O O10 0.196910 0.237518 0.753424
O O11 0.963282 0.468669 0.662566
O O12 0.476798 0.570020 0.898341
O O13 0.500000 0.500000 0.500000
O O14 0.082579 0.115756 0.411599
O O15 0.752760 0.908554 0.127923
O O16 0.796249 0.764785 0.970887
O O17 0.000000 0.000000 0.000000
#
# Coordination Sequence:
#
# PCOD9054144 Si02
#       8
#     2   2   2   2   2   2   2   2
#     4  12  24  44  71 108 136 185 241 291 343 414
#     4  11  22  43  68  99 138 178 227 285 351 408
#     4  11  21  42  68 104 144 181 231 287 352 408
#     4  12  26  44  68 100 146 191 226 278 354 425
#     4  11  20  40  72 105 139 173 232 298 344 397
#     4  12  24  42  74 108 136 181 244 294 340 415
#     4  11  22  39  71 110 138 173 229 305 346 396
#     4  12  27  46  66  98 148 187 225 286 358 421
#
# _framework density 22.760809999999999
#
# number of rings (size 3 to 8) (size 9 to 14) (size 15 to 20)
#    0.000    0.500    6.250    3.750    3.500    1.000 
#    0.000    2.500    0.000    0.000    0.000    0.000 
#    0.000    0.000    0.000    0.000    0.000    0.000 
#
# Total GULP energy -89443.846976 kJ/mol
# GULP energy per Si atom -5590.240436 kJ/mol
# Density = 2.270900 g / cm^3
# Si number density = 22.760810 Si / 1000 Ang^3
#
#
#
# Elastic Constant Matrix: (Units=GPa)
#
#
# Indices 1 2 3 4 5 6 
#
# 1 139.7982 27.4263 30.6558 5.0772 8.4474 -28.8752
# 2 27.4263 35.2640 1.3098 -1.9477 1.3733 -16.7435
# 3 30.6558 1.3098 87.8403 12.3271 12.1318 -9.9757
# 4 5.0772 -1.9477 12.3271 23.1914 -6.5395 -3.3172
# 5 8.4474 1.3733 12.1318 -6.5395 52.3577 3.0846
# 6 -28.8752 -16.7435 -9.9757 -3.3172 3.0846 29.0415
#
#
#
# Elastic Compliance Matrix: (Units=1/GPa)
#
#
# Indices 1 2 3 4 5 6 
#
# 1 0.010053 -0.004585 -0.002383 -0.000780 -0.001436 0.006597
# 2 -0.004585 0.042531 0.002857 0.005717 -0.001606 0.021767
# 3 -0.002383 0.002857 0.014211 -0.007421 -0.004131 0.003751
# 4 -0.000780 0.005717 -0.007421 0.050598 0.007725 0.004930
# 5 -0.001436 -0.001606 -0.004131 0.007725 0.021601 -0.005184
# 6 0.006597 0.021767 0.003751 0.004930 -0.005184 0.055944
#
#
# Mechanical properties :
#
#
# Convention : Reuss Voigt Hill
#
# Bulk Modulus (GPa) = 17.07263 42.40958 29.74110
# Shear Modulus (GPa) = 22.45338 34.48549 28.46943
#
# Velocity S-wave (km/s) = 3.14426 3.89668 3.54052
# Velocity P-wave (km/s) = 4.54961 6.23849 5.45975
#
# Compressibility (1/GPa) = 0.05857329
#
# Stress axis : x y z
#
# Youngs Moduli (GPa) = 99.47391 23.51241 70.36673
#
# Poissons Ratio (x) = 0.10781 0.16769
# Poissons Ratio (y) = 0.45610 -0.20107
# Poissons Ratio (z) = 0.23706 -0.06719
#
# Static dielectric constant tensor:
#      x y z
#    x 1.854740 -0.024560 -0.011690 
#    y -0.024560 1.892430 -0.034230 
#    z -0.011690 -0.034230 1.895610 
# 
# From -- ./inp_files/399632.got.cif
#   From: 2010.05.17/outbox.cif.g08.bks.cpg/sg2_200_cif.got.tgz:399632.got - 2010.06.03 11:33:40.
