data_PCOD9054839
_publ_section_title
;
Structure prediction by ZEFSAII (Michael W. Deem and Ramdas Pophale) SiO2 
 PCOD9054839
Probable space group: P -1
;
_chemical_formula_sum "Si O2"
_cell_formula_units_Z 14
_cell_length_a 9.379946
_cell_length_b 13.338422
_cell_length_c 11.375031
_cell_angle_alpha 51.808157
_cell_angle_beta 56.708151
_cell_angle_gamma 33.939339
_cell_volume 622.395583
_symmetry_space_group_name_H-M "P -1"
_symmetry_group_IT_number 2
_symmetry_cell_setting 'triclinic'
loop_
_space_group_symop_operation_xyz
x,y,z
-x,-y,-z
loop_
_atom_site_type_symbol
_atom_site_label
_atom_site_fract_x
_atom_site_fract_y
_atom_site_fract_z
Si Si1 0.236507 0.828828 0.602516
Si Si2 0.557818 0.435648 0.653662
Si Si3 0.484544 0.100879 0.688555
Si Si4 0.772061 0.702909 0.825756
Si Si5 0.335526 0.295087 0.859093
Si Si6 0.052039 0.617044 0.357410
Si Si7 0.500580 0.355645 0.155297
O O1 0.324241 0.634377 0.683877
O O2 0.459203 0.794237 0.472385
O O3 0.260841 0.820975 0.739747
O O4 0.000000 0.000000 0.500000
O O5 0.500000 0.500000 0.500000
O O6 0.535752 0.298355 0.782834
O O7 0.820251 0.357623 0.627108
O O8 0.447141 0.146472 0.811600
O O9 0.222911 0.182942 0.705392
O O10 0.704846 0.885925 0.696065
O O11 0.573378 0.710845 0.857423
O O12 0.056665 0.507933 0.795237
O O13 0.733086 0.723683 0.969574
O O14 0.255432 0.497369 0.248298
O O15 0.000000 0.500000 0.500000
O O16 0.500000 0.500000 0.000000
#
# Coordination Sequence:
#
# PCOD9054839 Si02
#       7
#     2   2   2   2   2   2   2
#     4  11  24  42  68 103 139 178 236 295 341 414
#     4  11  21  38  68  93 129 182 228 276 351 401
#     4  12  23  44  70 101 135 180 241 286 342 424
#     4  11  25  41  72 100 138 188 227 285 362 416
#     4  11  23  46  67  99 143 184 230 290 350 417
#     4  11  21  43  69  96 138 187 230 286 350 415
#     4  11  24  46  70 100 145 186 229 288 359 418
#
# _framework density 22.493732999999999
#
# number of rings (size 3 to 8) (size 9 to 14) (size 15 to 20)
#    0.000    0.857    5.714    3.000    0.000    2.857 
#    2.571    1.429    0.000    0.000    0.000    0.000 
#    0.000    0.000    0.000    0.000    0.000    0.000 
#
# Total GULP energy -78100.222044 kJ/mol
# GULP energy per Si atom -5578.587289 kJ/mol
# Density = 2.244254 g / cm^3
# Si number density = 22.493733 Si / 1000 Ang^3
#
#
#
# Elastic Constant Matrix: (Units=GPa)
#
#
# Indices 1 2 3 4 5 6 
#
# 1 167.9646 35.8166 23.4571 -9.6753 4.2625 -4.9628
# 2 35.8166 62.8314 8.4623 -8.1618 4.4883 8.2687
# 3 23.4571 8.4623 75.4278 13.8648 -5.2648 -4.9017
# 4 -9.6753 -8.1618 13.8648 26.8864 -1.8011 -2.0917
# 5 4.2625 4.4883 -5.2648 -1.8011 37.2466 1.2253
# 6 -4.9628 8.2687 -4.9017 -2.0917 1.2253 34.0062
#
#
#
# Elastic Compliance Matrix: (Units=1/GPa)
#
#
# Indices 1 2 3 4 5 6 
#
# 1 0.007289 -0.003678 -0.002293 0.002788 -0.000640 0.001822
# 2 -0.003678 0.019915 -0.002584 0.005511 -0.001902 -0.005344
# 3 -0.002293 -0.002584 0.016340 -0.009725 0.002348 0.001966
# 4 0.002788 0.005511 -0.009725 0.044905 -0.000201 0.000434
# 5 -0.000640 -0.001902 0.002348 -0.000201 0.027482 -0.000295
# 6 0.001822 -0.005344 0.001966 0.000434 -0.000295 0.031292
#
#
# Mechanical properties :
#
#
# Convention : Reuss Voigt Hill
#
# Bulk Modulus (GPa) = 37.82832 49.07731 43.45282
# Shear Modulus (GPa) = 28.87760 35.52701 32.20230
#
# Velocity S-wave (km/s) = 3.58691 3.97850 3.78777
# Velocity P-wave (km/s) = 5.83167 6.55517 6.20397
#
# Compressibility (1/GPa) = 0.02643522
#
# Stress axis : x y z
#
# Youngs Moduli (GPa) = 137.19683 50.21271 61.19990
#
# Poissons Ratio (x) = 0.18469 0.14032
# Poissons Ratio (y) = 0.50462 0.15811
# Poissons Ratio (z) = 0.31456 0.12973
#
# Static dielectric constant tensor:
#      x y z
#    x 1.895740 0.000530 0.055280 
#    y 0.000530 1.925600 -0.098840 
#    z 0.055280 -0.098840 1.901260 
# 
# From -- ./inp_files/352277.got.cif
#   From: 2010.05.17/outbox.cif.g08.bks.cpg/sg2_177_cif.got.tgz:352277.got - 2010.06.03 11:33:40.
