data_PCOD9054816
_publ_section_title
;
Structure prediction by ZEFSAII (Michael W. Deem and Ramdas Pophale) SiO2 
 PCOD9054816
Probable space group: P -1
;
_chemical_formula_sum "Si O2"
_cell_formula_units_Z 14
_cell_length_a 9.280708
_cell_length_b 10.435845
_cell_length_c 8.237494
_cell_angle_alpha 95.179552
_cell_angle_beta 122.781886
_cell_angle_gamma 90.684251
_cell_volume 666.252110
_symmetry_space_group_name_H-M "P -1"
_symmetry_group_IT_number 2
_symmetry_cell_setting 'triclinic'
loop_
_space_group_symop_operation_xyz
x,y,z
-x,-y,-z
loop_
_atom_site_type_symbol
_atom_site_label
_atom_site_fract_x
_atom_site_fract_y
_atom_site_fract_z
Si Si1 0.124684 0.423738 0.673553
Si Si2 0.446942 0.370107 0.356020
Si Si3 0.542931 0.106758 0.902624
Si Si4 0.275410 0.204315 0.514491
Si Si5 0.929110 0.633864 0.021569
Si Si6 0.400383 0.617256 0.884163
Si Si7 0.950657 0.121942 0.086754
O O1 0.227645 0.327447 0.611636
O O2 0.218707 0.554866 0.822349
O O3 0.000000 0.500000 0.500000
O O4 0.049879 0.343821 0.771092
O O5 0.500000 0.500000 0.500000
O O6 0.396107 0.260335 0.445462
O O7 0.272292 0.375576 0.147134
O O8 0.589094 0.362115 0.301159
O O9 0.394332 0.108045 0.673469
O O10 0.535768 0.249425 0.986433
O O11 0.745926 0.099657 0.988981
O O12 0.500000 0.000000 0.000000
O O13 0.091873 0.144056 0.322756
O O14 0.018233 0.750214 0.987794
O O15 0.000000 0.500000 0.000000
O O16 0.500000 0.500000 0.000000
O O17 0.000000 0.000000 0.000000
#
# Coordination Sequence:
#
# PCOD9054816 Si02
#       7
#     2   2   2   2   2   2   2
#     4  12  23  40  70 106 142 185 238 298 364 428
#     4  11  21  38  67 102 140 180 228 295 355 418
#     4  12  28  49  75 104 146 195 244 297 366 432
#     4  11  25  46  72 104 145 188 248 296 361 438
#     4  11  24  41  69 100 140 179 235 297 362 417
#     4  12  22  42  71 101 142 180 235 298 352 419
#     4  11  29  51  71 103 148 190 243 301 366 433
#
# _framework density 21.013065000000001
#
# number of rings (size 3 to 8) (size 9 to 14) (size 15 to 20)
#    0.000    0.571    4.286    3.429    8.000    1.143 
#    2.571    0.000    0.000    0.000    0.000    0.000 
#    0.000    0.000    0.000    0.000    0.000    0.000 
#
# Total GULP energy -78014.658517 kJ/mol
# GULP energy per Si atom -5572.475608 kJ/mol
# Density = 2.096524 g / cm^3
# Si number density = 21.013065 Si / 1000 Ang^3
#
#
#
# Elastic Constant Matrix: (Units=GPa)
#
#
# Indices 1 2 3 4 5 6 
#
# 1 110.9374 48.0721 51.8757 -17.1343 -4.5865 13.8637
# 2 48.0721 125.4198 50.6468 -15.2832 5.5122 2.0546
# 3 51.8757 50.6468 135.7416 -29.7692 7.7373 5.5775
# 4 -17.1343 -15.2832 -29.7692 43.3916 -1.6279 -8.1554
# 5 -4.5865 5.5122 7.7373 -1.6279 35.6017 6.7481
# 6 13.8637 2.0546 5.5775 -8.1554 6.7481 29.1866
#
#
#
# Elastic Compliance Matrix: (Units=1/GPa)
#
#
# Indices 1 2 3 4 5 6 
#
# 1 0.013322 -0.003679 -0.003600 0.000484 0.004272 -0.006234
# 2 -0.003679 0.010469 -0.002252 0.001026 -0.001972 0.002184
# 3 -0.003600 -0.002252 0.010857 0.005499 -0.002589 0.001929
# 4 0.000484 0.001026 0.005499 0.028628 -0.001299 0.006947
# 5 0.004272 -0.001972 -0.002589 -0.001299 0.031146 -0.008960
# 6 -0.006234 0.002184 0.001929 0.006947 -0.008960 0.040714
#
#
# Mechanical properties :
#
#
# Convention : Reuss Voigt Hill
#
# Bulk Modulus (GPa) = 64.16169 74.80978 69.48573
# Shear Modulus (GPa) = 31.36889 36.40292 33.88590
#
# Velocity S-wave (km/s) = 3.86790 4.16672 4.02009
# Velocity P-wave (km/s) = 7.10972 7.66991 7.39512
#
# Compressibility (1/GPa) = 0.01558562
#
# Stress axis : x y z
#
# Youngs Moduli (GPa) = 75.06372 95.52120 92.10308
#
# Poissons Ratio (x) = 0.35145 0.33155
# Poissons Ratio (y) = 0.27618 0.20745
# Poissons Ratio (z) = 0.27021 0.21515
#
# Static dielectric constant tensor:
#      x y z
#    x 1.772830 -0.023350 -0.001610 
#    y -0.023350 1.669470 0.045850 
#    z -0.001610 0.045850 1.768850 
# 
# From -- ./inp_files/158960.got.cif
#   From: 2010.05.17/outbox.cif.g08.bks.cpg/sg2_80_cif.got.tgz:158960.got - 2010.06.03 11:33:40.
