data_PCOD9054312
_publ_section_title
;
Structure prediction by ZEFSAII (Michael W. Deem and Ramdas Pophale) SiO2 
 PCOD9054312
Probable space group: P -1
;
_chemical_formula_sum "Si O2"
_cell_formula_units_Z 16
_cell_length_a 9.130053
_cell_length_b 12.075199
_cell_length_c 15.225042
_cell_angle_alpha 65.652406
_cell_angle_beta 57.195210
_cell_angle_gamma 111.985974
_cell_volume 803.422635
_symmetry_space_group_name_H-M "P -1"
_symmetry_group_IT_number 2
_symmetry_cell_setting 'triclinic'
loop_
_space_group_symop_operation_xyz
x,y,z
-x,-y,-z
loop_
_atom_site_type_symbol
_atom_site_label
_atom_site_fract_x
_atom_site_fract_y
_atom_site_fract_z
Si Si1 0.846674 0.326089 0.671519
Si Si2 0.673976 0.734460 0.951653
Si Si3 0.688513 0.988967 0.774111
Si Si4 0.237904 0.032641 0.435437
Si Si5 0.091737 0.715508 0.142306
Si Si6 0.066639 0.326035 0.225297
Si Si7 0.828421 0.424299 0.172448
Si Si8 0.202099 0.049623 0.989101
O O1 0.948045 0.379674 0.722637
O O2 0.519607 0.185211 0.817000
O O3 0.000000 0.500000 0.500000
O O4 0.881901 0.206243 0.666714
O O5 0.766522 0.893855 0.804330
O O6 0.821742 0.692717 0.886468
O O7 0.343698 0.528908 0.116695
O O8 0.761005 0.832407 0.984747
O O9 0.650482 0.969632 0.688949
O O10 0.408049 0.858506 0.963299
O O11 0.501658 0.247497 0.317702
O O12 0.000000 0.000000 0.500000
O O13 0.110716 0.859487 0.595194
O O14 0.918328 0.582880 0.155808
O O15 0.071685 0.848267 0.124766
O O16 0.894658 0.342872 0.236759
O O17 0.000000 0.500000 0.000000
O O18 0.000000 0.000000 0.000000
#
# Coordination Sequence:
#
# PCOD9054312 Si02
#       8
#     2   2   2   2   2   2   2   2
#     4  11  24  43  70  97 128 176 219 272 333 390
#     4  11  21  43  69  97 130 178 223 267 334 392
#     4  11  20  42  70  91 132 175 220 265 328 399
#     4  12  26  42  64 101 134 170 219 282 330 382
#     4  11  22  46  70  92 129 180 221 266 325 403
#     4  11  25  40  70  98 135 174 223 277 324 392
#     4  12  25  45  67  96 134 179 225 266 333 404
#     4  11  24  42  67  97 129 170 220 269 325 395
#
# _framework density 19.914797
#
# number of rings (size 3 to 8) (size 9 to 14) (size 15 to 20)
#    0.000    0.750    6.250    1.125    7.000    0.000 
#    2.250    0.625    0.000    0.000    0.000    0.000 
#    0.000    0.000    0.000    0.000    0.000    0.000 
#
# Total GULP energy -89326.724300 kJ/mol
# GULP energy per Si atom -5582.920269 kJ/mol
# Density = 1.986947 g / cm^3
# Si number density = 19.914797 Si / 1000 Ang^3
#
#
#
# Elastic Constant Matrix: (Units=GPa)
#
#
# Indices 1 2 3 4 5 6 
#
# 1 82.1594 29.3179 30.1828 -4.9298 -2.1767 15.7226
# 2 29.3179 141.7253 32.4138 -15.3871 1.9541 17.7852
# 3 30.1828 32.4138 96.2577 -14.4333 22.7363 20.1195
# 4 -4.9298 -15.3871 -14.4333 25.6598 3.4489 1.0354
# 5 -2.1767 1.9541 22.7363 3.4489 27.6507 -0.1653
# 6 15.7226 17.7852 20.1195 1.0354 -0.1653 29.3502
#
#
#
# Elastic Compliance Matrix: (Units=1/GPa)
#
#
# Indices 1 2 3 4 5 6 
#
# 1 0.015423 -0.001836 -0.005040 -0.001589 0.005665 -0.003606
# 2 -0.001836 0.008597 -0.000540 0.004787 -0.000929 -0.004030
# 3 -0.005040 -0.000540 0.021517 0.013979 -0.019868 -0.012327
# 4 -0.001589 0.004787 0.013979 0.052445 -0.018580 -0.013587
# 5 0.005665 -0.000929 -0.019868 -0.018580 0.055404 0.012116
# 6 -0.003606 -0.004030 -0.012327 -0.013587 0.012116 0.047444
#
#
# Mechanical properties :
#
#
# Convention : Reuss Voigt Hill
#
# Bulk Modulus (GPa) = 32.56777 55.99683 44.28230
# Shear Modulus (GPa) = 22.13400 31.74733 26.94066
#
# Velocity S-wave (km/s) = 3.33744 3.99702 3.68203
# Velocity P-wave (km/s) = 5.58931 7.03426 6.35300
#
# Compressibility (1/GPa) = 0.03070520
#
# Stress axis : x y z
#
# Youngs Moduli (GPa) = 64.83759 116.31440 46.47562
#
# Poissons Ratio (x) = 0.21352 0.23426
# Poissons Ratio (y) = 0.11902 0.02509
# Poissons Ratio (z) = 0.32681 0.06278
#
# Static dielectric constant tensor:
#      x y z
#    x 1.715670 0.012960 0.000810 
#    y 0.012960 1.744130 0.008560 
#    z 0.000810 0.008560 1.708490 
# 
# From -- ./inp_files/187421.got.cif
#   From: 2010.05.17/outbox.cif.g08.bks.cpg/sg2_94_cif.got.tgz:187421.got - 2010.06.03 11:33:40.
