data_PCOD9054728
_publ_section_title
;
Structure prediction by ZEFSAII (Michael W. Deem and Ramdas Pophale) SiO2 
 PCOD9054728
Probable space group: P -1
;
_chemical_formula_sum "Si O2"
_cell_formula_units_Z 12
_cell_length_a 7.837998
_cell_length_b 7.445565
_cell_length_c 14.819373
_cell_angle_alpha 135.341314
_cell_angle_beta 123.935254
_cell_angle_gamma 59.468194
_cell_volume 495.127965
_symmetry_space_group_name_H-M "P -1"
_symmetry_group_IT_number 2
_symmetry_cell_setting 'triclinic'
loop_
_space_group_symop_operation_xyz
x,y,z
-x,-y,-z
loop_
_atom_site_type_symbol
_atom_site_label
_atom_site_fract_x
_atom_site_fract_y
_atom_site_fract_z
Si Si1 0.732814 0.406783 0.445269
Si Si2 0.914445 0.103986 0.917583
Si Si3 0.536256 0.412659 0.743248
Si Si4 0.440357 0.033546 0.717181
Si Si5 0.333336 0.371504 0.964565
Si Si6 0.095745 0.080402 0.330093
O O1 0.581064 0.457841 0.331594
O O2 0.624616 0.237688 0.422188
O O3 0.786084 0.686517 0.581327
O O4 0.951344 0.217633 0.415816
O O5 0.683921 0.032209 0.811256
O O6 0.031021 0.987922 0.820366
O O7 0.879016 0.415047 0.022010
O O8 0.000000 0.000000 0.000000
O O9 0.592328 0.621404 0.907318
O O10 0.394212 0.244748 0.698939
O O11 0.738841 0.187619 0.697711
O O12 0.324405 0.130230 0.811857
O O13 0.500000 0.500000 0.000000
#
# Coordination Sequence:
#
# PCOD9054728 Si02
#       6
#     2   2   2   2   2   2
#     4  11  21  38  60  81 119 150 183 236 284 330
#     4   9  18  35  59  80 115 149 180 238 285 320
#     4   9  19  38  58  77 118 151 179 240 284 318
#     4   9  20  36  57  88 106 150 197 220 278 354
#     4   7  15  32  51  78 109 137 185 226 269 330
#     4   9  22  38  54  87 115 145 194 233 275 341
#
# _framework density 24.236158
#
# number of rings (size 3 to 8) (size 9 to 14) (size 15 to 20)
#    0.000    3.667    0.000    0.500    7.000    3.333 
#    3.000    5.000    0.000    0.000    0.000    0.000 
#    0.000    0.000    0.000    0.000    0.000    0.000 
#
# Total GULP energy -66906.253475 kJ/mol
# GULP energy per Si atom -5575.521123 kJ/mol
# Density = 2.418100 g / cm^3
# Si number density = 24.236158 Si / 1000 Ang^3
#
#
#
# Elastic Constant Matrix: (Units=GPa)
#
#
# Indices 1 2 3 4 5 6 
#
# 1 69.8997 7.0706 -5.2551 10.0871 0.9291 -2.2475
# 2 7.0706 59.0181 18.2285 -3.1814 -9.4989 2.8713
# 3 -5.2551 18.2285 55.3853 18.5716 -8.7437 -10.1268
# 4 10.0871 -3.1814 18.5716 30.4000 12.4259 -5.4604
# 5 0.9291 -9.4989 -8.7437 12.4259 38.6372 14.5724
# 6 -2.2475 2.8713 -10.1268 -5.4604 14.5724 28.1694
#
#
#
# Elastic Compliance Matrix: (Units=1/GPa)
#
#
# Indices 1 2 3 4 5 6 
#
# 1 0.017218 -0.004571 0.008243 -0.013126 0.004593 -0.000117
# 2 -0.004571 0.022204 -0.011351 0.008514 0.002696 -0.006453
# 3 0.008243 -0.011351 0.035734 -0.031774 0.015046 0.000718
# 4 -0.013126 0.008514 -0.031774 0.076479 -0.037196 0.020729
# 5 0.004593 0.002696 0.015046 -0.037196 0.052735 -0.028990
# 6 -0.000117 -0.006453 0.000718 0.020729 -0.028990 0.055421
#
#
# Mechanical properties :
#
#
# Convention : Reuss Voigt Hill
#
# Bulk Modulus (GPa) = 16.72289 24.93234 20.82762
# Shear Modulus (GPa) = 16.94445 30.39194 23.66819
#
# Velocity S-wave (km/s) = 2.64699 3.54502 3.12839
# Velocity P-wave (km/s) = 4.03200 5.20248 4.65418
#
# Compressibility (1/GPa) = 0.05979826
#
# Stress axis : x y z
#
# Youngs Moduli (GPa) = 58.07984 45.03659 27.98435
#
# Poissons Ratio (x) = 0.20588 -0.23068
# Poissons Ratio (y) = 0.26550 0.31764
# Poissons Ratio (z) = -0.47876 0.51120
#
# Static dielectric constant tensor:
#      x y z
#    x 2.096680 -0.041170 -0.013990 
#    y -0.041170 1.977580 0.119330 
#    z -0.013990 0.119330 2.033380 
# 
# From -- ./inp_files/165375.got.cif
#   From: 2010.05.17/outbox.cif.g08.bks.cpg/sg2_83_cif.got.tgz:165375.got - 2010.06.03 11:33:40.
