data_PCOD9054352
_publ_section_title
;
Structure prediction by ZEFSAII (Michael W. Deem and Ramdas Pophale) SiO2 
 PCOD9054352
Probable space group: P -1
;
_chemical_formula_sum "Si O2"
_cell_formula_units_Z 14
_cell_length_a 22.389400
_cell_length_b 10.299872
_cell_length_c 11.372810
_cell_angle_alpha 58.096934
_cell_angle_beta 151.277647
_cell_angle_gamma 141.662614
_cell_volume 660.663966
_symmetry_space_group_name_H-M "P -1"
_symmetry_group_IT_number 2
_symmetry_cell_setting 'triclinic'
loop_
_space_group_symop_operation_xyz
x,y,z
-x,-y,-z
loop_
_atom_site_type_symbol
_atom_site_label
_atom_site_fract_x
_atom_site_fract_y
_atom_site_fract_z
Si Si1 0.456592 0.411402 0.101360
Si Si2 0.755931 0.428625 0.581083
Si Si3 0.832497 0.321586 0.395117
Si Si4 0.585500 0.930972 0.473147
Si Si5 0.511833 0.776281 0.152191
Si Si6 0.167060 0.605972 0.017649
Si Si7 0.842501 0.074132 0.067509
O O1 0.591381 0.390556 0.357137
O O2 0.517368 0.611335 0.192737
O O3 0.234668 0.144759 0.887588
O O4 0.500000 0.500000 0.000000
O O5 0.863433 0.479075 0.862040
O O6 0.660442 0.181269 0.481262
O O7 0.920861 0.673318 0.668907
O O8 0.000000 0.500000 0.500000
O O9 0.665502 0.031214 0.221663
O O10 0.706698 0.355730 0.176596
O O11 0.961853 0.394209 0.694700
O O12 0.573195 0.851902 0.358763
O O13 0.357641 0.712092 0.235082
O O14 0.724119 0.974659 0.785739
O O15 0.218200 0.834158 0.007843
#
# Coordination Sequence:
#
# PCOD9054352 Si02
#       7
#     2   2   2   2   2   2   2
#     4  12  29  45  62  99 145 179 215 268 341 410
#     4  11  23  45  72 102 128 176 228 277 330 392
#     4  11  24  41  69  98 132 176 225 274 325 390
#     4  11  20  45  74 102 129 170 232 284 325 383
#     4  11  27  44  65 100 139 175 219 276 332 396
#     4  11  20  42  76 102 129 170 233 282 323 389
#     4  11  23  42  74  98 133 178 221 280 331 388
#
# _framework density 21.190802999999999
#
# number of rings (size 3 to 8) (size 9 to 14) (size 15 to 20)
#    0.000    0.857    4.286    4.286    8.000    2.286 
#    0.000    1.429    0.000    0.000    0.000    0.000 
#    0.000    0.000    0.000    0.000    0.000    0.000 
#
# Total GULP energy -78268.098151 kJ/mol
# GULP energy per Si atom -5590.578439 kJ/mol
# Density = 2.114257 g / cm^3
# Si number density = 21.190803 Si / 1000 Ang^3
#
#
#
# Elastic Constant Matrix: (Units=GPa)
#
#
# Indices 1 2 3 4 5 6 
#
# 1 117.2585 60.1102 25.5566 25.0538 9.8844 2.1245
# 2 60.1102 109.0843 18.7046 16.3874 7.8359 4.4072
# 3 25.5566 18.7046 83.5829 16.1541 5.4758 7.7842
# 4 25.0538 16.3874 16.1541 19.6836 6.6258 11.7550
# 5 9.8844 7.8359 5.4758 6.6258 32.7712 6.9205
# 6 2.1245 4.4072 7.7842 11.7550 6.9205 33.6197
#
#
#
# Elastic Compliance Matrix: (Units=1/GPa)
#
#
# Indices 1 2 3 4 5 6 
#
# 1 0.015441 -0.005946 -0.000485 -0.017776 -0.000894 0.006315
# 2 -0.005946 0.012958 -0.000551 -0.002412 -0.000680 -0.000212
# 3 -0.000485 -0.000551 0.014313 -0.011058 -0.000017 0.000659
# 4 -0.017776 -0.002412 -0.011058 0.105667 -0.006921 -0.031522
# 5 -0.000894 -0.000680 -0.000017 -0.006921 0.033252 -0.004275
# 6 0.006315 -0.000212 0.000659 -0.031522 -0.004275 0.041122
#
#
# Mechanical properties :
#
#
# Convention : Reuss Voigt Hill
#
# Bulk Modulus (GPa) = 34.78526 57.62984 46.20755
# Shear Modulus (GPa) = 20.30048 30.91853 25.60951
#
# Velocity S-wave (km/s) = 3.09849 3.82390 3.48015
# Velocity P-wave (km/s) = 5.40849 6.83747 6.16453
#
# Compressibility (1/GPa) = 0.02874781
#
# Stress axis : x y z
#
# Youngs Moduli (GPa) = 64.76293 77.17230 69.86806
#
# Poissons Ratio (x) = 0.45887 0.03386
# Poissons Ratio (y) = 0.38508 0.03852
# Poissons Ratio (z) = 0.03139 0.04254
#
# Static dielectric constant tensor:
#      x y z
#    x 1.790680 0.056440 -0.008930 
#    y 0.056440 1.780780 -0.006400 
#    z -0.008930 -0.006400 1.814420 
# 
# From -- ./inp_files/469922.got.cif
#   From: 2010.05.17/outbox.cif.g08.bks.cpg/sg2_235_cif.got.tgz:469922.got - 2010.06.03 11:33:40.
