data_PCOD9054699
_publ_section_title
;
Structure prediction by ZEFSAII (Michael W. Deem and Ramdas Pophale) SiO2 
 PCOD9054699
Probable space group: P -1
;
_chemical_formula_sum "Si O2"
_cell_formula_units_Z 12
_cell_length_a 5.708483
_cell_length_b 9.622514
_cell_length_c 16.780686
_cell_angle_alpha 117.760109
_cell_angle_beta 126.196971
_cell_angle_gamma 97.423928
_cell_volume 542.600439
_symmetry_space_group_name_H-M "P -1"
_symmetry_group_IT_number 2
_symmetry_cell_setting 'triclinic'
loop_
_space_group_symop_operation_xyz
x,y,z
-x,-y,-z
loop_
_atom_site_type_symbol
_atom_site_label
_atom_site_fract_x
_atom_site_fract_y
_atom_site_fract_z
Si Si1 0.790431 0.097929 0.507542
Si Si2 0.881446 0.160713 0.155890
Si Si3 0.174613 0.512869 0.757354
Si Si4 0.718668 0.012123 0.766564
Si Si5 0.021550 0.247287 0.028259
Si Si6 0.104159 0.437591 0.897323
O O1 0.075849 0.323168 0.642280
O O2 0.500000 0.000000 0.500000
O O3 0.600698 0.098015 0.387999
O O4 0.000000 0.000000 0.500000
O O5 0.914186 0.340236 0.252528
O O6 0.076390 0.237527 0.130378
O O7 0.035731 0.065574 0.212395
O O8 0.500000 0.000000 0.000000
O O9 0.586825 0.656033 0.900161
O O10 0.983717 0.427808 0.780119
O O11 0.881819 0.226767 0.829155
O O12 0.731280 0.047043 0.874477
O O13 0.917417 0.393962 0.029139
O O14 0.500000 0.500000 0.000000
#
# Coordination Sequence:
#
# PCOD9054699 Si02
#       6
#     2   2   2   2   2   2
#     4  12  29  49  72 106 148 191 241 298 355 425
#     4  11  24  44  70 105 142 178 237 296 361 424
#     4  11  24  44  68  98 144 182 228 299 351 423
#     4  12  23  42  70 103 135 189 235 290 357 429
#     4  11  23  41  69 101 138 178 236 298 354 416
#     4  11  21  37  67 101 131 173 242 294 351 408
#
# _framework density 22.115721000000001
#
# number of rings (size 3 to 8) (size 9 to 14) (size 15 to 20)
#    0.000    0.667    5.000    3.000    4.667    2.000 
#    0.000    0.833    0.000    0.000    0.000    0.000 
#    0.000    0.000    0.000    0.000    0.000    0.000 
#
# Total GULP energy -66803.004812 kJ/mol
# GULP energy per Si atom -5566.917068 kJ/mol
# Density = 2.206538 g / cm^3
# Si number density = 22.115721 Si / 1000 Ang^3
#
#
#
# Elastic Constant Matrix: (Units=GPa)
#
#
# Indices 1 2 3 4 5 6 
#
# 1 64.6436 43.2046 13.5952 3.6567 -10.2305 -28.7152
# 2 43.2046 140.0895 33.0217 10.6654 -6.2615 -53.6663
# 3 13.5952 33.0217 104.3161 -1.0706 -20.3532 -23.6347
# 4 3.6567 10.6654 -1.0706 35.3048 -13.8724 -0.3491
# 5 -10.2305 -6.2615 -20.3532 -13.8724 25.0962 6.2726
# 6 -28.7152 -53.6663 -23.6347 -0.3491 6.2726 53.8581
#
#
#
# Elastic Compliance Matrix: (Units=1/GPa)
#
#
# Indices 1 2 3 4 5 6 
#
# 1 0.022642 -0.004369 0.002008 0.002823 0.009451 0.007517
# 2 -0.004369 0.013296 -0.002609 -0.006130 -0.006594 0.010502
# 3 0.002008 -0.002609 0.013621 0.006577 0.014139 0.002844
# 4 0.002823 -0.006130 0.006577 0.041464 0.029084 -0.004835
# 5 0.009451 -0.006594 0.014139 0.029084 0.070433 -0.003341
# 6 0.007517 0.010502 0.002844 -0.004835 -0.003341 0.034646
#
#
# Mechanical properties :
#
#
# Convention : Reuss Voigt Hill
#
# Bulk Modulus (GPa) = 25.24035 54.29915 39.76975
# Shear Modulus (GPa) = 22.80495 37.46700 30.13598
#
# Velocity S-wave (km/s) = 3.21466 4.12045 3.69541
# Velocity P-wave (km/s) = 5.02159 6.87336 6.01911
#
# Compressibility (1/GPa) = 0.03961911
#
# Stress axis : x y z
#
# Youngs Moduli (GPa) = 44.16479 75.20941 73.41531
#
# Poissons Ratio (x) = 0.32860 -0.14744
# Poissons Ratio (y) = 0.19296 0.19157
# Poissons Ratio (z) = -0.08869 0.19625
#
# Static dielectric constant tensor:
#      x y z
#    x 2.265060 0.174550 -0.335090 
#    y 0.174550 1.921660 -0.085530 
#    z -0.335090 -0.085530 2.128140 
# 
# From -- ./inp_files/34048.got.cif
#   From: 2010.05.17/outbox.cif.g08.bks.cpg/sg2_18_cif.got.tgz:34048.got - 2010.06.03 11:33:40.
