data_PCOD9054522
_publ_section_title
;
Structure prediction by ZEFSAII (Michael W. Deem and Ramdas Pophale) SiO2 
 PCOD9054522
Probable space group: P -1
;
_chemical_formula_sum "Si O2"
_cell_formula_units_Z 16
_cell_length_a 24.688617
_cell_length_b 7.072218
_cell_length_c 14.306248
_cell_angle_alpha 108.980986
_cell_angle_beta 149.859313
_cell_angle_gamma 49.633988
_cell_volume 754.417577
_symmetry_space_group_name_H-M "P -1"
_symmetry_group_IT_number 2
_symmetry_cell_setting 'triclinic'
loop_
_space_group_symop_operation_xyz
x,y,z
-x,-y,-z
loop_
_atom_site_type_symbol
_atom_site_label
_atom_site_fract_x
_atom_site_fract_y
_atom_site_fract_z
Si Si1 0.849647 0.871140 0.851987
Si Si2 0.202429 0.910547 0.533216
Si Si3 0.364324 0.862819 0.606204
Si Si4 0.613965 0.752950 0.854311
Si Si5 0.304322 0.139484 0.831702
Si Si6 0.125065 0.722929 0.995928
Si Si7 0.703787 0.619658 0.317970
Si Si8 0.353024 0.181071 0.385157
O O1 0.747935 0.053260 0.633479
O O2 0.717391 0.943811 0.733405
O O3 0.912727 0.989713 0.004084
O O4 0.000000 0.500000 0.000000
O O5 0.357223 0.725209 0.661515
O O6 0.217783 0.058243 0.658617
O O7 0.198705 0.699673 0.540204
O O8 0.037139 0.166612 0.263065
O O9 0.288261 0.181542 0.582981
O O10 0.544676 0.670703 0.801950
O O11 0.733606 0.508514 0.910753
O O12 0.444299 0.087899 0.605824
O O13 0.705312 0.777966 0.062855
O O14 0.243445 0.400101 0.711607
O O15 0.505918 0.836992 0.060746
O O16 0.200713 0.534593 0.176476
O O17 0.500000 0.000000 0.500000
#
# Coordination Sequence:
#
# PCOD9054522 Si02
#       8
#     2   2   2   2   2   2   2   2
#     4  11  22  37  57  85 119 153 190 240 294 343
#     4  11  21  35  60  90 117 151 195 238 289 348
#     4   9  20  35  57  82 112 149 191 241 284 337
#     4   9  20  41  60  83 120 156 195 244 290 342
#     4   9  19  36  59  83 115 152 193 243 288 337
#     4  11  24  39  58  88 124 157 191 237 297 354
#     4   9  18  36  57  86 115 145 195 247 289 336
#     4   9  21  41  62  86 116 154 197 239 286 346
#
# _framework density 21.208413
#
# number of rings (size 3 to 8) (size 9 to 14) (size 15 to 20)
#    0.000    2.250    0.000    2.625    0.000   11.000 
#    0.000    6.875    0.000    0.000    0.000    0.000 
#    0.000    0.000    0.000    0.000    0.000    0.000 
#
# Total GULP energy -89306.698650 kJ/mol
# GULP energy per Si atom -5581.668666 kJ/mol
# Density = 2.116014 g / cm^3
# Si number density = 21.208413 Si / 1000 Ang^3
#
#
#
# Elastic Constant Matrix: (Units=GPa)
#
#
# Indices 1 2 3 4 5 6 
#
# 1 76.5497 16.7125 11.6092 2.9530 -17.0760 0.2082
# 2 16.7125 81.4905 34.8036 21.0328 -15.4746 1.2037
# 3 11.6092 34.8036 72.6339 23.1367 -9.3061 -1.8028
# 4 2.9530 21.0328 23.1367 34.8005 -0.3587 -7.8984
# 5 -17.0760 -15.4746 -9.3061 -0.3587 22.4937 -3.4182
# 6 0.2082 1.2037 -1.8028 -7.8984 -3.4182 23.0561
#
#
#
# Elastic Compliance Matrix: (Units=1/GPa)
#
#
# Indices 1 2 3 4 5 6 
#
# 1 0.015895 -0.000849 -0.000650 0.000071 0.011454 0.001573
# 2 -0.000849 0.018576 -0.004933 -0.008417 0.009532 -0.002818
# 3 -0.000650 -0.004933 0.020087 -0.010542 0.004077 -0.001173
# 4 0.000071 -0.008417 -0.010542 0.043822 -0.007342 0.013538
# 5 0.011454 0.009532 0.004077 -0.007342 0.062257 0.006433
# 6 0.001573 -0.002818 -0.001173 0.013538 0.006433 0.049005
#
#
# Mechanical properties :
#
#
# Convention : Reuss Voigt Hill
#
# Bulk Modulus (GPa) = 23.98398 39.65829 31.82113
# Shear Modulus (GPa) = 21.15020 27.23997 24.19508
#
# Velocity S-wave (km/s) = 3.16136 3.58773 3.38127
# Velocity P-wave (km/s) = 4.96577 5.99186 5.50278
#
# Compressibility (1/GPa) = 0.04169450
#
# Stress axis : x y z
#
# Youngs Moduli (GPa) = 62.91138 53.83176 49.78463
#
# Poissons Ratio (x) = 0.04570 0.03236
# Poissons Ratio (y) = 0.05340 0.24559
# Poissons Ratio (z) = 0.04089 0.26555
#
# Static dielectric constant tensor:
#      x y z
#    x 1.811130 0.013060 -0.004440 
#    y 0.013060 1.747440 -0.018420 
#    z -0.004440 -0.018420 1.803180 
# 
# From -- ./inp_files/542210.got.cif
#   From: 2010.05.17/outbox.cif.g08.bks.cpg/sg2_272_cif.got.tgz:542210.got - 2010.06.03 11:33:40.
