data_PCOD9054636
_publ_section_title
;
Structure prediction by ZEFSAII (Michael W. Deem and Ramdas Pophale) SiO2 
 PCOD9054636
Probable space group: P -1
;
_chemical_formula_sum "Si O2"
_cell_formula_units_Z 10
_cell_length_a 14.239632
_cell_length_b 12.691347
_cell_length_c 6.700588
_cell_angle_alpha 110.134714
_cell_angle_beta 104.209284
_cell_angle_gamma 20.869850
_cell_volume 394.380560
_symmetry_space_group_name_H-M "P -1"
_symmetry_group_IT_number 2
_symmetry_cell_setting 'triclinic'
loop_
_space_group_symop_operation_xyz
x,y,z
-x,-y,-z
loop_
_atom_site_type_symbol
_atom_site_label
_atom_site_fract_x
_atom_site_fract_y
_atom_site_fract_z
Si Si1 0.770840 0.130749 0.140329
Si Si2 0.127404 0.573427 0.779389
Si Si3 0.343947 0.913273 0.447405
Si Si4 0.204354 0.820520 0.285258
Si Si5 0.708448 0.812928 0.151971
O O1 0.635097 0.012990 0.330757
O O2 0.452392 0.469163 0.232108
O O3 0.781822 0.158875 0.930423
O O4 0.919741 0.064990 0.304932
O O5 0.365362 0.399277 0.715794
O O6 0.273691 0.302152 0.745778
O O7 0.904333 0.787566 0.634659
O O8 0.955237 0.820185 0.025314
O O9 0.265588 0.874011 0.453368
O O10 0.000000 0.500000 0.000000
O O11 0.500000 0.000000 0.000000
#
# Coordination Sequence:
#
# PCOD9054636 Si02
#       5
#     2   2   2   2   2
#     4   9  16  28  51  85 115 137 172 228 282 324
#     4  11  21  37  62  87 112 146 192 235 274 333
#     4  11  21  37  62  87 112 146 192 235 274 333
#     4   9  16  28  51  85 115 137 172 228 282 324
#     4  12  26  42  58  80 116 154 190 236 288 332
#
# _framework density 25.356218999999999
#
# number of rings (size 3 to 8) (size 9 to 14) (size 15 to 20)
#    0.000    1.600    0.000    9.600    0.000    0.000 
#    0.000    0.000    0.000    7.200    0.000    0.000 
#    0.000    0.000    0.000    0.000    0.000    0.000 
#
# Total GULP energy -56041.196637 kJ/mol
# GULP energy per Si atom -5604.119664 kJ/mol
# Density = 2.529851 g / cm^3
# Si number density = 25.356219 Si / 1000 Ang^3
#
#
#
# Elastic Constant Matrix: (Units=GPa)
#
#
# Indices 1 2 3 4 5 6 
#
# 1 171.1481 55.2722 43.6026 1.4588 27.9655 -5.6345
# 2 55.2722 172.6639 35.3603 -2.3396 9.7811 -21.4393
# 3 43.6026 35.3603 53.5056 -5.2611 7.0242 -7.1194
# 4 1.4588 -2.3396 -5.2611 48.2805 -11.0784 7.9570
# 5 27.9655 9.7811 7.0242 -11.0784 48.2415 -0.1008
# 6 -5.6345 -21.4393 -7.1194 7.9570 -0.1008 50.1734
#
#
#
# Elastic Compliance Matrix: (Units=1/GPa)
#
#
# Indices 1 2 3 4 5 6 
#
# 1 0.008407 -0.001346 -0.005611 -0.001875 -0.004215 -0.000138
# 2 -0.001346 0.007235 -0.003353 -0.000461 -0.000299 0.002537
# 3 -0.005611 -0.003353 0.025800 0.002818 0.000825 0.001153
# 4 -0.001875 -0.000461 0.002818 0.023044 0.006054 -0.003650
# 5 -0.004215 -0.000299 0.000825 0.006054 0.024500 -0.001395
# 6 -0.000138 0.002537 0.001153 -0.003650 -0.001395 0.021739
#
#
# Mechanical properties :
#
#
# Convention : Reuss Voigt Hill
#
# Bulk Modulus (GPa) = 48.02574 73.97641 61.00108
# Shear Modulus (GPa) = 36.15679 46.87792 41.51736
#
# Velocity S-wave (km/s) = 3.78028 4.30440 4.05083
# Velocity P-wave (km/s) = 6.16729 7.34452 6.78150
#
# Compressibility (1/GPa) = 0.02082217
#
# Stress axis : x y z
#
# Youngs Moduli (GPa) = 118.94594 138.22033 38.75944
#
# Poissons Ratio (x) = 0.18604 0.21748
# Poissons Ratio (y) = 0.16010 0.12996
# Poissons Ratio (z) = 0.66742 0.46344
#
# Static dielectric constant tensor:
#      x y z
#    x 1.994470 0.031360 -0.022170 
#    y 0.031360 1.885710 0.017920 
#    z -0.022170 0.017920 2.198060 
# 
# From -- ./inp_files/991.got.cif
#   From: 2010.05.17/outbox.cif.g08.bks.cpg/sg2_1_cif.got.tgz:991.got - 2010.06.03 11:33:40.
