data_PCOD9054407
_publ_section_title
;
Structure prediction by ZEFSAII (Michael W. Deem and Ramdas Pophale) SiO2 
 PCOD9054407
Probable space group: P -1
;
_chemical_formula_sum "Si O2"
_cell_formula_units_Z 16
_cell_length_a 17.760579
_cell_length_b 9.008626
_cell_length_c 18.119568
_cell_angle_alpha 52.890644
_cell_angle_beta 158.688773
_cell_angle_gamma 126.133038
_cell_volume 836.442894
_symmetry_space_group_name_H-M "P -1"
_symmetry_group_IT_number 2
_symmetry_cell_setting 'triclinic'
loop_
_space_group_symop_operation_xyz
x,y,z
-x,-y,-z
loop_
_atom_site_type_symbol
_atom_site_label
_atom_site_fract_x
_atom_site_fract_y
_atom_site_fract_z
Si Si1 0.346096 0.410301 0.016337
Si Si2 0.073608 0.293847 0.942843
Si Si3 0.275825 0.023492 0.321529
Si Si4 0.455148 0.204831 0.574491
Si Si5 0.364277 0.879116 0.692754
Si Si6 0.836116 0.464018 0.794222
Si Si7 0.919626 0.695420 0.341049
Si Si8 0.523928 0.825842 0.019344
O O1 0.234115 0.358933 0.006412
O O2 0.195083 0.352210 0.826880
O O3 0.416091 0.630210 0.010883
O O4 0.536755 0.285973 0.212254
O O5 0.965333 0.449731 0.841838
O O6 0.182089 0.182180 0.139606
O O7 0.887854 0.156167 0.780134
O O8 0.323009 0.082219 0.430145
O O9 0.500000 0.000000 0.500000
O O10 0.684268 0.276574 0.731385
O O11 0.323718 0.381465 0.410521
O O12 0.461826 0.076221 0.690603
O O13 0.418148 0.862078 0.833067
O O14 0.117673 0.845065 0.467893
O O15 0.000000 0.500000 0.000000
O O16 0.000000 0.500000 0.500000
O O17 0.756896 0.778007 0.223964
O O18 0.500000 0.000000 0.000000
#
# Coordination Sequence:
#
# PCOD9054407 Si02
#       8
#     2   2   2   2   2   2   2   2
#     4  11  23  41  66  97 128 167 217 267 317 378
#     4  11  24  38  65  93 128 168 210 266 322 372
#     4  11  21  40  61  93 125 159 216 266 306 374
#     4  11  24  41  65  93 126 171 214 259 320 382
#     4  11  23  43  69  95 125 170 219 263 316 385
#     4  11  24  44  61  88 137 171 204 262 323 384
#     4  11  20  44  70  90 125 173 215 263 321 378
#     4  11  25  44  64  98 138 164 208 274 322 381
#
# _framework density 19.128623000000001
#
# number of rings (size 3 to 8) (size 9 to 14) (size 15 to 20)
#    0.000    1.000    5.000    2.250    1.750    4.500 
#    2.250    0.000    0.000    0.000    0.000    0.000 
#    0.000    0.000    0.000    0.000    0.000    0.000 
#
# Total GULP energy -89369.729444 kJ/mol
# GULP energy per Si atom -5585.608090 kJ/mol
# Density = 1.908509 g / cm^3
# Si number density = 19.128623 Si / 1000 Ang^3
#
#
#
# Elastic Constant Matrix: (Units=GPa)
#
#
# Indices 1 2 3 4 5 6 
#
# 1 127.6681 43.3493 23.5117 4.3793 14.8961 -6.2385
# 2 43.3493 73.4949 20.3858 -5.1509 1.5034 3.9359
# 3 23.5117 20.3858 72.6781 13.1988 12.6784 -5.1962
# 4 4.3793 -5.1509 13.1988 20.5000 0.6216 5.4752
# 5 14.8961 1.5034 12.6784 0.6216 26.2041 -5.4022
# 6 -6.2385 3.9359 -5.1962 5.4752 -5.4022 34.5388
#
#
#
# Elastic Compliance Matrix: (Units=1/GPa)
#
#
# Indices 1 2 3 4 5 6 
#
# 1 0.011088 -0.007058 0.000451 -0.005023 -0.005415 0.002824
# 2 -0.007058 0.020880 -0.007160 0.012830 0.004732 -0.006025
# 3 0.000451 -0.007160 0.020367 -0.016157 -0.008238 0.005234
# 4 -0.005023 0.012830 -0.016157 0.067224 0.005327 -0.014623
# 5 -0.005415 0.004732 -0.008238 0.005327 0.045555 0.003524
# 6 0.002824 -0.006025 0.005234 -0.014623 0.003524 0.033806
#
#
# Mechanical properties :
#
#
# Convention : Reuss Voigt Hill
#
# Bulk Modulus (GPa) = 40.31748 49.81496 45.06622
# Shear Modulus (GPa) = 21.30191 28.68822 24.99507
#
# Velocity S-wave (km/s) = 3.34071 3.87687 3.61873
# Velocity P-wave (km/s) = 6.00027 6.79255 6.40867
#
# Compressibility (1/GPa) = 0.02480314
#
# Stress axis : x y z
#
# Youngs Moduli (GPa) = 90.18487 47.89201 49.09904
#
# Poissons Ratio (x) = 0.33802 -0.02216
# Poissons Ratio (y) = 0.63652 0.35154
# Poissons Ratio (z) = -0.04071 0.34289
#
# Static dielectric constant tensor:
#      x y z
#    x 1.648540 -0.009640 0.014540 
#    y -0.009640 1.678170 -0.018270 
#    z 0.014540 -0.018270 1.676390 
# 
# From -- ./inp_files/56548.got.cif
#   From: 2010.05.17/outbox.cif.g08.bks.cpg/sg2_29_cif.got.tgz:56548.got - 2010.06.03 11:33:40.
