data_PCOD9054311
_publ_section_title
;
Structure prediction by ZEFSAII (Michael W. Deem and Ramdas Pophale) SiO2 
 PCOD9054311
Probable space group: P -1
;
_chemical_formula_sum "Si O2"
_cell_formula_units_Z 16
_cell_length_a 8.952562
_cell_length_b 27.680905
_cell_length_c 5.332400
_cell_angle_alpha 96.559238
_cell_angle_beta 105.093039
_cell_angle_gamma 38.415346
_cell_volume 783.838531
_symmetry_space_group_name_H-M "P -1"
_symmetry_group_IT_number 2
_symmetry_cell_setting 'triclinic'
loop_
_space_group_symop_operation_xyz
x,y,z
-x,-y,-z
loop_
_atom_site_type_symbol
_atom_site_label
_atom_site_fract_x
_atom_site_fract_y
_atom_site_fract_z
Si Si1 0.789698 0.415290 0.585678
Si Si2 0.909001 0.277026 0.405534
Si Si3 0.705921 0.277034 0.817804
Si Si4 0.188860 0.324465 0.087836
Si Si5 0.865961 0.053619 0.223197
Si Si6 0.578811 0.820256 0.594133
Si Si7 0.133922 0.415283 0.499175
Si Si8 0.680157 0.179739 0.914476
O O1 0.500000 0.500000 0.500000
O O2 0.828511 0.353108 0.443698
O O3 0.952675 0.418939 0.540585
O O4 0.917314 0.379231 0.893578
O O5 0.821795 0.271314 0.614594
O O6 0.209001 0.200697 0.457247
O O7 0.789123 0.284347 0.108038
O O8 0.405985 0.353122 0.703454
O O9 0.787564 0.200708 0.842272
O O10 0.275893 0.263201 0.290910
O O11 0.186732 0.379185 0.227409
O O12 0.408118 0.263195 0.945961
O O13 0.572654 0.117104 0.207497
O O14 0.841894 0.117087 0.175443
O O15 0.000000 0.000000 0.500000
O O16 0.000000 0.000000 0.000000
O O17 0.381738 0.847283 0.326346
O O18 0.000000 0.500000 0.500000
#
# Coordination Sequence:
#
# PCOD9054311 Si02
#       8
#     2   2   2   2   2   2   2   2
#     4  12  26  42  63  93 136 188 237 307 357 405
#     4  12  26  43  67 102 136 183 243 283 348 420
#     4  12  26  43  67 102 136 183 243 283 348 420
#     4  11  20  42  70  90 134 180 250 282 360 398
#     4  11  24  40  74 116 138 172 228 284 344 418
#     4  11  22  43  74 100 139 180 231 293 339 418
#     4  12  26  42  63  93 136 188 237 307 357 405
#     4  11  22  43  74 100 139 180 231 293 339 418
#
# _framework density 20.412365000000001
#
# number of rings (size 3 to 8) (size 9 to 14) (size 15 to 20)
#    0.000    0.500    6.250    2.250    5.250    1.000 
#    0.000    0.000    0.000    4.500    0.000    0.000 
#    0.000    0.000    0.000    0.000    0.000    0.000 
#
# Total GULP energy -89266.571643 kJ/mol
# GULP energy per Si atom -5579.160728 kJ/mol
# Density = 2.036591 g / cm^3
# Si number density = 20.412365 Si / 1000 Ang^3
#
#
#
# Elastic Constant Matrix: (Units=GPa)
#
#
# Indices 1 2 3 4 5 6 
#
# 1 155.4174 61.3627 62.4567 -2.5882 -19.5610 0.2874
# 2 61.3627 141.0641 68.8642 -27.2363 -8.7712 7.8376
# 3 62.4567 68.8642 142.5067 28.2749 5.3915 -10.5442
# 4 -2.5882 -27.2363 28.2749 -43.8918 -1.6016 36.8049
# 5 -19.5610 -8.7712 5.3915 -1.6016 43.8110 8.4916
# 6 0.2874 7.8376 -10.5442 36.8049 8.4916 -16.2741
#
#
#
# Elastic Compliance Matrix: (Units=1/GPa)
#
#
# Indices 1 2 3 4 5 6 
#
# 1 0.008990 -0.002676 -0.002553 -0.001693 0.003970 -0.001233
# 2 -0.002676 0.009548 -0.003055 0.003096 -0.001287 0.012860
# 3 -0.002553 -0.003055 0.009111 -0.001562 -0.000733 -0.011334
# 4 -0.001693 0.003096 -0.001562 0.031585 -0.011909 0.067691
# 5 0.003970 -0.001287 -0.000733 -0.011909 0.026545 -0.013157
# 6 -0.001233 0.012860 -0.011334 0.067691 -0.013157 0.098290
#
#
# Mechanical properties :
#
#
# Convention : Reuss Voigt Hill
#
# Bulk Modulus (GPa) = 90.23730 91.59503 90.91616
# Shear Modulus (GPa) = 24.47019 13.14933 18.80976
#
# Velocity S-wave (km/s) = 3.46611 2.54083 3.03890
# Velocity P-wave (km/s) = 7.76671 7.31967 7.54650
#
# Compressibility (1/GPa) = 0.01108189
#
# Stress axis : x y z
#
# Youngs Moduli (GPa) = 111.22965 104.73810 109.75556
#
# Poissons Ratio (x) = 0.28030 0.28016
# Poissons Ratio (y) = 0.29767 0.33529
# Poissons Ratio (z) = 0.28392 0.31996
#
# Static dielectric constant tensor:
#      x y z
#    x 1.768660 -0.007750 -0.055990 
#    y -0.007750 1.726010 0.012950 
#    z -0.055990 0.012950 1.815190 
# 
# From -- ./inp_files/55610.got.cif
#   From: 2010.05.17/outbox.cif.g08.bks.cpg/sg2_28_cif.got.tgz:55610.got - 2010.06.03 11:33:40.
