data_PCOD9054724
_publ_section_title
;
Structure prediction by ZEFSAII (Michael W. Deem and Ramdas Pophale) SiO2 
 PCOD9054724
Probable space group: P -1
;
_chemical_formula_sum "Si O2"
_cell_formula_units_Z 12
_cell_length_a 12.890073
_cell_length_b 16.170043
_cell_length_c 5.335976
_cell_angle_alpha 69.534536
_cell_angle_beta 101.456448
_cell_angle_gamma 154.596680
_cell_volume 427.571113
_symmetry_space_group_name_H-M "P -1"
_symmetry_group_IT_number 2
_symmetry_cell_setting 'triclinic'
loop_
_space_group_symop_operation_xyz
x,y,z
-x,-y,-z
loop_
_atom_site_type_symbol
_atom_site_label
_atom_site_fract_x
_atom_site_fract_y
_atom_site_fract_z
Si Si1 0.585641 0.144428 0.566011
Si Si2 0.762433 0.955712 0.567958
Si Si3 0.509987 0.594963 0.061188
Si Si4 0.007226 0.604159 0.163168
Si Si5 0.786912 0.923620 0.118519
Si Si6 0.802660 0.533014 0.642782
O O1 0.362374 0.046940 0.565474
O O2 0.711003 0.211465 0.820659
O O3 0.820225 0.378865 0.319115
O O4 0.500000 0.000000 0.500000
O O5 0.918276 0.037027 0.322828
O O6 0.561446 0.721373 0.777423
O O7 0.869678 0.047103 0.800514
O O8 0.749793 0.794300 0.148384
O O9 0.274010 0.431105 0.306726
O O10 0.500000 0.500000 0.000000
O O11 0.926930 0.606790 0.357215
O O12 0.959387 0.608853 0.864671
O O13 0.487903 0.724374 0.231354
#
# Coordination Sequence:
#
# PCOD9054724 Si02
#       6
#     2   2   2   2   2   2
#     4  11  22  36  57  81 106 149 183 210 270 320
#     4   9  17  33  42  74 107 126 174 221 244 315
#     4   8  16  27  50  77 103 134 174 217 263 313
#     4  11  21  38  54  75 115 141 171 233 256 307
#     4   8  15  28  47  67 107 128 166 216 258 296
#     4   9  17  35  52  76 109 141 172 224 268 308
#
# _framework density 28.065505999999999
#
# number of rings (size 3 to 8) (size 9 to 14) (size 15 to 20)
#    2.000    0.333    5.000    0.000    0.000    4.667 
#    0.000    7.500    0.000    0.000    0.000    2.333 
#    0.000    0.000    0.000    0.000    0.000    0.000 
#
# Total GULP energy -66980.459630 kJ/mol
# GULP energy per Si atom -5581.704969 kJ/mol
# Density = 2.800163 g / cm^3
# Si number density = 28.065506 Si / 1000 Ang^3
#
#
#
# Elastic Constant Matrix: (Units=GPa)
#
#
# Indices 1 2 3 4 5 6 
#
# 1 137.7599 46.1919 31.4185 12.6498 -7.0227 -32.9215
# 2 46.1919 129.7837 70.5594 -21.0034 -6.5005 -47.1152
# 3 31.4185 70.5594 101.9229 45.0026 -31.0419 3.6978
# 4 12.6498 -21.0034 45.0026 37.4301 2.0679 -15.9104
# 5 -7.0227 -6.5005 -31.0419 2.0679 44.9186 25.3197
# 6 -32.9215 -47.1152 3.6978 -15.9104 25.3197 67.2165
#
#
#
# Elastic Compliance Matrix: (Units=1/GPa)
#
#
# Indices 1 2 3 4 5 6 
#
# 1 0.008960 -0.002124 -0.000775 -0.002042 -0.000932 0.002810
# 2 -0.002124 0.001321 0.006928 -0.009911 0.008512 -0.006048
# 3 -0.000775 0.006928 -0.002568 0.011944 -0.007160 0.010142
# 4 -0.002042 -0.009911 0.011944 0.000852 0.014216 -0.013758
# 5 -0.000932 0.008512 -0.007160 0.014216 0.015897 0.003281
# 6 0.002810 -0.006048 0.010142 -0.013758 0.003281 0.006964
#
#
# Mechanical properties :
#
#
# Convention : Reuss Voigt Hill
#
# Bulk Modulus (GPa) = 63.41287 73.97843 68.69565
# Shear Modulus (GPa) = 174.66672 44.66617 109.66645
#
# Velocity S-wave (km/s) = 7.89750 3.99369 6.25780
# Velocity P-wave (km/s) = 10.28612 6.90525 8.76033
#
# Compressibility (1/GPa) = 0.01576967
#
# Stress axis : x y z
#
# Youngs Moduli (GPa) = 111.61185 756.71952 -389.42434
#
# Poissons Ratio (x) = 1.60761 -0.30197
# Poissons Ratio (y) = 0.23711 2.69797
# Poissons Ratio (z) = 0.08655 -5.24263
#
# Static dielectric constant tensor:
#      x y z
#    x 2.300690 0.087340 -0.071110 
#    y 0.087340 2.346680 -0.045190 
#    z -0.071110 -0.045190 2.267600 
# 
# From -- ./inp_files/97787.got.cif
#   From: 2010.05.17/outbox.cif.g08.bks.cpg/sg2_49_cif.got.tgz:97787.got - 2010.06.03 11:33:40.
