data_PCOD9054089
_publ_section_title
;
Structure prediction by ZEFSAII (Michael W. Deem and Ramdas Pophale) SiO2 
 PCOD9054089
Probable space group: P -1
;
_chemical_formula_sum "Si O2"
_cell_formula_units_Z 16
_cell_length_a 13.432460
_cell_length_b 11.215470
_cell_length_c 9.700993
_cell_angle_alpha 108.392851
_cell_angle_beta 117.591699
_cell_angle_gamma 32.187259
_cell_volume 680.860128
_symmetry_space_group_name_H-M "P -1"
_symmetry_group_IT_number 2
_symmetry_cell_setting 'triclinic'
loop_
_space_group_symop_operation_xyz
x,y,z
-x,-y,-z
loop_
_atom_site_type_symbol
_atom_site_label
_atom_site_fract_x
_atom_site_fract_y
_atom_site_fract_z
Si Si1 0.165892 0.052867 0.241077
Si Si2 0.047066 0.554605 0.172483
Si Si3 0.099899 0.052227 0.899039
Si Si4 0.399697 0.076763 0.318638
Si Si5 0.499766 0.543242 0.357707
Si Si6 0.329129 0.219172 0.871919
Si Si7 0.841044 0.267148 0.277690
Si Si8 0.574704 0.593873 0.971972
O O1 0.352955 0.796664 0.322748
O O2 0.238655 0.115524 0.247864
O O3 0.007269 0.214485 0.323123
O O4 0.069225 0.076029 0.052650
O O5 0.010973 0.728034 0.160963
O O6 0.874244 0.673256 0.213225
O O7 0.273988 0.315331 0.278618
O O8 0.000000 0.500000 0.000000
O O9 0.048431 0.968489 0.764108
O O10 0.341289 0.844481 0.949743
O O11 0.500000 0.000000 0.500000
O O12 0.569579 0.878174 0.247617
O O13 0.500000 0.500000 0.500000
O O14 0.723429 0.374284 0.384198
O O15 0.430095 0.493033 0.194415
O O16 0.307922 0.383884 0.964402
O O17 0.500000 0.000000 0.000000
O O18 0.670788 0.438745 0.111435
#
# Coordination Sequence:
#
# PCOD9054089 Si02
#       8
#     2   2   2   2   2   2   2   2
#     4  12  22  45  69 102 137 177 242 284 346 423
#     4  12  23  42  73 106 138 181 247 291 339 420
#     4  11  20  40  68 109 132 172 242 291 330 409
#     4  12  28  48  71 104 148 187 229 298 365 412
#     4  11  25  43  64 103 145 183 222 288 363 416
#     4  12  22  42  73 107 137 183 244 293 338 417
#     4  11  23  40  74  99 133 181 234 289 340 412
#     4  11  20  41  74  97 136 184 233 284 344 409
#
# _framework density 23.499689
#
# number of rings (size 3 to 8) (size 9 to 14) (size 15 to 20)
#    0.000    0.500    7.500    1.875    0.000    2.000 
#    2.250    0.000    0.000    0.000    0.000    0.000 
#    0.000    0.000    0.000    0.000    0.000    0.000 
#
# Total GULP energy -89648.493109 kJ/mol
# GULP energy per Si atom -5603.030819 kJ/mol
# Density = 2.344620 g / cm^3
# Si number density = 23.499689 Si / 1000 Ang^3
#
#
#
# Elastic Constant Matrix: (Units=GPa)
#
#
# Indices 1 2 3 4 5 6 
#
# 1 96.8421 25.9211 6.4521 14.0875 -33.7512 -11.5569
# 2 25.9211 114.6718 29.6215 -13.1034 -22.3803 9.6002
# 3 6.4521 29.6215 89.6439 5.0949 -31.9167 0.1598
# 4 14.0875 -13.1034 5.0949 26.1913 -4.1302 -19.9404
# 5 -33.7512 -22.3803 -31.9167 -4.1302 34.2497 1.0185
# 6 -11.5569 9.6002 0.1598 -19.9404 1.0185 53.4115
#
#
#
# Elastic Compliance Matrix: (Units=1/GPa)
#
#
# Indices 1 2 3 4 5 6 
#
# 1 0.021496 -0.003387 0.009663 -0.010239 0.026713 0.000899
# 2 -0.003387 0.011811 -0.003342 0.009153 0.002354 0.000526
# 3 0.009663 -0.003342 0.021380 -0.007333 0.026397 -0.000613
# 4 -0.010239 0.009153 -0.007333 0.064592 -0.003759 0.020348
# 5 0.026713 0.002354 0.026397 -0.003759 0.081136 0.002328
# 6 0.000899 0.000526 -0.000613 0.020348 0.002328 0.026376
#
#
# Mechanical properties :
#
#
# Convention : Reuss Voigt Hill
#
# Bulk Modulus (GPa) = 16.51387 47.23858 31.87622
# Shear Modulus (GPa) = 20.73770 38.71470 29.72620
#
# Velocity S-wave (km/s) = 2.97386 4.06329 3.56049
# Velocity P-wave (km/s) = 4.33985 6.49301 5.52239
#
# Compressibility (1/GPa) = 0.06055516
#
# Stress axis : x y z
#
# Youngs Moduli (GPa) = 46.52117 84.67001 46.77247
#
# Poissons Ratio (x) = 0.28677 -0.45198
# Poissons Ratio (y) = 0.15756 0.15631
# Poissons Ratio (z) = -0.44955 0.28296
#
# Static dielectric constant tensor:
#      x y z
#    x 2.173370 -0.013070 0.306050 
#    y -0.013070 1.887150 0.004630 
#    z 0.306050 0.004630 2.172050 
# 
# From -- ./inp_files/307804.got.cif
#   From: 2010.05.17/outbox.cif.g08.bks.cpg/sg2_154_cif.got.tgz:307804.got - 2010.06.03 11:33:40.
