data_PCOD9054887
_publ_section_title
;
Structure prediction by ZEFSAII (Michael W. Deem and Ramdas Pophale) SiO2 
 PCOD9054887
Probable space group: P -1
;
_chemical_formula_sum "Si O2"
_cell_formula_units_Z 14
_cell_length_a 11.799070
_cell_length_b 12.033603
_cell_length_c 11.888056
_cell_angle_alpha 53.107960
_cell_angle_beta 143.609821
_cell_angle_gamma 143.141768
_cell_volume 596.122672
_symmetry_space_group_name_H-M "P -1"
_symmetry_group_IT_number 2
_symmetry_cell_setting 'triclinic'
loop_
_space_group_symop_operation_xyz
x,y,z
-x,-y,-z
loop_
_atom_site_type_symbol
_atom_site_label
_atom_site_fract_x
_atom_site_fract_y
_atom_site_fract_z
Si Si1 0.406169 0.977347 0.811129
Si Si2 0.741900 0.828252 0.338166
Si Si3 0.649680 0.953065 0.803679
Si Si4 0.963854 0.559189 0.751696
Si Si5 0.590782 0.214338 0.503836
Si Si6 0.967151 0.961747 0.783653
Si Si7 0.747414 0.546739 0.825824
O O1 0.553001 0.976911 0.827802
O O2 0.129490 0.769639 0.710811
O O3 0.432881 0.155655 0.730241
O O4 0.500000 0.000000 0.000000
O O5 0.561742 0.607445 0.324382
O O6 0.000000 0.000000 0.500000
O O7 0.834201 0.904619 0.238349
O O8 0.447554 0.780704 0.663539
O O9 0.713996 0.122521 0.680135
O O10 0.866615 0.955486 0.020321
O O11 0.767427 0.405573 0.596863
O O12 0.842026 0.554249 0.772685
O O13 0.149039 0.520806 0.963391
O O14 0.296348 0.078147 0.399459
O O15 0.865592 0.754179 0.818539
#
# Coordination Sequence:
#
# PCOD9054887 Si02
#       7
#     2   2   2   2   2   2   2
#     4  12  21  40  67  92 126 172 213 267 333 377
#     4  12  25  38  63 103 133 164 215 275 325 390
#     4  11  23  46  66  91 132 176 219 265 325 388
#     4  11  21  39  62  97 131 167 221 267 321 392
#     4  11  26  41  67  95 128 178 222 263 318 396
#     4  12  23  44  68  96 132 172 216 271 329 380
#     4  11  22  38  67  96 133 171 211 271 332 377
#
# _framework density 23.485101
#
# number of rings (size 3 to 8) (size 9 to 14) (size 15 to 20)
#    0.000    0.571    5.714    3.000    2.000    1.714 
#    0.000    0.000    0.000    2.571    0.000    0.000 
#    0.000    0.000    0.000    0.000    0.000    0.000 
#
# Total GULP energy -78079.947250 kJ/mol
# GULP energy per Si atom -5577.139089 kJ/mol
# Density = 2.343165 g / cm^3
# Si number density = 23.485101 Si / 1000 Ang^3
#
#
#
# Elastic Constant Matrix: (Units=GPa)
#
#
# Indices 1 2 3 4 5 6 
#
# 1 97.4196 1.8259 6.4843 11.9688 -24.9503 -2.8860
# 2 1.8259 89.6987 5.0231 17.1705 -2.9248 5.7829
# 3 6.4843 5.0231 103.5414 31.4775 -25.2897 -10.4934
# 4 11.9688 17.1705 31.4775 37.0388 -12.3910 0.0500
# 5 -24.9503 -2.9248 -25.2897 -12.3910 38.0173 9.7791
# 6 -2.8860 5.7829 -10.4934 0.0500 9.7791 33.2846
#
#
#
# Elastic Compliance Matrix: (Units=1/GPa)
#
#
# Indices 1 2 3 4 5 6 
#
# 1 0.012829 0.000607 0.002324 -0.003333 0.009170 -0.000950
# 2 0.000607 0.012540 0.001437 -0.007068 0.000479 -0.001803
# 3 0.002324 0.001437 0.015040 -0.011823 0.007113 0.002621
# 4 -0.003333 -0.007068 -0.011823 0.042896 0.004456 -0.004162
# 5 0.009170 0.000479 0.007113 0.004456 0.040873 -0.009061
# 6 -0.000950 -0.001803 0.002621 -0.004162 -0.009061 0.033770
#
#
# Mechanical properties :
#
#
# Convention : Reuss Voigt Hill
#
# Bulk Modulus (GPa) = 20.34861 35.25849 27.80355
# Shear Modulus (GPa) = 30.19421 40.15657 35.17539
#
# Velocity S-wave (km/s) = 3.58952 4.13955 3.87431
# Velocity P-wave (km/s) = 5.08555 6.15577 5.64608
#
# Compressibility (1/GPa) = 0.04914339
#
# Stress axis : x y z
#
# Youngs Moduli (GPa) = 77.95059 79.74190 66.49008
#
# Poissons Ratio (x) = -0.04840 -0.15451
# Poissons Ratio (y) = -0.04731 -0.09551
# Poissons Ratio (z) = -0.18114 -0.11455
#
# Static dielectric constant tensor:
#      x y z
#    x 1.983720 0.006390 0.143110 
#    y 0.006390 1.820700 -0.047610 
#    z 0.143110 -0.047610 2.130790 
# 
# From -- ./inp_files/241286.got.cif
#   From: 2010.05.17/outbox.cif.g08.bks.cpg/sg2_121_cif.got.tgz:241286.got - 2010.06.03 11:33:40.
