data_PCOD9054762
_publ_section_title
;
Structure prediction by ZEFSAII (Michael W. Deem and Ramdas Pophale) SiO2 
 PCOD9054762
Probable space group: P -1
;
_chemical_formula_sum "Si O2"
_cell_formula_units_Z 16
_cell_length_a 9.447141
_cell_length_b 16.800541
_cell_length_c 15.461776
_cell_angle_alpha 155.219325
_cell_angle_beta 88.478050
_cell_angle_gamma 107.791500
_cell_volume 761.747602
_symmetry_space_group_name_H-M "P -1"
_symmetry_group_IT_number 2
_symmetry_cell_setting 'triclinic'
loop_
_space_group_symop_operation_xyz
x,y,z
-x,-y,-z
loop_
_atom_site_type_symbol
_atom_site_label
_atom_site_fract_x
_atom_site_fract_y
_atom_site_fract_z
Si Si1 0.640635 0.072021 0.648348
Si Si2 0.292937 0.489851 0.812448
Si Si3 0.870379 0.481231 0.329711
Si Si4 0.581095 0.500176 0.901152
Si Si5 0.877720 0.056986 0.952221
Si Si6 0.973630 0.077380 0.667011
Si Si7 0.815384 0.979714 0.083589
Si Si8 0.588253 0.489718 0.401938
O O1 0.843558 0.143300 0.712713
O O2 0.500000 0.000000 0.500000
O O3 0.510948 0.784114 0.404526
O O4 0.696459 0.320366 0.936396
O O5 0.234467 0.528786 0.761524
O O6 0.497277 0.576539 0.910840
O O7 0.141612 0.183854 0.532986
O O8 0.741888 0.461047 0.388284
O O9 0.079331 0.757916 0.609078
O O10 0.874730 0.261019 0.114047
O O11 0.500000 0.500000 0.000000
O O12 0.809032 0.688575 0.077369
O O13 0.708759 0.770477 0.636378
O O14 0.071020 0.112611 0.990399
O O15 0.844953 0.043932 0.043511
O O16 0.000000 0.000000 0.500000
O O17 0.593971 0.757608 0.887060
O O18 0.500000 0.500000 0.500000
#
# Coordination Sequence:
#
# PCOD9054762 Si02
#       8
#     2   2   2   2   2   2   2   2
#     4  11  21  38  63  92 121 154 207 257 309 377
#     4  11  25  40  57  91 128 160 205 262 320 366
#     4  11  23  38  58  88 130 162 200 262 314 362
#     4  11  21  42  63  89 119 158 206 261 311 372
#     4   9  19  36  61  89 120 156 204 251 305 364
#     4  11  21  40  66  88 117 158 206 257 313 373
#     4   9  19  37  60  87 118 159 205 249 299 372
#     4   9  20  38  62  90 118 159 209 252 298 366
#
# _framework density 21.004334
#
# number of rings (size 3 to 8) (size 9 to 14) (size 15 to 20)
#    0.000    1.750    3.750    1.125    0.000   11.000 
#    0.000    0.000    0.000    0.000    0.000    0.000 
#    0.000    0.000    0.000    0.000    0.000    0.000 
#
# Total GULP energy -89152.166168 kJ/mol
# GULP energy per Si atom -5572.010385 kJ/mol
# Density = 2.095653 g / cm^3
# Si number density = 21.004334 Si / 1000 Ang^3
#
#
#
# Elastic Constant Matrix: (Units=GPa)
#
#
# Indices 1 2 3 4 5 6 
#
# 1 122.0699 32.1981 74.7115 23.9824 25.4431 -33.8189
# 2 32.1981 64.0063 16.1086 8.1529 -0.1356 -28.0167
# 3 74.7115 16.1086 124.9106 14.3376 23.1905 -23.2738
# 4 23.9824 8.1529 14.3376 21.6434 -13.4776 -10.7572
# 5 25.4431 -0.1356 23.1905 -13.4776 47.6733 2.4037
# 6 -33.8189 -28.0167 -23.2738 -10.7572 2.4037 31.0032
#
#
#
# Elastic Compliance Matrix: (Units=1/GPa)
#
#
# Indices 1 2 3 4 5 6 
#
# 1 0.026224 -0.001970 -0.005516 -0.030796 -0.020710 0.013605
# 2 -0.001970 0.026315 0.002021 0.002732 -0.000301 0.024119
# 3 -0.005516 0.002021 0.013335 -0.004221 -0.004969 0.004740
# 4 -0.030796 0.002732 -0.004221 0.114452 0.050779 0.001482
# 5 -0.020710 -0.000301 -0.004969 0.050779 0.049447 -0.012808
# 6 0.013605 0.024119 0.004740 0.001482 -0.012808 0.073956
#
#
# Mechanical properties :
#
#
# Convention : Reuss Voigt Hill
#
# Bulk Modulus (GPa) = 18.20069 61.89146 40.04607
# Shear Modulus (GPa) = 15.01626 32.59521 23.80574
#
# Velocity S-wave (km/s) = 2.67669 3.94360 3.37021
# Velocity P-wave (km/s) = 4.27047 7.08985 5.85247
#
# Compressibility (1/GPa) = 0.05494299
#
# Stress axis : x y z
#
# Youngs Moduli (GPa) = 38.13327 38.00176 74.99251
#
# Poissons Ratio (x) = 0.07485 0.41367
# Poissons Ratio (y) = 0.07511 -0.15154
# Poissons Ratio (z) = 0.21035 -0.07679
#
# Static dielectric constant tensor:
#      x y z
#    x 1.818110 0.005250 0.033510 
#    y 0.005250 1.833220 -0.050830 
#    z 0.033510 -0.050830 1.991300 
# 
# From -- ./inp_files/561986.got.cif
#   From: 2010.05.17/outbox.cif.g08.bks.cpg/sg2_281_cif.got.tgz:561986.got - 2010.06.03 11:33:40.
