data_PCOD9054720
_publ_section_title
;
Structure prediction by ZEFSAII (Michael W. Deem and Ramdas Pophale) SiO2 
 PCOD9054720
Probable space group: P -1
;
_chemical_formula_sum "Si O2"
_cell_formula_units_Z 16
_cell_length_a 14.030067
_cell_length_b 28.659100
_cell_length_c 5.298921
_cell_angle_alpha 67.108352
_cell_angle_beta 66.776349
_cell_angle_gamma 22.160009
_cell_volume 736.803900
_symmetry_space_group_name_H-M "P -1"
_symmetry_group_IT_number 2
_symmetry_cell_setting 'triclinic'
loop_
_space_group_symop_operation_xyz
x,y,z
-x,-y,-z
loop_
_atom_site_type_symbol
_atom_site_label
_atom_site_fract_x
_atom_site_fract_y
_atom_site_fract_z
Si Si1 0.788407 0.219054 0.391580
Si Si2 0.703236 0.769349 0.351366
Si Si3 0.177089 0.994747 0.144883
Si Si4 0.501124 0.323857 0.984760
Si Si5 0.532638 0.202308 0.070477
Si Si6 0.154448 0.101458 0.607728
Si Si7 0.955436 0.568837 0.231500
Si Si8 0.329409 0.107410 0.750059
O O1 0.620574 0.301270 0.143173
O O2 0.977397 0.178748 0.382728
O O3 0.609017 0.288325 0.671423
O O4 0.982899 0.087009 0.385265
O O5 0.457417 0.882757 0.189396
O O6 0.584103 0.793292 0.666516
O O7 0.797747 0.784430 0.249757
O O8 0.910284 0.639227 0.294922
O O9 0.228252 0.921865 0.083265
O O10 0.099055 0.074526 0.870262
O O11 0.575333 0.231356 0.144363
O O12 0.199261 0.464966 0.017887
O O13 0.306566 0.321118 0.874689
O O14 0.139691 0.155560 0.696096
O O15 0.449483 0.970204 0.501278
O O16 0.000000 0.500000 0.500000
O O17 0.500000 0.000000 0.000000
#
# Coordination Sequence:
#
# PCOD9054720 Si02
#       8
#     2   2   2   2   2   2   2   2
#     4  12  25  43  65  94 144 181 226 271 333 427
#     4  11  22  39  70 100 140 168 223 297 335 393
#     4  11  21  42  60 100 139 175 212 281 348 397
#     4  12  27  42  66  97 130 199 225 264 343 399
#     4  11  24  41  68  96 138 171 235 291 330 393
#     4  11  21  40  64  99 137 174 214 278 337 422
#     4  11  24  44  69  95 135 180 240 290 323 383
#     4  11  21  37  72 102 134 171 223 277 361 400
#
# _framework density 21.715412000000001
#
# number of rings (size 3 to 8) (size 9 to 14) (size 15 to 20)
#    0.000    0.750    6.250    1.125    3.500    1.000 
#    0.000    0.000    0.000    1.500    0.000    0.000 
#    0.000    0.000    0.000    0.000    0.000    0.000 
#
# Total GULP energy -89382.262948 kJ/mol
# GULP energy per Si atom -5586.391434 kJ/mol
# Density = 2.166599 g / cm^3
# Si number density = 21.715412 Si / 1000 Ang^3
#
#
#
# Elastic Constant Matrix: (Units=GPa)
#
#
# Indices 1 2 3 4 5 6 
#
# 1 127.1277 23.5585 18.4513 -6.5067 26.5428 17.4326
# 2 23.5585 70.9535 22.5211 33.7745 9.2154 19.1185
# 3 18.4513 22.5211 95.5703 13.5425 11.7256 5.4607
# 4 -6.5067 33.7745 13.5425 43.1214 -0.4450 3.6393
# 5 26.5428 9.2154 11.7256 -0.4450 28.0147 -0.5113
# 6 17.4326 19.1185 5.4607 3.6393 -0.5113 38.6177
#
#
#
# Elastic Compliance Matrix: (Units=1/GPa)
#
#
# Indices 1 2 3 4 5 6 
#
# 1 0.011372 -0.003777 -0.000681 0.005111 -0.009234 -0.003771
# 2 -0.003777 0.030860 -0.001819 -0.023290 -0.006386 -0.011205
# 3 -0.000681 -0.001819 0.011843 -0.002412 -0.003757 -0.000289
# 4 0.005111 -0.023290 -0.002412 0.042534 0.004606 0.005616
# 5 -0.009234 -0.006386 -0.003757 0.004606 0.048338 0.008067
# 6 -0.003771 -0.011205 -0.000289 0.005616 0.008067 0.032763
#
#
# Mechanical properties :
#
#
# Convention : Reuss Voigt Hill
#
# Bulk Modulus (GPa) = 24.08473 46.96815 35.52644
# Shear Modulus (GPa) = 24.49736 37.22547 30.86141
#
# Velocity S-wave (km/s) = 3.36238 4.14483 3.77394
# Velocity P-wave (km/s) = 5.11754 6.67698 5.94859
#
# Compressibility (1/GPa) = 0.04152009
#
# Stress axis : x y z
#
# Youngs Moduli (GPa) = 87.93835 32.40450 84.43921
#
# Poissons Ratio (x) = 0.12239 0.05753
# Poissons Ratio (y) = 0.33213 0.15360
# Poissons Ratio (z) = 0.05991 0.05894
#
# Static dielectric constant tensor:
#      x y z
#    x 1.881460 0.005420 0.050620 
#    y 0.005420 1.785090 0.024390 
#    z 0.050620 0.024390 1.874810 
# 
# From -- ./inp_files/101760.got.cif
#   From: 2010.05.17/outbox.cif.g08.bks.cpg/sg2_51_cif.got.tgz:101760.got - 2010.06.03 11:33:40.
