data_PCOD9054517
_publ_section_title
;
Structure prediction by ZEFSAII (Michael W. Deem and Ramdas Pophale) SiO2 
 PCOD9054517
Probable space group: P -1
;
_chemical_formula_sum "Si O2"
_cell_formula_units_Z 16
_cell_length_a 13.777853
_cell_length_b 7.285929
_cell_length_c 8.901497
_cell_angle_alpha 98.574907
_cell_angle_beta 103.525292
_cell_angle_gamma 43.782045
_cell_volume 600.871655
_symmetry_space_group_name_H-M "P -1"
_symmetry_group_IT_number 2
_symmetry_cell_setting 'triclinic'
loop_
_space_group_symop_operation_xyz
x,y,z
-x,-y,-z
loop_
_atom_site_type_symbol
_atom_site_label
_atom_site_fract_x
_atom_site_fract_y
_atom_site_fract_z
Si Si1 0.906209 0.678027 0.230198
Si Si2 0.409533 0.384473 0.512763
Si Si3 0.404909 0.082694 0.252367
Si Si4 0.901474 0.281351 0.575857
Si Si5 0.390446 0.393567 0.951286
Si Si6 0.849856 0.232551 0.892663
Si Si7 0.625370 0.254569 0.237936
Si Si8 0.141449 0.173928 0.114802
O O1 0.008346 0.652700 0.377070
O O2 0.000793 0.371473 0.192695
O O3 0.746662 0.935464 0.256292
O O4 0.902966 0.765511 0.068669
O O5 0.538384 0.119845 0.615177
O O6 0.255769 0.502884 0.523659
O O7 0.401079 0.609270 0.594370
O O8 0.417387 0.278741 0.337573
O O9 0.515618 0.881322 0.137545
O O10 0.248636 0.203706 0.180088
O O11 0.877156 0.254353 0.736316
O O12 0.000000 0.000000 0.500000
O O13 0.332497 0.623187 0.838433
O O14 0.256188 0.502515 0.012750
O O15 0.498940 0.343412 0.101274
O O16 0.779334 0.121092 0.854028
O O17 0.000000 0.000000 0.000000
#
# Coordination Sequence:
#
# PCOD9054517 Si02
#       8
#     2   2   2   2   2   2   2   2
#     4  11  20  36  67  94 124 170 216 261 314 383
#     4  10  21  35  61  94 128 170 207 253 321 398
#     4  10  20  37  65  95 126 171 214 259 324 384
#     4  12  24  41  65  92 130 170 212 262 335 389
#     4  10  19  36  61  92 125 164 223 260 304 380
#     4  12  24  41  63  97 126 166 219 276 314 373
#     4  10  17  35  65  94 123 172 214 252 318 386
#     4  11  21  38  65  96 127 164 221 270 310 376
#
# _framework density 26.627980999999998
#
# number of rings (size 3 to 8) (size 9 to 14) (size 15 to 20)
#    0.000    1.250    6.250    1.500    1.750    0.000 
#    0.000    3.750    0.000    0.000    0.000    0.000 
#    0.000    0.000    0.000    0.000    0.000    0.000 
#
# Total GULP energy -89475.671987 kJ/mol
# GULP energy per Si atom -5592.229499 kJ/mol
# Density = 2.656737 g / cm^3
# Si number density = 26.627981 Si / 1000 Ang^3
#
#
#
# Elastic Constant Matrix: (Units=GPa)
#
#
# Indices 1 2 3 4 5 6 
#
# 1 65.3482 25.9156 51.4110 7.8392 16.0094 -4.6883
# 2 25.9156 163.3534 51.4528 48.3436 10.4737 -24.6895
# 3 51.4110 51.4528 131.7645 33.5017 20.7630 -18.0699
# 4 7.8392 48.3436 33.5017 64.9057 -1.4375 -0.5002
# 5 16.0094 10.4737 20.7630 -1.4375 55.6511 -0.2397
# 6 -4.6883 -24.6895 -18.0699 -0.5002 -0.2397 42.1307
#
#
#
# Elastic Compliance Matrix: (Units=1/GPa)
#
#
# Indices 1 2 3 4 5 6 
#
# 1 0.023346 -0.002002 -0.009030 0.003250 -0.002897 -0.002426
# 2 -0.002002 0.009300 -0.000320 -0.006508 -0.001201 0.005006
# 3 -0.009030 -0.000320 0.013754 -0.005793 -0.002604 0.004623
# 4 0.003250 -0.006508 -0.005793 0.022875 0.003018 -0.005648
# 5 -0.002897 -0.001201 -0.002604 0.003018 0.020069 -0.001993
# 6 -0.002426 0.005006 0.004623 -0.005648 -0.001993 0.028304
#
#
# Mechanical properties :
#
#
# Convention : Reuss Voigt Hill
#
# Bulk Modulus (GPa) = 42.19946 68.66943 55.43445
# Shear Modulus (GPa) = 33.72656 47.98331 40.85494
#
# Velocity S-wave (km/s) = 3.56277 4.24959 3.92125
# Velocity P-wave (km/s) = 5.72771 7.06563 6.43155
#
# Compressibility (1/GPa) = 0.02369698
#
# Stress axis : x y z
#
# Youngs Moduli (GPa) = 42.83312 107.53124 72.70367
#
# Poissons Ratio (x) = 0.21531 0.65649
# Poissons Ratio (y) = 0.08577 0.02325
# Poissons Ratio (z) = 0.38677 0.03438
#
# Static dielectric constant tensor:
#      x y z
#    x 2.219870 0.019790 0.006800 
#    y 0.019790 2.102980 0.060200 
#    z 0.006800 0.060200 2.105990 
# 
# From -- ./inp_files/299294.got.cif
#   From: 2010.05.17/outbox.cif.g08.bks.cpg/sg2_150_cif.got.tgz:299294.got - 2010.06.03 11:33:40.
