data_PCOD9054902
_publ_section_title
;
Structure prediction by ZEFSAII (Michael W. Deem and Ramdas Pophale) SiO2 
 PCOD9054902
Probable space group: P -1
;
_chemical_formula_sum "Si O2"
_cell_formula_units_Z 16
_cell_length_a 18.043725
_cell_length_b 8.141211
_cell_length_c 12.482936
_cell_angle_alpha 136.666897
_cell_angle_beta 42.870494
_cell_angle_gamma 141.672170
_cell_volume 721.422600
_symmetry_space_group_name_H-M "P -1"
_symmetry_group_IT_number 2
_symmetry_cell_setting 'triclinic'
loop_
_space_group_symop_operation_xyz
x,y,z
-x,-y,-z
loop_
_atom_site_type_symbol
_atom_site_label
_atom_site_fract_x
_atom_site_fract_y
_atom_site_fract_z
Si Si1 0.346380 0.111782 0.562507
Si Si2 0.721231 0.168212 0.905231
Si Si3 0.022421 0.251255 0.016048
Si Si4 0.815148 0.265310 0.634917
Si Si5 0.622996 0.308705 0.265551
Si Si6 0.763533 0.257023 0.296722
Si Si7 0.847656 0.810458 0.604792
Si Si8 0.992610 0.878181 0.682760
O O1 0.487127 0.201766 0.415721
O O2 0.328614 0.371683 0.675376
O O3 0.245101 0.842651 0.469344
O O4 0.324366 0.019740 0.666199
O O5 0.710429 0.203591 0.806519
O O6 0.851318 0.456395 0.944277
O O7 0.755995 0.931285 0.758459
O O8 0.615865 0.136910 0.085023
O O9 0.900017 0.281703 0.157515
O O10 0.034135 0.148350 0.837685
O O11 0.000000 0.000000 0.000000
O O12 0.932576 0.590699 0.679623
O O13 0.886425 0.093606 0.494184
O O14 0.707439 0.269318 0.247051
O O15 0.784989 0.523356 0.468277
O O16 0.871457 0.791291 0.696002
O O17 0.000000 0.000000 0.500000
#
# Coordination Sequence:
#
# PCOD9054902 Si02
#       8
#     2   2   2   2   2   2   2   2
#     4  11  25  48  72  95 130 181 235 281 332 391
#     4  12  24  40  64 100 137 168 219 274 336 408
#     4  12  23  37  66 104 134 170 216 274 341 408
#     4  11  21  39  64  91 134 171 212 271 331 401
#     4  11  27  46  70  99 131 180 232 283 332 390
#     4  12  24  46  71  98 138 178 223 279 340 402
#     4  12  23  39  62 100 135 173 211 268 345 406
#     4  11  22  36  60  97 129 171 209 262 343 400
#
# _framework density 22.1784
#
# number of rings (size 3 to 8) (size 9 to 14) (size 15 to 20)
#    0.000    0.500    5.000    4.125    1.750    1.500 
#    0.000    0.625    0.000    0.000    0.000    0.000 
#    0.000    0.000    0.000    0.000    0.000    0.000 
#
# Total GULP energy -89374.490068 kJ/mol
# GULP energy per Si atom -5585.905629 kJ/mol
# Density = 2.212792 g / cm^3
# Si number density = 22.178400 Si / 1000 Ang^3
#
#
#
# Elastic Constant Matrix: (Units=GPa)
#
#
# Indices 1 2 3 4 5 6 
#
# 1 68.0385 6.5671 21.7637 0.8594 -5.7658 -14.8633
# 2 6.5671 55.6373 13.3125 0.9909 -11.6296 -13.6696
# 3 21.7637 13.3125 125.6668 3.3022 -2.3385 -11.6533
# 4 0.8594 0.9909 3.3022 33.9920 -0.4554 2.4275
# 5 -5.7658 -11.6296 -2.3385 -0.4554 38.0779 -3.1621
# 6 -14.8633 -13.6696 -11.6533 2.4275 -3.1621 22.8174
#
#
#
# Elastic Compliance Matrix: (Units=1/GPa)
#
#
# Indices 1 2 3 4 5 6 
#
# 1 0.018408 0.002538 -0.002118 -0.001215 0.004513 0.013185
# 2 0.002538 0.024024 -0.001207 -0.001731 0.009027 0.016864
# 3 -0.002118 -0.001207 0.008704 -0.000931 0.000037 0.002446
# 4 -0.001215 -0.001731 -0.000931 0.029979 -0.000877 -0.005615
# 5 0.004513 0.009027 0.000037 -0.000877 0.030751 0.012722
# 6 0.013185 0.016864 0.002446 -0.005615 0.012722 0.066128
#
#
# Mechanical properties :
#
#
# Convention : Reuss Voigt Hill
#
# Bulk Modulus (GPa) = 20.17681 36.95882 28.56781
# Shear Modulus (GPa) = 25.49856 32.82410 29.16133
#
# Velocity S-wave (km/s) = 3.39440 3.85125 3.63002
# Velocity P-wave (km/s) = 4.94772 6.03960 5.52072
#
# Compressibility (1/GPa) = 0.04956185
#
# Stress axis : x y z
#
# Youngs Moduli (GPa) = 54.32368 41.62507 114.88522
#
# Poissons Ratio (x) = -0.10566 0.24337
# Poissons Ratio (y) = -0.13789 0.13870
# Poissons Ratio (z) = 0.11508 0.05025
#
# Static dielectric constant tensor:
#      x y z
#    x 1.921790 -0.097550 0.037830 
#    y -0.097550 1.868130 -0.047120 
#    z 0.037830 -0.047120 1.803050 
# 
# From -- ./inp_files/189375.got.cif
#   From: 2010.05.17/outbox.cif.g08.bks.cpg/sg2_95_cif.got.tgz:189375.got - 2010.06.03 11:33:40.
