data_PCOD9054684
_publ_section_title
;
Structure prediction by ZEFSAII (Michael W. Deem and Ramdas Pophale) SiO2 
 PCOD9054684
Probable space group: P -1
;
_chemical_formula_sum "Si O2"
_cell_formula_units_Z 14
_cell_length_a 12.252378
_cell_length_b 12.995943
_cell_length_c 15.509588
_cell_angle_alpha 40.863651
_cell_angle_beta 26.844850
_cell_angle_gamma 33.514912
_cell_volume 615.012461
_symmetry_space_group_name_H-M "P -1"
_symmetry_group_IT_number 2
_symmetry_cell_setting 'triclinic'
loop_
_space_group_symop_operation_xyz
x,y,z
-x,-y,-z
loop_
_atom_site_type_symbol
_atom_site_label
_atom_site_fract_x
_atom_site_fract_y
_atom_site_fract_z
Si Si1 0.372113 0.176203 0.212707
Si Si2 0.172035 0.221721 0.507827
Si Si3 0.868793 0.778539 0.157974
Si Si4 0.243531 0.667355 0.128640
Si Si5 0.572870 0.572168 0.521472
Si Si6 0.670866 0.185532 0.293923
Si Si7 0.102755 0.786369 0.575316
O O1 0.170157 0.273444 0.377199
O O2 0.188441 0.209875 0.236304
O O3 0.558562 0.959858 0.244623
O O4 0.605411 0.229849 0.008495
O O5 0.456987 0.198278 0.362719
O O6 0.902274 0.362943 0.667604
O O7 0.201839 0.020987 0.624433
O O8 0.815783 0.611507 0.292721
O O9 0.986720 0.779021 0.170023
O O10 0.091863 0.783347 0.934019
O O11 0.500000 0.500000 0.000000
O O12 0.499310 0.655471 0.615747
O O13 0.281855 0.698710 0.591141
O O14 0.684066 0.358799 0.556538
O O15 0.000000 0.000000 0.500000
#
# Coordination Sequence:
#
# PCOD9054684 Si02
#       7
#     2   2   2   2   2   2   2
#     4  12  23  41  68  96 134 177 218 271 337 393
#     4  11  21  37  65  97 137 177 210 266 335 400
#     4  12  21  41  67  97 134 174 216 273 335 395
#     4  12  25  38  60 101 140 173 217 269 335 405
#     4  11  24  45  72  96 130 177 228 272 332 392
#     4  11  21  38  67 100 130 172 222 265 332 399
#     4  11  24  47  72  93 130 181 224 280 329 385
#
# _framework density 22.763764999999999
#
# number of rings (size 3 to 8) (size 9 to 14) (size 15 to 20)
#    0.000    0.571    7.143    2.143    0.000    1.714 
#    0.000    5.000    0.000    0.000    0.000    0.000 
#    0.000    0.000    0.000    0.000    0.000    0.000 
#
# Total GULP energy -78310.520362 kJ/mol
# GULP energy per Si atom -5593.608597 kJ/mol
# Density = 2.271195 g / cm^3
# Si number density = 22.763765 Si / 1000 Ang^3
#
#
#
# Elastic Constant Matrix: (Units=GPa)
#
#
# Indices 1 2 3 4 5 6 
#
# 1 116.1811 20.9715 27.2362 -11.4388 -29.7842 -6.4857
# 2 20.9715 135.9985 28.4918 6.5568 -4.2477 8.1471
# 3 27.2362 28.4918 127.2652 -0.2144 4.2198 4.4060
# 4 -11.4388 6.5568 -0.2144 29.0427 7.2064 -0.2227
# 5 -29.7842 -4.2477 4.2198 7.2064 32.9148 6.6674
# 6 -6.4857 8.1471 4.4060 -0.2227 6.6674 32.0761
#
#
#
# Elastic Compliance Matrix: (Units=1/GPa)
#
#
# Indices 1 2 3 4 5 6 
#
# 1 0.012557 -0.001191 -0.002810 0.002518 0.010816 0.000997
# 2 -0.001191 0.008167 -0.001537 -0.002649 0.001235 -0.002379
# 3 -0.002810 -0.001537 0.008951 0.000249 -0.003819 -0.000612
# 4 0.002518 -0.002649 0.000249 0.037768 -0.006942 0.002853
# 5 0.010816 0.001235 -0.003819 -0.006942 0.043702 -0.006734
# 6 0.000997 -0.002379 -0.000612 0.002853 -0.006734 0.033485
#
#
# Mechanical properties :
#
#
# Convention : Reuss Voigt Hill
#
# Bulk Modulus (GPa) = 53.75991 59.20487 56.48239
# Shear Modulus (GPa) = 30.88195 38.98974 34.93584
#
# Velocity S-wave (km/s) = 3.68724 4.14309 3.92179
# Velocity P-wave (km/s) = 6.46493 6.99655 6.73599
#
# Compressibility (1/GPa) = 0.01860122
#
# Stress axis : x y z
#
# Youngs Moduli (GPa) = 79.63480 122.43723 111.71735
#
# Poissons Ratio (x) = 0.14583 0.31389
# Poissons Ratio (y) = 0.09485 0.17167
# Poissons Ratio (z) = 0.22375 0.18814
#
# Static dielectric constant tensor:
#      x y z
#    x 1.837110 0.012500 -0.006380 
#    y 0.012500 2.002120 0.004290 
#    z -0.006380 0.004290 1.817560 
# 
# From -- ./inp_files/427430.got.cif
#   From: 2010.05.17/outbox.cif.g08.bks.cpg/sg2_214_cif.got.tgz:427430.got - 2010.06.03 11:33:40.
