data_PCOD9054115
_publ_section_title
;
Structure prediction by ZEFSAII (Michael W. Deem and Ramdas Pophale) SiO2 
 PCOD9054115
Probable space group: P -1
;
_chemical_formula_sum "Si O2"
_cell_formula_units_Z 16
_cell_length_a 13.765581
_cell_length_b 9.860545
_cell_length_c 21.217664
_cell_angle_alpha 126.955627
_cell_angle_beta 19.432160
_cell_angle_gamma 127.396793
_cell_volume 756.774750
_symmetry_space_group_name_H-M "P -1"
_symmetry_group_IT_number 2
_symmetry_cell_setting 'triclinic'
loop_
_space_group_symop_operation_xyz
x,y,z
-x,-y,-z
loop_
_atom_site_type_symbol
_atom_site_label
_atom_site_fract_x
_atom_site_fract_y
_atom_site_fract_z
Si Si1 0.766442 0.349319 0.069469
Si Si2 0.837260 0.000870 0.998718
Si Si3 0.809311 0.616147 0.860113
Si Si4 0.463846 0.020137 0.684728
Si Si5 0.772175 0.343793 0.623248
Si Si6 0.505470 0.665197 0.586779
Si Si7 0.138460 0.466432 0.055045
Si Si8 0.834083 0.595595 0.489807
O O1 0.452450 0.408914 0.292893
O O2 0.773080 0.160589 0.040369
O O3 0.827833 0.365078 0.961420
O O4 0.000000 0.500000 0.000000
O O5 0.178742 0.037532 0.822472
O O6 0.793103 0.815505 0.938906
O O7 0.643537 0.982705 0.176652
O O8 0.897220 0.532105 0.848152
O O9 0.051598 0.579866 0.650356
O O10 0.500000 0.500000 0.000000
O O11 0.730734 0.174433 0.559098
O O12 0.562980 0.838005 0.560222
O O13 0.000000 0.500000 0.500000
O O14 0.897080 0.308478 0.606261
O O15 0.441924 0.390020 0.840391
O O16 0.500000 0.500000 0.500000
O O17 0.725178 0.673669 0.513678
O O18 0.163658 0.650028 0.815299
#
# Coordination Sequence:
#
# PCOD9054115 Si02
#       8
#     2   2   2   2   2   2   2   2
#     4  12  24  41  68 104 139 174 228 290 339 396
#     4  11  22  41  72 102 127 184 237 274 338 413
#     4  12  24  46  71  99 138 183 228 280 343 409
#     4  11  20  40  69  95 133 181 232 278 327 416
#     4  12  25  41  66 100 137 181 224 275 349 404
#     4  12  23  41  70 104 129 171 236 287 332 393
#     4  12  22  43  70  95 137 181 222 274 346 402
#     4  12  24  40  68 100 136 174 230 279 337 399
#
# _framework density 21.142353
#
# number of rings (size 3 to 8) (size 9 to 14) (size 15 to 20)
#    0.000    0.250    8.750    1.500    0.000    0.500 
#    2.250    2.500    0.000    0.000    0.000    0.000 
#    0.000    0.000    0.000    0.000    0.000    0.000 
#
# Total GULP energy -89285.962428 kJ/mol
# GULP energy per Si atom -5580.372652 kJ/mol
# Density = 2.109423 g / cm^3
# Si number density = 21.142353 Si / 1000 Ang^3
#
#
#
# Elastic Constant Matrix: (Units=GPa)
#
#
# Indices 1 2 3 4 5 6 
#
# 1 96.5587 60.2118 24.5847 7.0013 -22.8857 -5.2836
# 2 60.2118 152.1541 61.0135 -3.9644 -8.4604 14.0744
# 3 24.5847 61.0135 88.8990 9.5148 -19.4185 7.0772
# 4 7.0013 -3.9644 9.5148 20.1525 -0.1009 3.9556
# 5 -22.8857 -8.4604 -19.4185 -0.1009 34.8519 0.4505
# 6 -5.2836 14.0744 7.0772 3.9556 0.4505 34.3418
#
#
#
# Elastic Compliance Matrix: (Units=1/GPa)
#
#
# Indices 1 2 3 4 5 6 
#
# 1 0.019945 -0.010277 0.005237 -0.012829 0.013386 0.007503
# 2 -0.010277 0.015301 -0.010364 0.012820 -0.008680 -0.007079
# 3 0.005237 -0.010364 0.020994 -0.014138 0.012551 0.002191
# 4 -0.012829 0.012820 -0.014138 0.065506 -0.012849 -0.011691
# 5 0.013386 -0.008680 0.012551 -0.012849 0.042281 0.003956
# 6 0.007503 -0.007079 0.002191 -0.011691 0.003956 0.034018
#
#
# Mechanical properties :
#
#
# Convention : Reuss Voigt Hill
#
# Bulk Modulus (GPa) = 39.31947 69.91462 54.61704
# Shear Modulus (GPa) = 21.06768 30.65603 25.86185
#
# Velocity S-wave (km/s) = 3.16011 3.81199 3.50126
# Velocity P-wave (km/s) = 5.65269 7.24675 6.49878
#
# Compressibility (1/GPa) = 0.02543270
#
# Stress axis : x y z
#
# Youngs Moduli (GPa) = 50.13811 65.35329 47.63286
#
# Poissons Ratio (x) = 0.67164 -0.24948
# Poissons Ratio (y) = 0.51527 0.49368
# Poissons Ratio (z) = -0.26260 0.67734
#
# Static dielectric constant tensor:
#      x y z
#    x 1.821360 0.006050 0.013760 
#    y 0.006050 1.797980 0.018420 
#    z 0.013760 0.018420 1.824490 
# 
# From -- ./inp_files/611775.got.cif
#   From: 2010.05.17/outbox.cif.g08.bks.cpg/sg2_306_cif.got.tgz:611775.got - 2010.06.03 11:33:40.
