data_PCOD9054294
_publ_section_title
;
Structure prediction by ZEFSAII (Michael W. Deem and Ramdas Pophale) SiO2 
 PCOD9054294
Probable space group: P -1
;
_chemical_formula_sum "Si O2"
_cell_formula_units_Z 15
_cell_length_a 18.296208
_cell_length_b 11.519438
_cell_length_c 20.602486
_cell_angle_alpha 152.195745
_cell_angle_beta 159.107243
_cell_angle_gamma 37.742105
_cell_volume 705.564416
_symmetry_space_group_name_H-M "P -1"
_symmetry_group_IT_number 2
_symmetry_cell_setting 'triclinic'
loop_
_space_group_symop_operation_xyz
x,y,z
-x,-y,-z
loop_
_atom_site_type_symbol
_atom_site_label
_atom_site_fract_x
_atom_site_fract_y
_atom_site_fract_z
Si Si1 0.000000 0.000000 0.500000
Si Si2 0.119245 0.934953 0.703348
Si Si3 0.636826 0.507055 0.300945
Si Si4 0.988619 0.614997 0.975892
Si Si5 0.595660 0.506565 0.769997
Si Si6 0.694490 0.266484 0.454407
Si Si7 0.535534 0.301655 0.985621
Si Si8 0.967196 0.142052 0.261745
O O1 0.024533 0.106347 0.498507
O O2 0.837441 0.189222 0.477359
O O3 0.274219 0.743854 0.735550
O O4 0.001134 0.907538 0.660269
O O5 0.260149 0.218377 0.955003
O O6 0.542732 0.587216 0.328326
O O7 0.826343 0.713302 0.531084
O O8 0.481092 0.414758 0.065988
O O9 0.842915 0.429524 0.712608
O O10 0.000000 0.500000 0.000000
O O11 0.233918 0.664841 0.184124
O O12 0.902508 0.869755 0.039006
O O13 0.461287 0.571813 0.629291
O O14 0.566856 0.000660 0.248159
O O15 0.500000 0.500000 0.000000
O O16 0.783897 0.298439 0.186104
#
# Coordination Sequence:
#
# PCOD9054294 Si02
#       8
#     1   2   2   2   2   2   2   2
#     4  12  22  34  74 104 134 164 232 294 348 384
#     4  11  20  42  69 102 132 175 228 288 343 399
#     4  11  24  43  68  97 147 173 223 296 353 400
#     4  12  26  46  71  98 140 184 235 278 342 420
#     4  12  23  45  70 102 134 184 229 285 345 413
#     4  12  25  42  73 106 133 181 233 292 341 412
#     4  11  25  40  70 107 134 176 233 289 352 405
#     4  11  25  47  66  99 143 187 223 281 350 415
#
# _framework density 21.259575000000002
#
# number of rings (size 3 to 8) (size 9 to 14) (size 15 to 20)
#    0.000    0.533    6.667    2.800    5.600    2.667 
#    0.000    0.667    0.000    0.000    0.000    0.000 
#    0.000    0.000    0.000    0.000    0.000    0.000 
#
# Total GULP energy -83555.954697 kJ/mol
# GULP energy per Si atom -5570.396980 kJ/mol
# Density = 2.121119 g / cm^3
# Si number density = 21.259575 Si / 1000 Ang^3
#
#
#
# Elastic Constant Matrix: (Units=GPa)
#
#
# Indices 1 2 3 4 5 6 
#
# 1 150.8677 46.1170 48.6306 -9.6370 11.5378 16.3767
# 2 46.1170 62.1777 27.3764 -9.5067 -4.7049 13.2036
# 3 48.6306 27.3764 86.1747 -6.9237 -7.5674 8.2804
# 4 -9.6370 -9.5067 -6.9237 27.7445 -0.7069 -3.9860
# 5 11.5378 -4.7049 -7.5674 -0.7069 24.5504 -7.7181
# 6 16.3767 13.2036 8.2804 -3.9860 -7.7181 38.1118
#
#
#
# Elastic Compliance Matrix: (Units=1/GPa)
#
#
# Indices 1 2 3 4 5 6 
#
# 1 0.011074 -0.006076 -0.004785 -0.000151 -0.008929 -0.003438
# 2 -0.006076 0.023762 -0.002908 0.004970 0.005608 -0.003334
# 3 -0.004785 -0.002908 0.015861 0.001652 0.007008 0.001210
# 4 -0.000151 0.004970 0.001652 0.038587 0.003501 0.002729
# 5 -0.008929 0.005608 0.007008 0.003501 0.051794 0.011227
# 6 -0.003438 -0.003334 0.001210 0.002729 0.011227 0.031167
#
#
# Mechanical properties :
#
#
# Convention : Reuss Voigt Hill
#
# Bulk Modulus (GPa) = 43.17993 60.38535 51.78264
# Shear Modulus (GPa) = 24.09606 29.88773 26.99189
#
# Velocity S-wave (km/s) = 3.37028 3.75353 3.56706
# Velocity P-wave (km/s) = 5.95819 6.87392 6.43237
#
# Compressibility (1/GPa) = 0.02315891
#
# Stress axis : x y z
#
# Youngs Moduli (GPa) = 90.29804 42.08447 63.04937
#
# Poissons Ratio (x) = 0.25568 0.30171
# Poissons Ratio (y) = 0.54861 0.18335
# Poissons Ratio (z) = 0.43211 0.12238
#
# Static dielectric constant tensor:
#      x y z
#    x 1.767860 -0.007430 -0.015480 
#    y -0.007430 1.770490 -0.033360 
#    z -0.015480 -0.033360 1.850710 
# 
# From -- ./inp_files/600145.got.cif
#   From: 2010.05.17/outbox.cif.g08.bks.cpg/sg2_301_cif.got.tgz:600145.got - 2010.06.03 11:33:40.
