data_PCOD9054560
_publ_section_title
;
Structure prediction by ZEFSAII (Michael W. Deem and Ramdas Pophale) SiO2 
 PCOD9054560
Probable space group: P -1
;
_chemical_formula_sum "Si O2"
_cell_formula_units_Z 16
_cell_length_a 11.481820
_cell_length_b 11.012637
_cell_length_c 21.785876
_cell_angle_alpha 136.761309
_cell_angle_beta 25.382188
_cell_angle_gamma 147.947717
_cell_volume 618.199069
_symmetry_space_group_name_H-M "P -1"
_symmetry_group_IT_number 2
_symmetry_cell_setting 'triclinic'
loop_
_space_group_symop_operation_xyz
x,y,z
-x,-y,-z
loop_
_atom_site_type_symbol
_atom_site_label
_atom_site_fract_x
_atom_site_fract_y
_atom_site_fract_z
Si Si1 0.474492 0.833612 0.777785
Si Si2 0.767518 0.329735 0.664165
Si Si3 0.167686 0.861453 0.824788
Si Si4 0.231922 0.271630 0.153805
Si Si5 0.492661 0.448697 0.613819
Si Si6 0.701381 0.773346 0.491471
Si Si7 0.462097 0.155380 0.618602
Si Si8 0.361162 0.754098 0.945388
O O1 0.187859 0.834879 0.878488
O O2 0.339555 0.577947 0.733964
O O3 0.516946 0.853837 0.838370
O O4 0.869732 0.033073 0.632593
O O5 0.854957 0.569160 0.721694
O O6 0.728843 0.264069 0.587669
O O7 0.108974 0.362059 0.531704
O O8 0.414539 0.135041 0.796687
O O9 0.423105 0.808162 0.657876
O O10 0.824356 0.735511 0.896699
O O11 0.538473 0.332254 0.075809
O O12 0.914435 0.011142 0.230147
O O13 0.307819 0.227661 0.578286
O O14 0.494371 0.356474 0.644220
O O15 0.500000 0.500000 0.500000
O O16 0.500000 0.000000 0.500000
O O17 0.000000 0.500000 0.000000
O O18 0.500000 0.000000 0.000000
#
# Coordination Sequence:
#
# PCOD9054560 Si02
#       8
#     2   2   2   2   2   2   2   2
#     4  12  27  44  74 105 155 206 243 307 378 441
#     4  11  21  36  61 100 155 186 228 285 371 467
#     4  11  23  41  68 115 150 194 232 284 383 486
#     4  11  25  45  72  99 144 191 236 322 381 442
#     4  12  21  34  61 101 153 198 238 275 360 468
#     4  12  22  37  63 110 167 195 231 281 365 482
#     4  11  22  33  58 101 144 190 241 283 362 459
#     4  12  33  59  81 106 141 198 278 342 385 428
#
# _framework density 25.881630999999999
#
# number of rings (size 3 to 8) (size 9 to 14) (size 15 to 20)
#    0.000    0.500    5.000    3.750    8.750    0.000 
#    0.000    1.250    0.000    0.000    0.000    0.000 
#    0.000    0.000    0.000    0.000    0.000    0.000 
#
# Total GULP energy -89089.901173 kJ/mol
# GULP energy per Si atom -5568.118823 kJ/mol
# Density = 2.582272 g / cm^3
# Si number density = 25.881631 Si / 1000 Ang^3
#
#
#
# Elastic Constant Matrix: (Units=GPa)
#
#
# Indices 1 2 3 4 5 6 
#
# 1 191.9794 46.4412 38.8815 -12.9518 -20.8354 14.2028
# 2 46.4412 109.5662 23.8362 -14.8525 -1.3707 -8.7011
# 3 38.8815 23.8362 49.7256 -0.7893 4.5054 -3.6635
# 4 -12.9518 -14.8525 -0.7893 30.7521 5.5012 2.5022
# 5 -20.8354 -1.3707 4.5054 5.5012 31.3824 -5.5809
# 6 14.2028 -8.7011 -3.6635 2.5022 -5.5809 56.1493
#
#
#
# Elastic Compliance Matrix: (Units=1/GPa)
#
#
# Indices 1 2 3 4 5 6 
#
# 1 0.007632 -0.001923 -0.005650 0.001390 0.005169 -0.002145
# 2 -0.001923 0.011516 -0.003748 0.004646 -0.000740 0.001746
# 3 -0.005650 -0.003748 0.027072 -0.002404 -0.007020 0.002024
# 4 0.001390 0.004646 -0.002404 0.036383 -0.005250 -0.001932
# 5 0.005169 -0.000740 -0.007020 -0.005250 0.037564 0.002087
# 6 -0.002145 0.001746 0.002024 -0.001932 0.002087 0.019048
#
#
# Mechanical properties :
#
#
# Convention : Reuss Voigt Hill
#
# Bulk Modulus (GPa) = 42.41056 63.28767 52.84912
# Shear Modulus (GPa) = 29.46108 39.79758 34.62933
#
# Velocity S-wave (km/s) = 3.37753 3.92558 3.66182
# Velocity P-wave (km/s) = 5.62425 6.71213 6.19213
#
# Compressibility (1/GPa) = 0.02357903
#
# Stress axis : x y z
#
# Youngs Moduli (GPa) = 131.02982 86.83201 36.93897
#
# Poissons Ratio (x) = 0.16697 0.20871
# Poissons Ratio (y) = 0.25196 0.13843
# Poissons Ratio (z) = 0.74033 0.32541
#
# Static dielectric constant tensor:
#      x y z
#    x 2.195390 0.047790 0.009020 
#    y 0.047790 1.994570 -0.046070 
#    z 0.009020 -0.046070 2.097270 
# 
# From -- ./inp_files/610277.got.cif
#   From: 2010.05.17/outbox.cif.g08.bks.cpg/sg2_306_cif.got.tgz:610277.got - 2010.06.03 11:33:40.
