data_PCOD9054475
_publ_section_title
;
Structure prediction by ZEFSAII (Michael W. Deem and Ramdas Pophale) SiO2 
 PCOD9054475
Probable space group: P -1
;
_chemical_formula_sum "Si O2"
_cell_formula_units_Z 12
_cell_length_a 13.606716
_cell_length_b 8.396769
_cell_length_c 9.313935
_cell_angle_alpha 31.060088
_cell_angle_beta 52.086493
_cell_angle_gamma 58.746743
_cell_volume 433.075891
_symmetry_space_group_name_H-M "P -1"
_symmetry_group_IT_number 2
_symmetry_cell_setting 'triclinic'
loop_
_space_group_symop_operation_xyz
x,y,z
-x,-y,-z
loop_
_atom_site_type_symbol
_atom_site_label
_atom_site_fract_x
_atom_site_fract_y
_atom_site_fract_z
Si Si1 0.290577 0.677767 0.723866
Si Si2 0.968164 0.425239 0.318078
Si Si3 0.198533 0.305582 0.360333
Si Si4 0.526974 0.058473 0.097714
Si Si5 0.850593 0.821371 0.910765
Si Si6 0.601665 0.768997 0.515104
O O1 0.189165 0.947024 0.593794
O O2 0.267199 0.390929 0.861197
O O3 0.278248 0.524417 0.010485
O O4 0.542829 0.425838 0.816953
O O5 0.912073 0.736713 0.071276
O O6 0.060649 0.432106 0.363903
O O7 0.852039 0.186570 0.617818
O O8 0.277251 0.272319 0.460709
O O9 0.056233 0.298335 0.207900
O O10 0.632266 0.921682 0.215337
O O11 0.410244 0.873393 0.416574
O O12 0.500000 0.000000 0.000000
O O13 0.500000 0.000000 0.500000
#
# Coordination Sequence:
#
# PCOD9054475 Si02
#       6
#     2   2   2   2   2   2
#     4  11  21  33  57  85 119 158 205 244 307 360
#     4   9  16  28  46  78 121 147 186 239 309 357
#     4  11  21  33  57  90 116 157 198 254 305 363
#     4  12  27  44  62  89 125 166 211 256 304 367
#     4   9  16  28  46  77 117 157 181 239 304 365
#     4  12  25  43  65  91 121 163 211 256 312 365
#
# _framework density 27.708770999999999
#
# number of rings (size 3 to 8) (size 9 to 14) (size 15 to 20)
#    0.000    1.333    1.667    8.000    0.000    0.000 
#    0.000    0.000    0.000    0.000    0.000    7.000 
#    0.000    0.000    0.000    0.000    0.000    0.000 
#
# Total GULP energy -67121.683276 kJ/mol
# GULP energy per Si atom -5593.473606 kJ/mol
# Density = 2.764570 g / cm^3
# Si number density = 27.708771 Si / 1000 Ang^3
#
#
#
# Elastic Constant Matrix: (Units=GPa)
#
#
# Indices 1 2 3 4 5 6 
#
# 1 154.8539 45.6086 58.5282 0.9869 37.9655 38.5696
# 2 45.6086 90.6064 74.6383 10.5695 8.5743 29.9507
# 3 58.5282 74.6383 208.1273 -23.6121 37.4446 22.2391
# 4 0.9869 10.5695 -23.6121 42.6111 15.2337 -1.9083
# 5 37.9655 8.5743 37.4446 15.2337 70.7850 -10.8162
# 6 38.5696 29.9507 22.2391 -1.9083 -10.8162 33.4474
#
#
#
# Elastic Compliance Matrix: (Units=1/GPa)
#
#
# Indices 1 2 3 4 5 6 
#
# 1 0.014158 -0.000541 0.000904 0.003648 -0.011858 -0.020070
# 2 -0.000541 0.025430 -0.009152 -0.012937 0.002386 -0.016029
# 3 0.000904 -0.009152 0.010595 0.010745 -0.007557 -0.001723
# 4 0.003648 -0.012937 0.010745 0.037636 -0.014527 -0.002316
# 5 -0.011858 0.002386 -0.007557 -0.014527 0.031272 0.025846
# 6 -0.020070 -0.016029 -0.001723 -0.002316 0.025846 0.076766
#
#
# Mechanical properties :
#
#
# Convention : Reuss Voigt Hill
#
# Bulk Modulus (GPa) = 30.66859 90.12643 60.39751
# Shear Modulus (GPa) = 22.29133 47.68956 34.99044
#
# Velocity S-wave (km/s) = 2.83942 4.15311 3.55743
# Velocity P-wave (km/s) = 4.67354 7.45619 6.22241
#
# Compressibility (1/GPa) = 0.03260665
#
# Stress axis : x y z
#
# Youngs Moduli (GPa) = 70.63113 39.32386 94.38343
#
# Poissons Ratio (x) = 0.02127 -0.08536
# Poissons Ratio (y) = 0.03820 0.86377
# Poissons Ratio (z) = -0.06388 0.35988
#
# Static dielectric constant tensor:
#      x y z
#    x 2.381140 -0.101500 -0.025200 
#    y -0.101500 2.261960 0.121800 
#    z -0.025200 0.121800 2.110500 
# 
# From -- ./inp_files/261228.got.cif
#   From: 2010.05.17/outbox.cif.g08.bks.cpg/sg2_131_cif.got.tgz:261228.got - 2010.06.03 11:33:40.
