data_PCOD9054091
_publ_section_title
;
Structure prediction by ZEFSAII (Michael W. Deem and Ramdas Pophale) SiO2 
 PCOD9054091
Probable space group: P -1
;
_chemical_formula_sum "Si O2"
_cell_formula_units_Z 12
_cell_length_a 11.735495
_cell_length_b 14.001734
_cell_length_c 9.134690
_cell_angle_alpha 140.032087
_cell_angle_beta 50.032141
_cell_angle_gamma 146.944738
_cell_volume 525.905399
_symmetry_space_group_name_H-M "P -1"
_symmetry_group_IT_number 2
_symmetry_cell_setting 'triclinic'
loop_
_space_group_symop_operation_xyz
x,y,z
-x,-y,-z
loop_
_atom_site_type_symbol
_atom_site_label
_atom_site_fract_x
_atom_site_fract_y
_atom_site_fract_z
Si Si1 0.600151 0.162829 0.825657
Si Si2 0.866383 0.799233 0.689261
Si Si3 0.457177 0.390027 0.689261
Si Si4 0.337171 0.100150 0.700302
Si Si5 0.700766 0.957177 0.823560
Si Si6 0.109973 0.366383 0.823560
O O1 0.463208 0.149245 0.798492
O O2 0.649246 0.036791 0.573582
O O3 0.459676 0.063717 0.970119
O O4 0.802360 0.406401 0.970118
O O5 0.678506 0.618865 0.737730
O O6 0.812632 0.916686 0.792304
O O7 0.875617 0.687367 0.415805
O O8 0.093598 0.959675 0.762035
O O9 0.436283 0.302360 0.762036
O O10 0.416686 0.228437 0.415805
O O11 0.271563 0.375617 0.792304
O O12 0.881135 0.178506 0.857013
#
# Coordination Sequence:
#
# PCOD9054091 Si02
#       6
#     2   2   2   2   2   2
#     4  11  26  43  58  90 132 159 196 257 308 352
#     4  11  20  40  68  93 120 157 206 254 299 355
#     4  11  20  40  68  93 120 157 206 254 299 355
#     4  11  26  43  58  90 132 159 196 257 308 352
#     4  11  20  40  68  93 120 157 206 254 299 355
#     4  11  20  40  68  93 120 157 206 254 299 355
#
# _framework density 22.817793000000002
#
# number of rings (size 3 to 8) (size 9 to 14) (size 15 to 20)
#    0.000    1.000    6.667    2.000    0.000    5.333 
#    0.000    3.333    0.000    0.000    0.000    0.000 
#    0.000    0.000    0.000    0.000    0.000    0.000 
#
# Total GULP energy -67299.798532 kJ/mol
# GULP energy per Si atom -5608.316544 kJ/mol
# Density = 2.276586 g / cm^3
# Si number density = 22.817793 Si / 1000 Ang^3
#
#
#
# Elastic Constant Matrix: (Units=GPa)
#
#
# Indices 1 2 3 4 5 6 
#
# 1 118.1769 51.7556 9.3912 1.0982 17.2094 -0.0349
# 2 51.7556 229.2358 51.1165 -0.0315 0.0737 -7.1661
# 3 9.3912 51.1165 118.1751 -1.1169 -17.2799 -2.7135
# 4 1.0982 -0.0315 -1.1169 33.4805 -0.6321 0.0731
# 5 17.2094 0.0737 -17.2799 -0.6321 23.8247 1.1088
# 6 -0.0349 -7.1661 -2.7135 0.0731 1.1088 33.9850
#
#
#
# Elastic Compliance Matrix: (Units=1/GPa)
#
#
# Indices 1 2 3 4 5 6 
#
# 1 0.010771 -0.002172 -0.001191 -0.000558 -0.008640 -0.000259
# 2 -0.002172 0.005357 -0.002128 0.000003 -0.000036 0.000959
# 3 -0.001191 -0.002128 0.010754 0.000559 0.008676 0.000124
# 4 -0.000558 0.000003 0.000559 0.029936 0.001606 -0.000072
# 5 -0.008640 -0.000036 0.008676 0.001606 0.054601 -0.001109
# 6 -0.000259 0.000959 0.000124 -0.000072 -0.001109 0.029673
#
#
# Mechanical properties :
#
#
# Convention : Reuss Voigt Hill
#
# Bulk Modulus (GPa) = 62.89104 76.67940 69.78522
# Shear Modulus (GPa) = 31.77168 41.81302 36.79235
#
# Velocity S-wave (km/s) = 3.73555 4.28538 4.01988
# Velocity P-wave (km/s) = 6.79911 7.62654 7.22468
#
# Compressibility (1/GPa) = 0.01590052
#
# Stress axis : x y z
#
# Youngs Moduli (GPa) = 92.84255 186.66961 92.99020
#
# Poissons Ratio (x) = 0.40536 0.11078
# Poissons Ratio (y) = 0.20161 0.19787
# Poissons Ratio (z) = 0.11060 0.39720
#
# Static dielectric constant tensor:
#      x y z
#    x 1.856600 0.005460 0.000000 
#    y 0.005460 1.772450 0.000030 
#    z 0.000000 0.000030 1.856950 
# 
# From -- ./inp_files/149799.got.cif
#   From: 2010.05.17/outbox.cif.g08.bks.cpg/sg2_75_cif.got.tgz:149799.got - 2010.06.03 11:33:40.
