data_PCOD9054071
_publ_section_title
;
Structure prediction by ZEFSAII (Michael W. Deem and Ramdas Pophale) SiO2 
 PCOD9054071
Probable space group: P -1
;
_chemical_formula_sum "Si O2"
_cell_formula_units_Z 14
_cell_length_a 9.241345
_cell_length_b 12.107044
_cell_length_c 17.565136
_cell_angle_alpha 22.744742
_cell_angle_beta 51.207255
_cell_angle_gamma 52.715675
_cell_volume 589.665099
_symmetry_space_group_name_H-M "P -1"
_symmetry_group_IT_number 2
_symmetry_cell_setting 'triclinic'
loop_
_space_group_symop_operation_xyz
x,y,z
-x,-y,-z
loop_
_atom_site_type_symbol
_atom_site_label
_atom_site_fract_x
_atom_site_fract_y
_atom_site_fract_z
Si Si1 0.755073 0.814341 0.532719
Si Si2 0.084282 0.081650 0.037568
Si Si3 0.636416 0.418378 0.707271
Si Si4 0.132758 0.419431 0.612547
Si Si5 0.799039 0.869675 0.659138
Si Si6 0.317748 0.531132 0.623489
Si Si7 0.885975 0.341630 0.075956
O O1 0.610971 0.645684 0.639050
O O2 0.729092 0.821610 0.627200
O O3 0.957355 0.636965 0.559351
O O4 0.759800 0.131028 0.294996
O O5 0.025180 0.134186 0.110398
O O6 0.274492 0.876682 0.099158
O O7 0.124555 0.390986 0.797554
O O8 0.930354 0.902942 0.162306
O O9 0.796864 0.516568 0.535615
O O10 0.462021 0.399104 0.722700
O O11 0.309906 0.456456 0.584583
O O12 0.686147 0.131016 0.575012
O O13 0.800441 0.585002 0.891010
O O14 0.000000 0.000000 0.500000
O O15 0.000000 0.500000 0.000000
#
# Coordination Sequence:
#
# PCOD9054071 Si02
#       7
#     2   2   2   2   2   2   2
#     4  11  21  43  66  91 127 165 220 260 300 384
#     4  11  21  39  65  92 117 168 216 250 316 373
#     4  11  24  40  63  93 132 163 197 264 338 363
#     4  11  20  40  67  92 121 165 213 258 309 380
#     4  12  23  38  64  96 123 171 215 258 306 372
#     4  12  24  40  60  98 131 158 206 268 317 374
#     4  12  20  37  67  93 121 161 220 259 299 368
#
# _framework density 23.742291000000002
#
# number of rings (size 3 to 8) (size 9 to 14) (size 15 to 20)
#    0.000    0.571    7.143    2.143    0.000    1.714 
#    0.000    0.714    0.000    0.000    0.000    0.000 
#    0.000    0.000    0.000    0.000    0.000    0.000 
#
# Total GULP energy -78253.120091 kJ/mol
# GULP energy per Si atom -5589.508578 kJ/mol
# Density = 2.368825 g / cm^3
# Si number density = 23.742291 Si / 1000 Ang^3
#
#
#
# Elastic Constant Matrix: (Units=GPa)
#
#
# Indices 1 2 3 4 5 6 
#
# 1 123.6554 37.5043 38.6305 -13.6129 -6.0434 38.8877
# 2 37.5043 91.7159 46.5287 -14.7262 -3.0895 46.5819
# 3 38.6305 46.5287 157.7186 -7.6805 2.4810 29.7736
# 4 -13.6129 -14.7262 -7.6805 36.7319 14.9465 -0.4631
# 5 -6.0434 -3.0895 2.4810 14.9465 30.0658 -1.8393
# 6 38.8877 46.5819 29.7736 -0.4631 -1.8393 51.5915
#
#
#
# Elastic Compliance Matrix: (Units=1/GPa)
#
#
# Indices 1 2 3 4 5 6 
#
# 1 0.011393 0.001212 -0.001242 0.004430 -0.000232 -0.008934
# 2 0.001212 0.024216 -0.002862 0.010795 -0.003693 -0.021162
# 3 -0.001242 -0.002862 0.007731 0.000629 -0.001555 -0.000991
# 4 0.004430 0.010795 0.000629 0.040995 -0.019274 -0.013768
# 5 -0.000232 -0.003693 -0.001555 -0.019274 0.042897 0.005763
# 6 -0.008934 -0.021162 -0.000991 -0.013768 0.005763 0.045878
#
#
# Mechanical properties :
#
#
# Convention : Reuss Voigt Hill
#
# Bulk Modulus (GPa) = 26.62671 68.71298 47.66985
# Shear Modulus (GPa) = 26.12145 40.37294 33.24720
#
# Velocity S-wave (km/s) = 3.32054 4.12814 3.74617
# Velocity P-wave (km/s) = 5.09318 7.19209 6.23164
#
# Compressibility (1/GPa) = 0.03755627
#
# Stress axis : x y z
#
# Youngs Moduli (GPa) = 87.76976 41.29446 129.34543
#
# Poissons Ratio (x) = -0.05007 0.16069
# Poissons Ratio (y) = -0.10642 0.37024
# Poissons Ratio (z) = 0.10904 0.11820
#
# Static dielectric constant tensor:
#      x y z
#    x 1.940190 -0.022010 0.024610 
#    y -0.022010 1.958450 0.012230 
#    z 0.024610 0.012230 1.925450 
# 
# From -- ./inp_files/175991.got.cif
#   From: 2010.05.17/outbox.cif.g08.bks.cpg/sg2_88_cif.got.tgz:175991.got - 2010.06.03 11:33:40.
