data_PCOD9054853
_publ_section_title
;
Structure prediction by ZEFSAII (Michael W. Deem and Ramdas Pophale) SiO2 
 PCOD9054853
Probable space group: P -1
;
_chemical_formula_sum "Si O2"
_cell_formula_units_Z 16
_cell_length_a 8.782868
_cell_length_b 11.757222
_cell_length_c 17.267338
_cell_angle_alpha 29.460196
_cell_angle_beta 57.757547
_cell_angle_gamma 52.592216
_cell_volume 696.536696
_symmetry_space_group_name_H-M "P -1"
_symmetry_group_IT_number 2
_symmetry_cell_setting 'triclinic'
loop_
_space_group_symop_operation_xyz
x,y,z
-x,-y,-z
loop_
_atom_site_type_symbol
_atom_site_label
_atom_site_fract_x
_atom_site_fract_y
_atom_site_fract_z
Si Si1 0.686968 0.765299 0.581777
Si Si2 0.543018 0.372702 0.816883
Si Si3 0.887051 0.814800 0.649044
Si Si4 0.861338 0.436627 0.133817
Si Si5 0.588986 0.285298 0.500888
Si Si6 0.804194 0.499346 0.434425
Si Si7 0.096530 0.037673 0.699279
Si Si8 0.971242 0.109675 0.856081
O O1 0.626623 0.533282 0.754253
O O2 0.839985 0.753046 0.613146
O O3 0.765403 0.807353 0.451522
O O4 0.500000 0.000000 0.500000
O O5 0.349455 0.361804 0.914271
O O6 0.467391 0.559637 0.654799
O O7 0.743844 0.159884 0.869712
O O8 0.020101 0.610736 0.790308
O O9 0.689080 0.993128 0.634737
O O10 0.000000 0.000000 0.500000
O O11 0.849629 0.185008 0.246090
O O12 0.000000 0.500000 0.000000
O O13 0.735961 0.399235 0.434490
O O14 0.398311 0.336452 0.571946
O O15 0.894709 0.250592 0.608012
O O16 0.947864 0.657955 0.300054
O O17 0.086231 0.965986 0.834002
O O18 0.000000 0.000000 0.000000
#
# Coordination Sequence:
#
# PCOD9054853 Si02
#       8
#     2   2   2   2   2   2   2   2
#     4  12  21  37  74 107 131 173 241 291 331 397
#     4  12  24  44  68 101 137 184 227 290 346 406
#     4  12  21  40  69 101 137 179 232 282 337 401
#     4  12  28  46  67 104 145 183 225 287 354 415
#     4  11  21  38  71 105 130 173 241 283 330 401
#     4  11  23  40  72 102 132 177 237 283 333 407
#     4  12  22  45  73  99 134 184 233 284 335 404
#     4  12  29  47  67 101 145 184 224 286 356 419
#
# _framework density 22.970794000000001
#
# number of rings (size 3 to 8) (size 9 to 14) (size 15 to 20)
#    0.000    0.250    8.750    1.125    0.000    3.000 
#    0.000    2.500    0.000    0.000    0.000    0.000 
#    0.000    0.000    0.000    0.000    0.000    0.000 
#
# Total GULP energy -89211.912115 kJ/mol
# GULP energy per Si atom -5575.744507 kJ/mol
# Density = 2.291851 g / cm^3
# Si number density = 22.970794 Si / 1000 Ang^3
#
#
#
# Elastic Constant Matrix: (Units=GPa)
#
#
# Indices 1 2 3 4 5 6 
#
# 1 119.1683 23.6059 19.4422 22.8055 4.0677 -2.4290
# 2 23.6059 104.9788 1.0277 24.2450 0.3476 -21.4515
# 3 19.4422 1.0277 54.0722 32.5413 -1.6818 -1.5359
# 4 22.8055 24.2450 32.5413 36.6138 3.6372 -8.3801
# 5 4.0677 0.3476 -1.6818 3.6372 26.7350 7.7231
# 6 -2.4290 -21.4515 -1.5359 -8.3801 7.7231 52.3220
#
#
#
# Elastic Compliance Matrix: (Units=1/GPa)
#
#
# Indices 1 2 3 4 5 6 
#
# 1 0.009651 -0.001213 -0.000623 -0.004760 -0.000631 -0.000737
# 2 -0.001213 0.014637 0.011705 -0.018924 0.002469 0.002893
# 3 -0.000623 0.011705 0.052754 -0.056507 0.012261 -0.004541
# 4 -0.004760 -0.018924 -0.056507 0.096799 -0.018225 0.008556
# 5 -0.000631 0.002469 0.012261 -0.018225 0.043008 -0.007924
# 6 -0.000737 0.002893 -0.004541 0.008556 -0.007924 0.022671
#
#
# Mechanical properties :
#
#
# Convention : Reuss Voigt Hill
#
# Bulk Modulus (GPa) = 10.33253 40.70788 25.52020
# Shear Modulus (GPa) = 19.83800 38.74374 29.29087
#
# Velocity S-wave (km/s) = 2.94193 4.11134 3.57478
# Velocity P-wave (km/s) = 4.00597 6.34804 5.30779
#
# Compressibility (1/GPa) = 0.09678174
#
# Stress axis : x y z
#
# Youngs Moduli (GPa) = 103.61697 68.31846 18.95581
#
# Poissons Ratio (x) = 0.08288 0.01180
# Poissons Ratio (y) = 0.12570 -0.22189
# Poissons Ratio (z) = 0.06452 -0.79969
#
# Static dielectric constant tensor:
#      x y z
#    x 1.901270 0.006050 -0.122740 
#    y 0.006050 2.017780 -0.026330 
#    z -0.122740 -0.026330 1.749250 
# 
# From -- ./inp_files/320142.got.cif
#   From: 2010.05.17/outbox.cif.g08.bks.cpg/sg2_161_cif.got.tgz:320142.got - 2010.06.03 11:33:40.
