data_PCOD9054830
_publ_section_title
;
Structure prediction by ZEFSAII (Michael W. Deem and Ramdas Pophale) SiO2 
 PCOD9054830
Probable space group: P -1
;
_chemical_formula_sum "Si O2"
_cell_formula_units_Z 16
_cell_length_a 8.968631
_cell_length_b 25.312391
_cell_length_c 15.992418
_cell_angle_alpha 18.404053
_cell_angle_beta 47.164620
_cell_angle_gamma 47.705220
_cell_volume 834.446576
_symmetry_space_group_name_H-M "P -1"
_symmetry_group_IT_number 2
_symmetry_cell_setting 'triclinic'
loop_
_space_group_symop_operation_xyz
x,y,z
-x,-y,-z
loop_
_atom_site_type_symbol
_atom_site_label
_atom_site_fract_x
_atom_site_fract_y
_atom_site_fract_z
Si Si1 0.958378 0.506200 0.240797
Si Si2 0.066589 0.933159 0.806641
Si Si3 0.903629 0.600960 0.306432
Si Si4 0.107229 0.122585 0.338015
Si Si5 0.577398 0.340858 0.621663
Si Si6 0.297679 0.982608 0.052515
Si Si7 0.835254 0.865049 0.284934
Si Si8 0.583786 0.120144 0.114637
O O1 0.984209 0.522819 0.305553
O O2 0.720807 0.487013 0.341402
O O3 0.075371 0.325159 0.441919
O O4 0.999296 0.684739 0.919531
O O5 0.272945 0.865110 0.881178
O O6 0.101544 0.063737 0.524496
O O7 0.900241 0.004425 0.832424
O O8 0.968258 0.785968 0.016825
O O9 0.658826 0.609864 0.382860
O O10 0.000000 0.500000 0.500000
O O11 0.345891 0.115613 0.231404
O O12 0.000000 0.000000 0.500000
O O13 0.663791 0.192425 0.748918
O O14 0.602747 0.262462 0.823101
O O15 0.500000 0.000000 0.000000
O O16 0.272752 0.129756 0.771731
O O17 0.683059 0.949458 0.286341
O O18 0.000000 0.000000 0.000000
#
# Coordination Sequence:
#
# PCOD9054830 Si02
#       8
#     2   2   2   2   2   2   2   2
#     4  12  23  42  65  97 131 172 218 264 335 384
#     4  12  23  43  65  95 132 174 217 266 319 399
#     4  12  24  35  64 100 134 155 217 279 329 379
#     4  12  27  46  63  90 137 185 220 258 321 398
#     4  11  21  39  66 101 127 167 209 282 334 378
#     4  11  21  38  68 100 129 163 210 271 336 381
#     4  11  21  41  70  98 128 159 208 281 337 379
#     4  11  22  44  71  94 130 173 222 266 332 385
#
# _framework density 19.174385999999998
#
# number of rings (size 3 to 8) (size 9 to 14) (size 15 to 20)
#    0.000    0.500    7.500    2.250    3.500    0.000 
#    0.000    3.125    0.000    0.000    0.000    0.000 
#    0.000    0.000    0.000    0.000    0.000    0.000 
#
# Total GULP energy -89372.724794 kJ/mol
# GULP energy per Si atom -5585.795300 kJ/mol
# Density = 1.913074 g / cm^3
# Si number density = 19.174386 Si / 1000 Ang^3
#
#
#
# Elastic Constant Matrix: (Units=GPa)
#
#
# Indices 1 2 3 4 5 6 
#
# 1 125.2053 -2.1230 29.3796 0.3013 5.8644 -0.5105
# 2 -2.1230 73.4476 15.2998 -16.1855 -5.1022 -1.9498
# 3 29.3796 15.2998 101.8793 -15.5578 2.5926 0.7706
# 4 0.3013 -16.1855 -15.5578 31.0801 -0.5911 5.0960
# 5 5.8644 -5.1022 2.5926 -0.5911 27.2816 -2.1554
# 6 -0.5105 -1.9498 0.7706 5.0960 -2.1554 28.7956
#
#
#
# Elastic Compliance Matrix: (Units=1/GPa)
#
#
# Indices 1 2 3 4 5 6 
#
# 1 0.008715 0.000436 -0.002744 -0.001322 -0.001530 0.000377
# 2 0.000436 0.015814 -0.001424 0.007576 0.003164 0.000013
# 3 -0.002744 -0.001424 0.011669 0.005351 -0.000785 -0.001463
# 4 -0.001322 0.007576 0.005351 0.039924 0.001536 -0.006604
# 5 -0.001530 0.003164 -0.000785 0.001536 0.037902 0.002773
# 6 0.000377 0.000013 -0.001463 -0.006604 0.002773 0.036151
#
#
# Mechanical properties :
#
#
# Convention : Reuss Voigt Hill
#
# Bulk Modulus (GPa) = 34.80383 42.84945 38.82664
# Shear Modulus (GPa) = 29.90115 34.62982 32.26548
#
# Velocity S-wave (km/s) = 3.95325 4.25437 4.10657
# Velocity P-wave (km/s) = 6.24725 6.82119 6.54052
#
# Compressibility (1/GPa) = 0.02873247
#
# Stress axis : x y z
#
# Youngs Moduli (GPa) = 114.74976 63.23434 85.69689
#
# Poissons Ratio (x) = -0.02757 0.23518
# Poissons Ratio (y) = -0.05003 0.12206
# Poissons Ratio (z) = 0.31492 0.09006
#
# Static dielectric constant tensor:
#      x y z
#    x 1.705420 -0.008790 0.009370 
#    y -0.008790 1.679290 -0.028980 
#    z 0.009370 -0.028980 1.694960 
# 
# From -- ./inp_files/508694.got.cif
#   From: 2010.05.17/outbox.cif.g08.bks.cpg/sg2_255_cif.got.tgz:508694.got - 2010.06.03 11:33:40.
