data_PCOD9054825
_publ_section_title
;
Structure prediction by ZEFSAII (Michael W. Deem and Ramdas Pophale) SiO2 
 PCOD9054825
Probable space group: P -1
;
_chemical_formula_sum "Si O2"
_cell_formula_units_Z 16
_cell_length_a 15.198329
_cell_length_b 12.010997
_cell_length_c 20.103042
_cell_angle_alpha 27.248221
_cell_angle_beta 150.548219
_cell_angle_gamma 150.743417
_cell_volume 743.212780
_symmetry_space_group_name_H-M "P -1"
_symmetry_group_IT_number 2
_symmetry_cell_setting 'triclinic'
loop_
_space_group_symop_operation_xyz
x,y,z
-x,-y,-z
loop_
_atom_site_type_symbol
_atom_site_label
_atom_site_fract_x
_atom_site_fract_y
_atom_site_fract_z
Si Si1 0.123955 0.817377 0.556488
Si Si2 0.689041 0.468048 0.502098
Si Si3 0.206223 0.771947 0.492416
Si Si4 0.404952 0.129417 0.692120
Si Si5 0.266210 0.375304 0.926695
Si Si6 0.797991 0.206330 0.834481
Si Si7 0.435456 0.278057 0.303684
Si Si8 0.229480 0.569527 0.944223
O O1 0.188744 0.914903 0.472810
O O2 0.178263 0.562882 0.734816
O O3 0.892401 0.700062 0.482677
O O4 0.248508 0.032054 0.579991
O O5 0.588828 0.606112 0.410759
O O6 0.749963 0.280758 0.689455
O O7 0.550723 0.331729 0.421044
O O8 0.399181 0.708734 0.648431
O O9 0.000000 0.500000 0.500000
O O10 0.252225 0.981253 0.350187
O O11 0.610942 0.158568 0.782388
O O12 0.324752 0.883103 0.822456
O O13 0.241983 0.412185 0.969219
O O14 0.500000 0.500000 0.000000
O O15 0.174921 0.067051 0.007567
O O16 0.994293 0.448743 0.864134
O O17 0.349916 0.491356 0.119426
#
# Coordination Sequence:
#
# PCOD9054825 Si02
#       8
#     2   2   2   2   2   2   2   2
#     4  11  22  42  70  99 128 178 219 277 334 385
#     4  12  25  46  69  98 134 182 224 271 325 400
#     4  11  24  41  67  98 141 177 215 271 344 401
#     4  11  25  46  70  95 135 175 229 277 323 385
#     4  11  21  38  67  96 133 163 213 278 338 379
#     4  12  24  41  70 100 129 173 225 277 333 387
#     4  11  27  42  65 101 140 173 222 271 333 404
#     4  11  25  42  65  99 131 176 218 278 332 395
#
# _framework density 21.528155000000002
#
# number of rings (size 3 to 8) (size 9 to 14) (size 15 to 20)
#    0.000    0.750    6.250    2.625    5.250    0.500 
#    0.000    0.625    0.000    0.000    0.000    0.000 
#    0.000    0.000    0.000    0.000    0.000    0.000 
#
# Total GULP energy -89502.909485 kJ/mol
# GULP energy per Si atom -5593.931843 kJ/mol
# Density = 2.147916 g / cm^3
# Si number density = 21.528155 Si / 1000 Ang^3
#
#
#
# Elastic Constant Matrix: (Units=GPa)
#
#
# Indices 1 2 3 4 5 6 
#
# 1 51.4371 21.1611 -5.1410 -6.2835 5.1541 3.2047
# 2 21.1611 71.4743 7.9059 4.1621 -0.8247 24.3653
# 3 -5.1410 7.9059 38.9706 5.6387 -5.9967 -1.7531
# 4 -6.2835 4.1621 5.6387 24.5559 -1.4224 3.4817
# 5 5.1541 -0.8247 -5.9967 -1.4224 23.3665 -1.8273
# 6 3.2047 24.3653 -1.7531 3.4817 -1.8273 38.5348
#
#
#
# Elastic Compliance Matrix: (Units=1/GPa)
#
#
# Indices 1 2 3 4 5 6 
#
# 1 0.024577 -0.009177 0.003692 0.006307 -0.004166 0.003159
# 2 -0.009177 0.022005 -0.005836 -0.002867 0.000100 -0.013152
# 3 0.003692 -0.005836 0.029351 -0.005202 0.006626 0.005503
# 4 0.006307 -0.002867 -0.005202 0.044420 -0.000356 -0.002978
# 5 -0.004166 0.000100 0.006626 -0.000356 0.045615 0.002780
# 6 0.003159 -0.013152 0.005503 -0.002978 0.002780 0.034655
#
#
# Mechanical properties :
#
#
# Convention : Reuss Voigt Hill
#
# Bulk Modulus (GPa) = 18.76472 23.30377 21.03424
# Shear Modulus (GPa) = 20.74437 26.48850 23.61644
#
# Velocity S-wave (km/s) = 3.10755 3.51153 3.31570
# Velocity P-wave (km/s) = 4.64877 5.22393 4.94472
#
# Compressibility (1/GPa) = 0.05329149
#
# Stress axis : x y z
#
# Youngs Moduli (GPa) = 40.68866 45.44348 34.07005
#
# Poissons Ratio (x) = 0.41704 -0.12580
# Poissons Ratio (y) = 0.37341 0.19884
# Poissons Ratio (z) = -0.15024 0.26522
#
# Static dielectric constant tensor:
#      x y z
#    x 1.795740 0.008830 -0.029660 
#    y 0.008830 1.819240 0.007950 
#    z -0.029660 0.007950 1.798800 
# 
# From -- ./inp_files/597817.got.cif
#   From: 2010.05.17/outbox.cif.g08.bks.cpg/sg2_299_cif.got.tgz:597817.got - 2010.06.03 11:33:40.
