data_PCOD9054424
_publ_section_title
;
Structure prediction by ZEFSAII (Michael W. Deem and Ramdas Pophale) SiO2 
 PCOD9054424
Probable space group: P -1
;
_chemical_formula_sum "Si O2"
_cell_formula_units_Z 16
_cell_length_a 11.940383
_cell_length_b 14.920879
_cell_length_c 10.836775
_cell_angle_alpha 143.511751
_cell_angle_beta 54.127321
_cell_angle_gamma 144.253378
_cell_volume 658.308037
_symmetry_space_group_name_H-M "P -1"
_symmetry_group_IT_number 2
_symmetry_cell_setting 'triclinic'
loop_
_space_group_symop_operation_xyz
x,y,z
-x,-y,-z
loop_
_atom_site_type_symbol
_atom_site_label
_atom_site_fract_x
_atom_site_fract_y
_atom_site_fract_z
Si Si1 0.028852 0.935632 0.635672
Si Si2 0.637347 0.469323 0.422835
Si Si3 0.125271 0.923970 0.954239
Si Si4 0.709324 0.480793 0.662144
Si Si5 0.509115 0.077007 0.945588
Si Si6 0.623178 0.738495 0.048530
Si Si7 0.667089 0.252437 0.671662
Si Si8 0.131231 0.732812 0.231224
O O1 0.853599 0.701862 0.544593
O O2 0.946791 0.041051 0.837376
O O3 0.064706 0.857124 0.405551
O O4 0.235802 0.097426 0.750869
O O5 0.500000 0.500000 0.500000
O O6 0.617010 0.387167 0.483223
O O7 0.600009 0.312425 0.173059
O O8 0.286579 0.923872 0.877838
O O9 0.244025 0.124973 0.006981
O O10 0.935287 0.709883 0.774445
O O11 0.702402 0.342865 0.613214
O O12 0.593477 0.537718 0.851450
O O13 0.656354 0.110762 0.795519
O O14 0.500000 0.000000 0.000000
O O15 0.424064 0.678738 0.114851
O O16 0.843725 0.308249 0.689678
O O17 0.500000 0.000000 0.500000
O O18 0.000000 0.500000 0.000000
#
# Coordination Sequence:
#
# PCOD9054424 Si02
#       8
#     2   2   2   2   2   2   2   2
#     4  11  21  42  72 103 135 189 234 287 357 428
#     4  12  23  44  74 109 140 186 242 296 359 428
#     4  11  22  46  76 103 143 188 242 297 359 432
#     4  11  25  42  76 110 137 189 250 297 352 437
#     4  12  28  45  71 104 146 187 239 298 363 430
#     4  11  20  44  73 103 140 182 242 295 355 428
#     4  12  27  46  69 103 151 193 235 300 368 418
#     4  12  27  45  69 101 147 191 233 297 365 420
#
# _framework density 24.304729999999999
#
# number of rings (size 3 to 8) (size 9 to 14) (size 15 to 20)
#    0.000    0.500    7.500    1.125    3.500    0.000 
#    0.000    2.500    0.000    0.000    0.000    0.000 
#    0.000    0.000    0.000    0.000    0.000    0.000 
#
# Total GULP energy -89385.524225 kJ/mol
# GULP energy per Si atom -5586.595264 kJ/mol
# Density = 2.424941 g / cm^3
# Si number density = 24.304730 Si / 1000 Ang^3
#
#
#
# Elastic Constant Matrix: (Units=GPa)
#
#
# Indices 1 2 3 4 5 6 
#
# 1 97.6172 53.2270 15.2394 -5.3479 3.7041 -4.7233
# 2 53.2270 73.5642 19.0111 -20.0927 -8.9264 1.9112
# 3 15.2394 19.0111 108.0660 -16.5383 3.3242 11.5995
# 4 -5.3479 -20.0927 -16.5383 33.2926 8.4710 -6.7063
# 5 3.7041 -8.9264 3.3242 8.4710 34.8660 -5.6556
# 6 -4.7233 1.9112 11.5995 -6.7063 -5.6556 40.8595
#
#
#
# Elastic Compliance Matrix: (Units=1/GPa)
#
#
# Indices 1 2 3 4 5 6 
#
# 1 0.018653 -0.015274 -0.000782 -0.005187 -0.004290 0.001648
# 2 -0.015274 0.029267 -0.001197 0.013109 0.006077 0.000198
# 3 -0.000782 -0.001197 0.010655 0.004615 -0.002797 -0.002689
# 4 -0.005187 0.013109 0.004615 0.041656 -0.006091 0.003471
# 5 -0.004290 0.006077 -0.002797 -0.006091 0.033021 0.003585
# 6 0.001648 0.000198 -0.002689 0.003471 0.003585 0.026485
#
#
# Mechanical properties :
#
#
# Convention : Reuss Voigt Hill
#
# Bulk Modulus (GPa) = 41.54662 50.46694 46.00678
# Shear Modulus (GPa) = 24.71984 34.58829 29.65407
#
# Velocity S-wave (km/s) = 3.19263 3.77650 3.49677
# Velocity P-wave (km/s) = 5.54271 6.31073 5.93915
#
# Compressibility (1/GPa) = 0.02406935
#
# Stress axis : x y z
#
# Youngs Moduli (GPa) = 53.61047 34.16794 93.84935
#
# Poissons Ratio (x) = 0.52189 0.07340
# Poissons Ratio (y) = 0.81887 0.11231
# Poissons Ratio (z) = 0.04193 0.04089
#
# Static dielectric constant tensor:
#      x y z
#    x 1.975880 -0.026560 -0.046980 
#    y -0.026560 1.955410 -0.053250 
#    z -0.046980 -0.053250 2.013660 
# 
# From -- ./inp_files/434297.got.cif
#   From: 2010.05.17/outbox.cif.g08.bks.cpg/sg2_218_cif.got.tgz:434297.got - 2010.06.03 11:33:40.
