data_PCOD9054261
_publ_section_title
;
Structure prediction by ZEFSAII (Michael W. Deem and Ramdas Pophale) SiO2 
 PCOD9054261
Probable space group: P -1
;
_chemical_formula_sum "Si O2"
_cell_formula_units_Z 16
_cell_length_a 12.155878
_cell_length_b 13.062622
_cell_length_c 9.617010
_cell_angle_alpha 111.135212
_cell_angle_beta 60.857525
_cell_angle_gamma 61.867227
_cell_volume 755.734673
_symmetry_space_group_name_H-M "P -1"
_symmetry_group_IT_number 2
_symmetry_cell_setting 'triclinic'
loop_
_space_group_symop_operation_xyz
x,y,z
-x,-y,-z
loop_
_atom_site_type_symbol
_atom_site_label
_atom_site_fract_x
_atom_site_fract_y
_atom_site_fract_z
Si Si1 0.099820 0.519795 0.052410
Si Si2 0.559707 0.562900 0.312354
Si Si3 0.263441 0.779788 0.075570
Si Si4 0.433697 0.321306 0.358352
Si Si5 0.792553 0.152917 0.540135
Si Si6 0.737430 0.934927 0.432643
Si Si7 0.032425 0.414791 0.296114
Si Si8 0.371048 0.030581 0.801053
O O1 0.938906 0.730996 0.262057
O O2 0.117768 0.444117 0.147871
O O3 0.315057 0.417809 0.813782
O O4 0.000000 0.500000 0.000000
O O5 0.526811 0.612321 0.517877
O O6 0.347118 0.700041 0.423856
O O7 0.700131 0.360608 0.093324
O O8 0.264937 0.759679 0.230568
O O9 0.446011 0.730532 0.881433
O O10 0.039341 0.987987 0.282848
O O11 0.189488 0.476391 0.563644
O O12 0.522995 0.147101 0.281150
O O13 0.744527 0.056187 0.529353
O O14 0.727524 0.933018 0.269818
O O15 0.542345 0.003976 0.647282
O O16 0.000000 0.500000 0.500000
O O17 0.196744 0.203005 0.091062
#
# Coordination Sequence:
#
# PCOD9054261 Si02
#       8
#     2   2   2   2   2   2   2   2
#     4  12  21  42  72 103 133 170 226 272 330 410
#     4  12  23  45  74  96 130 181 230 275 327 395
#     4  11  28  46  64  98 139 174 228 282 328 395
#     4  12  26  45  69 102 137 176 224 275 337 401
#     4  11  25  46  69  96 129 183 228 274 335 388
#     4  11  20  41  74  98 130 173 223 281 325 396
#     4  12  28  43  65 106 144 174 212 276 349 398
#     4  11  23  42  70 102 133 171 221 275 339 400
#
# _framework density 21.171451999999999
#
# number of rings (size 3 to 8) (size 9 to 14) (size 15 to 20)
#    0.000    0.500    6.250    1.500    3.500    3.000 
#    0.000    0.000    0.000    0.000    0.000    0.000 
#    0.000    0.000    0.000    0.000    0.000    0.000 
#
# Total GULP energy -89564.659411 kJ/mol
# GULP energy per Si atom -5597.791213 kJ/mol
# Density = 2.112326 g / cm^3
# Si number density = 21.171452 Si / 1000 Ang^3
#
#
#
# Elastic Constant Matrix: (Units=GPa)
#
#
# Indices 1 2 3 4 5 6 
#
# 1 41.3693 -5.4365 23.4804 -1.0176 2.4377 -2.1367
# 2 -5.4365 17.0723 22.4065 6.8721 3.0389 -3.0773
# 3 23.4804 22.4065 119.8072 14.3120 13.7841 -5.6584
# 4 -1.0176 6.8721 14.3120 30.7281 -1.0902 -5.0502
# 5 2.4377 3.0389 13.7841 -1.0902 38.5382 -1.1364
# 6 -2.1367 -3.0773 -5.6584 -5.0502 -1.1364 38.2941
#
#
#
# Elastic Compliance Matrix: (Units=1/GPa)
#
#
# Indices 1 2 3 4 5 6 
#
# 1 0.034404 0.026270 -0.011676 0.001106 0.000032 0.002452
# 2 0.026270 0.101991 -0.022503 -0.010723 -0.001815 0.004869
# 3 -0.011676 -0.022503 0.015508 -0.002791 -0.003131 -0.000629
# 4 0.001106 -0.010723 -0.002791 0.036999 0.002931 0.003754
# 5 0.000032 -0.001815 -0.003131 0.002931 0.027310 0.000590
# 6 0.002452 0.004869 -0.000629 0.003754 0.000590 0.027061
#
#
# Mechanical properties :
#
#
# Convention : Reuss Voigt Hill
#
# Bulk Modulus (GPa) = 7.34837 28.79440 18.07138
# Shear Modulus (GPa) = 16.42294 30.69864 23.56079
#
# Velocity S-wave (km/s) = 2.78818 3.81202 3.33957
# Velocity P-wave (km/s) = 3.72071 5.74504 4.83989
#
# Compressibility (1/GPa) = 0.13608469
#
# Stress axis : x y z
#
# Youngs Moduli (GPa) = 29.06670 9.80475 64.48457
#
# Poissons Ratio (x) = -0.25757 0.75290
# Poissons Ratio (y) = -0.76359 1.45112
# Poissons Ratio (z) = 0.33937 0.22064
#
# Static dielectric constant tensor:
#      x y z
#    x 1.763660 0.002240 -0.005620 
#    y 0.002240 1.750460 0.005370 
#    z -0.005620 0.005370 1.766100 
# 
# From -- ./inp_files/274058.got.cif
#   From: 2010.05.17/outbox.cif.g08.bks.cpg/sg2_138_cif.got.tgz:274058.got - 2010.06.03 11:33:40.
