data_PCOD9054884
_publ_section_title
;
Structure prediction by ZEFSAII (Michael W. Deem and Ramdas Pophale) SiO2 
 PCOD9054884
Probable space group: P -1
;
_chemical_formula_sum "Si O2"
_cell_formula_units_Z 16
_cell_length_a 12.421535
_cell_length_b 9.576824
_cell_length_c 9.770909
_cell_angle_alpha 111.302816
_cell_angle_beta 56.031279
_cell_angle_gamma 124.923693
_cell_volume 788.764338
_symmetry_space_group_name_H-M "P -1"
_symmetry_group_IT_number 2
_symmetry_cell_setting 'triclinic'
loop_
_space_group_symop_operation_xyz
x,y,z
-x,-y,-z
loop_
_atom_site_type_symbol
_atom_site_label
_atom_site_fract_x
_atom_site_fract_y
_atom_site_fract_z
Si Si1 0.894254 0.603150 0.762132
Si Si2 0.383178 0.986959 0.962628
Si Si3 0.306538 0.525737 0.651927
Si Si4 0.365774 0.259420 0.628446
Si Si5 0.413920 0.972679 0.412281
Si Si6 0.153793 0.617736 0.016096
Si Si7 0.176130 0.624184 0.528631
Si Si8 0.367960 0.314376 0.976147
O O1 0.878484 0.528094 0.594838
O O2 0.787028 0.683963 0.888028
O O3 0.071971 0.704536 0.679291
O O4 0.855547 0.457731 0.853303
O O5 0.460825 0.958467 0.764863
O O6 0.221684 0.823047 0.043091
O O7 0.500000 0.000000 0.000000
O O8 0.375855 0.161573 0.999541
O O9 0.271221 0.336330 0.650708
O O10 0.468814 0.626370 0.507544
O O11 0.280039 0.596487 0.837404
O O12 0.209676 0.551987 0.615827
O O13 0.323453 0.074663 0.533771
O O14 0.373298 0.281201 0.796158
O O15 0.500000 0.000000 0.500000
O O16 0.311223 0.772493 0.404574
O O17 0.000000 0.500000 0.000000
O O18 0.500000 0.500000 0.000000
#
# Coordination Sequence:
#
# PCOD9054884 Si02
#       8
#     2   2   2   2   2   2   2   2
#     4  11  25  43  66  93 132 177 218 264 344 401
#     4  12  26  42  71 100 134 176 224 279 334 400
#     4  11  21  39  62  94 128 168 215 268 323 391
#     4  11  23  36  66  97 129 167 222 273 331 383
#     4  12  21  41  65  94 127 169 223 268 328 388
#     4  12  23  43  67  99 136 176 223 275 333 402
#     4  11  23  44  66  91 129 179 216 269 333 405
#     4  12  24  43  65  99 136 171 225 283 337 395
#
# _framework density 20.284893
#
# number of rings (size 3 to 8) (size 9 to 14) (size 15 to 20)
#    0.000    0.500    6.250    3.000    0.000    1.000 
#    2.250    1.250    0.000    3.750    0.000    0.000 
#    0.000    0.000    0.000    0.000    0.000    0.000 
#
# Total GULP energy -89149.769664 kJ/mol
# GULP energy per Si atom -5571.860604 kJ/mol
# Density = 2.023872 g / cm^3
# Si number density = 20.284893 Si / 1000 Ang^3
#
#
#
# Elastic Constant Matrix: (Units=GPa)
#
#
# Indices 1 2 3 4 5 6 
#
# 1 83.7412 37.9798 5.5823 -5.1513 -9.7356 -14.1990
# 2 37.9798 107.6152 -8.3271 -9.6101 -3.3713 -24.1295
# 3 5.5823 -8.3271 80.2866 -8.6332 -6.3335 -2.0123
# 4 -5.1513 -9.6101 -8.6332 30.0967 -6.3188 -3.7948
# 5 -9.7356 -3.3713 -6.3335 -6.3188 33.4015 5.5428
# 6 -14.1990 -24.1295 -2.0123 -3.7948 5.5428 27.1882
#
#
#
# Elastic Compliance Matrix: (Units=1/GPa)
#
#
# Indices 1 2 3 4 5 6 
#
# 1 0.015108 -0.004290 -0.000886 0.002174 0.003619 0.003583
# 2 -0.004290 0.014072 0.002673 0.005934 -0.000074 0.011290
# 3 -0.000886 0.002673 0.013735 0.005697 0.003184 0.003072
# 4 0.002174 0.005934 0.005697 0.040192 0.008128 0.010776
# 5 0.003619 -0.000074 0.003184 0.008128 0.033739 -0.003684
# 6 0.003583 0.011290 0.003072 0.010776 -0.003684 0.051154
#
#
# Mechanical properties :
#
#
# Convention : Reuss Voigt Hill
#
# Bulk Modulus (GPa) = 26.37889 38.01253 32.19571
# Shear Modulus (GPa) = 26.93338 33.89782 30.41560
#
# Velocity S-wave (km/s) = 3.64779 4.09233 3.87644
# Velocity P-wave (km/s) = 5.54746 6.41167 5.99516
#
# Compressibility (1/GPa) = 0.03790911
#
# Stress axis : x y z
#
# Youngs Moduli (GPa) = 66.18928 71.06259 72.80642
#
# Poissons Ratio (x) = 0.30484 0.06453
# Poissons Ratio (y) = 0.28393 -0.19461
# Poissons Ratio (z) = 0.05867 -0.18995
#
# Static dielectric constant tensor:
#      x y z
#    x 1.792080 0.018890 -0.032890 
#    y 0.018890 1.724790 -0.051400 
#    z -0.032890 -0.051400 1.641960 
# 
# From -- ./inp_files/244441.got.cif
#   From: 2010.05.17/outbox.cif.g08.bks.cpg/sg2_123_cif.got.tgz:244441.got - 2010.06.03 11:33:40.
