data_PCOD9054767
_publ_section_title
;
Structure prediction by ZEFSAII (Michael W. Deem and Ramdas Pophale) SiO2 
 PCOD9054767
Probable space group: P -1
;
_chemical_formula_sum "Si O2"
_cell_formula_units_Z 16
_cell_length_a 21.416473
_cell_length_b 12.509900
_cell_length_c 22.027893
_cell_angle_alpha 151.639210
_cell_angle_beta 162.120847
_cell_angle_gamma 26.337152
_cell_volume 787.823489
_symmetry_space_group_name_H-M "P -1"
_symmetry_group_IT_number 2
_symmetry_cell_setting 'triclinic'
loop_
_space_group_symop_operation_xyz
x,y,z
-x,-y,-z
loop_
_atom_site_type_symbol
_atom_site_label
_atom_site_fract_x
_atom_site_fract_y
_atom_site_fract_z
Si Si1 0.810888 0.781754 0.831760
Si Si2 0.682579 0.514045 0.127913
Si Si3 0.021574 0.754609 0.135873
Si Si4 0.190057 0.158464 0.415638
Si Si5 0.707411 0.336860 0.814726
Si Si6 0.750231 0.987953 0.465720
Si Si7 0.477577 0.537379 0.589705
Si Si8 0.548598 0.300751 0.783866
O O1 0.691732 0.595748 0.636604
O O2 0.681702 0.018061 0.788843
O O3 0.853913 0.864233 0.979916
O O4 0.055970 0.644674 0.961531
O O5 0.729131 0.759167 0.298537
O O6 0.929526 0.301423 0.257405
O O7 0.500000 0.500000 0.000000
O O8 0.599114 0.473055 0.964428
O O9 0.280379 0.643289 0.300313
O O10 0.026241 0.954163 0.289021
O O11 0.000000 0.500000 0.000000
O O12 0.295856 0.074972 0.538780
O O13 0.294776 0.333815 0.570767
O O14 0.246483 0.926922 0.306925
O O15 0.529046 0.548724 0.714181
O O16 0.624452 0.330953 0.802288
O O17 0.597703 0.223881 0.402677
#
# Coordination Sequence:
#
# PCOD9054767 Si02
#       8
#     2   2   2   2   2   2   2   2
#     4  11  21  38  64 100 130 167 214 274 340 382
#     4  12  28  45  65  97 138 186 219 261 331 410
#     4  11  22  35  60  96 133 169 215 274 332 389
#     4  12  24  41  67 102 130 171 226 275 333 390
#     4  11  24  41  69 105 130 169 227 285 331 382
#     4  12  23  42  65  95 142 172 215 271 331 404
#     4  11  24  39  62 101 134 169 216 277 342 385
#     4  12  24  43  68  98 136 175 224 280 329 386
#
# _framework density 20.309116
#
# number of rings (size 3 to 8) (size 9 to 14) (size 15 to 20)
#    0.000    0.500    7.500    1.500    1.750    1.000 
#    0.000    0.625    0.000    1.500    0.000    0.000 
#    0.000    0.000    0.000    0.000    0.000    0.000 
#
# Total GULP energy -89194.220066 kJ/mol
# GULP energy per Si atom -5574.638754 kJ/mol
# Density = 2.026289 g / cm^3
# Si number density = 20.309116 Si / 1000 Ang^3
#
#
#
# Elastic Constant Matrix: (Units=GPa)
#
#
# Indices 1 2 3 4 5 6 
#
# 1 133.4049 43.7812 69.5210 1.9394 -7.8082 6.7185
# 2 43.7812 32.3082 37.1349 5.6535 -5.0166 2.8013
# 3 69.5210 37.1349 139.7125 14.8819 22.9976 -1.4869
# 4 1.9394 5.6535 14.8819 42.8136 4.3825 -0.3965
# 5 -7.8082 -5.0166 22.9976 4.3825 29.7675 0.0293
# 6 6.7185 2.8013 -1.4869 -0.3965 0.0293 18.3229
#
#
#
# Elastic Compliance Matrix: (Units=1/GPa)
#
#
# Indices 1 2 3 4 5 6 
#
# 1 0.015155 -0.014264 -0.004859 0.002341 0.004985 -0.003728
# 2 -0.014264 0.072563 -0.015099 -0.005907 0.021029 -0.007250
# 3 -0.004859 -0.015099 0.016527 -0.001809 -0.016326 0.005418
# 4 0.002341 -0.005907 -0.001809 0.024936 -0.002655 0.000442
# 5 0.004985 0.021029 -0.016326 -0.002655 0.051456 -0.006507
# 6 -0.003728 -0.007250 0.005418 0.000442 -0.006507 0.057512
#
#
# Mechanical properties :
#
#
# Convention : Reuss Voigt Hill
#
# Bulk Modulus (GPa) = 27.93249 67.36664 47.64957
# Shear Modulus (GPa) = 15.69738 28.51335 22.10537
#
# Velocity S-wave (km/s) = 2.78316 3.75102 3.30274
# Velocity P-wave (km/s) = 4.91035 7.21130 6.16905
#
# Compressibility (1/GPa) = 0.03580060
#
# Stress axis : x y z
#
# Youngs Moduli (GPa) = 65.98500 13.78119 60.50865
#
# Poissons Ratio (x) = 0.19657 0.29404
# Poissons Ratio (y) = 0.94119 0.91360
# Poissons Ratio (z) = 0.32065 0.20808
#
# Static dielectric constant tensor:
#      x y z
#    x 1.753440 -0.011620 -0.007790 
#    y -0.011620 1.818680 0.019330 
#    z -0.007790 0.019330 1.836090 
# 
# From -- ./inp_files/601399.got.cif
#   From: 2010.05.17/outbox.cif.g08.bks.cpg/sg2_301_cif.got.tgz:601399.got - 2010.06.03 11:33:40.
