data_PCOD9054303
_publ_section_title
;
Structure prediction by ZEFSAII (Michael W. Deem and Ramdas Pophale) SiO2 
 PCOD9054303
Probable space group: P -1
;
_chemical_formula_sum "Si O2"
_cell_formula_units_Z 16
_cell_length_a 20.806319
_cell_length_b 12.223323
_cell_length_c 9.414099
_cell_angle_alpha 36.339369
_cell_angle_beta 135.905338
_cell_angle_gamma 150.904767
_cell_volume 689.024795
_symmetry_space_group_name_H-M "P -1"
_symmetry_group_IT_number 2
_symmetry_cell_setting 'triclinic'
loop_
_space_group_symop_operation_xyz
x,y,z
-x,-y,-z
loop_
_atom_site_type_symbol
_atom_site_label
_atom_site_fract_x
_atom_site_fract_y
_atom_site_fract_z
Si Si1 0.475506 0.850085 0.426417
Si Si2 0.222772 0.696950 0.506841
Si Si3 0.090790 0.807666 0.002226
Si Si4 0.214911 0.051253 0.658500
Si Si5 0.820252 0.328364 0.215938
Si Si6 0.356919 0.587246 0.219882
Si Si7 0.491196 0.304154 0.930056
Si Si8 0.714944 0.610781 0.169960
O O1 0.451095 0.748251 0.335188
O O2 0.364397 0.597377 0.609768
O O3 0.623165 0.025747 0.530973
O O4 0.461064 0.050992 0.194198
O O5 0.153274 0.701819 0.262121
O O6 0.160134 0.666151 0.590338
O O7 0.220793 0.471746 0.724359
O O8 0.944978 0.597906 0.053715
O O9 0.102343 0.855417 0.801738
O O10 0.179030 0.092211 0.918648
O O11 0.233582 0.282927 0.387472
O O12 0.352889 0.207506 0.796407
O O13 0.205138 0.896444 0.674099
O O14 0.698281 0.294447 0.039538
O O15 0.437226 0.607088 0.200740
O O16 0.600606 0.537517 0.967569
#
# Coordination Sequence:
#
# PCOD9054303 Si02
#       8
#     2   2   2   2   2   2   2   2
#     4  11  20  42  70 100 138 169 220 283 349 389
#     4  11  25  44  72  99 133 180 226 289 333 393
#     4  12  28  46  68  99 139 187 228 270 328 412
#     4  12  26  43  70 103 135 178 229 282 335 402
#     4  12  27  48  68  97 140 186 229 271 331 404
#     4  12  24  43  69 103 137 179 221 281 344 398
#     4  11  22  42  70 103 137 171 223 289 345 393
#     4  11  24  43  68 104 136 178 222 278 347 399
#
# _framework density 23.221226000000001
#
# number of rings (size 3 to 8) (size 9 to 14) (size 15 to 20)
#    0.000    0.500    5.000    5.250    3.500    3.000 
#    0.000    0.000    0.000    0.000    0.000    0.000 
#    0.000    0.000    0.000    0.000    0.000    0.000 
#
# Total GULP energy -89692.004425 kJ/mol
# GULP energy per Si atom -5605.750277 kJ/mol
# Density = 2.316837 g / cm^3
# Si number density = 23.221226 Si / 1000 Ang^3
#
#
#
# Elastic Constant Matrix: (Units=GPa)
#
#
# Indices 1 2 3 4 5 6 
#
# 1 67.3538 33.3964 59.7058 -22.5701 -12.7684 -24.3417
# 2 33.3964 -53.3220 -263.1983 83.5844 -3.1775 111.7939
# 3 59.7058 -263.1983 -678.9568 254.7039 -31.2931 310.3134
# 4 -22.5701 83.5844 254.7039 -65.8135 2.0372 -114.2304
# 5 -12.7684 -3.1775 -31.2931 2.0372 37.1263 7.3352
# 6 -24.3417 111.7939 310.3134 -114.2304 7.3352 -97.9201
#
#
#
# Elastic Compliance Matrix: (Units=1/GPa)
#
#
# Indices 1 2 3 4 5 6 
#
# 1 0.016096 -0.004876 0.002618 0.000113 0.007485 -0.000842
# 2 -0.004876 0.026802 -0.004231 0.011872 -0.004435 0.004222
# 3 0.002618 -0.004231 0.008919 0.011558 0.005503 0.009714
# 4 0.000113 0.011872 0.011558 0.042240 0.008185 0.001491
# 5 0.007485 -0.004435 0.005503 0.008185 0.032645 0.003413
# 6 -0.000842 0.004222 0.009714 0.001491 0.003413 0.024117
#
#
# Mechanical properties :
#
#
# Convention : Reuss Voigt Hill
#
# Bulk Modulus (GPa) = 25.74576 -111.67970 -42.96697
# Shear Modulus (GPa) = 28.28964 -58.31005 -15.01021
#
# Velocity S-wave (km/s) = 3.49415 -5.01649 -2.54520
# Velocity P-wave (km/s) = 5.23355 9.04167 5.21353
#
# Compressibility (1/GPa) = 0.03884135
#
# Stress axis : x y z
#
# Youngs Moduli (GPa) = 62.12624 37.31034 112.11519
#
# Poissons Ratio (x) = 0.18191 -0.29353
# Poissons Ratio (y) = 0.30290 0.47434
# Poissons Ratio (z) = -0.16265 0.15785
#
# Static dielectric constant tensor:
#      x y z
#    x 1.865270 -0.011270 0.001980 
#    y -0.011270 1.843610 0.002730 
#    z 0.001980 0.002730 1.890570 
# 
# From -- ./inp_files/273458.got.cif
#   From: 2010.05.17/outbox.cif.g08.bks.cpg/sg2_137_cif.got.tgz:273458.got - 2010.06.03 11:33:40.
