data_PCOD9054052
_publ_section_title
;
Structure prediction by ZEFSAII (Michael W. Deem and Ramdas Pophale) SiO2 
 PCOD9054052
Probable space group: P -1
;
_chemical_formula_sum "Si O2"
_cell_formula_units_Z 12
_cell_length_a 8.314127
_cell_length_b 13.008365
_cell_length_c 8.260590
_cell_angle_alpha 50.969560
_cell_angle_beta 65.258284
_cell_angle_gamma 80.269154
_cell_volume 624.618013
_symmetry_space_group_name_H-M "P -1"
_symmetry_group_IT_number 2
_symmetry_cell_setting 'triclinic'
loop_
_space_group_symop_operation_xyz
x,y,z
-x,-y,-z
loop_
_atom_site_type_symbol
_atom_site_label
_atom_site_fract_x
_atom_site_fract_y
_atom_site_fract_z
Si Si1 0.846693 0.384158 0.632970
Si Si2 0.833725 0.131846 0.471475
Si Si3 0.031255 0.880333 0.222237
Si Si4 0.815703 0.423116 0.226708
Si Si5 0.522212 0.588062 0.065953
Si Si6 0.228827 0.144363 0.367530
O O1 0.904133 0.239364 0.786999
O O2 0.837301 0.392760 0.435263
O O3 0.000000 0.500000 0.500000
O O4 0.664694 0.407337 0.772311
O O5 0.835231 0.093678 0.702270
O O6 0.769152 0.273574 0.321709
O O7 0.049012 0.155925 0.324567
O O8 0.740064 0.006860 0.533763
O O9 0.844674 0.838054 0.437936
O O10 0.000000 0.000000 0.000000
O O11 0.661352 0.514277 0.181749
O O12 0.000000 0.500000 0.000000
O O13 0.614654 0.739113 0.848784
O O14 0.500000 0.500000 0.000000
#
# Coordination Sequence:
#
# PCOD9054052 Si02
#       6
#     2   2   2   2   2   2
#     4  11  24  40  59  90 122 160 205 250 301 360
#     4   8  18  36  63  86 113 152 202 234 308 357
#     4   9  18  35  58  85 114 152 196 243 296 350
#     4  11  20  40  65  90 120 162 199 250 305 360
#     4  12  24  40  59  91 125 160 206 251 297 362
#     4   9  18  38  60  83 117 154 198 242 298 355
#
# _framework density 19.211742999999998
#
# number of rings (size 3 to 8) (size 9 to 14) (size 15 to 20)
#    1.000    1.000    1.667    2.500    0.000    4.000 
#    0.000   10.000    0.000    0.000    0.000    0.000 
#    0.000    0.000    0.000    0.000    0.000    0.000 
#
# Total GULP energy -66846.734476 kJ/mol
# GULP energy per Si atom -5570.561206 kJ/mol
# Density = 1.916802 g / cm^3
# Si number density = 19.211743 Si / 1000 Ang^3
#
#
#
# Elastic Constant Matrix: (Units=GPa)
#
#
# Indices 1 2 3 4 5 6 
#
# 1 50.1457 45.1847 44.0459 -12.3443 -20.8679 -7.1528
# 2 45.1847 167.2533 67.1002 -17.8879 -23.8770 -14.8668
# 3 44.0459 67.1002 109.0568 -10.0041 -23.5680 -22.5079
# 4 -12.3443 -17.8879 -10.0041 29.3643 -0.8472 -1.1032
# 5 -20.8679 -23.8770 -23.5680 -0.8472 29.8242 -4.3399
# 6 -7.1528 -14.8668 -22.5079 -1.1032 -4.3399 30.6018
#
#
#
# Elastic Compliance Matrix: (Units=1/GPa)
#
#
# Indices 1 2 3 4 5 6 
#
# 1 0.044308 -0.003181 -0.008135 0.014844 0.023421 0.006684
# 2 -0.003181 0.008955 -0.002811 0.003329 0.003123 0.002102
# 3 -0.008135 -0.002811 0.018616 0.001896 0.008525 0.011703
# 4 0.014844 0.003329 0.001896 0.043864 0.017326 0.010520
# 5 0.023421 0.003123 0.008525 0.017326 0.062967 0.022816
# 6 0.006684 0.002102 0.011703 0.010520 0.022816 0.047484
#
#
# Mechanical properties :
#
#
# Convention : Reuss Voigt Hill
#
# Bulk Modulus (GPa) = 22.92281 71.01304 46.96793
# Shear Modulus (GPa) = 18.58810 29.29970 23.94390
#
# Velocity S-wave (km/s) = 3.11390 3.90948 3.53415
# Velocity P-wave (km/s) = 4.98860 7.57775 6.41515
#
# Compressibility (1/GPa) = 0.04362466
#
# Stress axis : x y z
#
# Youngs Moduli (GPa) = 22.56931 111.67317 53.71668
#
# Poissons Ratio (x) = 0.35524 0.43700
# Poissons Ratio (y) = 0.07180 0.15098
# Poissons Ratio (z) = 0.18361 0.31388
#
# Static dielectric constant tensor:
#      x y z
#    x 1.655840 -0.011100 -0.008120 
#    y -0.011100 1.729080 -0.024880 
#    z -0.008120 -0.024880 1.624770 
# 
# From -- ./inp_files/198867.got.cif
#   From: 2010.05.17/outbox.cif.g08.bks.cpg/sg2_100_cif.got.tgz:198867.got - 2010.06.03 11:33:40.
