data_PCOD9054812
_publ_section_title
;
Structure prediction by ZEFSAII (Michael W. Deem and Ramdas Pophale) SiO2 
 PCOD9054812
Probable space group: P -1
;
_chemical_formula_sum "Si O2"
_cell_formula_units_Z 16
_cell_length_a 14.667263
_cell_length_b 12.482062
_cell_length_c 15.502425
_cell_angle_alpha 116.688397
_cell_angle_beta 42.486969
_cell_angle_gamma 150.476186
_cell_volume 770.547295
_symmetry_space_group_name_H-M "P -1"
_symmetry_group_IT_number 2
_symmetry_cell_setting 'triclinic'
loop_
_space_group_symop_operation_xyz
x,y,z
-x,-y,-z
loop_
_atom_site_type_symbol
_atom_site_label
_atom_site_fract_x
_atom_site_fract_y
_atom_site_fract_z
Si Si1 0.752947 0.036909 0.534458
Si Si2 0.676862 0.969523 0.902755
Si Si3 0.213405 0.206963 0.633930
Si Si4 0.254263 0.111945 0.753616
Si Si5 0.633057 0.477076 0.975394
Si Si6 0.308355 0.855730 0.212748
Si Si7 0.401819 0.546738 0.198364
Si Si8 0.662099 0.244151 0.436149
O O1 0.695493 0.062529 0.671616
O O2 0.075714 0.333153 0.377674
O O3 0.795742 0.926124 0.461799
O O4 0.478191 0.848400 0.594133
O O5 0.719055 0.078279 0.826329
O O6 0.951770 0.097534 0.769346
O O7 0.398565 0.654525 0.982481
O O8 0.598576 0.003690 0.044364
O O9 0.500000 0.500000 0.500000
O O10 0.228420 0.181745 0.715958
O O11 0.344346 0.231715 0.827451
O O12 0.534674 0.253164 0.582973
O O13 0.958934 0.795067 0.851791
O O14 0.536086 0.353259 0.903732
O O15 0.411008 0.410290 0.128949
O O16 0.018328 0.537915 0.300049
O O17 0.500000 0.000000 0.500000
#
# Coordination Sequence:
#
# PCOD9054812 Si02
#       8
#     2   2   2   2   2   2   2   2
#     4  11  23  44  70 100 130 174 223 280 321 393
#     4  11  24  45  67  96 134 183 213 271 338 390
#     4  11  23  43  71 100 135 169 224 278 328 392
#     4  11  22  40  63  99 132 169 221 280 324 385
#     4  11  21  40  63  95 139 167 214 276 330 388
#     4  11  26  45  68  94 140 175 222 271 329 401
#     4  11  21  38  66  99 133 165 220 276 332 385
#     4  11  23  42  66  98 134 174 221 271 330 392
#
# _framework density 20.764461000000001
#
# number of rings (size 3 to 8) (size 9 to 14) (size 15 to 20)
#    0.000    1.000    5.000    3.375    0.000    3.000 
#    0.000    8.125    0.000    0.000    0.000    0.000 
#    0.000    0.000    0.000    0.000    0.000    0.000 
#
# Total GULP energy -89263.082018 kJ/mol
# GULP energy per Si atom -5578.942626 kJ/mol
# Density = 2.071720 g / cm^3
# Si number density = 20.764461 Si / 1000 Ang^3
#
#
#
# Elastic Constant Matrix: (Units=GPa)
#
#
# Indices 1 2 3 4 5 6 
#
# 1 66.3182 56.7906 39.6867 14.1259 -1.5588 -10.3465
# 2 56.7906 97.2119 53.8437 3.3713 18.4585 8.5126
# 3 39.6867 53.8437 130.4257 19.5466 -2.6161 12.8837
# 4 14.1259 3.3713 19.5466 40.5901 -5.6373 10.7518
# 5 -1.5588 18.4585 -2.6161 -5.6373 37.4046 0.8918
# 6 -10.3465 8.5126 12.8837 10.7518 0.8918 35.9750
#
#
#
# Elastic Compliance Matrix: (Units=1/GPa)
#
#
# Indices 1 2 3 4 5 6 
#
# 1 0.062631 -0.041608 -0.001320 -0.024450 0.018527 0.035179
# 2 -0.041608 0.043177 -0.005727 0.017422 -0.020224 -0.024838
# 3 -0.001320 -0.005727 0.011223 -0.003492 0.003079 -0.002076
# 4 -0.024450 0.017422 -0.003492 0.038539 -0.003544 -0.021334
# 5 0.018527 -0.020224 0.003079 -0.003544 0.036950 0.009154
# 6 0.035179 -0.024838 -0.002076 -0.021334 0.009154 0.050685
#
#
# Mechanical properties :
#
#
# Convention : Reuss Voigt Hill
#
# Bulk Modulus (GPa) = 50.70686 66.06642 58.38664
# Shear Modulus (GPa) = 14.40557 32.36960 23.38758
#
# Velocity S-wave (km/s) = 2.63679 3.95257 3.35972
# Velocity P-wave (km/s) = 5.80890 7.26061 6.57494
#
# Compressibility (1/GPa) = 0.01972120
#
# Stress axis : x y z
#
# Youngs Moduli (GPa) = 15.96662 23.16054 89.09986
#
# Poissons Ratio (x) = 0.96366 0.11759
# Poissons Ratio (y) = 0.66434 0.51029
# Poissons Ratio (z) = 0.02107 0.13264
#
# Static dielectric constant tensor:
#      x y z
#    x 1.766190 0.006680 -0.005860 
#    y 0.006680 1.798020 -0.018550 
#    z -0.005860 -0.018550 1.785560 
# 
# From -- ./inp_files/532597.got.cif
#   From: 2010.05.17/outbox.cif.g08.bks.cpg/sg2_267_cif.got.tgz:532597.got - 2010.06.03 11:33:40.
