data_PCOD9054254
_publ_section_title
;
Structure prediction by ZEFSAII (Michael W. Deem and Ramdas Pophale) SiO2 
 PCOD9054254
Probable space group: P -1
;
_chemical_formula_sum "Si O2"
_cell_formula_units_Z 16
_cell_length_a 15.020986
_cell_length_b 8.809353
_cell_length_c 17.775635
_cell_angle_alpha 48.436432
_cell_angle_beta 24.428823
_cell_angle_gamma 49.978350
_cell_volume 722.033223
_symmetry_space_group_name_H-M "P -1"
_symmetry_group_IT_number 2
_symmetry_cell_setting 'triclinic'
loop_
_space_group_symop_operation_xyz
x,y,z
-x,-y,-z
loop_
_atom_site_type_symbol
_atom_site_label
_atom_site_fract_x
_atom_site_fract_y
_atom_site_fract_z
Si Si1 0.923414 0.287602 0.149435
Si Si2 0.147591 0.241260 0.381534
Si Si3 0.531032 0.857919 0.950201
Si Si4 0.956324 0.055676 0.733491
Si Si5 0.817704 0.616149 0.455218
Si Si6 0.488108 0.600333 0.843992
Si Si7 0.185308 0.007540 0.916818
Si Si8 0.445298 0.196444 0.532182
O O1 0.666540 0.295273 0.333947
O O2 0.977780 0.183547 0.222720
O O3 0.000000 0.500000 0.000000
O O4 0.065664 0.130121 0.036599
O O5 0.328066 0.347298 0.255372
O O6 0.019319 0.124098 0.579559
O O7 0.986687 0.418471 0.407531
O O8 0.279618 0.097027 0.266327
O O9 0.298977 0.886082 0.078637
O O10 0.579372 0.619389 0.013077
O O11 0.500000 0.000000 0.000000
O O12 0.087194 0.189008 0.645105
O O13 0.602988 0.592028 0.676961
O O14 0.745978 0.661520 0.410189
O O15 0.294812 0.784336 0.930327
O O16 0.368191 0.121039 0.696769
O O17 0.000000 0.000000 0.000000
O O18 0.500000 0.000000 0.500000
#
# Coordination Sequence:
#
# PCOD9054254 Si02
#       8
#     2   2   2   2   2   2   2   2
#     4  12  28  48  71 107 149 183 232 302 362 413
#     4  11  23  42  74  96 128 186 232 283 348 407
#     4  12  27  41  63 104 145 180 222 287 359 422
#     4  11  22  46  69  99 138 178 234 289 343 421
#     4  11  20  41  73 103 131 177 240 293 332 406
#     4  11  21  42  70  98 135 177 245 284 333 423
#     4  12  24  42  75 106 136 193 243 290 349 415
#     4  12  22  43  72 104 143 183 245 292 336 428
#
# _framework density 22.159645999999999
#
# number of rings (size 3 to 8) (size 9 to 14) (size 15 to 20)
#    0.000    0.500    6.250    2.625    3.500    3.000 
#    0.000    0.000    0.000    0.000    0.000    0.000 
#    0.000    0.000    0.000    0.000    0.000    0.000 
#
# Total GULP energy -89601.513411 kJ/mol
# GULP energy per Si atom -5600.094588 kJ/mol
# Density = 2.210921 g / cm^3
# Si number density = 22.159646 Si / 1000 Ang^3
#
#
#
# Elastic Constant Matrix: (Units=GPa)
#
#
# Indices 1 2 3 4 5 6 
#
# 1 65.6668 55.1591 23.1120 -0.8944 3.7107 -32.9775
# 2 55.1591 116.1781 44.1396 -0.7777 -5.2195 -41.2960
# 3 23.1120 44.1396 116.8136 -1.6897 -0.3522 -12.0513
# 4 -0.8944 -0.7777 -1.6897 37.8843 -0.7807 7.0440
# 5 3.7107 -5.2195 -0.3522 -0.7807 33.8789 9.6675
# 6 -32.9775 -41.2960 -12.0513 7.0440 9.6675 40.7187
#
#
#
# Elastic Compliance Matrix: (Units=1/GPa)
#
#
# Indices 1 2 3 4 5 6 
#
# 1 0.034843 -0.008515 -0.001436 -0.003859 -0.011681 0.022599
# 2 -0.008515 0.017793 -0.004020 -0.001882 0.000701 0.010119
# 3 -0.001436 -0.004020 0.010122 0.000802 0.000366 -0.002470
# 4 -0.003859 -0.001882 0.000802 0.028353 0.003822 -0.010609
# 5 -0.011681 0.000701 0.000366 0.003822 0.036096 -0.017871
# 6 0.022599 0.010119 -0.002470 -0.010609 -0.017871 0.058471
#
#
# Mechanical properties :
#
#
# Convention : Reuss Voigt Hill
#
# Bulk Modulus (GPa) = 28.72233 60.38664 44.55449
# Shear Modulus (GPa) = 22.20018 34.24623 28.22320
#
# Velocity S-wave (km/s) = 3.16860 3.93546 3.57267
# Velocity P-wave (km/s) = 5.13580 6.92534 6.09659
#
# Compressibility (1/GPa) = 0.03481612
#
# Stress axis : x y z
#
# Youngs Moduli (GPa) = 28.70055 56.20188 98.79868
#
# Poissons Ratio (x) = 0.47855 0.14186
# Poissons Ratio (y) = 0.24438 0.39716
# Poissons Ratio (z) = 0.04121 0.22592
#
# Static dielectric constant tensor:
#      x y z
#    x 1.842520 -0.029130 0.011510 
#    y -0.029130 1.786660 -0.040450 
#    z 0.011510 -0.040450 1.808240 
# 
# From -- ./inp_files/599703.got.cif
#   From: 2010.05.17/outbox.cif.g08.bks.cpg/sg2_300_cif.got.tgz:599703.got - 2010.06.03 11:33:40.
