data_PCOD9054235
_publ_section_title
;
Structure prediction by ZEFSAII (Michael W. Deem and Ramdas Pophale) SiO2 
 PCOD9054235
Probable space group: P -1
;
_chemical_formula_sum "Si O2"
_cell_formula_units_Z 14
_cell_length_a 22.850137
_cell_length_b 13.859214
_cell_length_c 6.748786
_cell_angle_alpha 81.616732
_cell_angle_beta 68.520950
_cell_angle_gamma 22.352411
_cell_volume 634.173111
_symmetry_space_group_name_H-M "P -1"
_symmetry_group_IT_number 2
_symmetry_cell_setting 'triclinic'
loop_
_space_group_symop_operation_xyz
x,y,z
-x,-y,-z
loop_
_atom_site_type_symbol
_atom_site_label
_atom_site_fract_x
_atom_site_fract_y
_atom_site_fract_z
Si Si1 0.153888 0.294732 0.046861
Si Si2 0.695631 0.104861 0.814387
Si Si3 0.957436 0.173425 0.049480
Si Si4 0.624569 0.350593 0.195798
Si Si5 0.538159 0.792211 0.534509
Si Si6 0.052583 0.643663 0.298628
Si Si7 0.396078 0.125567 0.291749
O O1 0.373810 0.966930 0.782754
O O2 0.102073 0.475886 0.152946
O O3 0.000000 0.500000 0.000000
O O4 0.173620 0.182480 0.222000
O O5 0.497349 0.387155 0.850058
O O6 0.648986 0.226954 0.043111
O O7 0.829672 0.974604 0.544484
O O8 0.895355 0.336361 0.897075
O O9 0.768146 0.438353 0.344252
O O10 0.157601 0.930224 0.947117
O O11 0.000000 0.000000 0.000000
O O12 0.500000 0.500000 0.500000
O O13 0.532073 0.896821 0.645274
O O14 0.456452 0.936506 0.374232
O O15 0.171566 0.460307 0.411039
O O16 0.500000 0.000000 0.000000
#
# Coordination Sequence:
#
# PCOD9054235 Si02
#       7
#     2   2   2   2   2   2   2
#     4  12  26  43  73 109 146 189 237 296 365 434
#     4  11  26  44  77 103 140 195 242 287 363 422
#     4  12  27  43  73 104 139 193 237 296 356 416
#     4  11  25  50  73  99 147 193 243 295 345 426
#     4  11  24  43  66 103 144 176 237 297 349 419
#     4  12  23  46  70 104 143 184 236 299 361 428
#     4  11  20  41  71  95 134 183 222 286 367 417
#
# _framework density 22.075990999999998
#
# number of rings (size 3 to 8) (size 9 to 14) (size 15 to 20)
#    0.000    0.571    4.286    3.857    2.000    2.286 
#    0.000    2.143    0.000    0.000    0.000    0.000 
#    0.000    0.000    0.000    0.000    0.000    0.000 
#
# Total GULP energy -78097.387459 kJ/mol
# GULP energy per Si atom -5578.384818 kJ/mol
# Density = 2.202574 g / cm^3
# Si number density = 22.075991 Si / 1000 Ang^3
#
#
#
# Elastic Constant Matrix: (Units=GPa)
#
#
# Indices 1 2 3 4 5 6 
#
# 1 67.1160 33.0282 26.8323 -14.1428 -5.9889 8.2418
# 2 33.0282 115.6872 12.7500 -4.8768 -3.6685 -24.6490
# 3 26.8323 12.7500 121.9016 21.1832 -2.1836 -1.2542
# 4 -14.1428 -4.8768 21.1832 35.3078 -11.0533 -8.4290
# 5 -5.9889 -3.6685 -2.1836 -11.0533 26.1213 11.4770
# 6 8.2418 -24.6490 -1.2542 -8.4290 11.4770 47.0164
#
#
#
# Elastic Compliance Matrix: (Units=1/GPa)
#
#
# Indices 1 2 3 4 5 6 
#
# 1 0.029186 -0.008312 -0.008583 0.018587 0.017330 -0.010601
# 2 -0.008312 0.012650 0.000746 -0.001315 -0.004573 0.008989
# 3 -0.008583 0.000746 0.012046 -0.012289 -0.006791 0.001671
# 4 0.018587 -0.001315 -0.012289 0.050464 0.024987 -0.001328
# 5 0.017330 -0.004573 -0.006791 0.024987 0.058380 -0.015388
# 6 -0.010601 0.008989 0.001671 -0.001328 -0.015388 0.031403
#
#
# Mechanical properties :
#
#
# Convention : Reuss Voigt Hill
#
# Bulk Modulus (GPa) = 46.33514 49.99177 48.16346
# Shear Modulus (GPa) = 21.40196 37.16204 29.28200
#
# Velocity S-wave (km/s) = 3.11701 4.10734 3.64595
# Velocity P-wave (km/s) = 5.82999 6.72221 6.29194
#
# Compressibility (1/GPa) = 0.02158189
#
# Stress axis : x y z
#
# Youngs Moduli (GPa) = 34.26242 79.05263 83.01697
#
# Poissons Ratio (x) = 0.65711 0.71258
# Poissons Ratio (y) = 0.28480 -0.06191
# Poissons Ratio (z) = 0.29409 -0.05895
#
# Static dielectric constant tensor:
#      x y z
#    x 1.826210 -0.036480 -0.056730 
#    y -0.036480 2.014440 0.084860 
#    z -0.056730 0.084860 1.796290 
# 
# From -- ./inp_files/124163.got.cif
#   From: 2010.05.17/outbox.cif.g08.bks.cpg/sg2_63_cif.got.tgz:124163.got - 2010.06.03 11:33:40.
