data_PCOD9054361
_publ_section_title
;
Structure prediction by ZEFSAII (Michael W. Deem and Ramdas Pophale) SiO2 
 PCOD9054361
Probable space group: P -1
;
_chemical_formula_sum "Si O2"
_cell_formula_units_Z 16
_cell_length_a 12.744430
_cell_length_b 11.988917
_cell_length_c 8.422623
_cell_angle_alpha 132.574287
_cell_angle_beta 125.417661
_cell_angle_gamma 82.841151
_cell_volume 691.371303
_symmetry_space_group_name_H-M "P -1"
_symmetry_group_IT_number 2
_symmetry_cell_setting 'triclinic'
loop_
_space_group_symop_operation_xyz
x,y,z
-x,-y,-z
loop_
_atom_site_type_symbol
_atom_site_label
_atom_site_fract_x
_atom_site_fract_y
_atom_site_fract_z
Si Si1 0.742674 0.213761 0.787370
Si Si2 0.192344 0.237126 0.867318
Si Si3 0.653307 0.353505 0.118033
Si Si4 0.378773 0.830340 0.798440
Si Si5 0.586779 0.374615 0.600130
Si Si6 0.929634 0.296117 0.748931
Si Si7 0.274600 0.292711 0.354277
Si Si8 0.320900 0.160132 0.590683
O O1 0.637870 0.247459 0.606346
O O2 0.886807 0.253609 0.854669
O O3 0.679606 0.021400 0.601369
O O4 0.752265 0.347555 0.056563
O O5 0.242827 0.155027 0.687836
O O6 0.031638 0.218456 0.698409
O O7 0.293142 0.435961 0.114992
O O8 0.210026 0.207903 0.044012
O O9 0.631369 0.190562 0.044659
O O10 0.735373 0.533464 0.450255
O O11 0.487516 0.306359 0.880889
O O12 0.432511 0.690366 0.659286
O O13 0.219485 0.782445 0.552915
O O14 0.500000 0.000000 0.000000
O O15 0.442704 0.353162 0.529202
O O16 0.000000 0.500000 0.000000
O O17 0.243600 0.191538 0.397276
#
# Coordination Sequence:
#
# PCOD9054361 Si02
#       8
#     2   2   2   2   2   2   2   2
#     4  11  25  42  67  99 140 189 235 298 361 416
#     4  12  24  47  72 101 145 190 243 290 359 436
#     4  12  21  42  67 103 144 180 243 301 353 428
#     4  11  24  40  73 112 135 186 246 302 359 418
#     4  11  20  43  68 101 139 181 246 292 348 428
#     4  11  23  47  72 100 141 194 240 292 360 438
#     4  12  24  40  68 110 138 191 238 294 357 434
#     4  12  26  42  69 106 147 185 236 304 364 417
#
# _framework density 23.142413000000001
#
# number of rings (size 3 to 8) (size 9 to 14) (size 15 to 20)
#    0.000    0.500    6.250    4.125    1.750    0.500 
#    2.250    1.875    0.000    0.000    0.000    0.000 
#    0.000    0.000    0.000    0.000    0.000    0.000 
#
# Total GULP energy -89306.024975 kJ/mol
# GULP energy per Si atom -5581.626561 kJ/mol
# Density = 2.308974 g / cm^3
# Si number density = 23.142413 Si / 1000 Ang^3
#
#
#
# Elastic Constant Matrix: (Units=GPa)
#
#
# Indices 1 2 3 4 5 6 
#
# 1 137.8274 5.7295 31.3441 -17.2782 -21.6960 0.2383
# 2 5.7295 115.5538 34.0521 -12.5252 -7.4775 11.2986
# 3 31.3441 34.0521 68.1563 -6.7597 -4.6676 -0.4609
# 4 -17.2782 -12.5252 -6.7597 30.9617 -0.6926 -7.8252
# 5 -21.6960 -7.4775 -4.6676 -0.6926 40.7050 -2.6721
# 6 0.2383 11.2986 -0.4609 -7.8252 -2.6721 28.4465
#
#
#
# Elastic Compliance Matrix: (Units=1/GPa)
#
#
# Indices 1 2 3 4 5 6 
#
# 1 0.009675 0.001614 -0.004349 0.005523 0.005128 0.001208
# 2 0.001614 0.011126 -0.005855 0.003304 0.002064 -0.003425
# 3 -0.004349 -0.005855 0.019560 0.000115 -0.000977 0.002619
# 4 0.005523 0.003304 0.000115 0.039360 0.004885 0.009930
# 5 0.005128 0.002064 -0.000977 0.004885 0.027853 0.003082
# 6 0.001208 -0.003425 0.002619 0.009930 0.003082 0.039567
#
#
# Mechanical properties :
#
#
# Convention : Reuss Voigt Hill
#
# Bulk Modulus (GPa) = 43.13903 51.53212 47.33557
# Shear Modulus (GPa) = 29.06183 36.71676 32.88930
#
# Velocity S-wave (km/s) = 3.54755 3.98748 3.77393
# Velocity P-wave (km/s) = 5.95494 6.59665 6.28399
#
# Compressibility (1/GPa) = 0.02318086
#
# Stress axis : x y z
#
# Youngs Moduli (GPa) = 103.36214 89.88015 51.12586
#
# Poissons Ratio (x) = -0.14507 0.22233
# Poissons Ratio (y) = -0.16683 0.29935
# Poissons Ratio (z) = 0.44948 0.52626
#
# Static dielectric constant tensor:
#      x y z
#    x 1.960080 0.061040 -0.111450 
#    y 0.061040 1.941100 -0.094400 
#    z -0.111450 -0.094400 1.889670 
# 
# From -- ./inp_files/263602.got.cif
#   From: 2010.05.17/outbox.cif.g08.bks.cpg/sg2_132_cif.got.tgz:263602.got - 2010.06.03 11:33:40.
