data_PCOD9054402
_publ_section_title
;
Structure prediction by ZEFSAII (Michael W. Deem and Ramdas Pophale) SiO2 
 PCOD9054402
Probable space group: P -1
;
_chemical_formula_sum "Si O2"
_cell_formula_units_Z 16
_cell_length_a 8.922558
_cell_length_b 11.317860
_cell_length_c 15.183648
_cell_angle_alpha 130.235297
_cell_angle_beta 129.693514
_cell_angle_gamma 42.353726
_cell_volume 748.782467
_symmetry_space_group_name_H-M "P -1"
_symmetry_group_IT_number 2
_symmetry_cell_setting 'triclinic'
loop_
_space_group_symop_operation_xyz
x,y,z
-x,-y,-z
loop_
_atom_site_type_symbol
_atom_site_label
_atom_site_fract_x
_atom_site_fract_y
_atom_site_fract_z
Si Si1 0.584525 0.738676 0.538555
Si Si2 0.239114 0.081934 0.407059
Si Si3 0.770066 0.494323 0.916669
Si Si4 0.638655 0.113307 0.971602
Si Si5 0.207893 0.681348 0.531202
Si Si6 0.844861 0.141373 0.877840
Si Si7 0.173877 0.736119 0.335031
Si Si8 0.632133 0.063681 0.270322
O O1 0.791137 0.748822 0.581852
O O2 0.687574 0.530096 0.508342
O O3 0.364889 0.787182 0.418103
O O4 0.469009 0.888677 0.645730
O O5 0.044324 0.180644 0.455500
O O6 0.500000 0.000000 0.500000
O O7 0.208904 0.952720 0.267073
O O8 0.800504 0.334703 0.918044
O O9 0.747479 0.433456 0.781576
O O10 0.548102 0.692110 0.958686
O O11 0.000000 0.500000 0.000000
O O12 0.696640 0.155267 0.915483
O O13 0.522386 0.993609 0.865720
O O14 0.883414 0.995236 0.058166
O O15 0.184885 0.702825 0.427585
O O16 0.363593 0.755326 0.662377
O O17 0.904680 0.894457 0.288541
#
# Coordination Sequence:
#
# PCOD9054402 Si02
#       8
#     2   2   2   2   2   2   2   2
#     4  11  23  42  68 102 137 179 236 287 351 416
#     4  12  24  45  71 101 139 185 231 290 359 419
#     4  12  26  46  74 108 139 190 241 289 362 421
#     4  11  26  50  75 101 149 188 241 295 348 434
#     4  11  25  40  70 103 141 180 229 298 348 419
#     4  11  27  50  72 106 143 192 240 294 357 421
#     4  11  23  44  66 102 141 182 229 286 353 424
#     4  11  20  44  68  97 136 184 225 280 358 409
#
# _framework density 21.368020999999999
#
# number of rings (size 3 to 8) (size 9 to 14) (size 15 to 20)
#    0.000    0.750    2.500    6.750    1.750    2.500 
#    4.500    0.000    0.000    0.000    0.000    0.000 
#    0.000    0.000    0.000    0.000    0.000    0.000 
#
# Total GULP energy -89436.297891 kJ/mol
# GULP energy per Si atom -5589.768618 kJ/mol
# Density = 2.131939 g / cm^3
# Si number density = 21.368021 Si / 1000 Ang^3
#
#
#
# Elastic Constant Matrix: (Units=GPa)
#
#
# Indices 1 2 3 4 5 6 
#
# 1 119.2584 42.2743 60.5218 15.7490 7.1680 -8.0117
# 2 42.2743 100.7275 66.7925 14.5009 -0.0745 -16.2044
# 3 60.5218 66.7925 157.1187 22.5447 3.0058 -13.1457
# 4 15.7490 14.5009 22.5447 33.6095 -2.8629 -3.1850
# 5 7.1680 -0.0745 3.0058 -2.8629 40.4293 10.8246
# 6 -8.0117 -16.2044 -13.1457 -3.1850 10.8246 40.0346
#
#
#
# Elastic Compliance Matrix: (Units=1/GPa)
#
#
# Indices 1 2 3 4 5 6 
#
# 1 0.011157 -0.002319 -0.002862 -0.002420 -0.002139 0.000740
# 2 -0.002319 0.015052 -0.004911 -0.001769 -0.000387 0.003980
# 3 -0.002862 -0.004911 0.010098 -0.003307 -0.000667 0.000672
# 4 -0.002420 -0.001769 -0.003307 0.034100 0.003204 -0.000440
# 5 -0.002139 -0.000387 -0.000667 0.003204 0.027529 -0.007992
# 6 0.000740 0.003980 0.000672 -0.000440 -0.007992 0.029084
#
#
# Mechanical properties :
#
#
# Convention : Reuss Voigt Hill
#
# Bulk Modulus (GPa) = 62.02086 79.58687 70.80386
# Shear Modulus (GPa) = 32.76946 36.64908 34.70927
#
# Velocity S-wave (km/s) = 3.92034 4.14591 4.03470
# Velocity P-wave (km/s) = 7.04132 7.76175 7.41029
#
# Compressibility (1/GPa) = 0.01612361
#
# Stress axis : x y z
#
# Youngs Moduli (GPa) = 89.62615 66.43445 99.02578
#
# Poissons Ratio (x) = 0.15407 0.28340
# Poissons Ratio (y) = 0.20785 0.48636
# Poissons Ratio (z) = 0.25650 0.32629
#
# Static dielectric constant tensor:
#      x y z
#    x 1.876420 0.112590 0.003880 
#    y 0.112590 1.832130 -0.018270 
#    z 0.003880 -0.018270 1.739160 
# 
# From -- ./inp_files/175212.got.cif
#   From: 2010.05.17/outbox.cif.g08.bks.cpg/sg2_88_cif.got.tgz:175212.got - 2010.06.03 11:33:40.
