data_PCOD9054934
_publ_section_title
;
Structure prediction by ZEFSAII (Michael W. Deem and Ramdas Pophale) SiO2 
 PCOD9054934
Probable space group: P -1
;
_chemical_formula_sum "Si O2"
_cell_formula_units_Z 16
_cell_length_a 13.836043
_cell_length_b 11.042500
_cell_length_c 9.343159
_cell_angle_alpha 81.066406
_cell_angle_beta 103.925114
_cell_angle_gamma 148.220416
_cell_volume 726.297867
_symmetry_space_group_name_H-M "P -1"
_symmetry_group_IT_number 2
_symmetry_cell_setting 'triclinic'
loop_
_space_group_symop_operation_xyz
x,y,z
-x,-y,-z
loop_
_atom_site_type_symbol
_atom_site_label
_atom_site_fract_x
_atom_site_fract_y
_atom_site_fract_z
Si Si1 0.794682 0.727816 0.496130
Si Si2 0.811814 0.024973 0.826681
Si Si3 0.852285 0.342130 0.348366
Si Si4 0.875046 0.378176 0.837243
Si Si5 0.499647 0.096399 0.846675
Si Si6 0.797849 0.571588 0.251028
Si Si7 0.582286 0.576838 0.708993
Si Si8 0.536351 0.698887 0.021891
O O1 0.797348 0.617799 0.405703
O O2 0.725273 0.644129 0.651739
O O3 0.624869 0.636091 0.393777
O O4 0.000000 0.000000 0.500000
O O5 0.809264 0.171808 0.802637
O O6 0.017906 0.199116 0.816700
O O7 0.673942 0.808560 0.708515
O O8 0.738896 0.906801 0.978659
O O9 0.805257 0.433305 0.277550
O O10 0.000000 0.500000 0.500000
O O11 0.980559 0.415838 0.260376
O O12 0.649569 0.071407 0.305407
O O13 0.701128 0.283405 0.817463
O O14 0.000000 0.500000 0.000000
O O15 0.464163 0.187518 0.891482
O O16 0.500000 0.000000 0.000000
O O17 0.614546 0.426661 0.131343
O O18 0.544409 0.492544 0.872419
#
# Coordination Sequence:
#
# PCOD9054934 Si02
#       8
#     2   2   2   2   2   2   2   2
#     4  11  24  46  65  90 136 175 215 268 336 397
#     4  11  21  39  66  97 130 165 214 274 322 382
#     4  11  25  42  64 102 135 168 224 278 330 395
#     4  11  21  41  71  96 131 177 221 266 330 397
#     4  12  21  42  69  95 131 178 215 268 336 389
#     4  11  23  41  70  92 129 177 217 271 336 391
#     4  11  26  42  66  98 129 173 219 272 331 388
#     4  12  24  42  68  99 131 168 228 275 319 402
#
# _framework density 22.029527999999999
#
# number of rings (size 3 to 8) (size 9 to 14) (size 15 to 20)
#    0.000    0.750    6.250    1.125    0.000    4.000 
#    2.250    0.000    0.000    0.000    0.000    0.000 
#    0.000    0.000    0.000    0.000    0.000    0.000 
#
# Total GULP energy -89220.549872 kJ/mol
# GULP energy per Si atom -5576.284367 kJ/mol
# Density = 2.197939 g / cm^3
# Si number density = 22.029528 Si / 1000 Ang^3
#
#
#
# Elastic Constant Matrix: (Units=GPa)
#
#
# Indices 1 2 3 4 5 6 
#
# 1 81.1496 39.3156 11.9164 0.0207 -25.6394 26.9248
# 2 39.3156 82.6242 11.5031 17.8234 -8.2243 26.6192
# 3 11.9164 11.5031 74.0850 20.5510 -8.2666 21.8034
# 4 0.0207 17.8234 20.5510 44.1652 7.5649 -9.6874
# 5 -25.6394 -8.2243 -8.2666 7.5649 39.3741 -9.3691
# 6 26.9248 26.6192 21.8034 -9.6874 -9.3691 49.9207
#
#
#
# Elastic Compliance Matrix: (Units=1/GPa)
#
#
# Indices 1 2 3 4 5 6 
#
# 1 0.021120 -0.006806 0.001079 -0.001082 0.011259 -0.006330
# 2 -0.006806 0.022090 0.005764 -0.014687 0.001055 -0.013278
# 3 0.001079 0.005764 0.022554 -0.017334 0.006237 -0.015700
# 4 -0.001082 -0.014687 -0.017334 0.043340 -0.010398 0.022445
# 5 0.011259 0.001055 0.006237 -0.010398 0.035118 -0.004786
# 6 -0.006330 -0.013278 -0.015700 0.022445 -0.004786 0.040841
#
#
# Mechanical properties :
#
#
# Convention : Reuss Voigt Hill
#
# Bulk Modulus (GPa) = 15.18862 40.36990 27.77926
# Shear Modulus (GPa) = 24.16232 38.36691 31.26462
#
# Velocity S-wave (km/s) = 3.31541 4.17779 3.77133
# Velocity P-wave (km/s) = 4.64388 6.45268 5.62151
#
# Compressibility (1/GPa) = 0.06583877
#
# Stress axis : x y z
#
# Youngs Moduli (GPa) = 47.34865 45.26915 44.33792
#
# Poissons Ratio (x) = 0.30812 -0.04785
# Poissons Ratio (y) = 0.32227 -0.25558
# Poissons Ratio (z) = -0.05110 -0.26095
#
# Static dielectric constant tensor:
#      x y z
#    x 1.833550 -0.061610 -0.041920 
#    y -0.061610 1.843980 -0.062950 
#    z -0.041920 -0.062950 1.848810 
# 
# From -- ./inp_files/307599.got.cif
#   From: 2010.05.17/outbox.cif.g08.bks.cpg/sg2_154_cif.got.tgz:307599.got - 2010.06.03 11:33:40.
