data_PCOD9054338
_publ_section_title
;
Structure prediction by ZEFSAII (Michael W. Deem and Ramdas Pophale) SiO2 
 PCOD9054338
Probable space group: P -1
;
_chemical_formula_sum "Si O2"
_cell_formula_units_Z 16
_cell_length_a 15.374882
_cell_length_b 13.696664
_cell_length_c 9.430707
_cell_angle_alpha 43.659906
_cell_angle_beta 48.736774
_cell_angle_gamma 26.778603
_cell_volume 617.127865
_symmetry_space_group_name_H-M "P -1"
_symmetry_group_IT_number 2
_symmetry_cell_setting 'triclinic'
loop_
_space_group_symop_operation_xyz
x,y,z
-x,-y,-z
loop_
_atom_site_type_symbol
_atom_site_label
_atom_site_fract_x
_atom_site_fract_y
_atom_site_fract_z
Si Si1 0.346073 0.183910 0.145437
Si Si2 0.882099 0.035884 0.967963
Si Si3 0.323205 0.455872 0.704145
Si Si4 0.626222 0.784328 0.482759
Si Si5 0.038106 0.347627 0.796630
Si Si6 0.198719 0.826973 0.647738
Si Si7 0.456231 0.437538 0.277163
Si Si8 0.886562 0.807610 0.801553
O O1 0.212232 0.210155 0.172755
O O2 0.190963 0.403862 0.192982
O O3 0.516671 0.931446 0.299986
O O4 0.431013 0.223459 0.912734
O O5 0.664818 0.307025 0.906243
O O6 0.990235 0.979855 0.765381
O O7 0.909878 0.840453 0.155152
O O8 0.000000 0.000000 0.000000
O O9 0.295764 0.602610 0.697789
O O10 0.396998 0.451030 0.486673
O O11 0.114655 0.593652 0.748363
O O12 0.843793 0.630875 0.404522
O O13 0.601922 0.640051 0.674538
O O14 0.500000 0.000000 0.500000
O O15 0.121701 0.223652 0.992165
O O16 0.319631 0.752875 0.734766
O O17 0.188940 0.965753 0.403505
#
# Coordination Sequence:
#
# PCOD9054338 Si02
#       8
#     2   2   2   2   2   2   2   2
#     4  11  24  44  72 104 139 185 231 292 354 412
#     4  12  29  48  73 101 145 194 236 282 344 426
#     4  11  22  42  73 106 143 177 234 296 358 414
#     4  12  30  48  69 102 146 190 238 282 342 430
#     4  11  26  46  73 103 137 187 234 296 349 412
#     4  12  24  44  72 107 143 184 228 293 357 412
#     4  12  27  45  72 108 139 185 236 295 352 413
#     4  11  20  42  73 103 143 176 233 292 359 409
#
# _framework density 25.926556999999999
#
# number of rings (size 3 to 8) (size 9 to 14) (size 15 to 20)
#    0.000    0.500    5.000    4.500    7.000    2.000 
#    0.000    0.000    0.000    0.000    0.000    0.000 
#    0.000    0.000    0.000    0.000    0.000    0.000 
#
# Total GULP energy -89781.390421 kJ/mol
# GULP energy per Si atom -5611.336901 kJ/mol
# Density = 2.586755 g / cm^3
# Si number density = 25.926557 Si / 1000 Ang^3
#
#
#
# Elastic Constant Matrix: (Units=GPa)
#
#
# Indices 1 2 3 4 5 6 
#
# 1 78.9837 15.6270 19.5987 -6.8400 -13.9019 5.4015
# 2 15.6270 91.4286 16.4954 -3.7615 -13.6628 -11.0032
# 3 19.5987 16.4954 103.9212 -6.3926 -17.3935 0.5920
# 4 -6.8400 -3.7615 -6.3926 50.7479 4.7989 1.5131
# 5 -13.9019 -13.6628 -17.3935 4.7989 45.2398 -5.4290
# 6 5.4015 -11.0032 0.5920 1.5131 -5.4290 41.6296
#
#
#
# Elastic Compliance Matrix: (Units=1/GPa)
#
#
# Indices 1 2 3 4 5 6 
#
# 1 0.014220 -0.001881 -0.001835 0.001350 0.002712 -0.002011
# 2 -0.001881 0.012417 -0.001094 0.000107 0.003215 0.003957
# 3 -0.001835 -0.001094 0.010716 0.000716 0.003172 0.000184
# 4 0.001350 0.000107 0.000716 0.020164 -0.001548 -0.001092
# 5 0.002712 0.003215 0.003172 -0.001548 0.025757 0.003868
# 6 -0.002011 0.003957 0.000184 -0.001092 0.003868 0.025870
#
#
# Mechanical properties :
#
#
# Convention : Reuss Voigt Hill
#
# Bulk Modulus (GPa) = 36.05678 41.97508 39.01593
# Shear Modulus (GPa) = 39.05991 42.36430 40.71210
#
# Velocity S-wave (km/s) = 3.88565 4.04668 3.96698
# Velocity P-wave (km/s) = 5.83683 6.16922 6.00532
#
# Compressibility (1/GPa) = 0.02773404
#
# Stress axis : x y z
#
# Youngs Moduli (GPa) = 70.32365 80.53191 93.31580
#
# Poissons Ratio (x) = 0.15146 0.17122
# Poissons Ratio (y) = 0.13226 0.10210
# Poissons Ratio (z) = 0.12904 0.08812
#
# Static dielectric constant tensor:
#      x y z
#    x 2.033770 0.020380 0.023150 
#    y 0.020380 2.068990 0.026610 
#    z 0.023150 0.026610 2.011800 
# 
# From -- ./inp_files/455450.got.cif
#   From: 2010.05.17/outbox.cif.g08.bks.cpg/sg2_228_cif.got.tgz:455450.got - 2010.06.03 11:33:40.
