data_PCOD9054084
_publ_section_title
;
Structure prediction by ZEFSAII (Michael W. Deem and Ramdas Pophale) SiO2 
 PCOD9054084
Probable space group: P -1
;
_chemical_formula_sum "Si O2"
_cell_formula_units_Z 14
_cell_length_a 8.339718
_cell_length_b 7.699774
_cell_length_c 10.723467
_cell_angle_alpha 66.411856
_cell_angle_beta 76.962417
_cell_angle_gamma 109.334285
_cell_volume 542.023483
_symmetry_space_group_name_H-M "P -1"
_symmetry_group_IT_number 2
_symmetry_cell_setting 'triclinic'
loop_
_space_group_symop_operation_xyz
x,y,z
-x,-y,-z
loop_
_atom_site_type_symbol
_atom_site_label
_atom_site_fract_x
_atom_site_fract_y
_atom_site_fract_z
Si Si1 0.339418 0.879841 0.959469
Si Si2 0.063525 0.429311 0.809317
Si Si3 0.857556 0.923636 0.230105
Si Si4 0.486701 0.201478 0.510174
Si Si5 0.567113 0.374625 0.185126
Si Si6 0.165901 0.693257 0.482703
Si Si7 0.145412 0.112173 0.320210
O O1 0.423130 0.805359 0.851843
O O2 0.240616 0.014807 0.881894
O O3 0.156097 0.670497 0.100128
O O4 0.500000 0.000000 0.000000
O O5 0.086975 0.253651 0.772467
O O6 0.204510 0.468242 0.889189
O O7 0.123040 0.642895 0.652797
O O8 0.707920 0.845828 0.388839
O O9 0.033407 0.107854 0.217720
O O10 0.540724 0.362301 0.341778
O O11 0.635428 0.299042 0.565955
O O12 0.500000 0.000000 0.500000
O O13 0.350121 0.329172 0.210419
O O14 0.000000 0.500000 0.500000
O O15 0.194526 0.916584 0.362708
O O16 0.000000 0.000000 0.500000
#
# Coordination Sequence:
#
# PCOD9054084 Si02
#       7
#     2   2   2   2   2   2   2
#     4  12  27  50  73  94 143 198 238 279 348 428
#     4  11  27  44  68 109 141 186 234 288 348 418
#     4  12  24  44  74 102 141 178 243 289 347 420
#     4  11  20  40  68 101 132 182 224 287 353 405
#     4  11  24  46  69 101 142 183 233 284 357 414
#     4  11  23  40  66  99 145 172 228 287 354 409
#     4  12  23  42  71 108 137 182 225 290 359 410
#
# _framework density 25.829139000000001
#
# number of rings (size 3 to 8) (size 9 to 14) (size 15 to 20)
#    0.000    0.571    5.714    1.714    4.000    3.429 
#    0.000    1.429    0.000    0.000    0.000    0.000 
#    0.000    0.000    0.000    0.000    0.000    0.000 
#
# Total GULP energy -77935.813771 kJ/mol
# GULP energy per Si atom -5566.843841 kJ/mol
# Density = 2.577035 g / cm^3
# Si number density = 25.829139 Si / 1000 Ang^3
#
#
#
# Elastic Constant Matrix: (Units=GPa)
#
#
# Indices 1 2 3 4 5 6 
#
# 1 179.2228 60.3488 42.0820 6.1266 -10.3196 62.9564
# 2 60.3488 85.5087 24.1256 19.2190 -15.4623 32.2004
# 3 42.0820 24.1256 82.4731 -12.9849 -8.7923 7.8106
# 4 6.1266 19.2190 -12.9849 27.4647 8.6302 -5.0813
# 5 -10.3196 -15.4623 -8.7923 8.6302 47.7274 -5.4593
# 6 62.9564 32.2004 7.8106 -5.0813 -5.4593 62.6756
#
#
#
# Elastic Compliance Matrix: (Units=1/GPa)
#
#
# Indices 1 2 3 4 5 6 
#
# 1 0.011103 -0.000336 -0.005550 -0.007282 0.001355 -0.010761
# 2 -0.000336 0.030759 -0.011326 -0.033504 0.012066 -0.015719
# 3 -0.005550 -0.011326 0.020328 0.021908 -0.003908 0.010296
# 4 -0.007282 -0.033504 0.021908 0.083192 -0.020374 0.026768
# 5 0.001355 0.012066 -0.003908 -0.020374 0.027393 -0.006339
# 6 -0.010761 -0.015719 0.010296 0.026768 -0.006339 0.035175
#
#
# Mechanical properties :
#
#
# Convention : Reuss Voigt Hill
#
# Bulk Modulus (GPa) = 36.01651 66.70193 51.35922
# Shear Modulus (GPa) = 19.87039 42.28342 31.07691
#
# Velocity S-wave (km/s) = 2.77664 4.05043 3.47244
# Velocity P-wave (km/s) = 4.92484 6.91050 6.00038
#
# Compressibility (1/GPa) = 0.02776504
#
# Stress axis : x y z
#
# Youngs Moduli (GPa) = 90.06682 32.51040 49.19380
#
# Poissons Ratio (x) = 0.01093 0.27302
# Poissons Ratio (y) = 0.03028 0.55719
# Poissons Ratio (z) = 0.49986 0.36823
#
# Static dielectric constant tensor:
#      x y z
#    x 2.098040 0.048330 -0.043970 
#    y 0.048330 2.044750 -0.074600 
#    z -0.043970 -0.074600 2.193970 
# 
# From -- ./inp_files/378249.got.cif
#   From: 2010.05.17/outbox.cif.g08.bks.cpg/sg2_190_cif.got.tgz:378249.got - 2010.06.03 11:33:40.
