data_PCOD9054621
_publ_section_title
;
Structure prediction by ZEFSAII (Michael W. Deem and Ramdas Pophale) SiO2 
 PCOD9054621
Probable space group: P -1
;
_chemical_formula_sum "Si O2"
_cell_formula_units_Z 16
_cell_length_a 12.909517
_cell_length_b 12.819644
_cell_length_c 7.628643
_cell_angle_alpha 114.016011
_cell_angle_beta 61.115438
_cell_angle_gamma 67.433616
_cell_volume 694.800223
_symmetry_space_group_name_H-M "P -1"
_symmetry_group_IT_number 2
_symmetry_cell_setting 'triclinic'
loop_
_space_group_symop_operation_xyz
x,y,z
-x,-y,-z
loop_
_atom_site_type_symbol
_atom_site_label
_atom_site_fract_x
_atom_site_fract_y
_atom_site_fract_z
Si Si1 0.348258 0.678797 0.159450
Si Si2 0.073747 0.661282 0.813380
Si Si3 0.683702 0.029735 0.074741
Si Si4 0.951811 0.275055 0.544205
Si Si5 0.218380 0.997220 0.623071
Si Si6 0.468003 0.086510 0.768050
Si Si7 0.111402 0.431561 0.186560
Si Si8 0.531482 0.607818 0.614049
O O1 0.194363 0.703749 0.248024
O O2 0.260981 0.835093 0.459153
O O3 0.500000 0.500000 0.000000
O O4 0.439100 0.676613 0.923573
O O5 0.085276 0.682264 0.608026
O O6 0.266830 0.510148 0.615459
O O7 0.954582 0.631509 0.910721
O O8 0.978283 0.827258 0.115302
O O9 0.748482 0.988787 0.194166
O O10 0.558978 0.224910 0.297600
O O11 0.591188 0.971589 0.091801
O O12 0.855656 0.909444 0.734277
O O13 0.931032 0.413771 0.743859
O O14 0.357608 0.968278 0.373322
O O15 0.500000 0.000000 0.500000
O O16 0.308174 0.281145 0.985970
O O17 0.000000 0.500000 0.500000
O O18 0.500000 0.500000 0.500000
#
# Coordination Sequence:
#
# PCOD9054621 Si02
#       8
#     2   2   2   2   2   2   2   2
#     4  12  24  41  67  97 121 173 228 262 308 394
#     4  10  21  42  64  96 126 175 210 265 324 381
#     4  10  22  41  64  97 129 173 203 275 336 367
#     4  10  21  38  70  97 127 167 226 261 314 385
#     4  10  22  40  73  95 124 166 228 265 306 394
#     4  10  17  36  65  98 126 157 218 263 319 369
#     4  10  17  35  66  97 124 159 216 270 306 372
#     4  12  28  45  62  91 141 171 209 271 337 377
#
# _framework density 23.028200999999999
#
# number of rings (size 3 to 8) (size 9 to 14) (size 15 to 20)
#    0.000    1.500    6.250    1.500    3.500    2.500 
#    0.000    3.125    0.000    0.000    0.000    0.000 
#    0.000    0.000    0.000    0.000    0.000    0.000 
#
# Total GULP energy -89405.706576 kJ/mol
# GULP energy per Si atom -5587.856661 kJ/mol
# Density = 2.297579 g / cm^3
# Si number density = 23.028201 Si / 1000 Ang^3
#
#
#
# Elastic Constant Matrix: (Units=GPa)
#
#
# Indices 1 2 3 4 5 6 
#
# 1 60.4292 28.5117 26.8634 13.8571 -9.4494 7.9279
# 2 28.5117 52.8664 34.4524 28.0445 -19.4310 12.4393
# 3 26.8634 34.4524 144.1128 34.7334 -22.0029 2.7289
# 4 13.8571 28.0445 34.7334 43.5952 4.3388 2.0408
# 5 -9.4494 -19.4310 -22.0029 4.3388 44.1779 5.8056
# 6 7.9279 12.4393 2.7289 2.0408 5.8056 26.9541
#
#
#
# Elastic Compliance Matrix: (Units=1/GPa)
#
#
# Indices 1 2 3 4 5 6 
#
# 1 0.022773 -0.013857 -0.002256 0.003735 -0.002745 0.000234
# 2 -0.013857 0.071049 0.003332 -0.046243 0.038947 -0.033939
# 3 -0.002256 0.003332 0.010196 -0.010160 0.007418 -0.002735
# 4 0.003735 -0.046243 -0.010160 0.061841 -0.033811 0.023872
# 5 -0.002745 0.038947 0.007418 -0.033811 0.049617 -0.026045
# 6 0.000234 -0.033939 -0.002735 0.023872 -0.026045 0.056773
#
#
# Mechanical properties :
#
#
# Convention : Reuss Voigt Hill
#
# Bulk Modulus (GPa) = 12.74597 48.56262 30.65430
# Shear Modulus (GPa) = 15.43380 34.11748 24.77564
#
# Velocity S-wave (km/s) = 2.59166 3.85327 3.28362
# Velocity P-wave (km/s) = 3.80822 6.39774 5.26467
#
# Compressibility (1/GPa) = 0.07845616
#
# Stress axis : x y z
#
# Youngs Moduli (GPa) = 43.91226 14.07475 98.07601
#
# Poissons Ratio (x) = 0.19503 0.22126
# Poissons Ratio (y) = 0.60849 -0.32678
# Poissons Ratio (z) = 0.09907 -0.04690
#
# Static dielectric constant tensor:
#      x y z
#    x 1.903960 -0.002360 0.017940 
#    y -0.002360 2.366740 0.118220 
#    z 0.017940 0.118220 1.885770 
# 
# From -- ./inp_files/307913.got.cif
#   From: 2010.05.17/outbox.cif.g08.bks.cpg/sg2_154_cif.got.tgz:307913.got - 2010.06.03 11:33:40.
