data_PCOD9054481
_publ_section_title
;
Structure prediction by ZEFSAII (Michael W. Deem and Ramdas Pophale) SiO2 
 PCOD9054481
Probable space group: P -1
;
_chemical_formula_sum "Si O2"
_cell_formula_units_Z 16
_cell_length_a 16.631968
_cell_length_b 13.369648
_cell_length_c 7.197223
_cell_angle_alpha 144.227693
_cell_angle_beta 60.215607
_cell_angle_gamma 138.534131
_cell_volume 593.354780
_symmetry_space_group_name_H-M "P -1"
_symmetry_group_IT_number 2
_symmetry_cell_setting 'triclinic'
loop_
_space_group_symop_operation_xyz
x,y,z
-x,-y,-z
loop_
_atom_site_type_symbol
_atom_site_label
_atom_site_fract_x
_atom_site_fract_y
_atom_site_fract_z
Si Si1 0.860604 0.339906 0.186832
Si Si2 0.132924 0.670863 0.382550
Si Si3 0.135442 0.292423 0.477242
Si Si4 0.609689 0.930747 0.277577
Si Si5 0.394920 0.922743 0.861568
Si Si6 0.135460 0.045316 0.744736
Si Si7 0.375843 0.534840 0.193932
Si Si8 0.629272 0.610011 0.617260
O O1 0.868013 0.351892 0.424294
O O2 0.858430 0.506907 0.308306
O O3 0.715356 0.095318 0.957386
O O4 0.995223 0.419535 0.107758
O O5 0.279550 0.808849 0.376533
O O6 0.126739 0.844861 0.540105
O O7 0.259562 0.374022 0.563019
O O8 0.135521 0.174452 0.114688
O O9 0.995669 0.086094 0.410686
O O10 0.504264 0.722776 0.217429
O O11 0.542986 0.929037 0.173445
O O12 0.683790 0.862612 0.998445
O O13 0.325325 0.663421 0.475464
O O14 0.500000 0.000000 0.000000
O O15 0.269978 0.270460 0.840221
O O16 0.411780 0.526183 0.347279
O O17 0.500000 0.500000 0.500000
#
# Coordination Sequence:
#
# PCOD9054481 Si02
#       8
#     2   2   2   2   2   2   2   2
#     4   9  17  31  52  77 106 134 181 230 261 303
#     4   9  17  30  51  81 104 135 180 226 264 307
#     4   9  16  30  51  77 104 137 178 226 263 303
#     4  11  22  34  55  80 111 142 179 221 271 323
#     4  11  22  37  56  79 106 141 181 224 273 323
#     4   9  16  29  52  77 105 135 178 226 264 304
#     4  11  21  37  54  80 110 143 178 225 271 318
#     4  11  21  34  53  79 111 144 176 219 269 316
#
# _framework density 26.965316999999999
#
# number of rings (size 3 to 8) (size 9 to 14) (size 15 to 20)
#    0.000    2.000    5.000    1.500    0.000    0.000 
#    0.000    0.000    0.000    3.000    0.000    0.000 
#    0.000    0.000    0.000    0.000    0.000    0.000 
#
# Total GULP energy -89073.604156 kJ/mol
# GULP energy per Si atom -5567.100260 kJ/mol
# Density = 2.690394 g / cm^3
# Si number density = 26.965317 Si / 1000 Ang^3
#
#
#
# Elastic Constant Matrix: (Units=GPa)
#
#
# Indices 1 2 3 4 5 6 
#
# 1 182.5562 84.5804 46.7591 23.9630 52.2863 11.9657
# 2 84.5804 121.6167 33.0489 27.1497 35.0353 11.7185
# 3 46.7591 33.0489 62.5445 4.9983 1.5324 16.3801
# 4 23.9630 27.1497 4.9983 26.0337 11.6293 17.7384
# 5 52.2863 35.0353 1.5324 11.6293 49.5861 23.1627
# 6 11.9657 11.7185 16.3801 17.7384 23.1627 58.7058
#
#
#
# Elastic Compliance Matrix: (Units=1/GPa)
#
#
# Indices 1 2 3 4 5 6 
#
# 1 0.013992 -0.000874 -0.011395 -0.009131 -0.016141 0.009629
# 2 -0.000874 0.017458 -0.009264 -0.016516 -0.011338 0.008742
# 3 -0.011395 -0.009264 0.032434 0.016699 0.022408 -0.018765
# 4 -0.009131 -0.016516 0.016699 0.072392 0.016904 -0.028045
# 5 -0.016141 -0.011338 0.022408 0.016904 0.053026 -0.026728
# 6 0.009629 0.008742 -0.018765 -0.028045 -0.026728 0.037582
#
#
# Mechanical properties :
#
#
# Convention : Reuss Voigt Hill
#
# Bulk Modulus (GPa) = 48.03468 77.27711 62.65590
# Shear Modulus (GPa) = 18.05783 40.35373 29.20578
#
# Velocity S-wave (km/s) = 2.59060 3.87267 3.29460
# Velocity P-wave (km/s) = 5.17692 6.97975 6.14481
#
# Compressibility (1/GPa) = 0.02081829
#
# Stress axis : x y z
#
# Youngs Moduli (GPa) = 71.47150 57.27905 30.83200
#
# Poissons Ratio (x) = 0.05005 0.35134
# Poissons Ratio (y) = 0.06245 0.28562
# Poissons Ratio (z) = 0.81444 0.53061
#
# Static dielectric constant tensor:
#      x y z
#    x 2.192790 0.097390 -0.049740 
#    y 0.097390 2.178990 -0.023880 
#    z -0.049740 -0.023880 2.349710 
# 
# From -- ./inp_files/308539.got.cif
#   From: 2010.05.17/outbox.cif.g08.bks.cpg/sg2_155_cif.got.tgz:308539.got - 2010.06.03 11:33:40.
