data_PCOD9054139
_publ_section_title
;
Structure prediction by ZEFSAII (Michael W. Deem and Ramdas Pophale) SiO2 
 PCOD9054139
Probable space group: P -1
;
_chemical_formula_sum "Si O2"
_cell_formula_units_Z 16
_cell_length_a 7.538201
_cell_length_b 9.276934
_cell_length_c 11.697053
_cell_angle_alpha 70.317068
_cell_angle_beta 105.199255
_cell_angle_gamma 65.318037
_cell_volume 617.405288
_symmetry_space_group_name_H-M "P -1"
_symmetry_group_IT_number 2
_symmetry_cell_setting 'triclinic'
loop_
_space_group_symop_operation_xyz
x,y,z
-x,-y,-z
loop_
_atom_site_type_symbol
_atom_site_label
_atom_site_fract_x
_atom_site_fract_y
_atom_site_fract_z
Si Si1 0.718856 0.287907 0.974799
Si Si2 0.215336 0.617469 0.561571
Si Si3 0.432649 0.009019 0.699065
Si Si4 0.093742 0.290529 0.099283
Si Si5 0.052596 0.415543 0.305320
Si Si6 0.383017 0.708077 0.782253
Si Si7 0.487822 0.289813 0.520735
Si Si8 0.613130 0.807656 0.135999
O O1 0.976465 0.209778 0.029738
O O2 0.697682 0.242734 0.114470
O O3 0.611527 0.507485 0.890680
O O4 0.579914 0.233613 0.890071
O O5 0.990190 0.638073 0.560088
O O6 0.275643 0.642722 0.692114
O O7 0.381150 0.423144 0.577966
O O8 0.280448 0.736744 0.465570
O O9 0.334986 0.896738 0.667896
O O10 0.648256 0.838169 0.843101
O O11 0.509526 0.100699 0.598945
O O12 0.313788 0.152870 0.741691
O O13 0.071460 0.293411 0.233296
O O14 0.000000 0.500000 0.000000
O O15 0.842571 0.621506 0.186077
O O16 0.289009 0.394050 0.364990
O O17 0.500000 0.000000 0.000000
#
# Coordination Sequence:
#
# PCOD9054139 Si02
#       8
#     2   2   2   2   2   2   2   2
#     4  11  21  41  68 100 141 187 225 278 368 430
#     4  11  23  47  72  99 139 191 241 286 354 425
#     4  12  25  45  69 106 147 171 243 308 337 409
#     4  12  25  43  71 112 140 187 234 289 362 431
#     4  12  24  48  79  96 143 198 232 276 372 428
#     4  11  20  40  71  94 139 188 222 292 354 418
#     4  11  27  47  72 104 139 189 242 299 345 414
#     4  12  24  44  73 108 138 183 233 295 354 427
#
# _framework density 25.914905999999998
#
# number of rings (size 3 to 8) (size 9 to 14) (size 15 to 20)
#    0.000    0.500    6.250    2.625    0.000    2.500 
#    6.750    1.250    0.000    0.000    0.000    0.000 
#    0.000    0.000    0.000    0.000    0.000    0.000 
#
# Total GULP energy -89198.419257 kJ/mol
# GULP energy per Si atom -5574.901204 kJ/mol
# Density = 2.585592 g / cm^3
# Si number density = 25.914906 Si / 1000 Ang^3
#
#
#
# Elastic Constant Matrix: (Units=GPa)
#
#
# Indices 1 2 3 4 5 6 
#
# 1 72.7559 26.5958 5.8370 3.3947 -12.9109 10.9747
# 2 26.5958 107.6394 29.8463 -1.2079 -6.9347 20.8726
# 3 5.8370 29.8463 84.8771 -0.6053 -14.7351 14.1400
# 4 3.3947 -1.2079 -0.6053 46.0807 10.2780 -8.7087
# 5 -12.9109 -6.9347 -14.7351 10.2780 50.4160 3.2118
# 6 10.9747 20.8726 14.1400 -8.7087 3.2118 47.1279
#
#
#
# Elastic Compliance Matrix: (Units=1/GPa)
#
#
# Indices 1 2 3 4 5 6 
#
# 1 0.016501 -0.003507 0.001570 -0.003114 0.005072 -0.003682
# 2 -0.003507 0.011736 -0.003322 -0.000118 -0.000013 -0.003405
# 3 0.001570 -0.003322 0.014290 -0.001795 0.004732 -0.003836
# 4 -0.003114 -0.000118 -0.001795 0.024606 -0.006758 0.006324
# 5 0.005072 -0.000013 0.004732 -0.006758 0.024243 -0.005496
# 6 -0.003682 -0.003405 -0.003836 0.006324 -0.005496 0.026278
#
#
# Mechanical properties :
#
#
# Convention : Reuss Voigt Hill
#
# Bulk Modulus (GPa) = 31.24038 43.31450 37.27744
# Shear Modulus (GPa) = 36.01257 42.25781 39.13519
#
# Velocity S-wave (km/s) = 3.73184 4.04250 3.89027
# Velocity P-wave (km/s) = 5.53624 6.20801 5.88173
#
# Compressibility (1/GPa) = 0.03200985
#
# Stress axis : x y z
#
# Youngs Moduli (GPa) = 60.60190 85.20865 69.98132
#
# Poissons Ratio (x) = 0.29880 -0.10986
# Poissons Ratio (y) = 0.21252 0.23244
# Poissons Ratio (z) = -0.09514 0.28302
#
# Static dielectric constant tensor:
#      x y z
#    x 2.163700 -0.003600 -0.035210 
#    y -0.003600 2.030300 -0.011190 
#    z -0.035210 -0.011190 2.123520 
# 
# From -- ./inp_files/381760.got.cif
#   From: 2010.05.17/outbox.cif.g08.bks.cpg/sg2_191_cif.got.tgz:381760.got - 2010.06.03 11:33:40.
