data_PCOD9054712
_publ_section_title
;
Structure prediction by ZEFSAII (Michael W. Deem and Ramdas Pophale) SiO2 
 PCOD9054712
Probable space group: P -1
;
_chemical_formula_sum "Si O2"
_cell_formula_units_Z 12
_cell_length_a 8.714971
_cell_length_b 7.120044
_cell_length_c 19.016013
_cell_angle_alpha 56.869084
_cell_angle_beta 28.405721
_cell_angle_gamma 67.788596
_cell_volume 454.168155
_symmetry_space_group_name_H-M "P -1"
_symmetry_group_IT_number 2
_symmetry_cell_setting 'triclinic'
loop_
_space_group_symop_operation_xyz
x,y,z
-x,-y,-z
loop_
_atom_site_type_symbol
_atom_site_label
_atom_site_fract_x
_atom_site_fract_y
_atom_site_fract_z
Si Si1 0.690450 0.686361 0.017554
Si Si2 0.233126 0.622123 0.443565
Si Si3 0.152788 0.260189 0.298656
Si Si4 0.513738 0.236315 0.488756
Si Si5 0.601269 0.980692 0.860831
Si Si6 0.850397 0.930563 0.182759
O O1 0.524518 0.424622 0.119425
O O2 0.202371 0.873268 0.038532
O O3 0.397356 0.767313 0.161620
O O4 0.727384 0.837372 0.900559
O O5 0.360885 0.414642 0.471595
O O6 0.586354 0.819501 0.252287
O O7 0.000000 0.500000 0.500000
O O8 0.017390 0.743951 0.556935
O O9 0.189240 0.033635 0.289532
O O10 0.898202 0.349978 0.332290
O O11 0.322042 0.171577 0.653429
O O12 0.500000 0.000000 0.500000
O O13 0.979564 0.208857 0.090579
#
# Coordination Sequence:
#
# PCOD9054712 Si02
#       6
#     2   2   2   2   2   2
#     4   9  18  31  61  95 128 142 208 265 320 349
#     4  11  25  44  61  88 133 174 209 256 312 376
#     4  11  21  37  68  93 123 168 209 261 317 372
#     4  11  23  38  67  97 124 163 215 259 309 376
#     4   9  18  31  61  96 126 144 208 261 325 349
#     4   9  19  39  62  93 127 157 211 264 309 374
#
# _framework density 26.421931000000001
#
# number of rings (size 3 to 8) (size 9 to 14) (size 15 to 20)
#    1.000    1.000    0.000    5.500    2.333    1.333 
#    0.000    5.000    0.000    0.000    0.000    0.000 
#    0.000    0.000    0.000    0.000    0.000    0.000 
#
# Total GULP energy -67057.737792 kJ/mol
# GULP energy per Si atom -5588.144816 kJ/mol
# Density = 2.636179 g / cm^3
# Si number density = 26.421931 Si / 1000 Ang^3
#
#
#
# Elastic Constant Matrix: (Units=GPa)
#
#
# Indices 1 2 3 4 5 6 
#
# 1 140.5970 39.7691 53.8185 1.0609 -34.9541 19.2690
# 2 39.7691 126.3935 40.7613 9.5150 -1.1181 36.2774
# 3 53.8185 40.7613 102.8117 -9.3804 -24.6045 21.3431
# 4 1.0609 9.5150 -9.3804 62.2911 28.9344 0.0853
# 5 -34.9541 -1.1181 -24.6045 28.9344 48.5185 -8.1212
# 6 19.2690 36.2774 21.3431 0.0853 -8.1212 43.9634
#
#
#
# Elastic Compliance Matrix: (Units=1/GPa)
#
#
# Indices 1 2 3 4 5 6 
#
# 1 0.011273 -0.002067 -0.003328 -0.004634 0.009163 0.000083
# 2 -0.002067 0.011825 -0.002853 -0.000439 -0.003768 -0.008161
# 3 -0.003328 -0.002853 0.014061 0.000866 0.003763 -0.002319
# 4 -0.004634 -0.000439 0.000866 0.024605 -0.017812 -0.001365
# 5 0.009163 -0.003768 0.003763 -0.017812 0.040455 0.004774
# 6 0.000083 -0.008161 -0.002319 -0.001365 0.004774 0.031455
#
#
# Mechanical properties :
#
#
# Convention : Reuss Voigt Hill
#
# Bulk Modulus (GPa) = 48.40239 70.94444 59.67342
# Shear Modulus (GPa) = 31.83506 46.65147 39.24327
#
# Velocity S-wave (km/s) = 3.47489 4.20650 3.85808
# Velocity P-wave (km/s) = 5.87015 7.10646 6.51768
#
# Compressibility (1/GPa) = 0.02066014
#
# Stress axis : x y z
#
# Youngs Moduli (GPa) = 88.70638 84.56881 71.11830
#
# Poissons Ratio (x) = 0.17484 0.23672
# Poissons Ratio (y) = 0.18339 0.20293
# Poissons Ratio (z) = 0.29526 0.24132
#
# Static dielectric constant tensor:
#      x y z
#    x 2.130320 -0.012690 0.007870 
#    y -0.012690 2.051230 -0.037320 
#    z 0.007870 -0.037320 2.088180 
# 
# From -- ./inp_files/586719.got.cif
#   From: 2010.05.17/outbox.cif.g08.bks.cpg/sg2_294_cif.got.tgz:586719.got - 2010.06.03 11:33:40.
