data_PCOD9054260
_publ_section_title
;
Structure prediction by ZEFSAII (Michael W. Deem and Ramdas Pophale) SiO2 
 PCOD9054260
Probable space group: P -1
;
_chemical_formula_sum "Si O2"
_cell_formula_units_Z 16
_cell_length_a 8.078970
_cell_length_b 7.366805
_cell_length_c 19.028367
_cell_angle_alpha 57.949352
_cell_angle_beta 134.524040
_cell_angle_gamma 129.296955
_cell_volume 617.102802
_symmetry_space_group_name_H-M "P -1"
_symmetry_group_IT_number 2
_symmetry_cell_setting 'triclinic'
loop_
_space_group_symop_operation_xyz
x,y,z
-x,-y,-z
loop_
_atom_site_type_symbol
_atom_site_label
_atom_site_fract_x
_atom_site_fract_y
_atom_site_fract_z
Si Si1 0.262617 0.562733 0.430821
Si Si2 0.182102 0.147301 0.684249
Si Si3 0.616818 0.805214 0.605695
Si Si4 0.751594 0.994854 0.109971
Si Si5 0.320242 0.679304 0.271943
Si Si6 0.287286 0.668515 0.658425
Si Si7 0.109937 0.509425 0.917789
Si Si8 0.418154 0.527089 0.873766
O O1 0.500000 0.500000 0.500000
O O2 0.380028 0.735183 0.496041
O O3 0.216915 0.669547 0.322027
O O4 0.995343 0.341460 0.416502
O O5 0.255223 0.072975 0.796380
O O6 0.382697 0.142337 0.687396
O O7 0.216653 0.414161 0.651693
O O8 0.885397 0.986269 0.616443
O O9 0.679569 0.578412 0.682841
O O10 0.510459 0.850047 0.638870
O O11 0.751651 0.761461 0.121225
O O12 0.940508 0.277577 0.106310
O O13 0.500000 0.000000 0.000000
O O14 0.146693 0.687790 0.153414
O O15 0.391474 0.646545 0.770016
O O16 0.301406 0.613005 0.886102
O O17 0.286754 0.427558 0.034961
#
# Coordination Sequence:
#
# PCOD9054260 Si02
#       8
#     2   2   2   2   2   2   2   2
#     4  10  21  38  62  85 116 157 207 257 312 370
#     4  10  21  37  57  87 124 161 205 252 306 365
#     4  10  21  38  60  84 118 164 204 249 316 365
#     4   9  18  35  58  86 123 164 207 247 298 372
#     4  10  20  37  60  87 123 162 204 255 306 364
#     4  10  20  39  59  87 123 153 204 262 302 371
#     4  10  17  35  64  86 127 168 196 257 310 357
#     4   9  19  33  62  94 122 161 209 247 310 375
#
# _framework density 25.927609
#
# number of rings (size 3 to 8) (size 9 to 14) (size 15 to 20)
#    0.000    2.250    2.500    0.375    0.000    1.000 
#    2.250    6.250    0.000    2.250    0.000    0.000 
#    0.000    0.000    0.000    0.000    0.000    0.000 
#
# Total GULP energy -89392.362514 kJ/mol
# GULP energy per Si atom -5587.022657 kJ/mol
# Density = 2.586860 g / cm^3
# Si number density = 25.927609 Si / 1000 Ang^3
#
#
#
# Elastic Constant Matrix: (Units=GPa)
#
#
# Indices 1 2 3 4 5 6 
#
# 1 104.5204 23.0852 30.1389 4.2135 3.9800 14.1727
# 2 23.0852 64.8812 19.2460 7.9762 16.4696 -4.5627
# 3 30.1389 19.2460 137.5445 26.1293 11.2924 7.5277
# 4 4.2135 7.9762 26.1293 31.0624 -8.7027 9.0580
# 5 3.9800 16.4696 11.2924 -8.7027 32.4469 1.8442
# 6 14.1727 -4.5627 7.5277 9.0580 1.8442 34.4146
#
#
#
# Elastic Compliance Matrix: (Units=1/GPa)
#
#
# Indices 1 2 3 4 5 6 
#
# 1 0.012200 -0.005704 -0.002876 0.005398 0.004234 -0.006799
# 2 -0.005704 0.023413 0.001331 -0.013591 -0.015838 0.009588
# 3 -0.002876 0.001331 0.010315 -0.011336 -0.007094 0.002468
# 4 0.005398 -0.013591 -0.011336 0.057176 0.026541 -0.018017
# 5 0.004234 -0.015838 -0.007094 0.026541 0.048602 -0.011882
# 6 -0.006799 0.009588 0.002468 -0.018017 -0.011882 0.037967
#
#
# Mechanical properties :
#
#
# Convention : Reuss Voigt Hill
#
# Bulk Modulus (GPa) = 31.81674 50.20960 41.01317
# Shear Modulus (GPa) = 23.29393 35.21650 29.25521
#
# Velocity S-wave (km/s) = 3.00062 3.68946 3.36272
# Velocity P-wave (km/s) = 4.92981 6.12836 5.56147
#
# Compressibility (1/GPa) = 0.03142999
#
# Stress axis : x y z
#
# Youngs Moduli (GPa) = 81.96861 42.71149 96.94570
#
# Poissons Ratio (x) = 0.24363 0.27882
# Poissons Ratio (y) = 0.46756 -0.12907
# Poissons Ratio (z) = 0.23575 -0.05686
#
# Static dielectric constant tensor:
#      x y z
#    x 2.048280 -0.038800 -0.006560 
#    y -0.038800 2.146590 0.013230 
#    z -0.006560 0.013230 2.024070 
# 
# From -- ./inp_files/587341.got.cif
#   From: 2010.05.17/outbox.cif.g08.bks.cpg/sg2_294_cif.got.tgz:587341.got - 2010.06.03 11:33:40.
