data_PCOD9054577
_publ_section_title
;
Structure prediction by ZEFSAII (Michael W. Deem and Ramdas Pophale) SiO2 
 PCOD9054577
Probable space group: P -1
;
_chemical_formula_sum "Si O2"
_cell_formula_units_Z 16
_cell_length_a 18.077573
_cell_length_b 20.741599
_cell_length_c 12.808771
_cell_angle_alpha 158.978758
_cell_angle_beta 145.181529
_cell_angle_gamma 21.904023
_cell_volume 605.106059
_symmetry_space_group_name_H-M "P -1"
_symmetry_group_IT_number 2
_symmetry_cell_setting 'triclinic'
loop_
_space_group_symop_operation_xyz
x,y,z
-x,-y,-z
loop_
_atom_site_type_symbol
_atom_site_label
_atom_site_fract_x
_atom_site_fract_y
_atom_site_fract_z
Si Si1 0.311494 0.865501 0.195292
Si Si2 0.959772 0.282282 0.987609
Si Si3 0.616420 0.685192 0.692610
Si Si4 0.567014 0.916570 0.599153
Si Si5 0.802713 0.995519 0.953514
Si Si6 0.007160 0.277010 0.655522
Si Si7 0.295279 0.758192 0.362296
Si Si8 0.187759 0.380504 0.368658
O O1 0.368432 0.018053 0.485920
O O2 0.232254 0.880152 0.013112
O O3 0.150260 0.040939 0.369100
O O4 0.536523 0.517748 0.941642
O O5 0.763628 0.606405 0.300706
O O6 0.114519 0.029336 0.875234
O O7 0.098821 0.280007 0.086379
O O8 0.830090 0.262185 0.755906
O O9 0.441861 0.725062 0.549653
O O10 0.776837 0.516961 0.526420
O O11 0.764679 0.502035 0.687322
O O12 0.500000 0.000000 0.000000
O O13 0.598408 0.092646 0.880469
O O14 0.606055 0.852855 0.672172
O O15 0.005020 0.654233 0.643672
O O16 0.123358 0.064602 0.567054
O O17 0.000000 0.500000 0.000000
#
# Coordination Sequence:
#
# PCOD9054577 Si02
#       8
#     2   2   2   2   2   2   2   2
#     4  11  21  36  63 100 130 164 216 273 318 378
#     4   8  18  36  61  92 133 162 197 277 327 369
#     4  12  25  44  69  91 128 180 224 256 312 400
#     4   8  16  30  57  91 132 165 201 262 321 390
#     4   9  16  31  57  95 133 166 202 256 334 384
#     4  12  26  45  64  89 135 178 217 261 317 388
#     4  11  25  43  66  99 134 163 213 277 327 369
#     4   9  17  37  62  88 124 173 216 250 320 387
#
# _framework density 26.441645000000001
#
# number of rings (size 3 to 8) (size 9 to 14) (size 15 to 20)
#    0.000    2.000    2.500    3.000    1.750    2.500 
#    0.000    0.625    0.000    0.750    0.000    0.000 
#    0.000    0.000    0.000    0.000    0.000    0.000 
#
# Total GULP energy -89245.919492 kJ/mol
# GULP energy per Si atom -5577.869968 kJ/mol
# Density = 2.638146 g / cm^3
# Si number density = 26.441645 Si / 1000 Ang^3
#
#
#
# Elastic Constant Matrix: (Units=GPa)
#
#
# Indices 1 2 3 4 5 6 
#
# 1 40.0698 22.3426 11.6879 -5.8137 -2.5553 5.1234
# 2 22.3426 159.3281 49.9724 -28.0935 14.9880 10.5784
# 3 11.6879 49.9724 83.8078 0.8238 7.5808 -15.9335
# 4 -5.8137 -28.0935 0.8238 54.6536 -18.5747 13.0439
# 5 -2.5553 14.9880 7.5808 -18.5747 30.6445 4.6538
# 6 5.1234 10.5784 -15.9335 13.0439 4.6538 33.3170
#
#
#
# Elastic Compliance Matrix: (Units=1/GPa)
#
#
# Indices 1 2 3 4 5 6 
#
# 1 0.032562 0.000417 -0.009540 0.013108 0.015396 -0.016984
# 2 0.000417 0.012093 -0.010744 0.012064 0.006315 -0.014647
# 3 -0.009540 -0.010744 0.026900 -0.019979 -0.018582 0.028160
# 4 0.013108 0.012064 -0.019979 0.047203 0.034626 -0.038718
# 5 0.015396 0.006315 -0.018582 0.034626 0.061795 -0.035447
# 6 -0.016984 -0.014647 0.028160 -0.038718 -0.035447 0.070854
#
#
# Mechanical properties :
#
#
# Convention : Reuss Voigt Hill
#
# Bulk Modulus (GPa) = 31.42577 50.13460 40.78019
# Shear Modulus (GPa) = 16.57011 37.00321 26.78666
#
# Velocity S-wave (km/s) = 2.50605 3.74495 3.18629
# Velocity P-wave (km/s) = 4.50383 6.14013 5.38450
#
# Compressibility (1/GPa) = 0.03182102
#
# Stress axis : x y z
#
# Youngs Moduli (GPa) = 30.71047 82.69051 37.17531
#
# Poissons Ratio (x) = -0.03445 0.35466
# Poissons Ratio (y) = -0.01279 0.39939
# Poissons Ratio (z) = 0.29298 0.88839
#
# Static dielectric constant tensor:
#      x y z
#    x 2.209630 0.061430 -0.017880 
#    y 0.061430 2.119610 0.003300 
#    z -0.017880 0.003300 2.204970 
# 
# From -- ./inp_files/541780.got.cif
#   From: 2010.05.17/outbox.cif.g08.bks.cpg/sg2_271_cif.got.tgz:541780.got - 2010.06.03 11:33:40.
