data_PCOD9054527
_publ_section_title
;
Structure prediction by ZEFSAII (Michael W. Deem and Ramdas Pophale) SiO2 
 PCOD9054527
Probable space group: P -1
;
_chemical_formula_sum "Si O2"
_cell_formula_units_Z 16
_cell_length_a 11.640733
_cell_length_b 10.486255
_cell_length_c 7.249709
_cell_angle_alpha 100.865473
_cell_angle_beta 98.265484
_cell_angle_gamma 132.513767
_cell_volume 593.983837
_symmetry_space_group_name_H-M "P -1"
_symmetry_group_IT_number 2
_symmetry_cell_setting 'triclinic'
loop_
_space_group_symop_operation_xyz
x,y,z
-x,-y,-z
loop_
_atom_site_type_symbol
_atom_site_label
_atom_site_fract_x
_atom_site_fract_y
_atom_site_fract_z
Si Si1 0.687426 0.513994 0.624075
Si Si2 0.014244 0.450662 0.280562
Si Si3 0.660941 0.186986 0.986683
Si Si4 0.856593 0.904099 0.703524
Si Si5 0.229371 0.167159 0.781074
Si Si6 0.558757 0.863092 0.313197
Si Si7 0.265566 0.463378 0.775267
Si Si8 0.114012 0.802773 0.309911
O O1 0.851367 0.555280 0.702535
O O2 0.737474 0.704282 0.721068
O O3 0.534646 0.322253 0.639049
O O4 0.651966 0.478734 0.388234
O O5 0.074263 0.620741 0.214830
O O6 0.000000 0.500000 0.500000
O O7 0.830643 0.259765 0.117241
O O8 0.695182 0.366064 0.086743
O O9 0.579010 0.137246 0.753519
O O10 0.500000 0.000000 0.000000
O O11 0.810370 0.865051 0.460974
O O12 0.850983 0.052903 0.788226
O O13 0.048900 0.011386 0.793030
O O14 0.358315 0.155289 0.838822
O O15 0.303464 0.370447 0.884290
O O16 0.723790 0.061962 0.488266
O O17 0.061115 0.292982 0.661834
#
# Coordination Sequence:
#
# PCOD9054527 Si02
#       8
#     2   2   2   2   2   2   2   2
#     4  11  21  35  62  90 115 150 191 242 290 338
#     4  11  21  39  64  80 110 159 202 232 278 349
#     4  11  24  38  59  86 115 150 197 240 284 342
#     4   8  16  31  59  86 110 149 202 227 271 342
#     4   8  16  32  58  85 114 151 192 232 277 342
#     4  11  23  34  58  92 125 139 183 251 300 323
#     4   9  19  39  63  83 111 159 203 223 272 355
#     4   9  18  37  60  86 112 157 195 234 272 346
#
# _framework density 26.936761000000001
#
# number of rings (size 3 to 8) (size 9 to 14) (size 15 to 20)
#    0.000    2.250    2.500    3.000    1.750    6.000 
#    0.000    0.000    0.000    6.750    0.000    0.000 
#    0.000    0.000    0.000    0.000    0.000    0.000 
#
# Total GULP energy -89459.361495 kJ/mol
# GULP energy per Si atom -5591.210093 kJ/mol
# Density = 2.687545 g / cm^3
# Si number density = 26.936761 Si / 1000 Ang^3
#
#
#
# Elastic Constant Matrix: (Units=GPa)
#
#
# Indices 1 2 3 4 5 6 
#
# 1 93.7021 17.8885 35.4033 15.3513 23.4871 -1.9061
# 2 17.8885 133.2837 37.6837 16.9953 0.2968 -4.1554
# 3 35.4033 37.6837 81.8415 16.0585 16.5587 17.8639
# 4 15.3513 16.9953 16.0585 44.3623 8.2457 8.1714
# 5 23.4871 0.2968 16.5587 8.2457 42.1365 16.0879
# 6 -1.9061 -4.1554 17.8639 8.1714 16.0879 48.1979
#
#
#
# Elastic Compliance Matrix: (Units=1/GPa)
#
#
# Indices 1 2 3 4 5 6 
#
# 1 0.015471 0.000158 -0.005877 -0.002895 -0.008030 0.005975
# 2 0.000158 0.009186 -0.004582 -0.002604 0.001187 0.002542
# 3 -0.005877 -0.004582 0.018939 -0.001563 -0.001158 -0.006995
# 4 -0.002895 -0.002604 -0.001563 0.026055 -0.001441 -0.003696
# 5 -0.008030 0.001187 -0.001158 -0.001441 0.032963 -0.010544
# 6 0.005975 0.002542 -0.006995 -0.003696 -0.010544 0.027942
#
#
# Mechanical properties :
#
#
# Convention : Reuss Voigt Hill
#
# Bulk Modulus (GPa) = 43.48915 54.53092 49.01003
# Shear Modulus (GPa) = 31.48196 41.46280 36.47238
#
# Velocity S-wave (km/s) = 3.42239 3.92760 3.68367
# Velocity P-wave (km/s) = 5.63888 6.39188 6.02715
#
# Compressibility (1/GPa) = 0.02299424
#
# Stress axis : x y z
#
# Youngs Moduli (GPa) = 64.63764 108.86525 52.80247
#
# Poissons Ratio (x) = -0.01725 0.31031
# Poissons Ratio (y) = -0.01024 0.24194
# Poissons Ratio (z) = 0.37987 0.49883
#
# Static dielectric constant tensor:
#      x y z
#    x 2.178000 -0.012800 -0.052190 
#    y -0.012800 2.074740 -0.031060 
#    z -0.052190 -0.031060 2.267030 
# 
# From -- ./inp_files/305167.got.cif
#   From: 2010.05.17/outbox.cif.g08.bks.cpg/sg2_153_cif.got.tgz:305167.got - 2010.06.03 11:33:40.
