data_PCOD9054495
_publ_section_title
;
Structure prediction by ZEFSAII (Michael W. Deem and Ramdas Pophale) SiO2 
 PCOD9054495
Probable space group: P -1
;
_chemical_formula_sum "Si O2"
_cell_formula_units_Z 14
_cell_length_a 9.689850
_cell_length_b 7.834859
_cell_length_c 13.189464
_cell_angle_alpha 111.348539
_cell_angle_beta 145.520518
_cell_angle_gamma 66.025034
_cell_volume 517.135119
_symmetry_space_group_name_H-M "P -1"
_symmetry_group_IT_number 2
_symmetry_cell_setting 'triclinic'
loop_
_space_group_symop_operation_xyz
x,y,z
-x,-y,-z
loop_
_atom_site_type_symbol
_atom_site_label
_atom_site_fract_x
_atom_site_fract_y
_atom_site_fract_z
Si Si1 0.196950 0.843787 0.711611
Si Si2 0.988321 0.040895 0.164892
Si Si3 0.692833 0.355306 0.930915
Si Si4 0.582458 0.263123 0.614378
Si Si5 0.715104 0.839277 0.297055
Si Si6 0.845910 0.524000 0.721226
Si Si7 0.632621 0.788821 0.832074
O O1 0.449311 0.728454 0.791579
O O2 0.969849 0.790254 0.501156
O O3 0.140185 0.837617 0.792577
O O4 0.222405 0.058593 0.745953
O O5 0.274489 0.951974 0.336252
O O6 0.849727 0.867632 0.034085
O O7 0.904642 0.168566 0.045162
O O8 0.632548 0.340769 0.772885
O O9 0.446859 0.319663 0.832603
O O10 0.856841 0.501944 0.100940
O O11 0.732552 0.340180 0.629217
O O12 0.297102 0.352497 0.430636
O O13 0.541335 0.025256 0.283205
O O14 0.744723 0.638042 0.786136
#
# Coordination Sequence:
#
# PCOD9054495 Si02
#       7
#     2   2   2   2   2   2   2
#     4   9  18  36  56  92 118 153 196 239 296 350
#     4  11  21  34  63  92 120 151 195 250 293 343
#     4  11  23  38  59  94 122 148 200 251 291 347
#     4  11  25  40  60  86 121 163 195 238 303 359
#     4   8  19  33  58  86 120 152 189 253 287 335
#     4  11  24  42  60  85 120 163 197 238 301 356
#     4   9  18  34  59  85 114 153 192 241 283 348
#
# _framework density 27.072229
#
# number of rings (size 3 to 8) (size 9 to 14) (size 15 to 20)
#    0.857    1.143    1.429    2.143    4.000    0.571 
#    0.000    0.000    0.000    4.286    0.000    0.000 
#    0.000    0.000    0.000    0.000    0.000    0.000 
#
# Total GULP energy -78251.326932 kJ/mol
# GULP energy per Si atom -5589.380495 kJ/mol
# Density = 2.701061 g / cm^3
# Si number density = 27.072229 Si / 1000 Ang^3
#
#
#
# Elastic Constant Matrix: (Units=GPa)
#
#
# Indices 1 2 3 4 5 6 
#
# 1 111.6966 20.2921 69.1025 0.5406 6.1772 11.5891
# 2 20.2921 50.3163 24.4562 -10.4787 -2.8399 13.7568
# 3 69.1025 24.4562 183.8144 -24.4397 33.1628 20.4756
# 4 0.5406 -10.4787 -24.4397 38.2061 16.1771 6.1640
# 5 6.1772 -2.8399 33.1628 16.1771 50.1020 4.4215
# 6 11.5891 13.7568 20.4756 6.1640 4.4215 39.8904
#
#
#
# Elastic Compliance Matrix: (Units=1/GPa)
#
#
# Indices 1 2 3 4 5 6 
#
# 1 0.013348 -0.003950 -0.006573 -0.007780 0.004859 0.001522
# 2 -0.003950 0.025664 0.000361 0.008977 -0.000381 -0.009233
# 3 -0.006573 0.000361 0.012327 0.013729 -0.011284 -0.005413
# 4 -0.007780 0.008977 0.013729 0.049074 -0.022318 -0.012992
# 5 0.004859 -0.000381 -0.011284 -0.022318 0.033640 0.004232
# 6 0.001522 -0.009233 -0.005413 -0.012992 0.004232 0.032128
#
#
# Mechanical properties :
#
#
# Convention : Reuss Voigt Hill
#
# Bulk Modulus (GPa) = 32.24172 63.72542 47.98357
# Shear Modulus (GPa) = 25.40094 41.10480 33.25287
#
# Velocity S-wave (km/s) = 3.06643 3.90081 3.50852
# Velocity P-wave (km/s) = 4.94699 6.62409 5.84600
#
# Compressibility (1/GPa) = 0.03101572
#
# Stress axis : x y z
#
# Youngs Moduli (GPa) = 74.91819 38.96472 81.12133
#
# Poissons Ratio (x) = 0.15392 0.53319
# Poissons Ratio (y) = 0.29595 -0.02931
# Poissons Ratio (z) = 0.49242 -0.01408
#
# Static dielectric constant tensor:
#      x y z
#    x 2.067700 0.061930 0.046790 
#    y 0.061930 2.246630 0.042070 
#    z 0.046790 0.042070 2.098910 
# 
# From -- ./inp_files/513395.got.cif
#   From: 2010.05.17/outbox.cif.g08.bks.cpg/sg2_257_cif.got.tgz:513395.got - 2010.06.03 11:33:40.
