data_PCOD9054158
_publ_section_title
;
Structure prediction by ZEFSAII (Michael W. Deem and Ramdas Pophale) SiO2 
 PCOD9054158
Probable space group: P -1
;
_chemical_formula_sum "Si O2"
_cell_formula_units_Z 14
_cell_length_a 19.001388
_cell_length_b 7.791428
_cell_length_c 12.822382
_cell_angle_alpha 42.467575
_cell_angle_beta 150.953696
_cell_angle_gamma 140.368656
_cell_volume 575.046273
_symmetry_space_group_name_H-M "P -1"
_symmetry_group_IT_number 2
_symmetry_cell_setting 'triclinic'
loop_
_space_group_symop_operation_xyz
x,y,z
-x,-y,-z
loop_
_atom_site_type_symbol
_atom_site_label
_atom_site_fract_x
_atom_site_fract_y
_atom_site_fract_z
Si Si1 0.599275 0.094817 0.983011
Si Si2 0.834880 0.944124 0.255155
Si Si3 0.622901 0.782006 0.486758
Si Si4 0.679738 0.866954 0.885656
Si Si5 0.984134 0.479181 0.862754
Si Si6 0.176466 0.261854 0.060003
Si Si7 0.340765 0.585183 0.475141
O O1 0.471434 0.035670 0.751891
O O2 0.711564 0.932237 0.188697
O O3 0.710179 0.419855 0.967933
O O4 0.500000 0.000000 0.000000
O O5 0.886321 0.229569 0.131845
O O6 0.000000 0.000000 0.500000
O O7 0.731978 0.761336 0.108020
O O8 0.500000 0.500000 0.500000
O O9 0.692388 0.680646 0.522254
O O10 0.740948 0.876401 0.691178
O O11 0.509107 0.660870 0.714256
O O12 0.652760 0.155365 0.706171
O O13 0.821291 0.887092 0.979490
O O14 0.807252 0.457523 0.623369
O O15 0.038540 0.288878 0.940623
O O16 0.000000 0.500000 0.000000
#
# Coordination Sequence:
#
# PCOD9054158 Si02
#       7
#     2   2   2   2   2   2   2
#     4  10  22  40  62  90 122 171 216 246 311 386
#     4  11  26  44  63  88 130 172 212 255 320 383
#     4  10  17  35  63  93 119 165 203 258 307 378
#     4  11  22  39  64  99 126 161 209 275 311 362
#     4  11  21  41  63  96 127 173 207 250 316 384
#     4  10  21  37  66  93 130 159 212 264 313 365
#     4  11  21  35  67  94 129 154 213 257 318 360
#
# _framework density 24.345865
#
# number of rings (size 3 to 8) (size 9 to 14) (size 15 to 20)
#    0.000    1.429    5.714    1.714    4.000    0.571 
#    0.000    7.143    0.000    0.000    0.000    0.000 
#    0.000    0.000    0.000    0.000    0.000    0.000 
#
# Total GULP energy -77980.079412 kJ/mol
# GULP energy per Si atom -5570.005672 kJ/mol
# Density = 2.429045 g / cm^3
# Si number density = 24.345865 Si / 1000 Ang^3
#
#
#
# Elastic Constant Matrix: (Units=GPa)
#
#
# Indices 1 2 3 4 5 6 
#
# 1 190.2755 12.5111 69.6494 11.9570 26.6584 7.3347
# 2 12.5111 38.0572 8.8103 9.2719 -1.3159 -2.2629
# 3 69.6494 8.8103 152.8470 18.7432 2.3117 -4.4387
# 4 11.9570 9.2719 18.7432 27.9585 -1.7244 4.8992
# 5 26.6584 -1.3159 2.3117 -1.7244 47.0081 3.8395
# 6 7.3347 -2.2629 -4.4387 4.8992 3.8395 37.6182
#
#
#
# Elastic Compliance Matrix: (Units=1/GPa)
#
#
# Indices 1 2 3 4 5 6 
#
# 1 0.007112 -0.001748 -0.003075 -0.000389 -0.003830 -0.001413
# 2 -0.001748 0.029377 0.000378 -0.009755 0.001167 0.003304
# 3 -0.003075 0.000378 0.008568 -0.004874 0.000977 0.002168
# 4 -0.000389 -0.009755 -0.004874 0.043814 0.002369 -0.007034
# 5 -0.003830 0.001167 0.000977 0.002369 0.023662 -0.001791
# 6 -0.001413 0.003304 0.002168 -0.007034 -0.001791 0.028412
#
#
# Mechanical properties :
#
#
# Convention : Reuss Voigt Hill
#
# Bulk Modulus (GPa) = 27.65079 62.56903 45.10991
# Shear Modulus (GPa) = 30.88499 41.86422 36.37460
#
# Velocity S-wave (km/s) = 3.56559 4.15126 3.86952
# Velocity P-wave (km/s) = 5.32292 6.98091 6.20752
#
# Compressibility (1/GPa) = 0.03616533
#
# Stress axis : x y z
#
# Youngs Moduli (GPa) = 140.61551 34.04055 116.71465
#
# Poissons Ratio (x) = 0.05949 0.35894
# Poissons Ratio (y) = 0.24575 -0.04407
# Poissons Ratio (z) = 0.43244 -0.01285
#
# Static dielectric constant tensor:
#      x y z
#    x 2.119930 -0.167410 -0.126860 
#    y -0.167410 2.218970 0.155300 
#    z -0.126860 0.155300 2.142090 
# 
# From -- ./inp_files/461943.got.cif
#   From: 2010.05.17/outbox.cif.g08.bks.cpg/sg2_231_cif.got.tgz:461943.got - 2010.06.03 11:33:40.
