data_PCOD9054451
_publ_section_title
;
Structure prediction by ZEFSAII (Michael W. Deem and Ramdas Pophale) SiO2 
 PCOD9054451
Probable space group: P -1
;
_chemical_formula_sum "Si O2"
_cell_formula_units_Z 16
_cell_length_a 30.199235
_cell_length_b 9.772456
_cell_length_c 16.215746
_cell_angle_alpha 149.224967
_cell_angle_beta 16.435955
_cell_angle_gamma 153.543407
_cell_volume 603.253328
_symmetry_space_group_name_H-M "P -1"
_symmetry_group_IT_number 2
_symmetry_cell_setting 'triclinic'
loop_
_space_group_symop_operation_xyz
x,y,z
-x,-y,-z
loop_
_atom_site_type_symbol
_atom_site_label
_atom_site_fract_x
_atom_site_fract_y
_atom_site_fract_z
Si Si1 0.960372 0.791960 0.060093
Si Si2 0.295710 0.440750 0.832412
Si Si3 0.601923 0.090981 0.251046
Si Si4 0.227925 0.343911 0.089216
Si Si5 0.401469 0.205458 0.273533
Si Si6 0.436380 0.520800 0.035205
Si Si7 0.080090 0.371908 0.535932
Si Si8 0.223574 0.748578 0.800564
O O1 0.853670 0.892972 0.105443
O O2 0.794023 0.863313 0.382121
O O3 0.920244 0.606655 0.122954
O O4 0.976056 0.548281 0.844482
O O5 0.500000 0.500000 0.500000
O O6 0.314261 0.698032 0.868572
O O7 0.229872 0.452404 0.049005
O O8 0.385682 0.900725 0.525756
O O9 0.666445 0.228348 0.298432
O O10 0.646092 0.817434 0.030195
O O11 0.133190 0.435393 0.377227
O O12 0.441039 0.490257 0.805984
O O13 0.146215 0.979872 0.057674
O O14 0.408960 0.260448 0.190318
O O15 0.500000 0.000000 0.000000
O O16 0.266128 0.567284 0.355974
O O17 0.500000 0.500000 0.000000
O O18 0.000000 0.000000 0.500000
#
# Coordination Sequence:
#
# PCOD9054451 Si02
#       8
#     2   2   2   2   2   2   2   2
#     4  12  27  52  84 127 161 221 285 349 406 513
#     4  12  30  47  75 127 178 215 271 355 433 480
#     4  11  22  47  77 111 161 218 273 339 420 486
#     4  11  24  51  78 116 165 221 269 354 415 496
#     4  11  26  53  83 119 162 219 283 346 419 499
#     4  11  25  45  77 114 156 213 273 342 403 489
#     4  11  24  49  81 123 160 215 284 343 410 503
#     4  11  20  47  84 106 151 218 290 326 406 492
#
# _framework density 26.522853999999999
#
# number of rings (size 3 to 8) (size 9 to 14) (size 15 to 20)
#    0.000    0.750    6.250    0.750    3.500    3.000 
#    9.000    0.625    0.000    0.000    6.500    0.000 
#    0.000    0.000    0.000    0.000    0.000    0.000 
#
# Total GULP energy -89370.257264 kJ/mol
# GULP energy per Si atom -5585.641079 kJ/mol
# Density = 2.646249 g / cm^3
# Si number density = 26.522854 Si / 1000 Ang^3
#
#
#
# Elastic Constant Matrix: (Units=GPa)
#
#
# Indices 1 2 3 4 5 6 
#
# 1 136.7225 35.6513 56.5940 -12.9940 30.6586 -25.2867
# 2 35.6513 163.1508 60.0272 -16.2148 9.8066 -18.9599
# 3 56.5940 60.0272 194.6411 -14.5636 -0.6176 2.1482
# 4 -12.9940 -16.2148 -14.5636 45.7394 -8.9326 2.1226
# 5 30.6586 9.8066 -0.6176 -8.9326 29.8471 -14.1489
# 6 -25.2867 -18.9599 2.1482 2.1226 -14.1489 45.8382
#
#
#
# Elastic Compliance Matrix: (Units=1/GPa)
#
#
# Indices 1 2 3 4 5 6 
#
# 1 0.011759 -0.000313 -0.003396 -0.000056 -0.010510 0.003275
# 2 -0.000313 0.007500 -0.002127 0.001696 -0.000328 0.002849
# 3 -0.003396 -0.002127 0.006913 0.001314 0.003791 -0.001968
# 4 -0.000056 0.001696 0.001314 0.024279 0.007672 0.001853
# 5 -0.010510 -0.000328 0.003791 0.007672 0.051210 0.009341
# 6 0.003275 0.002849 -0.001968 0.001853 0.009341 0.027690
#
#
# Mechanical properties :
#
#
# Convention : Reuss Voigt Hill
#
# Bulk Modulus (GPa) = 68.97413 88.78438 78.87925
# Shear Modulus (GPa) = 34.27997 47.10108 40.69052
#
# Velocity S-wave (km/s) = 3.59899 4.21868 3.92110
# Velocity P-wave (km/s) = 6.58273 7.56816 7.09258
#
# Compressibility (1/GPa) = 0.01449819
#
# Stress axis : x y z
#
# Youngs Moduli (GPa) = 85.04418 133.33526 144.64971
#
# Poissons Ratio (x) = 0.04177 0.49123
# Poissons Ratio (y) = 0.02664 0.30774
# Poissons Ratio (z) = 0.28881 0.28366
#
# Static dielectric constant tensor:
#      x y z
#    x 2.155730 0.074000 0.050720 
#    y 0.074000 2.314150 0.043540 
#    z 0.050720 0.043540 2.241720 
# 
# From -- ./inp_files/544895.got.cif
#   From: 2010.05.17/outbox.cif.g08.bks.cpg/sg2_273_cif.got.tgz:544895.got - 2010.06.03 11:33:40.
