data_PCOD9054923
_publ_section_title
;
Structure prediction by ZEFSAII (Michael W. Deem and Ramdas Pophale) SiO2 
 PCOD9054923
Probable space group: P -1
;
_chemical_formula_sum "Si O2"
_cell_formula_units_Z 14
_cell_length_a 9.301876
_cell_length_b 12.173716
_cell_length_c 12.019594
_cell_angle_alpha 57.938571
_cell_angle_beta 77.075991
_cell_angle_gamma 36.835722
_cell_volume 635.012597
_symmetry_space_group_name_H-M "P -1"
_symmetry_group_IT_number 2
_symmetry_cell_setting 'triclinic'
loop_
_space_group_symop_operation_xyz
x,y,z
-x,-y,-z
loop_
_atom_site_type_symbol
_atom_site_label
_atom_site_fract_x
_atom_site_fract_y
_atom_site_fract_z
Si Si1 0.373541 0.726018 0.051141
Si Si2 0.473275 0.196454 0.711481
Si Si3 0.613696 0.581565 0.611549
Si Si4 0.202447 0.989270 0.617015
Si Si5 0.263396 0.592650 0.667852
Si Si6 0.228321 0.103774 0.766816
Si Si7 0.966592 0.953827 0.846361
O O1 0.658305 0.479908 0.177420
O O2 0.205121 0.859011 0.123311
O O3 0.350124 0.885321 0.915977
O O4 0.232608 0.731392 0.986830
O O5 0.423859 0.283469 0.548942
O O6 0.324004 0.412255 0.695671
O O7 0.361517 0.134565 0.774769
O O8 0.775409 0.987481 0.808303
O O9 0.456052 0.568040 0.606156
O O10 0.916880 0.337029 0.712535
O O11 0.464707 0.735669 0.664130
O O12 0.258371 0.067450 0.647822
O O13 0.023614 0.156705 0.453124
O O14 0.039224 0.006003 0.711723
#
# Coordination Sequence:
#
# PCOD9054923 Si02
#       7
#     2   2   2   2   2   2   2
#     4   9  20  38  66  88 127 167 204 255 318 366
#     4  11  22  37  68  92 127 166 207 259 314 365
#     4  12  23  39  66  97 123 165 209 265 313 362
#     4  11  23  40  67  93 128 160 212 263 313 365
#     4  11  21  39  65  97 121 159 212 264 306 373
#     4  11  24  44  60  93 132 168 208 250 311 391
#     4   9  18  37  60  93 114 159 207 253 303 361
#
# _framework density 22.046806
#
# number of rings (size 3 to 8) (size 9 to 14) (size 15 to 20)
#    0.000    1.429    2.857    5.571    0.000    2.857 
#    0.000    6.429    0.000    0.857    0.000    3.000 
#    0.000    0.000    0.000    0.000    0.000    0.000 
#
# Total GULP energy -78213.639424 kJ/mol
# GULP energy per Si atom -5586.688530 kJ/mol
# Density = 2.199663 g / cm^3
# Si number density = 22.046806 Si / 1000 Ang^3
#
#
#
# Elastic Constant Matrix: (Units=GPa)
#
#
# Indices 1 2 3 4 5 6 
#
# 1 133.4674 28.3371 27.6048 -4.1114 6.6448 13.9167
# 2 28.3371 66.5889 18.9516 -11.5682 14.1498 8.1928
# 3 27.6048 18.9516 131.0311 -14.6005 14.7189 -8.3561
# 4 -4.1114 -11.5682 -14.6005 11.9318 0.3123 0.1254
# 5 6.6448 14.1498 14.7189 0.3123 26.5874 -2.8893
# 6 13.9167 8.1928 -8.3561 0.1254 -2.8893 9.0699
#
#
#
# Elastic Compliance Matrix: (Units=1/GPa)
#
#
# Indices 1 2 3 4 5 6 
#
# 1 0.010356 -0.000827 -0.003058 -0.000713 -0.002484 -0.018742
# 2 -0.000827 0.027700 -0.000863 0.026299 -0.017686 -0.030545
# 3 -0.003058 -0.000863 0.010980 0.011485 -0.003432 0.014335
# 4 -0.000713 0.026299 0.011485 0.123968 -0.023962 -0.021429
# 5 -0.002484 -0.017686 -0.003432 -0.023962 0.053522 0.034006
# 6 -0.018742 -0.030545 0.014335 -0.021429 0.034006 0.190940
#
#
# Mechanical properties :
#
#
# Convention : Reuss Voigt Hill
#
# Bulk Modulus (GPa) = 25.28996 53.43046 39.36021
# Shear Modulus (GPa) = 11.35992 26.59742 18.97867
#
# Velocity S-wave (km/s) = 2.27241 3.47711 2.93718
# Velocity P-wave (km/s) = 4.28731 6.35673 5.42167
#
# Compressibility (1/GPa) = 0.03954138
#
# Stress axis : x y z
#
# Youngs Moduli (GPa) = 96.55791 36.10060 91.07232
#
# Poissons Ratio (x) = 0.02986 0.27849
# Poissons Ratio (y) = 0.07986 0.07859
# Poissons Ratio (z) = 0.29526 0.03115
#
# Static dielectric constant tensor:
#      x y z
#    x 1.794620 0.004440 0.034330 
#    y 0.004440 1.832820 -0.009920 
#    z 0.034330 -0.009920 1.862790 
# 
# From -- ./inp_files/386850.got.cif
#   From: 2010.05.17/outbox.cif.g08.bks.cpg/sg2_194_cif.got.tgz:386850.got - 2010.06.03 11:33:40.
