data_PCOD9054163
_publ_section_title
;
Structure prediction by ZEFSAII (Michael W. Deem and Ramdas Pophale) SiO2 
 PCOD9054163
Probable space group: P -1
;
_chemical_formula_sum "Si O2"
_cell_formula_units_Z 16
_cell_length_a 6.772047
_cell_length_b 8.493549
_cell_length_c 21.027850
_cell_angle_alpha 109.256548
_cell_angle_beta 53.787439
_cell_angle_gamma 125.160060
_cell_volume 797.709714
_symmetry_space_group_name_H-M "P -1"
_symmetry_group_IT_number 2
_symmetry_cell_setting 'triclinic'
loop_
_space_group_symop_operation_xyz
x,y,z
-x,-y,-z
loop_
_atom_site_type_symbol
_atom_site_label
_atom_site_fract_x
_atom_site_fract_y
_atom_site_fract_z
Si Si1 0.795174 0.073223 0.575899
Si Si2 0.862488 0.789611 0.349147
Si Si3 0.178950 0.856298 0.656963
Si Si4 0.823069 0.322844 0.827724
Si Si5 0.154076 0.435827 0.912204
Si Si6 0.189577 0.303402 0.170760
Si Si7 0.159179 0.056549 0.908965
Si Si8 0.272929 0.690989 0.490839
O O1 0.724429 0.153959 0.537399
O O2 0.961181 0.200513 0.620982
O O3 0.481603 0.943505 0.646014
O O4 0.000000 0.000000 0.500000
O O5 0.542900 0.673104 0.419732
O O6 0.971163 0.712460 0.261732
O O7 0.887231 0.989863 0.345446
O O8 0.227735 0.737902 0.576711
O O9 0.948289 0.749122 0.740187
O O10 0.820286 0.512441 0.829836
O O11 0.499848 0.139728 0.863247
O O12 0.971580 0.375584 0.874777
O O13 0.475719 0.614463 0.872247
O O14 0.154009 0.243968 0.909202
O O15 0.000000 0.500000 0.000000
O O16 0.013095 0.121792 0.131791
O O17 0.000000 0.000000 0.000000
O O18 0.000000 0.500000 0.500000
#
# Coordination Sequence:
#
# PCOD9054163 Si02
#       8
#     2   2   2   2   2   2   2   2
#     4  11  20  41  63  83 117 167 217 259 317 375
#     4  11  23  42  63  88 126 167 215 264 317 376
#     4  11  23  41  62  90 125 167 215 264 317 377
#     4  11  26  43  66 100 133 170 217 267 320 385
#     4  11  25  45  70 100 133 169 213 263 322 391
#     4  11  26  43  66 100 134 170 215 269 320 383
#     4  11  24  46  71  98 134 169 212 265 323 388
#     4  11  25  38  59  91 126 164 213 266 316 374
#
# _framework density 20.057421999999999
#
# number of rings (size 3 to 8) (size 9 to 14) (size 15 to 20)
#    0.000    1.000    2.500    3.750    3.500   11.500 
#    0.000    0.000    0.000    0.000    0.000    0.000 
#    0.000    0.000    0.000    0.000    0.000    0.000 
#
# Total GULP energy -89226.620921 kJ/mol
# GULP energy per Si atom -5576.663808 kJ/mol
# Density = 2.001177 g / cm^3
# Si number density = 20.057422 Si / 1000 Ang^3
#
#
#
# Elastic Constant Matrix: (Units=GPa)
#
#
# Indices 1 2 3 4 5 6 
#
# 1 115.9579 30.4492 68.9656 -2.6155 -12.4643 36.8114
# 2 30.4492 83.0369 49.9474 -7.9063 -16.8880 33.6754
# 3 68.9656 49.9474 185.9114 -6.1537 -16.6407 32.0049
# 4 -2.6155 -7.9063 -6.1537 33.2402 1.4555 -4.4418
# 5 -12.4643 -16.8880 -16.6407 1.4555 41.4010 -2.9150
# 6 36.8114 33.6754 32.0049 -4.4418 -2.9150 34.8651
#
#
#
# Elastic Compliance Matrix: (Units=1/GPa)
#
#
# Indices 1 2 3 4 5 6 
#
# 1 0.015335 0.003851 -0.003604 -0.000896 0.003615 -0.016415
# 2 0.003851 0.023660 -0.003013 0.001920 0.007895 -0.023248
# 3 -0.003604 -0.003013 0.007634 0.000356 0.000729 -0.000187
# 4 -0.000896 0.001920 0.000356 0.030905 -0.000241 0.002682
# 5 0.003615 0.007895 0.000729 -0.000241 0.028075 -0.009795
# 6 -0.016415 -0.023248 -0.000187 0.002682 -0.009795 0.068163
#
#
# Mechanical properties :
#
#
# Convention : Reuss Voigt Hill
#
# Bulk Modulus (GPa) = 24.33148 75.95897 50.14523
# Shear Modulus (GPa) = 25.90656 37.60417 31.75536
#
# Velocity S-wave (km/s) = 3.59781 4.33462 3.98329
# Velocity P-wave (km/s) = 5.42367 7.93756 6.79784
#
# Compressibility (1/GPa) = 0.04109902
#
# Stress axis : x y z
#
# Youngs Moduli (GPa) = 65.20964 42.26624 130.98702
#
# Poissons Ratio (x) = -0.16278 0.47203
# Poissons Ratio (y) = -0.25114 0.39461
# Poissons Ratio (z) = 0.23499 0.12733
#
# Static dielectric constant tensor:
#      x y z
#    x 1.705210 0.035460 -0.054980 
#    y 0.035460 1.862920 -0.088530 
#    z -0.054980 -0.088530 1.676660 
# 
# From -- ./inp_files/548152.got.cif
#   From: 2010.05.17/outbox.cif.g08.bks.cpg/sg2_275_cif.got.tgz:548152.got - 2010.06.03 11:33:40.
