data_PCOD9054928
_publ_section_title
;
Structure prediction by ZEFSAII (Michael W. Deem and Ramdas Pophale) SiO2 
 PCOD9054928
Probable space group: P -1
;
_chemical_formula_sum "Si O2"
_cell_formula_units_Z 14
_cell_length_a 13.531347
_cell_length_b 5.308706
_cell_length_c 13.248536
_cell_angle_alpha 96.186660
_cell_angle_beta 44.520413
_cell_angle_gamma 85.319102
_cell_volume 646.042576
_symmetry_space_group_name_H-M "P -1"
_symmetry_group_IT_number 2
_symmetry_cell_setting 'triclinic'
loop_
_space_group_symop_operation_xyz
x,y,z
-x,-y,-z
loop_
_atom_site_type_symbol
_atom_site_label
_atom_site_fract_x
_atom_site_fract_y
_atom_site_fract_z
Si Si1 0.036986 0.710418 0.558516
Si Si2 0.310479 0.676540 0.239334
Si Si3 0.155659 0.323384 0.614601
Si Si4 0.853176 0.148454 0.815625
Si Si5 0.831199 0.611608 0.155162
Si Si6 0.722126 0.132981 0.127848
Si Si7 0.408595 0.143023 0.269836
O O1 0.155422 0.810117 0.411036
O O2 0.120319 0.599138 0.595025
O O3 0.000000 0.500000 0.500000
O O4 0.888409 0.882294 0.715491
O O5 0.271985 0.661936 0.148726
O O6 0.363700 0.396657 0.241178
O O7 0.411916 0.875498 0.196175
O O8 0.184177 0.339849 0.712169
O O9 0.289998 0.163880 0.446362
O O10 0.006338 0.230603 0.704660
O O11 0.812617 0.109437 0.957246
O O12 0.745593 0.393946 0.175417
O O13 0.777072 0.880406 0.146124
O O14 0.000000 0.500000 0.000000
O O15 0.559046 0.148329 0.213039
#
# Coordination Sequence:
#
# PCOD9054928 Si02
#       7
#     2   2   2   2   2   2   2
#     4  11  21  39  66 107 134 171 222 288 326 401
#     4  11  23  40  70  97 141 172 230 268 345 398
#     4  11  24  40  72  97 138 176 234 273 348 383
#     4  12  23  40  70 102 133 184 223 286 330 403
#     4  12  26  47  72 103 129 180 231 294 325 400
#     4  12  29  46  70  97 144 175 235 274 344 396
#     4  11  26  46  64 103 137 185 215 284 334 421
#
# _framework density 21.670400000000001
#
# number of rings (size 3 to 8) (size 9 to 14) (size 15 to 20)
#    0.000    0.571    4.286    4.286    2.000    2.286 
#    0.000    0.000    0.000    0.000    0.000    0.000 
#    0.000    0.000    0.000    0.000    0.000    0.000 
#
# Total GULP energy -78287.367099 kJ/mol
# GULP energy per Si atom -5591.954793 kJ/mol
# Density = 2.162108 g / cm^3
# Si number density = 21.670400 Si / 1000 Ang^3
#
#
#
# Elastic Constant Matrix: (Units=GPa)
#
#
# Indices 1 2 3 4 5 6 
#
# 1 116.5576 45.4288 15.8713 -17.6027 11.1976 7.5931
# 2 45.4288 93.0985 23.8361 -16.0093 26.5321 6.4909
# 3 15.8713 23.8361 38.3521 -10.5764 16.0752 -9.9119
# 4 -17.6027 -16.0093 -10.5764 21.4044 -3.2712 4.5238
# 5 11.1976 26.5321 16.0752 -3.2712 49.7339 -15.5792
# 6 7.5931 6.4909 -9.9119 4.5238 -15.5792 48.8320
#
#
#
# Elastic Compliance Matrix: (Units=1/GPa)
#
#
# Indices 1 2 3 4 5 6 
#
# 1 0.011385 -0.003973 -0.000870 0.006350 -0.000415 -0.002139
# 2 -0.003973 0.018350 -0.005716 0.007683 -0.008554 -0.006422
# 3 -0.000870 -0.005716 0.037134 0.011255 -0.006335 0.005369
# 4 0.006350 0.007683 0.011255 0.063801 -0.007483 -0.008022
# 5 -0.000415 -0.008554 -0.006335 -0.007483 0.029453 0.010006
# 6 -0.002139 -0.006422 0.005369 -0.008022 0.010006 0.026690
#
#
# Mechanical properties :
#
#
# Convention : Reuss Voigt Hill
#
# Bulk Modulus (GPa) = 21.85814 46.47563 34.16689
# Shear Modulus (GPa) = 22.40328 34.85219 28.62774
#
# Velocity S-wave (km/s) = 3.21879 4.01469 3.63857
# Velocity P-wave (km/s) = 4.89109 6.55618 5.78387
#
# Compressibility (1/GPa) = 0.04574954
#
# Stress axis : x y z
#
# Youngs Moduli (GPa) = 87.83741 54.49460 26.92986
#
# Poissons Ratio (x) = 0.21652 0.02342
# Poissons Ratio (y) = 0.34901 0.15394
# Poissons Ratio (z) = 0.07640 0.31151
#
# Static dielectric constant tensor:
#      x y z
#    x 1.779310 0.010360 -0.023990 
#    y 0.010360 1.883900 0.021800 
#    z -0.023990 0.021800 1.775850 
# 
# From -- ./inp_files/69952.got.cif
#   From: 2010.05.17/outbox.cif.g08.bks.cpg/sg2_35_cif.got.tgz:69952.got - 2010.06.03 11:33:40.
