data_PCOD9054045
_publ_section_title
;
Structure prediction by ZEFSAII (Michael W. Deem and Ramdas Pophale) SiO2 
 PCOD9054045
Probable space group: P -1
;
_chemical_formula_sum "Si O2"
_cell_formula_units_Z 16
_cell_length_a 11.409339
_cell_length_b 8.460487
_cell_length_c 17.524260
_cell_angle_alpha 49.159892
_cell_angle_beta 39.557545
_cell_angle_gamma 77.581016
_cell_volume 651.953649
_symmetry_space_group_name_H-M "P -1"
_symmetry_group_IT_number 2
_symmetry_cell_setting 'triclinic'
loop_
_space_group_symop_operation_xyz
x,y,z
-x,-y,-z
loop_
_atom_site_type_symbol
_atom_site_label
_atom_site_fract_x
_atom_site_fract_y
_atom_site_fract_z
Si Si1 0.503242 0.422571 0.157168
Si Si2 0.995592 0.770558 0.858530
Si Si3 0.320607 0.297281 0.590375
Si Si4 0.357140 0.678668 0.044017
Si Si5 0.103020 0.202570 0.539030
Si Si6 0.684258 0.213428 0.696347
Si Si7 0.330632 0.706387 0.651019
Si Si8 0.839100 0.386387 0.404199
O O1 0.564071 0.338369 0.075048
O O2 0.266479 0.216041 0.386665
O O3 0.468234 0.625697 0.073558
O O4 0.720559 0.564847 0.060536
O O5 0.095021 0.607355 0.841085
O O6 0.159709 0.981774 0.775273
O O7 0.048821 0.980844 0.697302
O O8 0.500000 0.500000 0.500000
O O9 0.507021 0.386395 0.400369
O O10 0.133663 0.352283 0.668671
O O11 0.435786 0.969806 0.925015
O O12 0.087550 0.455558 0.255544
O O13 0.236024 0.504662 0.405309
O O14 0.866509 0.154202 0.646063
O O15 0.682823 0.206415 0.607938
O O16 0.276254 0.706991 0.589661
O O17 0.500000 0.000000 0.500000
#
# Coordination Sequence:
#
# PCOD9054045 Si02
#       8
#     2   2   2   2   2   2   2   2
#     4  11  24  38  59  93 131 168 201 242 301 374
#     4  11  20  40  64  92 124 165 201 253 313 356
#     4   9  20  38  66  90 112 161 217 259 306 357
#     4  11  24  38  59  93 131 167 203 241 300 376
#     4  11  24  38  59  93 131 167 203 241 300 376
#     4  11  24  38  59  93 131 168 201 242 301 374
#     4   9  20  38  66  90 112 161 217 259 306 357
#     4  11  20  40  64  92 124 165 201 253 313 356
#
# _framework density 24.541622
#
# number of rings (size 3 to 8) (size 9 to 14) (size 15 to 20)
#    0.000    1.500    5.000    0.000    3.500    1.000 
#    0.000    0.000    0.000   30.000    0.000    0.000 
#    0.000    0.000    0.000    0.000    0.000    0.000 
#
# Total GULP energy -89166.291232 kJ/mol
# GULP energy per Si atom -5572.893202 kJ/mol
# Density = 2.448576 g / cm^3
# Si number density = 24.541622 Si / 1000 Ang^3
#
#
#
# Elastic Constant Matrix: (Units=GPa)
#
#
# Indices 1 2 3 4 5 6 
#
# 1 65.3195 16.0167 13.8146 7.3688 -29.6342 3.0606
# 2 16.0167 77.1600 14.2659 15.8940 1.7635 -0.3464
# 3 13.8146 14.2659 68.0431 -1.8331 -10.5658 -2.2062
# 4 7.3688 15.8940 -1.8331 31.2560 -3.0706 -8.8229
# 5 -29.6342 1.7635 -10.5658 -3.0706 34.0463 4.5619
# 6 3.0606 -0.3464 -2.2062 -8.8229 4.5619 30.7216
#
#
#
# Elastic Compliance Matrix: (Units=1/GPa)
#
#
# Indices 1 2 3 4 5 6 
#
# 1 0.029948 -0.005886 -0.001053 -0.003811 0.026800 -0.008200
# 2 -0.005886 0.016775 -0.003785 -0.008339 -0.007821 -0.000730
# 3 -0.001053 -0.003785 0.016579 0.004087 0.004558 0.001750
# 4 -0.003811 -0.008339 0.004087 0.040873 0.000428 0.012254
# 5 0.026800 -0.007821 0.004558 0.000428 0.055980 -0.010621
# 6 -0.008200 -0.000730 0.001750 0.012254 -0.010621 0.038581
#
#
# Mechanical properties :
#
#
# Convention : Reuss Voigt Hill
#
# Bulk Modulus (GPa) = 23.89290 33.19078 28.54184
# Shear Modulus (GPa) = 21.35512 30.29979 25.82745
#
# Velocity S-wave (km/s) = 2.95305 3.51754 3.24758
# Velocity P-wave (km/s) = 4.62430 5.48189 5.07125
#
# Compressibility (1/GPa) = 0.04185344
#
# Stress axis : x y z
#
# Youngs Moduli (GPa) = 33.39086 59.61303 60.31882
#
# Poissons Ratio (x) = 0.35090 0.06353
# Poissons Ratio (y) = 0.19655 0.22829
# Poissons Ratio (z) = 0.03517 0.22562
#
# Static dielectric constant tensor:
#      x y z
#    x 2.098030 -0.015250 -0.020980 
#    y -0.015250 2.024860 0.032260 
#    z -0.020980 0.032260 1.982530 
# 
# From -- ./inp_files/306325.got.cif
#   From: 2010.05.17/outbox.cif.g08.bks.cpg/sg2_154_cif.got.tgz:306325.got - 2010.06.03 11:33:40.
