data_PCOD9054883
_publ_section_title
;
Structure prediction by ZEFSAII (Michael W. Deem and Ramdas Pophale) SiO2 
 PCOD9054883
Probable space group: P -1
;
_chemical_formula_sum "Si O2"
_cell_formula_units_Z 14
_cell_length_a 12.691470
_cell_length_b 9.792617
_cell_length_c 9.281723
_cell_angle_alpha 75.391015
_cell_angle_beta 55.029892
_cell_angle_gamma 112.431821
_cell_volume 684.357084
_symmetry_space_group_name_H-M "P -1"
_symmetry_group_IT_number 2
_symmetry_cell_setting 'triclinic'
loop_
_space_group_symop_operation_xyz
x,y,z
-x,-y,-z
loop_
_atom_site_type_symbol
_atom_site_label
_atom_site_fract_x
_atom_site_fract_y
_atom_site_fract_z
Si Si1 0.711860 0.596352 0.930637
Si Si2 0.007488 0.177582 0.830763
Si Si3 0.423212 0.487824 0.403710
Si Si4 0.409045 0.711178 0.130104
Si Si5 0.123512 0.721847 0.327124
Si Si6 0.222780 0.047011 0.341614
Si Si7 0.000910 0.866941 0.827844
O O1 0.686841 0.471725 0.851463
O O2 0.778047 0.794098 0.760392
O O3 0.857395 0.668997 0.914425
O O4 0.535391 0.488231 0.191226
O O5 0.215958 0.316324 0.616764
O O6 0.923696 0.245836 0.796582
O O7 0.931819 0.975887 0.881782
O O8 0.960810 0.158990 0.037981
O O9 0.500000 0.500000 0.500000
O O10 0.437062 0.657729 0.279240
O O11 0.305233 0.779775 0.193939
O O12 0.587598 0.862099 0.870018
O O13 0.000000 0.500000 0.500000
O O14 0.103462 0.843321 0.412703
O O15 0.165418 0.001728 0.562425
#
# Coordination Sequence:
#
# PCOD9054883 Si02
#       7
#     2   2   2   2   2   2   2
#     4  11  21  40  66  96 122 165 219 263 308 370
#     4  11  23  41  61  96 130 166 206 265 320 369
#     4  11  21  39  62  93 124 161 210 263 315 360
#     4  11  24  41  66  95 128 167 210 264 314 377
#     4  12  24  42  65  93 132 170 210 253 320 387
#     4  11  23  41  63  94 124 166 218 259 309 375
#     4  11  22  38  66  93 127 163 215 267 309 366
#
# _framework density 20.457156000000001
#
# number of rings (size 3 to 8) (size 9 to 14) (size 15 to 20)
#    0.000    0.857    4.286    5.143    0.000    0.000 
#    0.000    5.000    0.000    0.000    0.000    0.000 
#    0.000    0.000    0.000    0.000    0.000    0.000 
#
# Total GULP energy -78092.973288 kJ/mol
# GULP energy per Si atom -5578.069521 kJ/mol
# Density = 2.041059 g / cm^3
# Si number density = 20.457156 Si / 1000 Ang^3
#
#
#
# Elastic Constant Matrix: (Units=GPa)
#
#
# Indices 1 2 3 4 5 6 
#
# 1 122.6233 32.5819 40.1355 9.9641 31.2336 -9.1994
# 2 32.5819 104.9968 31.5153 -2.8768 20.0397 1.6041
# 3 40.1355 31.5153 117.9043 19.2270 27.0756 8.0825
# 4 9.9641 -2.8768 19.2270 25.3007 5.1381 -3.6853
# 5 31.2336 20.0397 27.0756 5.1381 40.5775 -1.8633
# 6 -9.1994 1.6041 8.0825 -3.6853 -1.8633 25.7215
#
#
#
# Elastic Compliance Matrix: (Units=1/GPa)
#
#
# Indices 1 2 3 4 5 6 
#
# 1 0.011265 -0.001826 -0.002034 -0.001261 -0.006060 0.004162
# 2 -0.001826 0.011575 -0.002450 0.004531 -0.003259 -0.000192
# 3 -0.002034 -0.002450 0.012898 -0.009190 -0.004956 -0.006304
# 4 -0.001261 0.004531 -0.009190 0.049036 -0.000925 0.009113
# 5 -0.006060 -0.003259 -0.004956 -0.000925 0.034432 0.001955
# 6 0.004162 -0.000192 -0.006304 0.009113 0.001955 0.043807
#
#
# Mechanical properties :
#
#
# Convention : Reuss Voigt Hill
#
# Bulk Modulus (GPa) = 43.25861 61.55442 52.40651
# Shear Modulus (GPa) = 27.27193 34.40605 30.83899
#
# Velocity S-wave (km/s) = 3.65516 4.10550 3.88686
# Velocity P-wave (km/s) = 6.24543 7.25453 6.76881
#
# Compressibility (1/GPa) = 0.02311679
#
# Stress axis : x y z
#
# Youngs Moduli (GPa) = 88.77385 86.39195 77.53319
#
# Poissons Ratio (x) = 0.15778 0.15773
# Poissons Ratio (y) = 0.16213 0.18993
# Poissons Ratio (z) = 0.18060 0.21163
#
# Static dielectric constant tensor:
#      x y z
#    x 1.717130 0.060280 -0.043730 
#    y 0.060280 1.757330 -0.038800 
#    z -0.043730 -0.038800 1.769660 
# 
# From -- ./inp_files/157614.got.cif
#   From: 2010.05.17/outbox.cif.g08.bks.cpg/sg2_79_cif.got.tgz:157614.got - 2010.06.03 11:33:40.
