data_PCOD9054777
_publ_section_title
;
Structure prediction by ZEFSAII (Michael W. Deem and Ramdas Pophale) SiO2 
 PCOD9054777
Probable space group: P -1
;
_chemical_formula_sum "Si O2"
_cell_formula_units_Z 16
_cell_length_a 7.136741
_cell_length_b 12.810000
_cell_length_c 7.513083
_cell_angle_alpha 85.076566
_cell_angle_beta 97.377113
_cell_angle_gamma 64.166944
_cell_volume 605.318941
_symmetry_space_group_name_H-M "P -1"
_symmetry_group_IT_number 2
_symmetry_cell_setting 'triclinic'
loop_
_space_group_symop_operation_xyz
x,y,z
-x,-y,-z
loop_
_atom_site_type_symbol
_atom_site_label
_atom_site_fract_x
_atom_site_fract_y
_atom_site_fract_z
Si Si1 0.302226 0.219818 0.583911
Si Si2 0.482043 0.259634 0.128942
Si Si3 0.420876 0.492809 0.191553
Si Si4 0.029760 0.323687 0.184894
Si Si5 0.993093 0.875347 0.979998
Si Si6 0.479706 0.029264 0.201462
Si Si7 0.963332 0.551383 0.286107
Si Si8 0.644835 0.267571 0.750614
O O1 0.152298 0.264933 0.390006
O O2 0.374687 0.085545 0.656841
O O3 0.181471 0.312649 0.711326
O O4 0.524253 0.226919 0.601117
O O5 0.521009 0.351967 0.240865
O O6 0.225319 0.311433 0.085069
O O7 0.916453 0.251075 0.101209
O O8 0.574990 0.242201 0.943282
O O9 0.451084 0.591532 0.293521
O O10 0.175590 0.532793 0.211734
O O11 0.500000 0.500000 0.000000
O O12 0.893569 0.461702 0.191165
O O13 0.771982 0.925009 0.832875
O O14 0.448509 0.870248 0.770299
O O15 0.101137 0.809730 0.191965
O O16 0.000000 0.000000 0.000000
O O17 0.500000 0.000000 0.000000
O O18 0.000000 0.500000 0.500000
#
# Coordination Sequence:
#
# PCOD9054777 Si02
#       8
#     2   2   2   2   2   2   2   2
#     4  11  22  40  66  99 132 181 234 270 343 430
#     4   9  19  39  60  89 128 172 226 279 341 403
#     4   9  20  38  64  99 134 174 238 295 340 396
#     4   9  22  41  66  93 128 180 228 283 335 423
#     4  11  22  40  62  93 134 171 222 291 350 392
#     4  11  21  38  64  92 131 178 227 278 342 418
#     4   9  20  41  65 100 141 184 232 278 352 425
#     4  11  22  38  62  96 131 175 221 291 350 398
#
# _framework density 26.432348000000001
#
# number of rings (size 3 to 8) (size 9 to 14) (size 15 to 20)
#    0.000    2.000    2.500    0.000    1.750    5.000 
#    0.000   13.125    0.000    2.250    0.000    0.000 
#    0.000    0.000    0.000    0.000    0.000    0.000 
#
# Total GULP energy -89081.464624 kJ/mol
# GULP energy per Si atom -5567.591539 kJ/mol
# Density = 2.637219 g / cm^3
# Si number density = 26.432348 Si / 1000 Ang^3
#
#
#
# Elastic Constant Matrix: (Units=GPa)
#
#
# Indices 1 2 3 4 5 6 
#
# 1 81.7085 54.0654 43.5921 -5.7455 7.0225 6.3778
# 2 54.0654 230.1632 36.7881 -0.6668 2.0053 57.0350
# 3 43.5921 36.7881 90.1985 9.8271 -4.7991 16.6344
# 4 -5.7455 -0.6668 9.8271 46.0094 5.2795 4.7723
# 5 7.0225 2.0053 -4.7991 5.2795 25.4012 9.0554
# 6 6.3778 57.0350 16.6344 4.7723 9.0554 66.6264
#
#
#
# Elastic Compliance Matrix: (Units=1/GPa)
#
#
# Indices 1 2 3 4 5 6 
#
# 1 0.022220 -0.004780 -0.011083 0.005745 -0.011133 0.005834
# 2 -0.004780 0.006778 0.000859 -0.000427 0.003162 -0.005958
# 3 -0.011083 0.000859 0.018164 -0.005809 0.009445 -0.005077
# 4 0.005745 -0.000427 -0.005809 0.024539 -0.007963 0.000590
# 5 -0.011133 0.003162 0.009445 -0.007963 0.049244 -0.010122
# 6 0.005834 -0.005958 -0.005077 0.000590 -0.010122 0.022152
#
#
# Mechanical properties :
#
#
# Convention : Reuss Voigt Hill
#
# Bulk Modulus (GPa) = 58.29445 74.55126 66.42285
# Shear Modulus (GPa) = 27.96043 45.44904 36.70473
#
# Velocity S-wave (km/s) = 3.25593 4.15112 3.73047
# Velocity P-wave (km/s) = 6.01971 7.15832 6.61356
#
# Compressibility (1/GPa) = 0.01715429
#
# Stress axis : x y z
#
# Youngs Moduli (GPa) = 45.00449 147.53817 55.05262
#
# Poissons Ratio (x) = 0.70522 0.61017
# Poissons Ratio (y) = 0.21512 -0.04730
# Poissons Ratio (z) = 0.49880 -0.12677
#
# Static dielectric constant tensor:
#      x y z
#    x 2.289920 -0.099780 -0.023250 
#    y -0.099780 2.150240 -0.043220 
#    z -0.023250 -0.043220 2.079410 
# 
# From -- ./inp_files/135169.got.cif
#   From: 2010.05.17/outbox.cif.g08.bks.cpg/sg2_68_cif.got.tgz:135169.got - 2010.06.03 11:33:40.
