data_PCOD9054593
_publ_section_title
;
Structure prediction by ZEFSAII (Michael W. Deem and Ramdas Pophale) SiO2 
 PCOD9054593
Probable space group: P -1
;
_chemical_formula_sum "Si O2"
_cell_formula_units_Z 14
_cell_length_a 11.579691
_cell_length_b 9.523431
_cell_length_c 12.795500
_cell_angle_alpha 43.561060
_cell_angle_beta 138.107135
_cell_angle_gamma 118.017793
_cell_volume 641.827458
_symmetry_space_group_name_H-M "P -1"
_symmetry_group_IT_number 2
_symmetry_cell_setting 'triclinic'
loop_
_space_group_symop_operation_xyz
x,y,z
-x,-y,-z
loop_
_atom_site_type_symbol
_atom_site_label
_atom_site_fract_x
_atom_site_fract_y
_atom_site_fract_z
Si Si1 0.489662 0.724438 0.922966
Si Si2 0.955390 0.800796 0.935063
Si Si3 0.760437 0.388419 0.520252
Si Si4 0.128220 0.209788 0.880807
Si Si5 0.464139 0.770937 0.105016
Si Si6 0.351609 0.958869 0.504865
Si Si7 0.687005 0.353853 0.719236
O O1 0.413994 0.904749 0.693581
O O2 0.500000 0.500000 0.000000
O O3 0.688462 0.760695 0.059376
O O4 0.389736 0.725181 0.965510
O O5 0.810795 0.856647 0.718217
O O6 0.852952 0.792010 0.979853
O O7 0.055589 0.002315 0.906846
O O8 0.112571 0.608318 0.141063
O O9 0.639515 0.606060 0.325032
O O10 0.708732 0.250106 0.466399
O O11 0.720102 0.275917 0.663385
O O12 0.966640 0.389559 0.653033
O O13 0.351107 0.755952 0.139838
O O14 0.500000 0.000000 0.000000
O O15 0.500000 0.000000 0.500000
O O16 0.500000 0.500000 0.500000
#
# Coordination Sequence:
#
# PCOD9054593 Si02
#       7
#     2   2   2   2   2   2   2
#     4  12  24  40  58  93 132 160 196 259 324 368
#     4   9  17  35  62  94 111 154 219 258 289 364
#     4   9  20  40  63  92 112 160 216 261 296 361
#     4   9  18  34  63  89 116 151 211 262 303 355
#     4  11  23  38  59  87 125 168 204 240 311 378
#     4  11  21  36  65  94 126 156 203 265 319 352
#     4   9  19  37  62  81 116 158 212 246 287 361
#
# _framework density 21.812715000000001
#
# number of rings (size 3 to 8) (size 9 to 14) (size 15 to 20)
#    0.000    2.000    2.857    1.714    2.000    0.571 
#    2.571    0.714    0.000    5.143    0.000    0.000 
#    0.000    0.000    0.000    0.000    0.000    0.000 
#
# Total GULP energy -77962.083465 kJ/mol
# GULP energy per Si atom -5568.720247 kJ/mol
# Density = 2.176307 g / cm^3
# Si number density = 21.812715 Si / 1000 Ang^3
#
#
#
# Elastic Constant Matrix: (Units=GPa)
#
#
# Indices 1 2 3 4 5 6 
#
# 1 106.6133 1.1615 53.0551 6.3780 -18.6088 -6.4180
# 2 1.1615 30.4682 -0.7557 -2.3183 -2.9142 -7.7778
# 3 53.0551 -0.7557 143.9356 1.2401 5.4417 -8.3060
# 4 6.3780 -2.3183 1.2401 22.2696 -5.8684 3.2768
# 5 -18.6088 -2.9142 5.4417 -5.8684 54.8856 -0.4769
# 6 -6.4180 -7.7778 -8.3060 3.2768 -0.4769 24.5521
#
#
#
# Elastic Compliance Matrix: (Units=1/GPa)
#
#
# Indices 1 2 3 4 5 6 
#
# 1 0.012825 0.000212 -0.004749 -0.002508 0.004582 0.002237
# 2 0.000212 0.036166 0.000662 0.002592 0.002303 0.011435
# 3 -0.004749 0.000662 0.008905 0.000006 -0.002440 0.001933
# 4 -0.002508 0.002592 0.000006 0.047946 0.004359 -0.006147
# 5 0.004582 0.002303 -0.002440 0.004359 0.020611 0.000920
# 6 0.002237 0.011435 0.001933 -0.006147 0.000920 0.046429
#
#
# Mechanical properties :
#
#
# Convention : Reuss Voigt Hill
#
# Bulk Modulus (GPa) = 19.94147 43.10432 31.52290
# Shear Modulus (GPa) = 25.33606 35.51188 30.42397
#
# Velocity S-wave (km/s) = 3.41182 4.03927 3.73873
# Velocity P-wave (km/s) = 4.96816 6.44657 5.75504
#
# Compressibility (1/GPa) = 0.05014675
#
# Stress axis : x y z
#
# Youngs Moduli (GPa) = 77.97306 27.65024 112.29416
#
# Poissons Ratio (x) = -0.00585 0.53325
# Poissons Ratio (y) = -0.01650 -0.07438
# Poissons Ratio (z) = 0.37027 -0.01831
#
# Static dielectric constant tensor:
#      x y z
#    x 1.676190 0.401360 0.077290 
#    y 0.401360 0.642830 -0.281540 
#    z 0.077290 -0.281540 1.877330 
# 
# From -- ./inp_files/181683.got.cif
#   From: 2010.05.17/outbox.cif.g08.bks.cpg/sg2_91_cif.got.tgz:181683.got - 2010.06.03 11:33:40.
