data_PCOD9054868
_publ_section_title
;
Structure prediction by ZEFSAII (Michael W. Deem and Ramdas Pophale) SiO2 
 PCOD9054868
Probable space group: P -1
;
_chemical_formula_sum "Si O2"
_cell_formula_units_Z 11
_cell_length_a 14.491949
_cell_length_b 5.023032
_cell_length_c 8.917465
_cell_angle_alpha 75.443808
_cell_angle_beta 134.367296
_cell_angle_gamma 111.605595
_cell_volume 431.425277
_symmetry_space_group_name_H-M "P -1"
_symmetry_group_IT_number 2
_symmetry_cell_setting 'triclinic'
loop_
_space_group_symop_operation_xyz
x,y,z
-x,-y,-z
loop_
_atom_site_type_symbol
_atom_site_label
_atom_site_fract_x
_atom_site_fract_y
_atom_site_fract_z
Si Si1 0.034876 0.164958 0.246517
Si Si2 0.500000 0.500000 0.000000
Si Si3 0.682849 0.562982 0.636025
Si Si4 0.798277 0.512807 0.355448
Si Si5 0.391933 0.906933 0.616129
Si Si6 0.143366 0.467575 0.917095
O O1 0.166621 0.298336 0.278059
O O2 0.090547 0.247172 0.466224
O O3 0.917436 0.323687 0.082710
O O4 0.964165 0.840858 0.170389
O O5 0.662196 0.610534 0.179442
O O6 0.508460 0.200580 0.146563
O O7 0.622101 0.259561 0.532837
O O8 0.594247 0.764800 0.447767
O O9 0.715991 0.550364 0.849616
O O10 0.751972 0.229038 0.445614
O O11 0.834692 0.437739 0.243123
#
# Coordination Sequence:
#
# PCOD9054868 Si02
#       6
#     2   1   2   2   2   2
#     4  11  22  38  60  90 127 160 191 240 301 363
#     4   8  20  46  66  80 118 160 208 244 298 338
#     4  11  21  39  59  92 122 157 194 239 306 361
#     4   9  21  41  63  89 116 161 208 243 288 354
#     4   9  21  40  63  83 117 160 200 239 296 356
#     4  12  23  37  62  94 125 154 194 250 298 351
#
# _framework density 25.496884000000001
#
# number of rings (size 3 to 8) (size 9 to 14) (size 15 to 20)
#    1.091    0.727    0.000    5.455    0.000    3.636 
#    0.000    1.818    0.000    0.000    0.000    0.000 
#    0.000    0.000    0.000    0.000    0.000    0.000 
#
# Total GULP energy -61286.280209 kJ/mol
# GULP energy per Si atom -5571.480019 kJ/mol
# Density = 2.543885 g / cm^3
# Si number density = 25.496884 Si / 1000 Ang^3
#
#
#
# Elastic Constant Matrix: (Units=GPa)
#
#
# Indices 1 2 3 4 5 6 
#
# 1 51.8058 15.6992 29.8221 7.7056 2.0848 3.4867
# 2 15.6992 74.0618 9.1114 -4.0763 10.3537 -7.3799
# 3 29.8221 9.1114 121.6924 -28.1371 16.2130 -10.3847
# 4 7.7056 -4.0763 -28.1371 28.9760 -12.0729 7.2823
# 5 2.0848 10.3537 16.2130 -12.0729 45.4816 4.2764
# 6 3.4867 -7.3799 -10.3847 7.2823 4.2764 15.3272
#
#
#
# Elastic Compliance Matrix: (Units=1/GPa)
#
#
# Indices 1 2 3 4 5 6 
#
# 1 0.032560 -0.007561 -0.012875 -0.019182 0.000748 -0.010866
# 2 -0.007561 0.016802 0.002744 0.001833 -0.005120 0.012227
# 3 -0.012875 0.002744 0.015909 0.016432 -0.002077 0.007801
# 4 -0.019182 0.001833 0.016432 0.066490 0.014053 -0.019132
# 5 0.000748 -0.005120 -0.002077 0.014053 0.029367 -0.018913
# 6 -0.010866 0.012227 0.007801 -0.019132 -0.018913 0.093255
#
#
# Mechanical properties :
#
#
# Convention : Reuss Voigt Hill
#
# Bulk Modulus (GPa) = 33.45888 39.64726 36.55307
# Shear Modulus (GPa) = 16.68167 30.81880 23.75023
#
# Velocity S-wave (km/s) = 2.56063 3.48045 3.05535
# Velocity P-wave (km/s) = 4.67907 5.63338 5.17825
#
# Compressibility (1/GPa) = 0.02988743
#
# Stress axis : x y z
#
# Youngs Moduli (GPa) = 30.71239 59.51555 62.85713
#
# Poissons Ratio (x) = 0.45000 0.80930
# Poissons Ratio (y) = 0.23222 -0.17249
# Poissons Ratio (z) = 0.39543 -0.16332
#
# Static dielectric constant tensor:
#      x y z
#    x 2.106950 -0.007990 -0.040630 
#    y -0.007990 1.989910 -0.054630 
#    z -0.040630 -0.054630 2.024110 
# 
# From -- ./inp_files/286429.got.cif
#   From: 2010.05.17/outbox.cif.g08.bks.cpg/sg2_144_cif.got.tgz:286429.got - 2010.06.03 11:33:40.
