data_PCOD9054929
_publ_section_title
;
Structure prediction by ZEFSAII (Michael W. Deem and Ramdas Pophale) SiO2 
 PCOD9054929
Probable space group: P -1
;
_chemical_formula_sum "Si O2"
_cell_formula_units_Z 16
_cell_length_a 18.468633
_cell_length_b 8.444414
_cell_length_c 9.489332
_cell_angle_alpha 51.201950
_cell_angle_beta 42.414556
_cell_angle_gamma 52.099791
_cell_volume 744.855984
_symmetry_space_group_name_H-M "P -1"
_symmetry_group_IT_number 2
_symmetry_cell_setting 'triclinic'
loop_
_space_group_symop_operation_xyz
x,y,z
-x,-y,-z
loop_
_atom_site_type_symbol
_atom_site_label
_atom_site_fract_x
_atom_site_fract_y
_atom_site_fract_z
Si Si1 0.182966 0.842548 0.703802
Si Si2 0.749369 0.742148 0.946720
Si Si3 0.976224 0.027661 0.686863
Si Si4 0.630695 0.160224 0.748857
Si Si5 0.125863 0.338179 0.906162
Si Si6 0.392372 0.269170 0.077262
Si Si7 0.925811 0.386993 0.773691
Si Si8 0.815965 0.699305 0.462968
O O1 0.295253 0.734312 0.513290
O O2 0.206298 0.047271 0.628391
O O3 0.129966 0.727893 0.963164
O O4 0.088057 0.924334 0.674949
O O5 0.651358 0.665623 0.055976
O O6 0.793448 0.659204 0.081020
O O7 0.854410 0.633190 0.754348
O O8 0.709405 0.996238 0.840023
O O9 0.925709 0.258927 0.700708
O O10 0.893830 0.890838 0.923064
O O11 0.000000 0.000000 0.500000
O O12 0.595656 0.984437 0.799217
O O13 0.514313 0.297556 0.906579
O O14 0.181643 0.367907 0.664351
O O15 0.000000 0.500000 0.000000
O O16 0.286362 0.362544 0.278988
O O17 0.052218 0.372091 0.642824
#
# Coordination Sequence:
#
# PCOD9054929 Si02
#       8
#     2   2   2   2   2   2   2   2
#     4  10  17  36  55  73 109 150 175 214 275 331
#     4  10  20  34  56  83 108 140 188 230 257 325
#     4  11  22  33  49  81 117 144 173 218 280 337
#     4   8  17  36  59  76 101 144 202 218 261 313
#     4  12  21  34  51  85 119 142 177 222 275 331
#     4   8  18  35  57  77 104 145 192 228 258 316
#     4  11  20  35  53  82 116 142 174 218 290 332
#     4  10  18  33  54  77 113 145 175 216 280 324
#
# _framework density 21.480663
#
# number of rings (size 3 to 8) (size 9 to 14) (size 15 to 20)
#    0.750    1.250    3.750    1.500    1.750    1.500 
#    0.000    1.250    0.000    0.000    0.000   11.375 
#    0.000    0.000    0.000    0.000    0.000    0.000 
#
# Total GULP energy -89070.033247 kJ/mol
# GULP energy per Si atom -5566.877078 kJ/mol
# Density = 2.143177 g / cm^3
# Si number density = 21.480663 Si / 1000 Ang^3
#
#
#
# Elastic Constant Matrix: (Units=GPa)
#
#
# Indices 1 2 3 4 5 6 
#
# 1 94.4575 41.9573 67.9854 22.3841 16.2982 -12.2825
# 2 41.9573 54.6057 45.6818 6.7794 -5.1110 -7.2386
# 3 67.9854 45.6818 148.5076 19.7841 -4.3341 -13.4400
# 4 22.3841 6.7794 19.7841 32.7595 1.5336 -5.3547
# 5 16.2982 -5.1110 -4.3341 1.5336 39.8607 9.8914
# 6 -12.2825 -7.2386 -13.4400 -5.3547 9.8914 25.7375
#
#
#
# Elastic Compliance Matrix: (Units=1/GPa)
#
#
# Indices 1 2 3 4 5 6 
#
# 1 0.028896 -0.015594 -0.006653 -0.010041 -0.016697 0.010258
# 2 -0.015594 0.033435 -0.003780 0.004998 0.010838 -0.003137
# 3 -0.006653 -0.003780 0.011259 -0.001647 0.003538 -0.000061
# 4 -0.010041 0.004998 -0.001647 0.037664 0.002462 0.002643
# 5 -0.016697 0.010838 0.003538 0.002462 0.037838 -0.017102
# 6 0.010258 -0.003137 -0.000061 0.002643 -0.017102 0.049957
#
#
# Mechanical properties :
#
#
# Convention : Reuss Voigt Hill
#
# Bulk Modulus (GPa) = 46.43024 67.64667 57.03845
# Shear Modulus (GPa) = 19.35880 29.13463 24.24672
#
# Velocity S-wave (km/s) = 3.00529 3.68682 3.36336
# Velocity P-wave (km/s) = 5.80553 7.04867 6.45709
#
# Compressibility (1/GPa) = 0.02153769
#
# Stress axis : x y z
#
# Youngs Moduli (GPa) = 34.60667 29.90904 88.81672
#
# Poissons Ratio (x) = 0.46639 0.59090
# Poissons Ratio (y) = 0.53964 0.33569
# Poissons Ratio (z) = 0.23024 0.11304
#
# Static dielectric constant tensor:
#      x y z
#    x 1.860990 -0.014190 0.034440 
#    y -0.014190 1.900180 -0.001510 
#    z 0.034440 -0.001510 1.824600 
# 
# From -- ./inp_files/343392.got.cif
#   From: 2010.05.17/outbox.cif.g08.bks.cpg/sg2_172_cif.got.tgz:343392.got - 2010.06.03 11:33:40.
