data_PCOD9054459
_publ_section_title
;
Structure prediction by ZEFSAII (Michael W. Deem and Ramdas Pophale) SiO2 
 PCOD9054459
Probable space group: P -1
;
_chemical_formula_sum "Si O2"
_cell_formula_units_Z 14
_cell_length_a 6.744168
_cell_length_b 7.679343
_cell_length_c 17.343591
_cell_angle_alpha 71.510206
_cell_angle_beta 137.456305
_cell_angle_gamma 122.764579
_cell_volume 505.432007
_symmetry_space_group_name_H-M "P -1"
_symmetry_group_IT_number 2
_symmetry_cell_setting 'triclinic'
loop_
_space_group_symop_operation_xyz
x,y,z
-x,-y,-z
loop_
_atom_site_type_symbol
_atom_site_label
_atom_site_fract_x
_atom_site_fract_y
_atom_site_fract_z
Si Si1 0.579401 0.654949 0.376821
Si Si2 0.865156 0.006846 0.653193
Si Si3 0.274078 0.639923 0.453398
Si Si4 0.214374 0.851311 0.882841
Si Si5 0.780327 0.790236 0.914747
Si Si6 0.986054 0.579157 0.129922
Si Si7 0.539740 0.002005 0.717447
O O1 0.317501 0.594183 0.383592
O O2 0.801193 0.556348 0.486298
O O3 0.331172 0.565674 0.245016
O O4 0.714756 0.902812 0.369013
O O5 0.642742 0.821215 0.558165
O O6 0.598668 0.953998 0.655081
O O7 0.155873 0.979909 0.780631
O O8 0.945889 0.240771 0.619457
O O9 0.926034 0.775688 0.874966
O O10 0.272840 0.663149 0.894109
O O11 0.500000 0.000000 0.000000
O O12 0.482308 0.825912 0.787155
O O13 0.836157 0.621180 0.003614
O O14 0.000000 0.000000 0.000000
O O15 0.104394 0.789969 0.185221
#
# Coordination Sequence:
#
# PCOD9054459 Si02
#       7
#     2   2   2   2   2   2   2
#     4   8  14  23  41  70  93 118 154 205 245 269
#     4   9  15  26  41  66  98 125 155 196 242 280
#     4   9  14  23  43  65  99 121 157 202 247 265
#     4  11  21  32  47  73 103 131 157 195 247 295
#     4   9  17  32  51  67  96 129 163 202 233 284
#     4   9  16  30  46  69  98 125 161 199 233 289
#     4   7  14  25  43  66  95 117 152 194 239 276
#
# _framework density 27.699075000000001
#
# number of rings (size 3 to 8) (size 9 to 14) (size 15 to 20)
#    0.857    2.286    1.429    0.429    0.000    0.000 
#    0.000    6.429    0.000    0.000    0.000    2.000 
#    0.000    0.143    0.000    0.000    0.000    0.000 
#
# Total GULP energy -77957.345000 kJ/mol
# GULP energy per Si atom -5568.381786 kJ/mol
# Density = 2.763603 g / cm^3
# Si number density = 27.699075 Si / 1000 Ang^3
#
#
#
# Elastic Constant Matrix: (Units=GPa)
#
#
# Indices 1 2 3 4 5 6 
#
# 1 55.0841 31.4977 21.3480 -10.3924 -6.7885 -14.8498
# 2 31.4977 141.8901 74.9492 -52.5112 -15.7672 1.9185
# 3 21.3480 74.9492 172.3312 -60.6093 -4.1071 7.5373
# 4 -10.3924 -52.5112 -60.6093 92.2467 5.8355 -10.5043
# 5 -6.7885 -15.7672 -4.1071 5.8355 30.0907 -9.8625
# 6 -14.8498 1.9185 7.5373 -10.5043 -9.8625 33.3176
#
#
#
# Elastic Compliance Matrix: (Units=1/GPa)
#
#
# Indices 1 2 3 4 5 6 
#
# 1 0.026319 -0.003892 -0.001751 0.000784 0.008457 0.015101
# 2 -0.003892 0.011412 -0.003052 0.003874 0.004182 0.000758
# 3 -0.001751 -0.003052 0.008676 0.003670 -0.002197 -0.002061
# 4 0.000784 0.003874 0.003670 0.016006 0.001137 0.004679
# 5 0.008457 0.004182 -0.002197 0.001137 0.042358 0.016923
# 6 0.015101 0.000758 -0.002061 0.004679 0.016923 0.043652
#
#
# Mechanical properties :
#
#
# Convention : Reuss Voigt Hill
#
# Bulk Modulus (GPa) = 34.46265 69.43278 51.94771
# Shear Modulus (GPa) = 28.49232 47.23171 37.86201
#
# Velocity S-wave (km/s) = 3.21072 4.13385 3.70118
# Velocity P-wave (km/s) = 5.11994 6.92143 6.08769
#
# Compressibility (1/GPa) = 0.02901692
#
# Stress axis : x y z
#
# Youngs Moduli (GPa) = 37.99497 87.62585 115.26692
#
# Poissons Ratio (x) = 0.34104 0.20183
# Poissons Ratio (y) = 0.14788 0.35180
# Poissons Ratio (z) = 0.06653 0.26744
#
# Static dielectric constant tensor:
#      x y z
#    x 2.484890 -0.033130 0.167170 
#    y -0.033130 2.305850 -0.089640 
#    z 0.167170 -0.089640 2.149570 
# 
# From -- ./inp_files/215913.got.cif
#   From: 2010.05.17/outbox.cif.g08.bks.cpg/sg2_108_cif.got.tgz:215913.got - 2010.06.03 11:33:40.
