data_PCOD9054141
_publ_section_title
;
Structure prediction by ZEFSAII (Michael W. Deem and Ramdas Pophale) SiO2 
 PCOD9054141
Probable space group: P -1
;
_chemical_formula_sum "Si O2"
_cell_formula_units_Z 16
_cell_length_a 9.111716
_cell_length_b 13.246092
_cell_length_c 8.768927
_cell_angle_alpha 51.723859
_cell_angle_beta 62.674373
_cell_angle_gamma 95.093718
_cell_volume 623.606883
_symmetry_space_group_name_H-M "P -1"
_symmetry_group_IT_number 2
_symmetry_cell_setting 'triclinic'
loop_
_space_group_symop_operation_xyz
x,y,z
-x,-y,-z
loop_
_atom_site_type_symbol
_atom_site_label
_atom_site_fract_x
_atom_site_fract_y
_atom_site_fract_z
Si Si1 0.543439 0.313123 0.602613
Si Si2 0.059403 0.064785 0.738230
Si Si3 0.638433 0.606193 0.627903
Si Si4 0.641063 0.712055 0.955218
Si Si5 0.675024 0.025448 0.996302
Si Si6 0.952656 0.204751 0.199152
Si Si7 0.917405 0.547229 0.351696
Si Si8 0.553092 0.963777 0.670461
O O1 0.532978 0.412361 0.382240
O O2 0.416565 0.147315 0.745696
O O3 0.761726 0.389154 0.487996
O O4 0.424431 0.301915 0.822124
O O5 0.250088 0.234823 0.485488
O O6 0.062149 0.934775 0.762750
O O7 0.000000 0.000000 0.000000
O O8 0.877370 0.081526 0.768865
O O9 0.799699 0.613734 0.429118
O O10 0.527947 0.438961 0.908708
O O11 0.623317 0.848546 0.772930
O O12 0.857291 0.741134 0.835746
O O13 0.651747 0.108733 0.071748
O O14 0.500000 0.000000 0.000000
O O15 0.749914 0.127368 0.461543
O O16 0.972520 0.332814 0.951887
O O17 0.000000 0.500000 0.500000
O O18 0.500000 0.000000 0.500000
#
# Coordination Sequence:
#
# PCOD9054141 Si02
#       8
#     2   2   2   2   2   2   2   2
#     4  11  20  40  71  97 132 173 241 288 330 402
#     4  12  21  38  70 101 130 175 238 287 325 407
#     4  11  22  38  69 102 131 172 242 291 333 401
#     4  11  21  46  68  96 132 187 231 281 342 424
#     4  12  24  43  69 102 140 182 237 288 340 411
#     4  12  23  45  69  99 136 189 231 279 351 425
#     4  11  23  36  67 106 140 175 230 293 348 405
#     4  12  29  42  66 105 150 178 221 295 364 405
#
# _framework density 25.657188999999999
#
# number of rings (size 3 to 8) (size 9 to 14) (size 15 to 20)
#    0.000    0.500    7.500    1.875    5.250    0.000 
#    0.000    1.250    0.000    0.000    0.000    0.000 
#    0.000    0.000    0.000    0.000    0.000    0.000 
#
# Total GULP energy -89361.379720 kJ/mol
# GULP energy per Si atom -5585.086232 kJ/mol
# Density = 2.559879 g / cm^3
# Si number density = 25.657189 Si / 1000 Ang^3
#
#
#
# Elastic Constant Matrix: (Units=GPa)
#
#
# Indices 1 2 3 4 5 6 
#
# 1 145.6905 6.1952 37.0158 -16.1251 8.1643 23.5751
# 2 6.1952 52.6637 24.1317 -7.5048 -4.2931 10.0866
# 3 37.0158 24.1317 129.8906 -33.6407 -7.6845 6.6864
# 4 -16.1251 -7.5048 -33.6407 40.7369 -3.2424 -7.3052
# 5 8.1643 -4.2931 -7.6845 -3.2424 36.3336 0.8981
# 6 23.5751 10.0866 6.6864 -7.3052 0.8981 21.5729
#
#
#
# Elastic Compliance Matrix: (Units=1/GPa)
#
#
# Indices 1 2 3 4 5 6 
#
# 1 0.009178 0.001841 -0.002609 -0.000155 -0.002162 -0.010044
# 2 0.001841 0.023014 -0.004226 -0.000487 0.001657 -0.011696
# 3 -0.002609 -0.004226 0.011437 0.008616 0.003174 0.004067
# 4 -0.000155 -0.000487 0.008616 0.033465 0.004567 0.008869
# 5 -0.002162 0.001657 0.003174 0.004567 0.029260 0.000932
# 6 -0.010044 -0.011696 0.004067 0.008869 0.000932 0.064504
#
#
# Mechanical properties :
#
#
# Convention : Reuss Voigt Hill
#
# Bulk Modulus (GPa) = 29.72533 51.43670 40.58102
# Shear Modulus (GPa) = 26.03355 37.12218 31.57786
#
# Velocity S-wave (km/s) = 3.18884 3.80788 3.51203
# Velocity P-wave (km/s) = 5.01687 6.27889 5.68302
#
# Compressibility (1/GPa) = 0.03364134
#
# Stress axis : x y z
#
# Youngs Moduli (GPa) = 108.96059 43.45118 87.43428
#
# Poissons Ratio (x) = -0.08000 0.22808
# Poissons Ratio (y) = -0.20060 0.36953
# Poissons Ratio (z) = 0.28423 0.18364
#
# Static dielectric constant tensor:
#      x y z
#    x 2.106430 0.010860 0.012870 
#    y 0.010860 2.074150 0.030390 
#    z 0.012870 0.030390 2.039880 
# 
# From -- ./inp_files/205541.got.cif
#   From: 2010.05.17/outbox.cif.g08.bks.cpg/sg2_103_cif.got.tgz:205541.got - 2010.06.03 11:33:40.
