data_PCOD9054131
_publ_section_title
;
Structure prediction by ZEFSAII (Michael W. Deem and Ramdas Pophale) SiO2 
 PCOD9054131
Probable space group: P -1
;
_chemical_formula_sum "Si O2"
_cell_formula_units_Z 14
_cell_length_a 8.166648
_cell_length_b 12.355635
_cell_length_c 9.413276
_cell_angle_alpha 141.267888
_cell_angle_beta 110.406392
_cell_angle_gamma 63.567504
_cell_volume 532.165171
_symmetry_space_group_name_H-M "P -1"
_symmetry_group_IT_number 2
_symmetry_cell_setting 'triclinic'
loop_
_space_group_symop_operation_xyz
x,y,z
-x,-y,-z
loop_
_atom_site_type_symbol
_atom_site_label
_atom_site_fract_x
_atom_site_fract_y
_atom_site_fract_z
Si Si1 0.562779 0.842565 0.647516
Si Si2 0.332273 0.380543 0.283306
Si Si3 0.074161 0.764739 0.607275
Si Si4 0.487166 0.705382 0.180703
Si Si5 0.837859 0.906203 0.164854
Si Si6 0.879398 0.692199 0.218888
Si Si7 0.709132 0.171077 0.020570
O O1 0.632461 0.666991 0.587665
O O2 0.501690 0.801848 0.431104
O O3 0.373619 0.971211 0.783426
O O4 0.701580 0.964714 0.821942
O O5 0.246595 0.591382 0.437396
O O6 0.523370 0.291915 0.168378
O O7 0.179497 0.280425 0.096747
O O8 0.121993 0.783387 0.805791
O O9 0.916729 0.713795 0.418896
O O10 0.068364 0.959902 0.743900
O O11 0.667129 0.711732 0.157396
O O12 0.500000 0.500000 0.000000
O O13 0.316761 0.786848 0.110515
O O14 0.910453 0.846949 0.284674
O O15 0.000000 0.500000 0.000000
#
# Coordination Sequence:
#
# PCOD9054131 Si02
#       7
#     2   2   2   2   2   2   2
#     4  11  22  41  72 102 142 174 241 294 339 406
#     4  11  20  40  70 104 142 175 243 283 328 425
#     4  12  23  39  73 103 139 182 233 285 349 403
#     4  12  27  45  70 103 140 189 233 290 355 409
#     4  11  22  41  71 105 137 183 233 288 343 409
#     4  12  26  47  69 103 147 183 235 287 347 427
#     4  11  21  41  67 103 135 188 234 282 340 420
#
# _framework density 26.307625000000002
#
# number of rings (size 3 to 8) (size 9 to 14) (size 15 to 20)
#    0.000    0.571    7.143    3.000    4.000    0.000 
#    0.000    3.571    0.000    0.000    0.000    0.000 
#    0.000    0.000    0.000    0.000    0.000    0.000 
#
# Total GULP energy -78356.496251 kJ/mol
# GULP energy per Si atom -5596.892589 kJ/mol
# Density = 2.624775 g / cm^3
# Si number density = 26.307625 Si / 1000 Ang^3
#
#
#
# Elastic Constant Matrix: (Units=GPa)
#
#
# Indices 1 2 3 4 5 6 
#
# 1 30.7107 24.9701 30.3091 2.3742 4.3429 -11.2991
# 2 24.9701 161.1616 47.7877 -13.8599 3.9592 -13.3105
# 3 30.3091 47.7877 159.0003 -21.0674 20.3244 -12.3938
# 4 2.3742 -13.8599 -21.0674 68.3769 -8.9121 7.4261
# 5 4.3429 3.9592 20.3244 -8.9121 40.6377 -1.0678
# 6 -11.2991 -13.3105 -12.3938 7.4261 -1.0678 33.2211
#
#
#
# Elastic Compliance Matrix: (Units=1/GPa)
#
#
# Indices 1 2 3 4 5 6 
#
# 1 0.049891 -0.004883 -0.007605 -0.006832 -0.002192 0.013632
# 2 -0.004883 0.007459 -0.001174 0.001344 0.000693 0.000612
# 3 -0.007605 -0.001174 0.008751 0.002385 -0.002937 -0.000420
# 4 -0.006832 0.001344 0.002385 0.016749 0.002960 -0.004544
# 5 -0.002192 0.000693 -0.002937 0.002960 0.026857 -0.001362
# 6 0.013632 0.000612 -0.000420 -0.004544 -0.001362 0.035798
#
#
# Mechanical properties :
#
#
# Convention : Reuss Voigt Hill
#
# Bulk Modulus (GPa) = 25.78857 61.88960 43.83909
# Shear Modulus (GPa) = 26.91744 44.96753 35.94249
#
# Velocity S-wave (km/s) = 3.20219 4.13885 3.70028
# Velocity P-wave (km/s) = 4.84727 6.81297 5.91238
#
# Compressibility (1/GPa) = 0.03877687
#
# Stress axis : x y z
#
# Youngs Moduli (GPa) = 20.04359 134.07382 114.27831
#
# Poissons Ratio (x) = 0.65465 0.86911
# Poissons Ratio (y) = 0.09787 0.13414
# Poissons Ratio (z) = 0.15244 0.15737
#
# Static dielectric constant tensor:
#      x y z
#    x 2.104800 0.017350 -0.039540 
#    y 0.017350 1.999330 -0.038580 
#    z -0.039540 -0.038580 2.074940 
# 
# From -- ./inp_files/261170.got.cif
#   From: 2010.05.17/outbox.cif.g08.bks.cpg/sg2_131_cif.got.tgz:261170.got - 2010.06.03 11:33:40.
