data_PCOD9054397
_publ_section_title
;
Structure prediction by ZEFSAII (Michael W. Deem and Ramdas Pophale) SiO2 
 PCOD9054397
Probable space group: P -1
;
_chemical_formula_sum "Si O2"
_cell_formula_units_Z 16
_cell_length_a 14.172715
_cell_length_b 7.988584
_cell_length_c 10.900390
_cell_angle_alpha 120.569897
_cell_angle_beta 73.259130
_cell_angle_gamma 61.193463
_cell_volume 658.857956
_symmetry_space_group_name_H-M "P -1"
_symmetry_group_IT_number 2
_symmetry_cell_setting 'triclinic'
loop_
_space_group_symop_operation_xyz
x,y,z
-x,-y,-z
loop_
_atom_site_type_symbol
_atom_site_label
_atom_site_fract_x
_atom_site_fract_y
_atom_site_fract_z
Si Si1 0.363428 0.211582 0.227490
Si Si2 0.829319 0.527295 0.826206
Si Si3 0.653275 0.690835 0.171257
Si Si4 0.883210 0.387869 0.181825
Si Si5 0.795217 0.001539 0.140995
Si Si6 0.581059 0.234884 0.777830
Si Si7 0.845431 0.904022 0.380215
Si Si8 0.599414 0.615312 0.498467
O O1 0.211674 0.428444 0.283824
O O2 0.391931 0.364420 0.351681
O O3 0.364990 0.028427 0.254503
O O4 0.500000 0.000000 0.000000
O O5 0.001866 0.217657 0.679662
O O6 0.709840 0.583883 0.971376
O O7 0.796792 0.793583 0.993671
O O8 0.805404 0.468754 0.109571
O O9 0.542244 0.679751 0.234405
O O10 0.549252 0.040555 0.359382
O O11 0.874614 0.632450 0.293358
O O12 0.756797 0.488694 0.355103
O O13 0.065087 0.083661 0.001375
O O14 0.827933 0.941205 0.252933
O O15 0.634181 0.353539 0.330620
O O16 0.705787 0.151969 0.616104
O O17 0.500000 0.500000 0.000000
#
# Coordination Sequence:
#
# PCOD9054397 Si02
#       8
#     2   2   2   2   2   2   2   2
#     4  11  23  45  64  88 135 176 208 261 331 388
#     4  11  22  42  70  93 129 178 215 257 332 395
#     4  11  21  42  69  91 128 173 214 260 336 376
#     4  11  20  44  65  95 130 174 213 268 329 385
#     4  11  24  40  67 101 134 161 222 278 316 382
#     4  11  26  43  65  97 130 169 220 272 313 390
#     4  11  22  43  68  94 129 170 216 268 327 380
#     4  11  24  39  66  98 130 171 214 273 322 378
#
# _framework density 24.284445000000002
#
# number of rings (size 3 to 8) (size 9 to 14) (size 15 to 20)
#    0.000    1.000    7.500    1.500    1.750    2.000 
#    2.250    1.250    0.000    0.000    0.000    0.000 
#    0.000    0.000    0.000    0.000    0.000    0.000 
#
# Total GULP energy -89394.663597 kJ/mol
# GULP energy per Si atom -5587.166475 kJ/mol
# Density = 2.422917 g / cm^3
# Si number density = 24.284445 Si / 1000 Ang^3
#
#
#
# Elastic Constant Matrix: (Units=GPa)
#
#
# Indices 1 2 3 4 5 6 
#
# 1 60.0607 13.1504 23.2691 6.2340 -10.1255 -20.2405
# 2 13.1504 61.6100 6.0787 -3.3561 -5.2797 -15.5626
# 3 23.2691 6.0787 71.3436 -7.0508 -27.1977 9.6055
# 4 6.2340 -3.3561 -7.0508 36.9155 1.8659 -1.1473
# 5 -10.1255 -5.2797 -27.1977 1.8659 47.2712 -2.0900
# 6 -20.2405 -15.5626 9.6055 -1.1473 -2.0900 31.9743
#
#
#
# Elastic Compliance Matrix: (Units=1/GPa)
#
#
# Indices 1 2 3 4 5 6 
#
# 1 0.030566 0.000377 -0.013887 -0.007047 -0.000086 0.023446
# 2 0.000377 0.019239 -0.002598 0.001458 0.001142 0.010510
# 3 -0.013887 -0.002598 0.025627 0.005949 0.010500 -0.016854
# 4 -0.007047 0.001458 0.005949 0.029373 0.000721 -0.004437
# 5 -0.000086 0.001142 0.010500 0.000721 0.027239 -0.000847
# 6 0.023446 0.010510 -0.016854 -0.004437 -0.000847 0.056081
#
#
# Mechanical properties :
#
#
# Convention : Reuss Voigt Hill
#
# Bulk Modulus (GPa) = 23.13929 30.89007 27.01468
# Shear Modulus (GPa) = 21.29953 33.26660 27.28307
#
# Velocity S-wave (km/s) = 2.96478 3.70519 3.35547
# Velocity P-wave (km/s) = 4.61183 5.57246 5.11475
#
# Compressibility (1/GPa) = 0.04321653
#
# Stress axis : x y z
#
# Youngs Moduli (GPa) = 32.71650 51.97742 39.02069
#
# Poissons Ratio (x) = -0.01961 0.54189
# Poissons Ratio (y) = -0.01234 0.10137
# Poissons Ratio (z) = 0.45434 0.13503
#
# Static dielectric constant tensor:
#      x y z
#    x 1.982480 0.047930 0.020750 
#    y 0.047930 2.038310 0.039040 
#    z 0.020750 0.039040 1.967950 
# 
# From -- ./inp_files/448047.got.cif
#   From: 2010.05.17/outbox.cif.g08.bks.cpg/sg2_225_cif.got.tgz:448047.got - 2010.06.03 11:33:40.
