data_PCOD9054247
_publ_section_title
;
Structure prediction by ZEFSAII (Michael W. Deem and Ramdas Pophale) SiO2 
 PCOD9054247
Probable space group: P -1
;
_chemical_formula_sum "Si O2"
_cell_formula_units_Z 16
_cell_length_a 10.537451
_cell_length_b 10.433051
_cell_length_c 11.521622
_cell_angle_alpha 112.734928
_cell_angle_beta 97.339295
_cell_angle_gamma 137.592221
_cell_volume 589.014307
_symmetry_space_group_name_H-M "P -1"
_symmetry_group_IT_number 2
_symmetry_cell_setting 'triclinic'
loop_
_space_group_symop_operation_xyz
x,y,z
-x,-y,-z
loop_
_atom_site_type_symbol
_atom_site_label
_atom_site_fract_x
_atom_site_fract_y
_atom_site_fract_z
Si Si1 0.186893 0.153209 0.967912
Si Si2 0.406964 0.652526 0.653626
Si Si3 0.111793 0.473147 0.772832
Si Si4 0.404852 0.875178 0.155965
Si Si5 0.877712 0.147101 0.311305
Si Si6 0.394051 0.280534 0.668585
Si Si7 0.155828 0.033691 0.325190
Si Si8 0.711451 0.307560 0.672432
O O1 0.183095 0.993346 0.863020
O O2 0.449434 0.458993 0.151021
O O3 0.077781 0.134953 0.838082
O O4 0.000000 0.000000 0.000000
O O5 0.262555 0.526427 0.714138
O O6 0.606951 0.733129 0.652159
O O7 0.173620 0.447436 0.465504
O O8 0.591647 0.957865 0.790130
O O9 0.963052 0.470926 0.708470
O O10 0.303217 0.708648 0.972079
O O11 0.915345 0.184422 0.709131
O O12 0.253752 0.677135 0.179172
O O13 0.695927 0.107321 0.287857
O O14 0.778793 0.961160 0.343345
O O15 0.234813 0.185095 0.506551
O O16 0.593620 0.351804 0.666439
O O17 0.500000 0.000000 0.500000
#
# Coordination Sequence:
#
# PCOD9054247 Si02
#       8
#     2   2   2   2   2   2   2   2
#     4  12  30  49  75 107 146 197 254 312 363 438
#     4  12  25  43  74 110 144 193 240 303 370 444
#     4  12  24  44  71 111 151 192 237 302 374 441
#     4  11  24  41  72 109 148 189 242 306 363 441
#     4  11  25  49  71 107 145 197 253 298 369 441
#     4  11  24  48  78 107 147 199 244 307 368 443
#     4  12  26  50  76 110 149 194 247 306 372 436
#     4  11  20  41  72 106 149 189 237 291 378 442
#
# _framework density 27.164027000000001
#
# number of rings (size 3 to 8) (size 9 to 14) (size 15 to 20)
#    0.000    0.500    3.750    4.500    3.500    4.500 
#    0.000    0.000    0.000    0.000    0.000    0.000 
#    0.000    0.000    0.000    0.000    0.000    0.000 
#
# Total GULP energy -89698.425558 kJ/mol
# GULP energy per Si atom -5606.151597 kJ/mol
# Density = 2.710220 g / cm^3
# Si number density = 27.164027 Si / 1000 Ang^3
#
#
#
# Elastic Constant Matrix: (Units=GPa)
#
#
# Indices 1 2 3 4 5 6 
#
# 1 111.1195 19.2435 27.3650 -13.4648 -6.8407 19.6374
# 2 19.2435 118.1526 14.8477 -8.3474 -7.9694 37.1391
# 3 27.3650 14.8477 195.0660 -11.0792 -20.2672 6.8444
# 4 -13.4648 -8.3474 -11.0792 44.1299 -0.9177 -6.5220
# 5 -6.8407 -7.9694 -20.2672 -0.9177 51.1279 -1.8335
# 6 19.6374 37.1391 6.8444 -6.5220 -1.8335 41.1704
#
#
#
# Elastic Compliance Matrix: (Units=1/GPa)
#
#
# Indices 1 2 3 4 5 6 
#
# 1 0.010364 0.000053 -0.001087 0.002265 0.000847 -0.004414
# 2 0.000053 0.011970 -0.000369 0.000650 0.001358 -0.010599
# 3 -0.001087 -0.000369 0.005572 0.001067 0.002032 0.000184
# 4 0.002265 0.000650 0.001067 0.024070 0.001332 0.002028
# 5 0.000847 0.001358 0.002032 0.001332 0.020683 -0.000835
# 6 -0.004414 -0.010599 0.000184 0.002028 -0.000835 0.036210
#
#
# Mechanical properties :
#
#
# Convention : Reuss Voigt Hill
#
# Bulk Modulus (GPa) = 39.83581 60.80561 50.32071
# Shear Modulus (GPa) = 41.65238 51.47778 46.56508
#
# Velocity S-wave (km/s) = 3.92007 4.35796 4.14480
# Velocity P-wave (km/s) = 5.93178 6.91055 6.43979
#
# Compressibility (1/GPa) = 0.02510304
#
# Stress axis : x y z
#
# Youngs Moduli (GPa) = 96.48435 83.53926 179.46208
#
# Poissons Ratio (x) = -0.00445 0.19499
# Poissons Ratio (y) = -0.00514 0.06616
# Poissons Ratio (z) = 0.10483 0.03080
#
# Static dielectric constant tensor:
#      x y z
#    x 2.175760 -0.044750 0.015170 
#    y -0.044750 2.150670 -0.028970 
#    z 0.015170 -0.028970 2.034860 
# 
# From -- ./inp_files/283213.got.cif
#   From: 2010.05.17/outbox.cif.g08.bks.cpg/sg2_142_cif.got.tgz:283213.got - 2010.06.03 11:33:40.
