data_PCOD9054520
_publ_section_title
;
Structure prediction by ZEFSAII (Michael W. Deem and Ramdas Pophale) SiO2 
 PCOD9054520
Probable space group: P -1
;
_chemical_formula_sum "Si O2"
_cell_formula_units_Z 16
_cell_length_a 14.500185
_cell_length_b 11.633357
_cell_length_c 15.004604
_cell_angle_alpha 59.155745
_cell_angle_beta 30.130043
_cell_angle_gamma 36.315141
_cell_volume 590.584129
_symmetry_space_group_name_H-M "P -1"
_symmetry_group_IT_number 2
_symmetry_cell_setting 'triclinic'
loop_
_space_group_symop_operation_xyz
x,y,z
-x,-y,-z
loop_
_atom_site_type_symbol
_atom_site_label
_atom_site_fract_x
_atom_site_fract_y
_atom_site_fract_z
Si Si1 0.232569 0.569895 0.455242
Si Si2 0.859798 0.250659 0.354247
Si Si3 0.552604 0.055011 0.155718
Si Si4 0.550123 0.182545 0.661358
Si Si5 0.892700 0.643465 0.342826
Si Si6 0.488373 0.627505 0.889785
Si Si7 0.136703 0.620184 0.965776
Si Si8 0.749351 0.006683 0.372609
O O1 0.069281 0.714941 0.627775
O O2 0.020349 0.559627 0.625428
O O3 0.313010 0.542719 0.294677
O O4 0.603133 0.414725 0.236644
O O5 0.500000 0.500000 0.500000
O O6 0.860265 0.095088 0.447530
O O7 0.161612 0.092745 0.098316
O O8 0.404539 0.998546 0.279011
O O9 0.775244 0.888828 0.125322
O O10 0.391001 0.299108 0.212266
O O11 0.535129 0.190362 0.562665
O O12 0.268022 0.427778 0.860768
O O13 0.868328 0.780378 0.377410
O O14 0.094377 0.579150 0.114709
O O15 0.507582 0.844858 0.552928
O O16 0.500000 0.500000 0.000000
O O17 0.077543 0.889890 0.118256
#
# Coordination Sequence:
#
# PCOD9054520 Si02
#       8
#     2   2   2   2   2   2   2   2
#     4  11  23  40  63  94 131 175 206 264 335 382
#     4  11  21  36  62 102 136 164 194 260 344 413
#     4  12  22  38  65  95 129 176 207 264 333 384
#     4  11  21  35  60 100 134 163 196 252 333 414
#     4  11  22  37  64 103 134 157 202 269 345 407
#     4  12  28  48  64  85 128 188 241 270 298 364
#     4  11  22  35  66 103 142 156 190 264 348 416
#     4  11  22  38  63  93 133 159 210 268 324 390
#
# _framework density 27.091822000000001
#
# number of rings (size 3 to 8) (size 9 to 14) (size 15 to 20)
#    0.000    0.750    6.250    3.375    1.750    1.000 
#    0.000    3.125    0.000    3.000    0.000    0.000 
#    0.000    0.000    0.000    0.000    0.000    0.000 
#
# Total GULP energy -89247.532337 kJ/mol
# GULP energy per Si atom -5577.970771 kJ/mol
# Density = 2.703016 g / cm^3
# Si number density = 27.091822 Si / 1000 Ang^3
#
#
#
# Elastic Constant Matrix: (Units=GPa)
#
#
# Indices 1 2 3 4 5 6 
#
# 1 154.4597 54.3404 26.9081 5.7024 17.8743 53.3885
# 2 54.3404 104.4908 4.8049 -2.2946 13.3501 34.0493
# 3 26.9081 4.8049 109.7364 6.5087 15.0377 9.6713
# 4 5.7024 -2.2946 6.5087 27.3329 6.7059 -4.7447
# 5 17.8743 13.3501 15.0377 6.7059 67.1887 -14.9803
# 6 53.3885 34.0493 9.6713 -4.7447 -14.9803 32.3002
#
#
#
# Elastic Compliance Matrix: (Units=1/GPa)
#
#
# Indices 1 2 3 4 5 6 
#
# 1 0.047612 0.021510 0.005873 -0.020625 -0.044463 -0.126781
# 2 0.021510 0.028865 0.005550 -0.010415 -0.030207 -0.083183
# 3 0.005873 0.005550 0.011272 -0.005197 -0.010106 -0.024383
# 4 -0.020625 -0.010415 -0.005197 0.047633 0.017757 0.061858
# 5 -0.044463 -0.030207 -0.010106 0.017757 0.064628 0.140942
# 6 -0.126781 -0.083183 -0.024383 0.061858 0.140942 0.409956
#
#
# Mechanical properties :
#
#
# Convention : Reuss Voigt Hill
#
# Bulk Modulus (GPa) = 6.50979 60.08820 33.29899
# Shear Modulus (GPa) = 8.39907 44.20659 26.30283
#
# Velocity S-wave (km/s) = 1.76265 4.04385 3.11927
# Velocity P-wave (km/s) = 2.55943 6.63561 5.02901
#
# Compressibility (1/GPa) = 0.15361479
#
# Stress axis : x y z
#
# Youngs Moduli (GPa) = 21.00317 34.64369 88.71875
#
# Poissons Ratio (x) = -0.74519 -0.52106
# Poissons Ratio (y) = -0.45178 -0.49237
# Poissons Ratio (z) = -0.12335 -0.19227
#
# Static dielectric constant tensor:
#      x y z
#    x 2.145440 -0.013770 -0.024820 
#    y -0.013770 2.120070 -0.094120 
#    z -0.024820 -0.094120 2.031360 
# 
# From -- ./inp_files/532455.got.cif
#   From: 2010.05.17/outbox.cif.g08.bks.cpg/sg2_267_cif.got.tgz:532455.got - 2010.06.03 11:33:40.
