data_PCOD9054224
_publ_section_title
;
Structure prediction by ZEFSAII (Michael W. Deem and Ramdas Pophale) SiO2 
 PCOD9054224
Probable space group: P -1
;
_chemical_formula_sum "Si O2"
_cell_formula_units_Z 16
_cell_length_a 11.230789
_cell_length_b 9.444065
_cell_length_c 13.606220
_cell_angle_alpha 94.366031
_cell_angle_beta 147.274112
_cell_angle_gamma 71.347041
_cell_volume 684.762933
_symmetry_space_group_name_H-M "P -1"
_symmetry_group_IT_number 2
_symmetry_cell_setting 'triclinic'
loop_
_space_group_symop_operation_xyz
x,y,z
-x,-y,-z
loop_
_atom_site_type_symbol
_atom_site_label
_atom_site_fract_x
_atom_site_fract_y
_atom_site_fract_z
Si Si1 0.296432 0.275912 0.716544
Si Si2 0.589957 0.608563 0.405138
Si Si3 0.483842 0.282176 0.047785
Si Si4 0.261284 0.090545 0.996352
Si Si5 0.258839 0.160163 0.379101
Si Si6 0.015346 0.824317 0.001745
Si Si7 0.230091 0.695759 0.587562
Si Si8 0.032667 0.011115 0.352117
O O1 0.337199 0.348647 0.648900
O O2 0.023321 0.291134 0.541297
O O3 0.500327 0.086900 0.847761
O O4 0.358016 0.354158 0.859584
O O5 0.689482 0.691873 0.555929
O O6 0.703974 0.418012 0.467948
O O7 0.293226 0.694135 0.214418
O O8 0.322396 0.203095 0.975231
O O9 0.541970 0.374902 0.179827
O O10 0.762722 0.139290 0.211510
O O11 0.185138 0.162116 0.055735
O O12 0.034077 0.068714 0.791517
O O13 0.051472 0.207861 0.154322
O O14 0.500000 0.000000 0.500000
O O15 0.173906 0.105422 0.415796
O O16 0.000000 0.000000 0.000000
O O17 0.178618 0.871591 0.524575
#
# Coordination Sequence:
#
# PCOD9054224 Si02
#       8
#     2   2   2   2   2   2   2   2
#     4  11  21  42  67  96 133 168 218 275 316 390
#     4  12  27  44  64 101 138 172 211 274 336 384
#     4  11  23  39  70  98 126 178 220 265 329 375
#     4  11  20  41  70  96 125 167 228 280 309 368
#     4  12  24  43  74  96 121 177 228 270 322 378
#     4  12  22  43  70  94 128 169 231 273 308 392
#     4  12  26  40  63 103 141 169 210 267 340 397
#     4  11  21  41  70  99 130 170 222 272 317 395
#
# _framework density 23.365752000000001
#
# number of rings (size 3 to 8) (size 9 to 14) (size 15 to 20)
#    0.000    0.500    6.250    3.000    3.500    1.500 
#    0.000    3.125    0.000    0.000    0.000    0.000 
#    0.000    0.000    0.000    0.000    0.000    0.000 
#
# Total GULP energy -89632.534994 kJ/mol
# GULP energy per Si atom -5602.033437 kJ/mol
# Density = 2.331257 g / cm^3
# Si number density = 23.365752 Si / 1000 Ang^3
#
#
#
# Elastic Constant Matrix: (Units=GPa)
#
#
# Indices 1 2 3 4 5 6 
#
# 1 66.3868 2.7131 -2.9526 -4.3482 10.1597 -10.2800
# 2 2.7131 65.5637 14.5784 14.3069 0.8894 -15.3429
# 3 -2.9526 14.5784 82.1023 25.8964 -4.2151 -8.1086
# 4 -4.3482 14.3069 25.8964 31.9809 -13.2085 -3.6543
# 5 10.1597 0.8894 -4.2151 -13.2085 37.6422 3.5401
# 6 -10.2800 -15.3429 -8.1086 -3.6543 3.5401 22.0944
#
#
#
# Elastic Compliance Matrix: (Units=1/GPa)
#
#
# Indices 1 2 3 4 5 6 
#
# 1 0.017555 0.001692 0.001271 -0.000597 -0.005847 0.010648
# 2 0.001692 0.020832 0.000838 -0.010533 -0.005940 0.014771
# 3 0.001271 0.000838 0.017242 -0.015307 -0.004336 0.005664
# 4 -0.000597 -0.010533 -0.015307 0.055225 0.018740 -0.007079
# 5 -0.005847 -0.005940 -0.004336 0.018740 0.035410 -0.011011
# 6 0.010648 0.014771 0.005664 -0.007079 -0.011011 0.063144
#
#
# Mechanical properties :
#
#
# Convention : Reuss Voigt Hill
#
# Bulk Modulus (GPa) = 15.81515 26.97005 21.39260
# Shear Modulus (GPa) = 22.43339 31.65777 27.04558
#
# Velocity S-wave (km/s) = 3.10190 3.68486 3.40588
# Velocity P-wave (km/s) = 4.42858 5.44719 4.96408
#
# Compressibility (1/GPa) = 0.06323053
#
# Stress axis : x y z
#
# Youngs Moduli (GPa) = 56.96373 48.00407 57.99888
#
# Poissons Ratio (x) = -0.08124 -0.07369
# Poissons Ratio (y) = -0.09640 -0.04861
# Poissons Ratio (z) = -0.07238 -0.04023
#
# Static dielectric constant tensor:
#      x y z
#    x 1.875260 -0.021840 -0.054520 
#    y -0.021840 1.929740 0.039370 
#    z -0.054520 0.039370 1.907350 
# 
# From -- ./inp_files/348968.got.cif
#   From: 2010.05.17/outbox.cif.g08.bks.cpg/sg2_175_cif.got.tgz:348968.got - 2010.06.03 11:33:40.
