data_PCOD9054591
_publ_section_title
;
Structure prediction by ZEFSAII (Michael W. Deem and Ramdas Pophale) SiO2 
 PCOD9054591
Probable space group: P -1
;
_chemical_formula_sum "Si O2"
_cell_formula_units_Z 12
_cell_length_a 17.242731
_cell_length_b 8.419236
_cell_length_c 10.781163
_cell_angle_alpha 138.011178
_cell_angle_beta 32.596401
_cell_angle_gamma 130.628169
_cell_volume 562.703249
_symmetry_space_group_name_H-M "P -1"
_symmetry_group_IT_number 2
_symmetry_cell_setting 'triclinic'
loop_
_space_group_symop_operation_xyz
x,y,z
-x,-y,-z
loop_
_atom_site_type_symbol
_atom_site_label
_atom_site_fract_x
_atom_site_fract_y
_atom_site_fract_z
Si Si1 0.111489 0.047130 0.265427
Si Si2 0.078363 0.759112 0.564132
Si Si3 0.829023 0.429555 0.180119
Si Si4 0.431125 0.318888 0.387302
Si Si5 0.597967 0.227886 0.873225
Si Si6 0.236808 0.582478 0.456532
O O1 0.194742 0.302620 0.325071
O O2 0.022369 0.066235 0.267691
O O3 0.000000 0.000000 0.500000
O O4 0.197669 0.812823 0.002323
O O5 0.237425 0.769678 0.294163
O O6 0.119882 0.750926 0.648557
O O7 0.000000 0.500000 0.500000
O O8 0.738093 0.636064 0.366471
O O9 0.766804 0.380741 0.372551
O O10 0.000000 0.500000 0.000000
O O11 0.500000 0.500000 0.500000
O O12 0.454973 0.046875 0.229610
O O13 0.501412 0.352533 0.175255
O O14 0.623403 0.343993 0.771697
#
# Coordination Sequence:
#
# PCOD9054591 Si02
#       6
#     2   2   2   2   2   2
#     4  11  21  36  64  97 134 166 210 273 327 380
#     4   8  18  39  65  93 124 175 214 260 330 380
#     4  12  25  40  65 103 127 168 224 270 326 383
#     4  11  26  43  69  96 132 176 217 272 325 401
#     4   9  22  46  66  90 131 176 218 263 335 382
#     4   9  22  40  63  94 126 172 214 273 315 388
#
# _framework density 21.325627000000001
#
# number of rings (size 3 to 8) (size 9 to 14) (size 15 to 20)
#    1.000    1.000    1.667    1.000    2.333    4.000 
#    0.000    1.667    0.000    0.000    0.000    0.000 
#    0.000    0.000    0.000    0.000    0.000    0.000 
#
# Total GULP energy -66882.673214 kJ/mol
# GULP energy per Si atom -5573.556101 kJ/mol
# Density = 2.127709 g / cm^3
# Si number density = 21.325627 Si / 1000 Ang^3
#
#
#
# Elastic Constant Matrix: (Units=GPa)
#
#
# Indices 1 2 3 4 5 6 
#
# 1 57.4086 21.2550 34.2831 1.9131 18.9684 -4.7523
# 2 21.2550 97.4777 40.8164 -10.8511 28.9673 -7.4430
# 3 34.2831 40.8164 106.8585 4.7729 20.9259 4.9254
# 4 1.9131 -10.8511 4.7729 29.3939 -0.0586 -0.8984
# 5 18.9684 28.9673 20.9259 -0.0586 38.6086 -3.9118
# 6 -4.7523 -7.4430 4.9254 -0.8984 -3.9118 29.9267
#
#
#
# Elastic Compliance Matrix: (Units=1/GPa)
#
#
# Indices 1 2 3 4 5 6 
#
# 1 0.024202 0.000027 -0.006349 -0.000433 -0.008083 0.003825
# 2 0.000027 0.015998 -0.004836 0.006788 -0.009000 0.003806
# 3 -0.006349 -0.004836 0.013878 -0.003774 -0.001264 -0.004774
# 4 -0.000433 0.006788 -0.003774 0.037255 -0.002470 0.003036
# 5 -0.008083 -0.009000 -0.001264 -0.002470 0.037458 0.001508
# 6 0.003825 0.003806 -0.004774 0.003036 0.001508 0.036043
#
#
# Mechanical properties :
#
#
# Convention : Reuss Voigt Hill
#
# Bulk Modulus (GPa) = 31.48309 50.49487 40.98898
# Shear Modulus (GPa) = 25.28580 30.61186 27.94883
#
# Velocity S-wave (km/s) = 3.44714 3.79284 3.62411
# Velocity P-wave (km/s) = 5.53523 6.55060 6.06420
#
# Compressibility (1/GPa) = 0.03176308
#
# Stress axis : x y z
#
# Youngs Moduli (GPa) = 41.31836 62.50629 72.05450
#
# Poissons Ratio (x) = -0.00169 0.45749
# Poissons Ratio (y) = -0.00112 0.34844
# Poissons Ratio (z) = 0.26234 0.30227
#
# Static dielectric constant tensor:
#      x y z
#    x 1.812120 -0.018690 -0.071740 
#    y -0.018690 1.753220 0.008780 
#    z -0.071740 0.008780 1.791250 
# 
# From -- ./inp_files/462532.got.cif
#   From: 2010.05.17/outbox.cif.g08.bks.cpg/sg2_232_cif.got.tgz:462532.got - 2010.06.03 11:33:40.
