data_PCOD9054134
_publ_section_title
;
Structure prediction by ZEFSAII (Michael W. Deem and Ramdas Pophale) SiO2 
 PCOD9054134
Probable space group: P -1
;
_chemical_formula_sum "Si O2"
_cell_formula_units_Z 16
_cell_length_a 9.272796
_cell_length_b 8.980964
_cell_length_c 15.653727
_cell_angle_alpha 92.960136
_cell_angle_beta 145.365219
_cell_angle_gamma 77.249743
_cell_volume 702.497294
_symmetry_space_group_name_H-M "P -1"
_symmetry_group_IT_number 2
_symmetry_cell_setting 'triclinic'
loop_
_space_group_symop_operation_xyz
x,y,z
-x,-y,-z
loop_
_atom_site_type_symbol
_atom_site_label
_atom_site_fract_x
_atom_site_fract_y
_atom_site_fract_z
Si Si1 0.448861 0.261050 0.162340
Si Si2 0.378678 0.398936 0.500361
Si Si3 0.505139 0.325979 0.015615
Si Si4 0.133341 0.144308 0.315535
Si Si5 0.046658 0.147303 0.075742
Si Si6 0.868061 0.670263 0.312728
Si Si7 0.977692 0.983085 0.387667
Si Si8 0.524264 0.403558 0.759732
O O1 0.328308 0.325617 0.013313
O O2 0.270982 0.204375 0.139950
O O3 0.524424 0.410450 0.241646
O O4 0.679948 0.105867 0.238953
O O5 0.500000 0.500000 0.500000
O O6 0.329432 0.247091 0.430226
O O7 0.548084 0.366978 0.669710
O O8 0.081401 0.508905 0.383948
O O9 0.819252 0.241223 0.174447
O O10 0.500000 0.500000 0.000000
O O11 0.369265 0.268546 0.869417
O O12 0.136828 0.098573 0.215833
O O13 0.162516 0.028284 0.407946
O O14 0.778498 0.296455 0.934219
O O15 0.000000 0.000000 0.000000
O O16 0.007953 0.802316 0.386461
O O17 0.728702 0.642983 0.330654
O O18 0.000000 0.000000 0.500000
#
# Coordination Sequence:
#
# PCOD9054134 Si02
#       8
#     2   2   2   2   2   2   2   2
#     4  11  24  41  69  98 140 176 230 277 343 397
#     4  12  27  43  70 102 136 180 232 278 343 409
#     4  11  20  40  71 102 126 176 228 287 328 403
#     4  11  24  46  67  97 137 180 227 278 342 412
#     4  12  27  44  67 102 139 181 228 282 344 405
#     4  12  23  42  72  99 137 175 235 274 345 400
#     4  11  25  44  70 103 140 182 227 283 343 408
#     4  12  24  45  69  99 136 180 226 283 337 409
#
# _framework density 22.775887000000001
#
# number of rings (size 3 to 8) (size 9 to 14) (size 15 to 20)
#    0.000    0.500    3.750    4.500    3.500    1.000 
#    0.000    1.875    0.000    0.000    0.000    0.000 
#    0.000    0.000    0.000    0.000    0.000    0.000 
#
# Total GULP energy -89336.318261 kJ/mol
# GULP energy per Si atom -5583.519891 kJ/mol
# Density = 2.272405 g / cm^3
# Si number density = 22.775887 Si / 1000 Ang^3
#
#
#
# Elastic Constant Matrix: (Units=GPa)
#
#
# Indices 1 2 3 4 5 6 
#
# 1 169.7648 39.0135 31.2310 8.0351 -37.8088 39.1865
# 2 39.0135 107.6965 9.2515 17.5333 -16.5202 18.7636
# 3 31.2310 9.2515 60.2223 9.1834 -29.0263 7.3015
# 4 8.0351 17.5333 9.1834 35.4916 -16.5073 4.2384
# 5 -37.8088 -16.5202 -29.0263 -16.5073 47.5917 -7.7541
# 6 39.1865 18.7636 7.3015 4.2384 -7.7541 43.7257
#
#
#
# Elastic Compliance Matrix: (Units=1/GPa)
#
#
# Indices 1 2 3 4 5 6 
#
# 1 0.009167 -0.001597 -0.001345 0.002498 0.005709 -0.006535
# 2 -0.001597 0.011196 0.000603 -0.004545 0.000942 -0.002866
# 3 -0.001345 0.000603 0.023833 0.000273 0.013667 -0.000636
# 4 0.002498 -0.004545 0.000273 0.035913 0.012777 -0.001549
# 5 0.005709 0.000942 0.013667 0.012777 0.038275 -0.002254
# 6 -0.006535 -0.002866 -0.000636 -0.001549 -0.002254 0.029813
#
#
# Mechanical properties :
#
#
# Convention : Reuss Voigt Hill
#
# Bulk Modulus (GPa) = 25.30623 55.18619 40.24621
# Shear Modulus (GPa) = 30.11181 42.57429 36.34305
#
# Velocity S-wave (km/s) = 3.64000 4.32820 3.99893
# Velocity P-wave (km/s) = 5.36668 7.01858 6.24747
#
# Compressibility (1/GPa) = 0.03951596
#
# Stress axis : x y z
#
# Youngs Moduli (GPa) = 109.08971 89.31789 41.95825
#
# Poissons Ratio (x) = 0.14269 0.05645
# Poissons Ratio (y) = 0.17427 -0.02530
# Poissons Ratio (z) = 0.14676 -0.05385
#
# Static dielectric constant tensor:
#      x y z
#    x 1.905530 -0.015000 -0.080940 
#    y -0.015000 1.800260 -0.031940 
#    z -0.080940 -0.031940 1.938810 
# 
# From -- ./inp_files/329031.got.cif
#   From: 2010.05.17/outbox.cif.g08.bks.cpg/sg2_165_cif.got.tgz:329031.got - 2010.06.03 11:33:40.
