data_PCOD9054570
_publ_section_title
;
Structure prediction by ZEFSAII (Michael W. Deem and Ramdas Pophale) SiO2 
 PCOD9054570
Probable space group: P -1
;
_chemical_formula_sum "Si O2"
_cell_formula_units_Z 14
_cell_length_a 6.514203
_cell_length_b 26.155637
_cell_length_c 13.111626
_cell_angle_alpha 21.618646
_cell_angle_beta 50.595981
_cell_angle_gamma 51.817303
_cell_volume 632.881850
_symmetry_space_group_name_H-M "P -1"
_symmetry_group_IT_number 2
_symmetry_cell_setting 'triclinic'
loop_
_space_group_symop_operation_xyz
x,y,z
-x,-y,-z
loop_
_atom_site_type_symbol
_atom_site_label
_atom_site_fract_x
_atom_site_fract_y
_atom_site_fract_z
Si Si1 0.966700 0.609029 0.033611
Si Si2 0.669126 0.598072 0.334665
Si Si3 0.336369 0.575026 0.667109
Si Si4 0.994383 0.844008 0.247595
Si Si5 0.705159 0.130321 0.092305
Si Si6 0.479406 0.833739 0.704870
Si Si7 0.501849 0.688156 0.762672
O O1 0.729518 0.725064 0.860932
O O2 0.252857 0.657074 0.830427
O O3 0.939618 0.587807 0.203631
O O4 0.891245 0.475008 0.244660
O O5 0.500000 0.500000 0.500000
O O6 0.606957 0.561520 0.538240
O O7 0.531119 0.754330 0.079568
O O8 0.227237 0.734541 0.427317
O O9 0.371365 0.461117 0.956153
O O10 0.720792 0.777771 0.479355
O O11 0.055872 0.851478 0.093641
O O12 0.000000 0.000000 0.000000
O O13 0.738341 0.156227 0.154509
O O14 0.598254 0.981161 0.387352
O O15 0.389541 0.779716 0.725675
#
# Coordination Sequence:
#
# PCOD9054570 Si02
#       7
#     2   2   2   2   2   2   2
#     4   9  19  35  59  90 116 144 192 238 288 341
#     4   8  15  32  56  81 109 145 185 230 279 334
#     4   9  20  37  61  81 114 157 189 233 289 338
#     4  11  21  37  61  84 116 158 194 232 286 344
#     4   9  17  34  59  79 113 153 188 229 286 339
#     4   9  18  36  60  83 112 151 186 234 291 336
#     4  11  21  36  62  88 116 149 191 240 282 343
#
# _framework density 22.121030000000001
#
# number of rings (size 3 to 8) (size 9 to 14) (size 15 to 20)
#    0.000    2.571    1.429    1.286    0.000    1.143 
#    0.000    7.143    9.429    0.000    0.000    0.000 
#    0.000    0.000    0.000    0.000    0.000    0.000 
#
# Total GULP energy -78093.324783 kJ/mol
# GULP energy per Si atom -5578.094627 kJ/mol
# Density = 2.207068 g / cm^3
# Si number density = 22.121030 Si / 1000 Ang^3
#
#
#
# Elastic Constant Matrix: (Units=GPa)
#
#
# Indices 1 2 3 4 5 6 
#
# 1 25.2380 12.1524 6.6028 -6.1168 -4.1305 4.2847
# 2 12.1524 77.1010 40.8173 -4.5078 1.8964 26.5484
# 3 6.6028 40.8173 130.9287 -11.7360 1.2132 7.1044
# 4 -6.1168 -4.5078 -11.7360 52.6588 4.8052 1.2966
# 5 -4.1305 1.8964 1.2132 4.8052 8.9576 3.6582
# 6 4.2847 26.5484 7.1044 1.2966 3.6582 16.5817
#
#
#
# Elastic Compliance Matrix: (Units=1/GPa)
#
#
# Indices 1 2 3 4 5 6 
#
# 1 0.048807 -0.003162 -0.000719 0.003096 0.027110 -0.013465
# 2 -0.003162 0.038790 -0.008665 0.001077 0.015907 -0.061170
# 3 -0.000719 -0.008665 0.009981 0.001600 -0.005112 0.010786
# 4 0.003096 0.001077 0.001600 0.020685 -0.008948 -0.002853
# 5 0.027110 0.015907 -0.005112 -0.008948 0.152044 -0.063127
# 6 -0.013465 -0.061170 0.010786 -0.002853 -0.063127 0.171253
#
#
# Mechanical properties :
#
#
# Convention : Reuss Voigt Hill
#
# Bulk Modulus (GPa) = 13.79566 39.15697 26.47631
# Shear Modulus (GPa) = 10.18718 27.21929 18.70323
#
# Velocity S-wave (km/s) = 2.14830 3.51161 2.91090
# Velocity P-wave (km/s) = 3.52187 5.84650 4.82624
#
# Compressibility (1/GPa) = 0.07248658
#
# Stress axis : x y z
#
# Youngs Moduli (GPa) = 20.48904 25.77979 100.19125
#
# Poissons Ratio (x) = 0.08151 0.07201
# Poissons Ratio (y) = 0.06478 0.86817
# Poissons Ratio (z) = 0.01473 0.22339
#
# Static dielectric constant tensor:
#      x y z
#    x 1.804370 0.053670 0.009830 
#    y 0.053670 1.912390 0.024210 
#    z 0.009830 0.024210 1.868920 
# 
# From -- ./inp_files/486270.got.cif
#   From: 2010.05.17/outbox.cif.g08.bks.cpg/sg2_244_cif.got.tgz:486270.got - 2010.06.03 11:33:40.
