data_PCOD9054086
_publ_section_title
;
Structure prediction by ZEFSAII (Michael W. Deem and Ramdas Pophale) SiO2 
 PCOD9054086
Probable space group: P -1
;
_chemical_formula_sum "Si O2"
_cell_formula_units_Z 16
_cell_length_a 11.778838
_cell_length_b 8.153631
_cell_length_c 17.191547
_cell_angle_alpha 37.488851
_cell_angle_beta 126.504665
_cell_angle_gamma 141.983021
_cell_volume 616.871922
_symmetry_space_group_name_H-M "P -1"
_symmetry_group_IT_number 2
_symmetry_cell_setting 'triclinic'
loop_
_space_group_symop_operation_xyz
x,y,z
-x,-y,-z
loop_
_atom_site_type_symbol
_atom_site_label
_atom_site_fract_x
_atom_site_fract_y
_atom_site_fract_z
Si Si1 0.542347 0.300803 0.329869
Si Si2 0.550313 0.325083 0.949704
Si Si3 0.394747 0.877148 0.202850
Si Si4 0.032473 0.423064 0.164031
Si Si5 0.900876 0.429939 0.402068
Si Si6 0.688088 0.798973 0.353437
Si Si7 0.012829 0.123710 0.107799
Si Si8 0.784367 0.389568 0.614901
O O1 0.551319 0.539342 0.176903
O O2 0.596582 0.528128 0.344292
O O3 0.662962 0.072873 0.621543
O O4 0.686299 0.233010 0.401028
O O5 0.769528 0.616761 0.919375
O O6 0.500000 0.000000 0.000000
O O7 0.489110 0.196421 0.061309
O O8 0.555048 0.875110 0.294456
O O9 0.275644 0.819880 0.250011
O O10 0.230474 0.529018 0.218799
O O11 0.963291 0.223523 0.129092
O O12 0.879944 0.158308 0.264296
O O13 0.064880 0.782994 0.028363
O O14 0.002321 0.332238 0.427927
O O15 0.000000 0.500000 0.500000
O O16 0.957290 0.757916 0.248397
O O17 0.714208 0.607690 0.501096
#
# Coordination Sequence:
#
# PCOD9054086 Si02
#       8
#     2   2   2   2   2   2   2   2
#     4  12  24  44  77 100 136 181 237 287 336 411
#     4  12  21  42  74 103 132 180 239 286 338 404
#     4  12  27  44  70 104 143 182 227 290 354 408
#     4  11  22  40  73 102 134 171 237 291 341 390
#     4  12  25  44  69 101 137 180 231 276 346 412
#     4  12  24  45  73 103 132 185 239 286 337 414
#     4  11  20  40  68 104 130 170 234 296 323 399
#     4  12  29  46  64 105 149 185 223 280 362 416
#
# _framework density 25.937311000000001
#
# number of rings (size 3 to 8) (size 9 to 14) (size 15 to 20)
#    0.000    0.250    7.500    1.500    0.000    3.000 
#    0.000    1.250    0.000    0.000    0.000    0.000 
#    0.000    0.000    0.000    0.000    0.000    0.000 
#
# Total GULP energy -89494.244311 kJ/mol
# GULP energy per Si atom -5593.390269 kJ/mol
# Density = 2.587828 g / cm^3
# Si number density = 25.937311 Si / 1000 Ang^3
#
#
#
# Elastic Constant Matrix: (Units=GPa)
#
#
# Indices 1 2 3 4 5 6 
#
# 1 85.2261 18.9886 35.4056 9.7058 -18.5025 28.5054
# 2 18.9886 63.7464 6.9324 -12.5080 -2.6370 14.7438
# 3 35.4056 6.9324 157.9119 6.5642 -13.3200 8.6289
# 4 9.7058 -12.5080 6.5642 31.4829 14.2346 2.9177
# 5 -18.5025 -2.6370 -13.3200 14.2346 55.4070 1.9399
# 6 28.5054 14.7438 8.6289 2.9177 1.9399 42.4272
#
#
#
# Elastic Compliance Matrix: (Units=1/GPa)
#
#
# Indices 1 2 3 4 5 6 
#
# 1 0.021186 -0.005167 -0.002622 -0.011259 0.009496 -0.011565
# 2 -0.005167 0.020400 -0.000314 0.011836 -0.003724 -0.004197
# 3 -0.002622 -0.000314 0.007060 -0.001346 0.001136 0.000476
# 4 -0.011259 0.011836 -0.001346 0.047200 -0.015688 0.001197
# 5 0.009496 -0.003724 0.001136 -0.015688 0.025535 -0.005406
# 6 -0.011565 -0.004197 0.000476 0.001197 -0.005406 0.032867
#
#
# Mechanical properties :
#
#
# Convention : Reuss Voigt Hill
#
# Bulk Modulus (GPa) = 30.82688 47.72641 39.27664
# Shear Modulus (GPa) = 27.58365 42.23393 34.90879
#
# Velocity S-wave (km/s) = 3.26463 4.03961 3.67262
# Velocity P-wave (km/s) = 5.11091 6.34023 5.75847
#
# Compressibility (1/GPa) = 0.03243923
#
# Stress axis : x y z
#
# Youngs Moduli (GPa) = 47.20060 49.02064 141.64045
#
# Poissons Ratio (x) = 0.25330 0.37143
# Poissons Ratio (y) = 0.24390 0.04444
# Poissons Ratio (z) = 0.12378 0.01538
#
# Static dielectric constant tensor:
#      x y z
#    x 2.092220 -0.029260 0.064440 
#    y -0.029260 2.106020 0.066290 
#    z 0.064440 0.066290 2.109870 
# 
# From -- ./inp_files/594667.got.cif
#   From: 2010.05.17/outbox.cif.g08.bks.cpg/sg2_298_cif.got.tgz:594667.got - 2010.06.03 11:33:40.
