data_PCOD9054279
_publ_section_title
;
Structure prediction by ZEFSAII (Michael W. Deem and Ramdas Pophale) SiO2 
 PCOD9054279
Probable space group: P -1
;
_chemical_formula_sum "Si O2"
_cell_formula_units_Z 16
_cell_length_a 18.611989
_cell_length_b 16.239946
_cell_length_c 8.556831
_cell_angle_alpha 100.758932
_cell_angle_beta 79.352202
_cell_angle_gamma 165.827541
_cell_volume 622.041511
_symmetry_space_group_name_H-M "P -1"
_symmetry_group_IT_number 2
_symmetry_cell_setting 'triclinic'
loop_
_space_group_symop_operation_xyz
x,y,z
-x,-y,-z
loop_
_atom_site_type_symbol
_atom_site_label
_atom_site_fract_x
_atom_site_fract_y
_atom_site_fract_z
Si Si1 0.487132 0.582139 0.985463
Si Si2 0.950862 0.835090 0.760872
Si Si3 0.995143 0.643542 0.423862
Si Si4 0.468774 0.789174 0.359722
Si Si5 0.434991 0.504583 0.415645
Si Si6 0.193861 0.637524 0.921582
Si Si7 0.738094 0.028588 0.036062
Si Si8 0.605591 0.800105 0.714510
O O1 0.173610 0.273553 0.057372
O O2 0.715014 0.907948 0.067671
O O3 0.500000 0.500000 0.000000
O O4 0.566985 0.679129 0.805152
O O5 0.738677 0.522864 0.688670
O O6 0.851105 0.804382 0.684776
O O7 0.278753 0.175909 0.698732
O O8 0.757557 0.391022 0.564795
O O9 0.857475 0.435096 0.267503
O O10 0.089568 0.834416 0.361651
O O11 0.293974 0.950498 0.502683
O O12 0.627441 0.967698 0.192002
O O13 0.500000 0.500000 0.500000
O O14 0.413478 0.560641 0.560735
O O15 0.000000 0.500000 0.000000
O O16 0.058985 0.408721 0.987207
O O17 0.500000 0.000000 0.000000
O O18 0.558767 0.822437 0.869401
#
# Coordination Sequence:
#
# PCOD9054279 Si02
#       8
#     2   2   2   2   2   2   2   2
#     4   9  19  40  65  94 135 175 224 271 328 395
#     4  11  22  40  61  86 127 173 213 272 328 375
#     4  11  22  41  69 100 127 178 212 277 322 405
#     4  11  20  42  67  95 135 169 222 266 338 390
#     4  12  23  39  58  89 124 168 225 275 320 386
#     4  11  24  47  71 103 138 173 220 275 331 401
#     4   8  22  40  68  98 135 180 219 275 337 395
#     4   9  19  37  61  90 129 167 229 255 340 373
#
# _framework density 25.721755999999999
#
# number of rings (size 3 to 8) (size 9 to 14) (size 15 to 20)
#    0.750    1.000    2.500    1.875    0.000    1.000 
#    0.000   12.500    0.000    0.000    0.000    0.000 
#    0.000    0.000    0.000    0.000    0.000    0.000 
#
# Total GULP energy -89218.821551 kJ/mol
# GULP energy per Si atom -5576.176347 kJ/mol
# Density = 2.566321 g / cm^3
# Si number density = 25.721756 Si / 1000 Ang^3
#
#
#
# Elastic Constant Matrix: (Units=GPa)
#
#
# Indices 1 2 3 4 5 6 
#
# 1 33.1318 30.5512 5.2756 -2.7474 -9.6911 5.5267
# 2 30.5512 103.0857 24.0334 10.5312 -2.0658 -0.0324
# 3 5.2756 24.0334 136.0471 2.5782 -16.1331 -4.6757
# 4 -2.7474 10.5312 2.5782 39.7520 -5.7354 -5.0607
# 5 -9.6911 -2.0658 -16.1331 -5.7354 33.5334 -2.3991
# 6 5.5267 -0.0324 -4.6757 -5.0607 -2.3991 34.6685
#
#
#
# Elastic Compliance Matrix: (Units=1/GPa)
#
#
# Indices 1 2 3 4 5 6 
#
# 1 0.051379 -0.016441 0.002476 0.009407 0.016251 -0.005374
# 2 -0.016441 0.015681 -0.002700 -0.005856 -0.006015 0.001000
# 3 0.002476 -0.002700 0.008326 0.001204 0.004849 0.001237
# 4 0.009407 -0.005856 0.001204 0.028889 0.008124 0.003437
# 5 0.016251 -0.006015 0.004849 0.008124 0.038004 0.001873
# 6 -0.005374 0.001000 0.001237 0.003437 0.001873 0.030500
#
#
# Mechanical properties :
#
#
# Convention : Reuss Voigt Hill
#
# Bulk Modulus (GPa) = 23.77837 43.55388 33.66613
# Shear Modulus (GPa) = 22.71404 35.75108 29.23256
#
# Velocity S-wave (km/s) = 2.97487 3.73220 3.37485
# Velocity P-wave (km/s) = 4.58959 5.96170 5.32007
#
# Compressibility (1/GPa) = 0.04205503
#
# Stress axis : x y z
#
# Youngs Moduli (GPa) = 19.46326 63.77186 120.10299
#
# Poissons Ratio (x) = 1.04849 -0.29741
# Poissons Ratio (y) = 0.32000 0.32433
# Poissons Ratio (z) = -0.04820 0.17221
#
# Static dielectric constant tensor:
#      x y z
#    x 2.161260 -0.008810 0.060290 
#    y -0.008810 2.027000 0.054180 
#    z 0.060290 0.054180 2.107190 
# 
# From -- ./inp_files/355286.got.cif
#   From: 2010.05.17/outbox.cif.g08.bks.cpg/sg2_178_cif.got.tgz:355286.got - 2010.06.03 11:33:40.
