data_PCOD9054906
_publ_section_title
;
Structure prediction by ZEFSAII (Michael W. Deem and Ramdas Pophale) SiO2 
 PCOD9054906
Probable space group: P -1
;
_chemical_formula_sum "Si O2"
_cell_formula_units_Z 16
_cell_length_a 10.647955
_cell_length_b 23.530530
_cell_length_c 17.000621
_cell_angle_alpha 17.964341
_cell_angle_beta 39.599049
_cell_angle_gamma 41.166966
_cell_volume 833.125209
_symmetry_space_group_name_H-M "P -1"
_symmetry_group_IT_number 2
_symmetry_cell_setting 'triclinic'
loop_
_space_group_symop_operation_xyz
x,y,z
-x,-y,-z
loop_
_atom_site_type_symbol
_atom_site_label
_atom_site_fract_x
_atom_site_fract_y
_atom_site_fract_z
Si Si1 0.191567 0.470287 0.554095
Si Si2 0.107644 0.119920 0.645717
Si Si3 0.569601 0.905966 0.337758
Si Si4 0.120265 0.226853 0.767491
Si Si5 0.916835 0.503755 0.253251
Si Si6 0.371057 0.195504 0.285522
Si Si7 0.425813 0.301890 0.939579
Si Si8 0.363764 0.550783 0.924135
O O1 0.207157 0.302398 0.706002
O O2 0.154167 0.417207 0.731905
O O3 0.381479 0.585197 0.303066
O O4 0.997153 0.602261 0.446971
O O5 0.295733 0.124729 0.607155
O O6 0.167163 0.167754 0.465368
O O7 0.943524 0.280303 0.542345
O O8 0.035273 0.919485 0.947666
O O9 0.716194 0.869788 0.241826
O O10 0.415208 0.753076 0.608037
O O11 0.472271 0.114577 0.113863
O O12 0.757002 0.573167 0.174378
O O13 0.134842 0.551154 0.059359
O O14 0.500000 0.000000 0.500000
O O15 0.375253 0.234396 0.140196
O O16 0.425903 0.386294 0.048456
O O17 0.500000 0.500000 0.000000
#
# Coordination Sequence:
#
# PCOD9054906 Si02
#       8
#     2   2   2   2   2   2   2   2
#     4  11  22  41  64  96 126 161 213 266 309 368
#     4  11  21  40  64  92 124 165 205 258 313 370
#     4  12  21  40  64  93 125 165 206 260 310 370
#     4  11  22  38  69  98 119 159 222 265 299 374
#     4  11  25  42  63  91 131 170 203 258 323 375
#     4  11  21  39  64  94 124 164 213 254 305 374
#     4  12  25  41  63  93 131 169 206 257 322 372
#     4  11  21  39  65  93 123 165 210 256 309 369
#
# _framework density 19.204796999999999
#
# number of rings (size 3 to 8) (size 9 to 14) (size 15 to 20)
#    0.000    0.750    6.250    2.250    0.000    6.500 
#    0.000    3.750    0.000    0.000    0.000    0.000 
#    0.000    0.000    0.000    0.000    0.000    0.000 
#
# Total GULP energy -89353.253454 kJ/mol
# GULP energy per Si atom -5584.578341 kJ/mol
# Density = 1.916109 g / cm^3
# Si number density = 19.204797 Si / 1000 Ang^3
#
#
#
# Elastic Constant Matrix: (Units=GPa)
#
#
# Indices 1 2 3 4 5 6 
#
# 1 62.0025 31.0801 21.5384 -1.8901 5.1432 9.1212
# 2 31.0801 92.4387 13.0082 4.4699 -4.9988 22.4236
# 3 21.5384 13.0082 77.0560 -3.3832 -23.2970 11.2859
# 4 -1.8901 4.4699 -3.3832 33.4536 1.4785 4.0386
# 5 5.1432 -4.9988 -23.2970 1.4785 34.8877 -5.7427
# 6 9.1212 22.4236 11.2859 4.0386 -5.7427 29.2137
#
#
#
# Elastic Compliance Matrix: (Units=1/GPa)
#
#
# Indices 1 2 3 4 5 6 
#
# 1 0.023684 -0.007220 -0.008287 0.002036 -0.010304 -0.000958
# 2 -0.007220 0.015558 0.001594 -0.001296 0.002838 -0.009566
# 3 -0.008287 0.001594 0.019869 0.001154 0.014059 -0.003708
# 4 0.002036 -0.001296 0.001154 0.030947 -0.001803 -0.004719
# 5 -0.010304 0.002838 0.014059 -0.001803 0.040688 0.003855
# 6 -0.000958 -0.009566 -0.003708 -0.004719 0.003855 0.044715
#
#
# Mechanical properties :
#
#
# Convention : Reuss Voigt Hill
#
# Bulk Modulus (GPa) = 31.96369 40.30560 36.13465
# Shear Modulus (GPa) = 23.39567 30.56903 26.98235
#
# Velocity S-wave (km/s) = 3.49409 3.99399 3.75237
# Velocity P-wave (km/s) = 5.74090 6.50401 6.13433
#
# Compressibility (1/GPa) = 0.03128550
#
# Stress axis : x y z
#
# Youngs Moduli (GPa) = 42.22256 64.27568 50.32961
#
# Poissons Ratio (x) = 0.46408 0.41706
# Poissons Ratio (y) = 0.30486 -0.08023
# Poissons Ratio (z) = 0.34988 -0.10246
#
# Static dielectric constant tensor:
#      x y z
#    x 1.647850 0.014080 -0.015010 
#    y 0.014080 1.688660 -0.009490 
#    z -0.015010 -0.009490 1.681930 
# 
# From -- ./inp_files/305710.got.cif
#   From: 2010.05.17/outbox.cif.g08.bks.cpg/sg2_153_cif.got.tgz:305710.got - 2010.06.03 11:33:40.
