data_PCOD9054060
_publ_section_title
;
Structure prediction by ZEFSAII (Michael W. Deem and Ramdas Pophale) SiO2 
 PCOD9054060
Probable space group: P -1
;
_chemical_formula_sum "Si O2"
_cell_formula_units_Z 16
_cell_length_a 11.306484
_cell_length_b 7.989994
_cell_length_c 13.226319
_cell_angle_alpha 44.467383
_cell_angle_beta 110.497986
_cell_angle_gamma 120.166860
_cell_volume 723.567051
_symmetry_space_group_name_H-M "P -1"
_symmetry_group_IT_number 2
_symmetry_cell_setting 'triclinic'
loop_
_space_group_symop_operation_xyz
x,y,z
-x,-y,-z
loop_
_atom_site_type_symbol
_atom_site_label
_atom_site_fract_x
_atom_site_fract_y
_atom_site_fract_z
Si Si1 0.821250 0.838387 0.722366
Si Si2 0.809826 0.381767 0.542507
Si Si3 0.483912 0.901889 0.421893
Si Si4 0.163306 0.013349 0.978820
Si Si5 0.788405 0.978495 0.435860
Si Si6 0.012143 0.418617 0.767101
Si Si7 0.125408 0.093773 0.730568
Si Si8 0.374441 0.274607 0.110832
O O1 0.803737 0.113918 0.609016
O O2 0.820674 0.822469 0.606795
O O3 0.972051 0.881920 0.785779
O O4 0.708320 0.665714 0.844402
O O5 0.653028 0.355294 0.516049
O O6 0.882149 0.623733 0.388274
O O7 0.895452 0.411580 0.656418
O O8 0.500000 0.000000 0.500000
O O9 0.627123 0.902282 0.430329
O O10 0.444595 0.094211 0.257149
O O11 0.076199 0.198270 0.867838
O O12 0.219160 0.052327 0.864128
O O13 0.266722 0.126756 0.054087
O O14 0.075063 0.710035 0.102536
O O15 0.873310 0.291850 0.327890
O O16 0.826919 0.908541 0.368250
O O17 0.500000 0.500000 0.000000
#
# Coordination Sequence:
#
# PCOD9054060 Si02
#       8
#     2   2   2   2   2   2   2   2
#     4  11  20  40  65  97 124 164 222 274 307 378
#     4  11  21  40  69  95 123 172 220 272 314 376
#     4  11  23  42  64  94 127 170 220 266 318 384
#     4  11  22  40  65  97 129 166 221 266 320 391
#     4  12  25  40  66  99 134 172 213 271 330 383
#     4  11  21  41  68  95 127 170 220 271 317 374
#     4  12  25  38  66 101 134 168 216 267 335 383
#     4  11  23  40  66  99 126 165 219 275 323 376
#
# _framework density 22.112669
#
# number of rings (size 3 to 8) (size 9 to 14) (size 15 to 20)
#    0.000    0.750    7.500    3.000    1.750    1.000 
#    0.000    0.625    0.000    0.000    0.000    0.000 
#    0.000    0.000    0.000    0.000    0.000    0.000 
#
# Total GULP energy -89232.354851 kJ/mol
# GULP energy per Si atom -5577.022178 kJ/mol
# Density = 2.206234 g / cm^3
# Si number density = 22.112669 Si / 1000 Ang^3
#
#
#
# Elastic Constant Matrix: (Units=GPa)
#
#
# Indices 1 2 3 4 5 6 
#
# 1 82.0830 35.7081 29.3788 8.9874 -17.5528 26.5288
# 2 35.7081 64.5761 40.1891 4.6807 -5.9910 19.2001
# 3 29.3788 40.1891 173.8934 23.7124 -17.0944 16.2544
# 4 8.9874 4.6807 23.7124 38.0303 10.2566 -5.2821
# 5 -17.5528 -5.9910 -17.0944 10.2566 46.1586 5.5380
# 6 26.5288 19.2001 16.2544 -5.2821 5.5380 36.5571
#
#
#
# Elastic Compliance Matrix: (Units=1/GPa)
#
#
# Indices 1 2 3 4 5 6 
#
# 1 0.025851 -0.007475 0.002652 -0.013807 0.015350 -0.020333
# 2 -0.007475 0.023332 -0.003880 0.000874 -0.000864 -0.004847
# 3 0.002652 -0.003880 0.008380 -0.007781 0.006015 -0.005648
# 4 -0.013807 0.000874 -0.007781 0.042846 -0.020211 0.022272
# 5 0.015350 -0.000864 0.006015 -0.020211 0.036729 -0.021844
# 6 -0.020333 -0.004847 -0.005648 0.022272 -0.021844 0.053694
#
#
# Mechanical properties :
#
#
# Convention : Reuss Voigt Hill
#
# Bulk Modulus (GPa) = 24.90264 59.01161 41.95712
# Shear Modulus (GPa) = 22.56091 38.50097 30.53094
#
# Velocity S-wave (km/s) = 3.19763 4.17721 3.71981
# Velocity P-wave (km/s) = 4.99192 7.07179 6.12084
#
# Compressibility (1/GPa) = 0.04015639
#
# Stress axis : x y z
#
# Youngs Moduli (GPa) = 38.68309 42.86040 119.33818
#
# Poissons Ratio (x) = 0.32038 -0.31654
# Poissons Ratio (y) = 0.28915 0.46309
# Poissons Ratio (z) = -0.10260 0.16632
#
# Static dielectric constant tensor:
#      x y z
#    x 2.023120 -0.070730 -0.146930 
#    y -0.070730 1.908040 0.036360 
#    z -0.146930 0.036360 1.886130 
# 
# From -- ./inp_files/416347.got.cif
#   From: 2010.05.17/outbox.cif.g08.bks.cpg/sg2_209_cif.got.tgz:416347.got - 2010.06.03 11:33:40.
