data_PCOD9054639
_publ_section_title
;
Structure prediction by ZEFSAII (Michael W. Deem and Ramdas Pophale) SiO2 
 PCOD9054639
Probable space group: P -1
;
_chemical_formula_sum "Si O2"
_cell_formula_units_Z 16
_cell_length_a 10.000851
_cell_length_b 13.276340
_cell_length_c 10.513327
_cell_angle_alpha 47.879352
_cell_angle_beta 138.795337
_cell_angle_gamma 128.670886
_cell_volume 661.088855
_symmetry_space_group_name_H-M "P -1"
_symmetry_group_IT_number 2
_symmetry_cell_setting 'triclinic'
loop_
_space_group_symop_operation_xyz
x,y,z
-x,-y,-z
loop_
_atom_site_type_symbol
_atom_site_label
_atom_site_fract_x
_atom_site_fract_y
_atom_site_fract_z
Si Si1 0.143960 0.919019 0.302512
Si Si2 0.338555 0.077840 0.677163
Si Si3 0.843552 0.359268 0.559745
Si Si4 0.625627 0.392849 0.132614
Si Si5 0.892708 0.576444 0.967669
Si Si6 0.963575 0.100154 0.194086
Si Si7 0.491061 0.615704 0.498312
Si Si8 0.505557 0.104762 0.237466
O O1 0.068941 0.780226 0.278245
O O2 0.263122 0.880600 0.546038
O O3 0.982345 0.003276 0.168538
O O4 0.323960 0.033270 0.263702
O O5 0.159632 0.095622 0.432481
O O6 0.446684 0.236044 0.654337
O O7 0.497753 0.004804 0.782777
O O8 0.233116 0.977536 0.798448
O O9 0.664398 0.326791 0.351073
O O10 0.722003 0.387935 0.574114
O O11 0.000000 0.500000 0.500000
O O12 0.502088 0.263140 0.069064
O O13 0.500000 0.500000 0.000000
O O14 0.828550 0.476221 0.129185
O O15 0.019913 0.735527 0.955323
O O16 0.670121 0.597409 0.740566
O O17 0.000000 0.500000 0.000000
O O18 0.500000 0.500000 0.500000
#
# Coordination Sequence:
#
# PCOD9054639 Si02
#       8
#     2   2   2   2   2   2   2   2
#     4   9  17  31  55  83 111 143 195 250 288 327
#     4   9  17  33  54  82 113 147 196 241 289 331
#     4  11  24  39  61  90 120 155 198 245 297 351
#     4  11  21  37  62  89 119 155 195 244 299 349
#     4  11  23  39  61  92 124 156 195 240 297 355
#     4   9  18  31  55  86 114 144 193 250 285 336
#     4  11  24  40  61  87 122 158 196 243 294 355
#     4   9  16  29  55  81 108 145 194 244 288 331
#
# _framework density 24.202497000000001
#
# number of rings (size 3 to 8) (size 9 to 14) (size 15 to 20)
#    0.000    2.000    2.500    1.500    7.000    2.000 
#    0.000    0.000    0.000    9.000    0.000    0.000 
#    0.000    0.000    0.000    0.000    0.000    0.000 
#
# Total GULP energy -89367.530056 kJ/mol
# GULP energy per Si atom -5585.470629 kJ/mol
# Density = 2.414741 g / cm^3
# Si number density = 24.202497 Si / 1000 Ang^3
#
#
#
# Elastic Constant Matrix: (Units=GPa)
#
#
# Indices 1 2 3 4 5 6 
#
# 1 158.8093 54.3287 16.1849 -38.2172 3.4010 -25.1511
# 2 54.3287 142.3668 25.2320 -63.0626 2.6528 -22.8266
# 3 16.1849 25.2320 68.1935 -10.5935 4.1301 -11.1657
# 4 -38.2172 -63.0626 -10.5935 57.1965 0.4007 8.3046
# 5 3.4010 2.6528 4.1301 0.4007 27.9739 -8.4179
# 6 -25.1511 -22.8266 -11.1657 8.3046 -8.4179 42.7614
#
#
#
# Elastic Compliance Matrix: (Units=1/GPa)
#
#
# Indices 1 2 3 4 5 6 
#
# 1 0.008109 -0.000609 -0.000485 0.004142 0.000150 0.003543
# 2 -0.000609 0.015048 -0.002399 0.015144 0.000022 0.004112
# 3 -0.000485 -0.002399 0.016096 -0.000332 -0.001352 0.002435
# 4 0.004142 0.015144 -0.000332 0.036453 -0.001492 0.003060
# 5 0.000150 0.000022 -0.001352 -0.001492 0.038224 0.007561
# 6 0.003543 0.004112 0.002435 0.003060 0.007561 0.029195
#
#
# Mechanical properties :
#
#
# Convention : Reuss Voigt Hill
#
# Bulk Modulus (GPa) = 30.98999 62.31785 46.65392
# Shear Modulus (GPa) = 31.08178 43.82796 37.45487
#
# Velocity S-wave (km/s) = 3.58752 4.26007 3.93817
# Velocity P-wave (km/s) = 5.47655 7.07121 6.32434
#
# Compressibility (1/GPa) = 0.03226848
#
# Stress axis : x y z
#
# Youngs Moduli (GPa) = 123.31691 66.45192 62.12728
#
# Poissons Ratio (x) = 0.04044 0.03013
# Poissons Ratio (y) = 0.07504 0.14905
# Poissons Ratio (z) = 0.05980 0.15943
#
# Static dielectric constant tensor:
#      x y z
#    x 1.862470 -0.057560 0.007690 
#    y -0.057560 2.057100 0.095970 
#    z 0.007690 0.095970 2.084540 
# 
# From -- ./inp_files/313254.got.cif
#   From: 2010.05.17/outbox.cif.g08.bks.cpg/sg2_157_cif.got.tgz:313254.got - 2010.06.03 11:33:40.
