data_PCOD9054098
_publ_section_title
;
Structure prediction by ZEFSAII (Michael W. Deem and Ramdas Pophale) SiO2 
 PCOD9054098
Probable space group: P -1
;
_chemical_formula_sum "Si O2"
_cell_formula_units_Z 14
_cell_length_a 12.731353
_cell_length_b 15.865896
_cell_length_c 22.041067
_cell_angle_alpha 18.536668
_cell_angle_beta 150.571193
_cell_angle_gamma 153.948678
_cell_volume 615.718171
_symmetry_space_group_name_H-M "P -1"
_symmetry_group_IT_number 2
_symmetry_cell_setting 'triclinic'
loop_
_space_group_symop_operation_xyz
x,y,z
-x,-y,-z
loop_
_atom_site_type_symbol
_atom_site_label
_atom_site_fract_x
_atom_site_fract_y
_atom_site_fract_z
Si Si1 0.613174 0.275965 0.706941
Si Si2 0.558682 0.657622 0.109755
Si Si3 0.000119 0.093545 0.743058
Si Si4 0.747330 0.275875 0.909074
Si Si5 0.523303 0.346103 0.178480
Si Si6 0.123628 0.293207 0.219914
Si Si7 0.005837 0.329243 0.456810
O O1 0.500000 0.500000 0.500000
O O2 0.746916 0.336260 0.797060
O O3 0.789918 0.368569 0.675103
O O4 0.473217 0.915458 0.884188
O O5 0.582899 0.559051 0.122159
O O6 0.354711 0.386996 0.229319
O O7 0.798901 0.773945 0.193156
O O8 0.018073 0.311987 0.547587
O O9 0.733594 0.938241 0.742583
O O10 0.053835 0.842566 0.907600
O O11 0.784634 0.574894 0.757454
O O12 0.500000 0.000000 0.000000
O O13 0.747476 0.275408 0.338983
O O14 0.500000 0.500000 0.000000
O O15 0.958490 0.943240 0.368129
O O16 0.000000 0.500000 0.000000
#
# Coordination Sequence:
#
# PCOD9054098 Si02
#       7
#     2   2   2   2   2   2   2
#     4  11  24  40  68 106 140 173 232 286 346 417
#     4  11  25  46  73  98 136 196 230 279 359 410
#     4  11  23  44  72 100 138 181 234 288 341 416
#     4  11  20  40  68  98 135 181 223 281 342 410
#     4  12  27  49  69  99 146 182 237 293 344 414
#     4  12  22  40  73 101 138 180 230 281 354 412
#     4  12  26  43  70 106 140 183 234 296 342 412
#
# _framework density 22.737677000000001
#
# number of rings (size 3 to 8) (size 9 to 14) (size 15 to 20)
#    0.000    0.571    5.714    3.857    0.000    4.571 
#    0.000    0.000    0.000    0.000    0.000    0.000 
#    0.000    0.000    0.000    0.000    0.000    0.000 
#
# Total GULP energy -78215.380076 kJ/mol
# GULP energy per Si atom -5586.812863 kJ/mol
# Density = 2.268593 g / cm^3
# Si number density = 22.737677 Si / 1000 Ang^3
#
#
#
# Elastic Constant Matrix: (Units=GPa)
#
#
# Indices 1 2 3 4 5 6 
#
# 1 110.3015 20.1505 20.9486 9.3965 -33.9704 -5.4756
# 2 20.1505 71.7272 9.6859 8.2645 -14.1949 -4.2118
# 3 20.9486 9.6859 91.1021 20.5050 -16.1946 0.1513
# 4 9.3965 8.2645 20.5050 41.3237 -1.8527 3.4343
# 5 -33.9704 -14.1949 -16.1946 -1.8527 46.6928 0.0951
# 6 -5.4756 -4.2118 0.1513 3.4343 0.0951 54.1507
#
#
#
# Elastic Compliance Matrix: (Units=1/GPa)
#
#
# Indices 1 2 3 4 5 6 
#
# 1 0.012184 -0.001434 -0.000805 -0.001824 0.008074 0.001224
# 2 -0.001434 0.015429 -0.000091 -0.002658 0.003508 0.001218
# 3 -0.000805 -0.000091 0.013234 -0.006220 0.003729 0.000262
# 4 -0.001824 -0.002658 -0.006220 0.028270 -0.003166 -0.002161
# 5 0.008074 0.003508 0.003729 -0.003166 0.029522 0.001228
# 6 0.001224 0.001218 0.000262 -0.002161 0.001228 0.018820
#
#
# Mechanical properties :
#
#
# Convention : Reuss Voigt Hill
#
# Bulk Modulus (GPa) = 27.63520 41.63343 34.63431
# Shear Modulus (GPa) = 37.26319 43.25649 40.25984
#
# Velocity S-wave (km/s) = 4.05264 4.36640 4.21244
# Velocity P-wave (km/s) = 5.83771 6.61594 6.23897
#
# Compressibility (1/GPa) = 0.03618574
#
# Stress axis : x y z
#
# Youngs Moduli (GPa) = 82.07673 64.81357 75.56293
#
# Poissons Ratio (x) = 0.09296 0.06086
# Poissons Ratio (y) = 0.11772 0.00686
# Poissons Ratio (z) = 0.06611 0.00588
#
# Static dielectric constant tensor:
#      x y z
#    x 1.871040 -0.059030 -0.009720 
#    y -0.059030 1.958760 0.005050 
#    z -0.009720 0.005050 2.032140 
# 
# From -- ./inp_files/378469.got.cif
#   From: 2010.05.17/outbox.cif.g08.bks.cpg/sg2_190_cif.got.tgz:378469.got - 2010.06.03 11:33:40.
