data_PCOD9054676
_publ_section_title
;
Structure prediction by ZEFSAII (Michael W. Deem and Ramdas Pophale) SiO2 
 PCOD9054676
Probable space group: P -1
;
_chemical_formula_sum "Si O2"
_cell_formula_units_Z 16
_cell_length_a 16.012713
_cell_length_b 9.787024
_cell_length_c 24.678944
_cell_angle_alpha 47.507321
_cell_angle_beta 150.568714
_cell_angle_gamma 152.658037
_cell_volume 786.020245
_symmetry_space_group_name_H-M "P -1"
_symmetry_group_IT_number 2
_symmetry_cell_setting 'triclinic'
loop_
_space_group_symop_operation_xyz
x,y,z
-x,-y,-z
loop_
_atom_site_type_symbol
_atom_site_label
_atom_site_fract_x
_atom_site_fract_y
_atom_site_fract_z
Si Si1 0.556583 0.113526 0.439701
Si Si2 0.123194 0.234089 0.957549
Si Si3 0.769614 0.790973 0.772345
Si Si4 0.184175 0.030947 0.636796
Si Si5 0.763428 0.290904 0.738312
Si Si6 0.199526 0.262625 0.790141
Si Si7 0.144734 0.226966 0.365360
Si Si8 0.766622 0.281762 0.323703
O O1 0.441206 0.217874 0.342208
O O2 0.909252 0.424027 0.542640
O O3 0.500000 0.000000 0.500000
O O4 0.374994 0.835201 0.366908
O O5 0.991832 0.323947 0.861667
O O6 0.484682 0.559390 0.076617
O O7 0.994440 0.016617 0.889480
O O8 0.000000 0.000000 0.000000
O O9 0.530728 0.409349 0.739120
O O10 0.966497 0.980396 0.778788
O O11 0.195202 0.835913 0.670164
O O12 0.000000 0.000000 0.500000
O O13 0.010104 0.887741 0.633369
O O14 0.889327 0.610927 0.730229
O O15 0.499652 0.014664 0.706705
O O16 0.274587 0.546513 0.766602
O O17 0.035033 0.089095 0.685920
O O18 0.500000 0.500000 0.500000
#
# Coordination Sequence:
#
# PCOD9054676 Si02
#       8
#     2   2   2   2   2   2   2   2
#     4  11  21  37  65 100 137 173 222 284 352 420
#     4  11  24  47  72  98 138 185 245 287 332 407
#     4  11  24  42  69  99 136 182 225 287 348 406
#     4  12  25  43  66 103 144 178 221 286 350 417
#     4  11  25  42  69  99 138 186 232 283 350 407
#     4  12  25  45  72  98 138 187 232 288 341 409
#     4  12  27  45  70 106 144 179 227 287 358 420
#     4  12  23  40  69 100 138 178 228 278 356 410
#
# _framework density 20.355709000000001
#
# number of rings (size 3 to 8) (size 9 to 14) (size 15 to 20)
#    0.000    0.500    3.750    5.250    3.500    0.500 
#    0.000    0.625    0.000    0.000    0.000    0.000 
#    0.000    0.000    0.000    0.000    0.000    0.000 
#
# Total GULP energy -89520.768481 kJ/mol
# GULP energy per Si atom -5595.048030 kJ/mol
# Density = 2.030938 g / cm^3
# Si number density = 20.355709 Si / 1000 Ang^3
#
#
#
# Elastic Constant Matrix: (Units=GPa)
#
#
# Indices 1 2 3 4 5 6 
#
# 1 136.1448 48.2351 42.4147 -4.4330 7.7730 8.3465
# 2 48.2351 105.5923 25.3201 -1.8069 9.7129 1.5016
# 3 42.4147 25.3201 100.1508 10.0676 12.1270 3.7614
# 4 -4.4330 -1.8069 10.0676 22.8133 4.7947 5.3822
# 5 7.7730 9.7129 12.1270 4.7947 33.4625 6.5173
# 6 8.3465 1.5016 3.7614 5.3822 6.5173 45.9123
#
#
#
# Elastic Compliance Matrix: (Units=1/GPa)
#
#
# Indices 1 2 3 4 5 6 
#
# 1 0.009981 -0.003592 -0.003606 0.003705 -0.000147 -0.001815
# 2 -0.003592 0.011645 -0.001274 0.001147 -0.002361 0.000577
# 3 -0.003606 -0.001274 0.012738 -0.006033 -0.002689 0.000743
# 4 0.003705 0.001147 -0.006033 0.049629 -0.005084 -0.005313
# 5 -0.000147 -0.002361 -0.002689 -0.005084 0.033041 -0.003770
# 6 -0.001815 0.000577 0.000743 -0.005313 -0.003770 0.023189
#
#
# Mechanical properties :
#
#
# Convention : Reuss Voigt Hill
#
# Bulk Modulus (GPa) = 57.40017 63.75864 60.57940
# Shear Modulus (GPa) = 30.67963 35.49882 33.08922
#
# Velocity S-wave (km/s) = 3.88645 4.18056 4.03619
# Velocity P-wave (km/s) = 6.95694 7.39547 7.17956
#
# Compressibility (1/GPa) = 0.01742155
#
# Stress axis : x y z
#
# Youngs Moduli (GPa) = 100.18620 85.87086 78.50407
#
# Poissons Ratio (x) = 0.30847 0.28305
# Poissons Ratio (y) = 0.35990 0.10001
# Poissons Ratio (z) = 0.36123 0.10939
#
# Static dielectric constant tensor:
#      x y z
#    x 1.712130 -0.030060 -0.018030 
#    y -0.030060 1.738620 -0.002000 
#    z -0.018030 -0.002000 1.718690 
# 
# From -- ./inp_files/225506.got.cif
#   From: 2010.05.17/outbox.cif.g08.bks.cpg/sg2_113_cif.got.tgz:225506.got - 2010.06.03 11:33:40.
