data_PCOD9054211
_publ_section_title
;
Structure prediction by ZEFSAII (Michael W. Deem and Ramdas Pophale) SiO2 
 PCOD9054211
Probable space group: P -1
;
_chemical_formula_sum "Si O2"
_cell_formula_units_Z 16
_cell_length_a 16.074855
_cell_length_b 9.758476
_cell_length_c 19.503170
_cell_angle_alpha 138.412377
_cell_angle_beta 20.733338
_cell_angle_gamma 134.401781
_cell_volume 718.910674
_symmetry_space_group_name_H-M "P -1"
_symmetry_group_IT_number 2
_symmetry_cell_setting 'triclinic'
loop_
_space_group_symop_operation_xyz
x,y,z
-x,-y,-z
loop_
_atom_site_type_symbol
_atom_site_label
_atom_site_fract_x
_atom_site_fract_y
_atom_site_fract_z
Si Si1 0.458499 0.821824 0.159658
Si Si2 0.174174 0.492694 0.045368
Si Si3 0.996757 0.615166 0.428690
Si Si4 0.803277 0.751581 0.484858
Si Si5 0.104581 0.239092 0.870907
Si Si6 0.049419 0.215006 0.164086
Si Si7 0.578293 0.786836 0.896470
Si Si8 0.621213 0.485593 0.327095
O O1 0.270730 0.638212 0.243660
O O2 0.300535 0.025591 0.365652
O O3 0.678718 0.822572 0.039978
O O4 0.554442 0.820111 0.007783
O O5 0.061405 0.332137 0.126283
O O6 0.981989 0.675887 0.260218
O O7 0.203921 0.373872 0.907626
O O8 0.404856 0.603031 0.937438
O O9 0.939506 0.735718 0.446327
O O10 0.834175 0.715737 0.648575
O O11 0.949139 0.377876 0.357557
O O12 0.581035 0.597927 0.598604
O O13 0.265904 0.300736 0.705454
O O14 0.088117 0.998608 0.809548
O O15 0.839049 0.325481 0.097960
O O16 0.500000 0.000000 0.000000
O O17 0.500000 0.500000 0.500000
#
# Coordination Sequence:
#
# PCOD9054211 Si02
#       8
#     2   2   2   2   2   2   2   2
#     4  12  23  44  68  97 139 176 225 281 342 398
#     4  11  24  44  72  97 141 180 226 282 337 403
#     4  11  24  43  65  98 137 176 227 277 341 405
#     4  11  20  41  69  98 132 177 221 280 340 392
#     4  11  24  45  70  99 137 179 226 276 343 405
#     4  11  25  46  66 100 141 184 221 281 344 404
#     4  12  24  41  72 102 129 182 234 281 335 401
#     4  11  23  43  71 103 132 171 230 290 329 397
#
# _framework density 22.255894000000001
#
# number of rings (size 3 to 8) (size 9 to 14) (size 15 to 20)
#    0.000    0.750    6.250    2.625    0.000    0.500 
#    4.500    3.125    0.000    0.000    0.000    0.000 
#    0.000    0.000    0.000    0.000    0.000    0.000 
#
# Total GULP energy -89556.837556 kJ/mol
# GULP energy per Si atom -5597.302347 kJ/mol
# Density = 2.220524 g / cm^3
# Si number density = 22.255894 Si / 1000 Ang^3
#
#
#
# Elastic Constant Matrix: (Units=GPa)
#
#
# Indices 1 2 3 4 5 6 
#
# 1 55.3473 10.7538 15.2187 -0.5880 6.8880 3.0007
# 2 10.7538 94.3512 26.7648 3.9179 21.0810 -2.3012
# 3 15.2187 26.7648 89.9873 -0.1612 28.1677 -7.2332
# 4 -0.5880 3.9179 -0.1612 39.5290 -2.9445 -1.6730
# 5 6.8880 21.0810 28.1677 -2.9445 33.4185 -3.2086
# 6 3.0007 -2.3012 -7.2332 -1.6730 -3.2086 22.3634
#
#
#
# Elastic Compliance Matrix: (Units=1/GPa)
#
#
# Indices 1 2 3 4 5 6 
#
# 1 0.019450 -0.001244 -0.002861 0.000153 -0.001166 -0.003819
# 2 -0.001244 0.012729 -0.001496 -0.001788 -0.006679 -0.000099
# 3 -0.002861 -0.001496 0.015976 -0.000539 -0.011626 0.003689
# 4 0.000153 -0.001788 -0.000539 0.025866 0.004035 0.002135
# 5 -0.001166 -0.006679 -0.011626 0.004035 0.044766 0.002434
# 6 -0.003819 -0.000099 0.003689 0.002135 0.002434 0.046920
#
#
# Mechanical properties :
#
#
# Convention : Reuss Voigt Hill
#
# Bulk Modulus (GPa) = 27.06177 38.35117 32.70647
# Shear Modulus (GPa) = 26.42325 31.52541 28.97433
#
# Velocity S-wave (km/s) = 3.44938 3.76772 3.61206
# Velocity P-wave (km/s) = 5.29623 6.01639 5.66776
#
# Compressibility (1/GPa) = 0.03695249
#
# Stress axis : x y z
#
# Youngs Moduli (GPa) = 51.41405 78.56019 62.59332
#
# Poissons Ratio (x) = 0.09775 0.17909
# Poissons Ratio (y) = 0.06397 0.09364
# Poissons Ratio (z) = 0.14710 0.11752
#
# Static dielectric constant tensor:
#      x y z
#    x 1.823500 0.006900 -0.009600 
#    y 0.006900 1.831210 0.007590 
#    z -0.009600 0.007590 1.810500 
# 
# From -- ./inp_files/186382.got.cif
#   From: 2010.05.17/outbox.cif.g08.bks.cpg/sg2_94_cif.got.tgz:186382.got - 2010.06.03 11:33:40.
