data_PCOD9054512
_publ_section_title
;
Structure prediction by ZEFSAII (Michael W. Deem and Ramdas Pophale) SiO2 
 PCOD9054512
Probable space group: P -1
;
_chemical_formula_sum "Si O2"
_cell_formula_units_Z 14
_cell_length_a 24.389857
_cell_length_b 5.260912
_cell_length_c 15.086945
_cell_angle_alpha 112.427125
_cell_angle_beta 18.975548
_cell_angle_gamma 111.445943
_cell_volume 581.784469
_symmetry_space_group_name_H-M "P -1"
_symmetry_group_IT_number 2
_symmetry_cell_setting 'triclinic'
loop_
_space_group_symop_operation_xyz
x,y,z
-x,-y,-z
loop_
_atom_site_type_symbol
_atom_site_label
_atom_site_fract_x
_atom_site_fract_y
_atom_site_fract_z
Si Si1 0.428035 0.693686 0.560492
Si Si2 0.322518 0.614336 0.254969
Si Si3 0.777543 0.000009 0.696783
Si Si4 0.222209 0.471773 0.568320
Si Si5 0.160562 0.981112 0.816072
Si Si6 0.935126 0.092642 0.867558
Si Si7 0.479209 0.280607 0.279297
O O1 0.500000 0.500000 0.500000
O O2 0.490004 0.560563 0.355863
O O3 0.500000 0.000000 0.500000
O O4 0.226469 0.726843 0.882239
O O5 0.304683 0.863581 0.248243
O O6 0.245806 0.679646 0.477313
O O7 0.238300 0.329701 0.309684
O O8 0.500000 0.500000 0.000000
O O9 0.660358 0.140096 0.969121
O O10 0.975159 0.041625 0.372850
O O11 0.392936 0.333125 0.322316
O O12 0.082901 0.266890 0.715008
O O13 0.177469 0.650031 0.745919
O O14 0.336073 0.104206 0.527352
O O15 0.127673 0.096338 0.979606
O O16 0.000000 0.000000 0.000000
#
# Coordination Sequence:
#
# PCOD9054512 Si02
#       7
#     2   2   2   2   2   2   2
#     4  12  29  52  75  98 135 190 249 306 355 410
#     4  11  21  35  58  99 158 187 215 260 346 437
#     4  11  26  41  67 105 145 190 225 285 356 426
#     4  11  22  36  67 106 146 182 225 280 356 426
#     4  12  21  36  66 104 148 190 229 278 345 428
#     4  11  24  46  70 109 147 185 236 296 359 426
#     4  12  25  44  72 105 141 186 237 286 356 433
#
# _framework density 24.063896
#
# number of rings (size 3 to 8) (size 9 to 14) (size 15 to 20)
#    0.000    0.571    4.286    4.286    4.000    3.429 
#    0.000    1.429    0.000    0.000    0.000    0.000 
#    0.000    0.000    0.000    0.000    0.000    0.000 
#
# Total GULP energy -78089.683426 kJ/mol
# GULP energy per Si atom -5577.834530 kJ/mol
# Density = 2.400913 g / cm^3
# Si number density = 24.063896 Si / 1000 Ang^3
#
#
#
# Elastic Constant Matrix: (Units=GPa)
#
#
# Indices 1 2 3 4 5 6 
#
# 1 74.6081 23.1850 36.8558 4.0553 -11.7654 -8.2470
# 2 23.1850 116.8780 36.2014 10.5040 2.9592 15.8207
# 3 36.8558 36.2014 186.0230 42.1451 15.4089 14.7556
# 4 4.0553 10.5040 42.1451 32.0674 -8.7378 3.3399
# 5 -11.7654 2.9592 15.4089 -8.7378 37.6401 12.0884
# 6 -8.2470 15.8207 14.7556 3.3399 12.0884 29.1011
#
#
#
# Elastic Compliance Matrix: (Units=1/GPa)
#
#
# Indices 1 2 3 4 5 6 
#
# 1 0.019299 -0.003692 -0.006372 0.009021 0.009138 0.005876
# 2 -0.003692 0.010413 -0.000343 -0.001928 -0.000292 -0.006191
# 3 -0.006372 -0.000343 0.011437 -0.016734 -0.010115 -0.001296
# 4 0.009021 -0.001928 -0.016734 0.060192 0.025538 -0.005427
# 5 0.009138 -0.000292 -0.010115 0.025538 0.043766 -0.013234
# 6 0.005876 -0.006191 -0.001296 -0.005427 -0.013234 0.046171
#
#
# Mechanical properties :
#
#
# Convention : Reuss Voigt Hill
#
# Bulk Modulus (GPa) = 49.17703 63.33259 56.25481
# Shear Modulus (GPa) = 22.84467 38.51288 30.67877
#
# Velocity S-wave (km/s) = 3.08447 4.00489 3.57443
# Velocity P-wave (km/s) = 5.75896 6.91095 6.36109
#
# Compressibility (1/GPa) = 0.02033470
#
# Stress axis : x y z
#
# Youngs Moduli (GPa) = 51.81730 96.03158 87.43761
#
# Poissons Ratio (x) = 0.35456 0.55714
# Poissons Ratio (y) = 0.19132 0.02999
# Poissons Ratio (z) = 0.33017 0.03293
#
# Static dielectric constant tensor:
#      x y z
#    x 1.976720 0.001760 0.083940 
#    y 0.001760 2.003770 0.020590 
#    z 0.083940 0.020590 2.166980 
# 
# From -- ./inp_files/73686.got.cif
#   From: 2010.05.17/outbox.cif.g08.bks.cpg/sg2_37_cif.got.tgz:73686.got - 2010.06.03 11:33:40.
