data_PCOD9054539
_publ_section_title
;
Structure prediction by ZEFSAII (Michael W. Deem and Ramdas Pophale) SiO2 
 PCOD9054539
Probable space group: P -1
;
_chemical_formula_sum "Si O2"
_cell_formula_units_Z 10
_cell_length_a 13.314531
_cell_length_b 14.670792
_cell_length_c 6.628188
_cell_angle_alpha 72.989907
_cell_angle_beta 67.499698
_cell_angle_gamma 20.918401
_cell_volume 418.719681
_symmetry_space_group_name_H-M "P -1"
_symmetry_group_IT_number 2
_symmetry_cell_setting 'triclinic'
loop_
_space_group_symop_operation_xyz
x,y,z
-x,-y,-z
loop_
_atom_site_type_symbol
_atom_site_label
_atom_site_fract_x
_atom_site_fract_y
_atom_site_fract_z
Si Si1 0.820712 0.064745 0.980693
Si Si2 0.629242 0.483846 0.293113
Si Si3 0.762647 0.774107 0.251655
Si Si4 0.398733 0.254926 0.227713
Si Si5 0.238646 0.420467 0.797494
O O1 0.608954 0.290927 0.837901
O O2 0.067044 0.796885 0.862271
O O3 0.611507 0.164010 0.205657
O O4 0.000000 0.000000 0.000000
O O5 0.500000 0.500000 0.500000
O O6 0.699914 0.521017 0.343703
O O7 0.510194 0.056776 0.303362
O O8 0.698032 0.714183 0.322850
O O9 0.046584 0.559558 0.317437
O O10 0.568877 0.757891 0.034352
O O11 0.906080 0.679736 0.978415
#
# Coordination Sequence:
#
# PCOD9054539 Si02
#       5
#     2   2   2   2   2
#     4  11  21  36  54  76 104 142 181 210 248 308
#     4  11  22  36  52  79 111 137 168 215 264 309
#     4   9  15  24  45  69 102 119 159 212 264 282
#     4   9  15  27  42  71  96 120 160 215 250 283
#     4   8  17  25  46  69 102 124 160 205 265 293
#
# _framework density 23.882325000000002
#
# number of rings (size 3 to 8) (size 9 to 14) (size 15 to 20)
#    1.200    1.200    2.000    1.800    0.000    0.000 
#    0.000    0.000    0.000    0.000    0.000    8.400 
#    0.000    0.000    0.000    0.000    0.000    0.000 
#
# Total GULP energy -55849.164244 kJ/mol
# GULP energy per Si atom -5584.916424 kJ/mol
# Density = 2.382797 g / cm^3
# Si number density = 23.882325 Si / 1000 Ang^3
#
#
#
# Elastic Constant Matrix: (Units=GPa)
#
#
# Indices 1 2 3 4 5 6 
#
# 1 306.8435 35.9036 17.7974 -14.7265 37.9189 21.5269
# 2 35.9036 186.8934 37.5651 9.4522 -22.4775 6.6542
# 3 17.7974 37.5651 50.4155 5.5942 -29.5360 13.0866
# 4 -14.7265 9.4522 5.5942 44.0756 -3.2568 -4.8142
# 5 37.9189 -22.4775 -29.5360 -3.2568 103.0312 1.1066
# 6 21.5269 6.6542 13.0866 -4.8142 1.1066 42.5281
#
#
#
# Elastic Compliance Matrix: (Units=1/GPa)
#
#
# Indices 1 2 3 4 5 6 
#
# 1 0.003842 -0.000620 -0.001995 0.001406 -0.002066 -0.001021
# 2 -0.000620 0.006424 -0.004414 -0.000940 0.000329 0.000552
# 3 -0.001995 -0.004414 0.031723 -0.004049 0.008831 -0.008749
# 4 0.001406 -0.000940 -0.004049 0.024165 -0.001156 0.003447
# 5 -0.002066 0.000329 0.008831 -0.001156 0.013056 -0.002194
# 6 -0.001021 0.000552 -0.008749 0.003447 -0.002194 0.027084
#
#
# Mechanical properties :
#
#
# Convention : Reuss Voigt Hill
#
# Bulk Modulus (GPa) = 35.80478 80.74274 58.27376
# Shear Modulus (GPa) = 38.56131 68.11940 53.34035
#
# Velocity S-wave (km/s) = 4.02261 5.34648 4.73108
# Velocity P-wave (km/s) = 6.04979 8.48499 7.36869
#
# Compressibility (1/GPa) = 0.02792923
#
# Stress axis : x y z
#
# Youngs Moduli (GPa) = 260.30592 155.65421 31.52281
#
# Poissons Ratio (x) = 0.09653 0.06290
# Poissons Ratio (y) = 0.16143 0.13916
# Poissons Ratio (z) = 0.51940 0.68714
#
# Static dielectric constant tensor:
#      x y z
#    x 1.934760 -0.021690 -0.026590 
#    y -0.021690 1.829580 0.017640 
#    z -0.026590 0.017640 2.111650 
# 
# From -- ./inp_files/248253.got.cif
#   From: 2010.05.17/outbox.cif.g08.bks.cpg/sg2_125_cif.got.tgz:248253.got - 2010.06.03 11:33:40.
