data_PCOD9054135
_publ_section_title
;
Structure prediction by ZEFSAII (Michael W. Deem and Ramdas Pophale) SiO2 
 PCOD9054135
Probable space group: P -1
;
_chemical_formula_sum "Si O2"
_cell_formula_units_Z 16
_cell_length_a 12.709025
_cell_length_b 8.893819
_cell_length_c 9.648881
_cell_angle_alpha 100.926631
_cell_angle_beta 53.122595
_cell_angle_gamma 63.427283
_cell_volume 599.418149
_symmetry_space_group_name_H-M "P -1"
_symmetry_group_IT_number 2
_symmetry_cell_setting 'triclinic'
loop_
_space_group_symop_operation_xyz
x,y,z
-x,-y,-z
loop_
_atom_site_type_symbol
_atom_site_label
_atom_site_fract_x
_atom_site_fract_y
_atom_site_fract_z
Si Si1 0.312985 0.202586 0.412080
Si Si2 0.259684 0.194368 0.010484
Si Si3 0.226657 0.415272 0.814689
Si Si4 0.561515 0.356374 0.567224
Si Si5 0.057092 0.627556 0.375778
Si Si6 0.175226 0.963714 0.171193
Si Si7 0.596022 0.581449 0.814534
Si Si8 0.966764 0.910628 0.135452
O O1 0.291617 0.287816 0.597544
O O2 0.322121 0.342198 0.326298
O O3 0.135511 0.238977 0.535959
O O4 0.517705 0.959851 0.179925
O O5 0.134129 0.385824 0.258730
O O6 0.230755 0.037117 0.017409
O O7 0.192585 0.320441 0.942854
O O8 0.393090 0.383394 0.732046
O O9 0.056406 0.675157 0.986899
O O10 0.500000 0.500000 0.500000
O O11 0.600930 0.440220 0.675367
O O12 0.745638 0.100311 0.362561
O O13 0.265060 0.534417 0.184025
O O14 0.975414 0.815207 0.585074
O O15 0.078440 0.893852 0.173806
O O16 0.375295 0.780712 0.057838
O O17 0.000000 0.000000 0.000000
#
# Coordination Sequence:
#
# PCOD9054135 Si02
#       8
#     2   2   2   2   2   2   2   2
#     4  11  24  43  69 103 144 186 235 291 352 425
#     4  11  27  45  68 105 150 188 231 295 365 419
#     4  12  27  46  69 111 147 187 229 296 369 419
#     4  12  22  42  72 102 140 179 231 291 346 421
#     4  12  25  43  72 105 142 188 245 292 349 423
#     4  11  23  44  75 107 136 185 244 296 346 420
#     4  11  20  40  71 105 132 178 240 295 340 409
#     4  12  24  42  76 107 136 184 242 291 348 423
#
# _framework density 26.692553
#
# number of rings (size 3 to 8) (size 9 to 14) (size 15 to 20)
#    0.000    0.500    5.000    3.375    3.500    3.500 
#    0.000    1.250    0.000    0.000    0.000    0.000 
#    0.000    0.000    0.000    0.000    0.000    0.000 
#
# Total GULP energy -89564.849793 kJ/mol
# GULP energy per Si atom -5597.803112 kJ/mol
# Density = 2.663180 g / cm^3
# Si number density = 26.692553 Si / 1000 Ang^3
#
#
#
# Elastic Constant Matrix: (Units=GPa)
#
#
# Indices 1 2 3 4 5 6 
#
# 1 191.0832 31.2758 57.3106 14.3409 -21.6589 -17.2678
# 2 31.2758 79.6398 24.9930 6.9045 -19.9701 -5.7369
# 3 57.3106 24.9930 167.6625 46.4508 -19.9376 -15.3072
# 4 14.3409 6.9045 46.4508 46.4163 -17.9518 -8.6198
# 5 -21.6589 -19.9701 -19.9376 -17.9518 44.4526 2.4394
# 6 -17.2678 -5.7369 -15.3072 -8.6198 2.4394 22.1321
#
#
#
# Elastic Compliance Matrix: (Units=1/GPa)
#
#
# Indices 1 2 3 4 5 6 
#
# 1 0.006472 -0.001274 -0.001858 0.001604 0.002185 0.003817
# 2 -0.001274 0.015079 -0.001577 0.002590 0.006375 0.002130
# 3 -0.001858 -0.001577 0.009201 -0.008551 -0.001011 0.001286
# 4 0.001604 0.002590 -0.008551 0.035417 0.011947 0.008485
# 5 0.002185 0.006375 -0.001011 0.011947 0.030580 0.003941
# 6 0.003817 0.002130 0.001286 0.008485 0.003941 0.052474
#
#
# Mechanical properties :
#
#
# Convention : Reuss Voigt Hill
#
# Bulk Modulus (GPa) = 46.87708 73.94935 60.41322
# Shear Modulus (GPa) = 30.16536 44.25395 37.20965
#
# Velocity S-wave (km/s) = 3.36535 4.07617 3.73769
# Velocity P-wave (km/s) = 5.71846 7.06525 6.42723
#
# Compressibility (1/GPa) = 0.02133239
#
# Stress axis : x y z
#
# Youngs Moduli (GPa) = 154.52340 66.31532 108.68485
#
# Poissons Ratio (x) = 0.08451 0.20194
# Poissons Ratio (y) = 0.19693 0.17143
# Poissons Ratio (z) = 0.28711 0.10460
#
# Static dielectric constant tensor:
#      x y z
#    x 2.061270 -0.057420 -0.109640 
#    y -0.057420 2.243310 -0.005390 
#    z -0.109640 -0.005390 2.448580 
# 
# From -- ./inp_files/431214.got.cif
#   From: 2010.05.17/outbox.cif.g08.bks.cpg/sg2_216_cif.got.tgz:431214.got - 2010.06.03 11:33:40.
