data_PCOD9054940
_publ_section_title
;
Structure prediction by ZEFSAII (Michael W. Deem and Ramdas Pophale) SiO2 
 PCOD9054940
Probable space group: P -1
;
_chemical_formula_sum "Si O2"
_cell_formula_units_Z 16
_cell_length_a 15.126862
_cell_length_b 16.082731
_cell_length_c 11.442769
_cell_angle_alpha 117.856315
_cell_angle_beta 147.455018
_cell_angle_gamma 38.191846
_cell_volume 749.589534
_symmetry_space_group_name_H-M "P -1"
_symmetry_group_IT_number 2
_symmetry_cell_setting 'triclinic'
loop_
_space_group_symop_operation_xyz
x,y,z
-x,-y,-z
loop_
_atom_site_type_symbol
_atom_site_label
_atom_site_fract_x
_atom_site_fract_y
_atom_site_fract_z
Si Si1 0.131422 0.838794 0.279517
Si Si2 0.914615 0.106259 0.082875
Si Si3 0.778612 0.744423 0.152859
Si Si4 0.315735 0.093273 0.474769
Si Si5 0.407038 0.491650 0.771610
Si Si6 0.226852 0.431448 0.114082
Si Si7 0.278337 0.062747 0.956686
Si Si8 0.196136 0.625466 0.052654
O O1 0.459101 0.718246 0.575339
O O2 0.124606 0.760448 0.121204
O O3 0.937380 0.021563 0.157368
O O4 0.019239 0.845453 0.277760
O O5 0.158077 0.072988 0.331980
O O6 0.604236 0.303991 0.861106
O O7 0.000000 0.000000 0.000000
O O8 0.478754 0.911081 0.991198
O O9 0.063974 0.636024 0.474565
O O10 0.787027 0.632974 0.051975
O O11 0.780601 0.808175 0.080649
O O12 0.530594 0.023183 0.769158
O O13 0.045063 0.283541 0.254932
O O14 0.500000 0.000000 0.500000
O O15 0.500000 0.500000 0.000000
O O16 0.510436 0.500864 0.777822
O O17 0.186022 0.554822 0.097846
O O18 0.000000 0.500000 0.000000
#
# Coordination Sequence:
#
# PCOD9054940 Si02
#       8
#     2   2   2   2   2   2   2   2
#     4  12  23  43  67  96 136 181 234 286 346 409
#     4  11  22  39  66 100 133 176 227 285 334 407
#     4  11  25  45  69  98 141 181 234 283 347 423
#     4  11  21  39  66  99 133 171 230 279 340 401
#     4  11  24  46  71 101 142 184 225 285 357 419
#     4  12  27  41  67 100 137 180 232 292 350 414
#     4  11  24  45  69  99 136 189 229 285 351 417
#     4  11  23  42  66  97 138 180 229 287 349 410
#
# _framework density 21.345015
#
# number of rings (size 3 to 8) (size 9 to 14) (size 15 to 20)
#    0.000    0.750    3.750    4.875    1.750    3.500 
#    0.000    1.875    0.000    0.000    0.000    0.000 
#    0.000    0.000    0.000    0.000    0.000    0.000 
#
# Total GULP energy -89401.898422 kJ/mol
# GULP energy per Si atom -5587.618651 kJ/mol
# Density = 2.129643 g / cm^3
# Si number density = 21.345015 Si / 1000 Ang^3
#
#
#
# Elastic Constant Matrix: (Units=GPa)
#
#
# Indices 1 2 3 4 5 6 
#
# 1 102.9100 20.4634 -0.5366 -3.7410 10.9241 7.5638
# 2 20.4634 72.8594 6.3187 -7.2824 -0.0198 9.9327
# 3 -0.5366 6.3187 84.0187 -9.2324 2.4353 -2.9549
# 4 -3.7410 -7.2824 -9.2324 20.3752 -1.0083 -3.0224
# 5 10.9241 -0.0198 2.4353 -1.0083 39.0430 -7.4314
# 6 7.5638 9.9327 -2.9549 -3.0224 -7.4314 32.0759
#
#
#
# Elastic Compliance Matrix: (Units=1/GPa)
#
#
# Indices 1 2 3 4 5 6 
#
# 1 0.010826 -0.002674 0.000358 0.000659 -0.003500 -0.002441
# 2 -0.002674 0.015481 -0.000871 0.004091 0.000190 -0.003814
# 3 0.000358 -0.000871 0.012676 0.005746 -0.000400 0.001802
# 4 0.000659 0.004091 0.005746 0.054034 0.001730 0.004599
# 5 -0.003500 0.000190 -0.000400 0.001730 0.028070 0.007396
# 6 -0.002441 -0.003814 0.001802 0.004599 0.007396 0.035246
#
#
# Mechanical properties :
#
#
# Convention : Reuss Voigt Hill
#
# Bulk Modulus (GPa) = 30.66706 34.69768 32.68237
# Shear Modulus (GPa) = 28.80598 33.86831 31.33714
#
# Velocity S-wave (km/s) = 3.67760 3.98767 3.83577
# Velocity P-wave (km/s) = 5.69486 6.12315 5.91288
#
# Compressibility (1/GPa) = 0.03260828
#
# Stress axis : x y z
#
# Youngs Moduli (GPa) = 92.37269 64.59726 78.88758
#
# Poissons Ratio (x) = 0.17273 -0.02826
# Poissons Ratio (y) = 0.24700 0.06875
# Poissons Ratio (z) = -0.03310 0.05629
#
# Static dielectric constant tensor:
#      x y z
#    x 1.804160 -0.005690 -0.000260 
#    y -0.005690 1.767230 -0.021390 
#    z -0.000260 -0.021390 1.807600 
# 
# From -- ./inp_files/455859.got.cif
#   From: 2010.05.17/outbox.cif.g08.bks.cpg/sg2_228_cif.got.tgz:455859.got - 2010.06.03 11:33:40.
