data_PCOD9054559
_publ_section_title
;
Structure prediction by ZEFSAII (Michael W. Deem and Ramdas Pophale) SiO2 
 PCOD9054559
Probable space group: P -1
;
_chemical_formula_sum "Si O2"
_cell_formula_units_Z 16
_cell_length_a 9.155436
_cell_length_b 8.620246
_cell_length_c 12.333127
_cell_angle_alpha 59.506518
_cell_angle_beta 127.323429
_cell_angle_gamma 116.670421
_cell_volume 652.666602
_symmetry_space_group_name_H-M "P -1"
_symmetry_group_IT_number 2
_symmetry_cell_setting 'triclinic'
loop_
_space_group_symop_operation_xyz
x,y,z
-x,-y,-z
loop_
_atom_site_type_symbol
_atom_site_label
_atom_site_fract_x
_atom_site_fract_y
_atom_site_fract_z
Si Si1 0.254275 0.964184 0.689144
Si Si2 0.922153 0.341891 0.939578
Si Si3 0.371010 0.601598 0.826287
Si Si4 0.704127 0.721905 0.248411
Si Si5 0.759846 0.863420 0.849560
Si Si6 0.655668 0.017689 0.952463
Si Si7 0.388940 0.494227 0.341962
Si Si8 0.692502 0.937488 0.573317
O O1 0.172525 0.120553 0.669211
O O2 0.245348 0.001355 0.542677
O O3 0.241314 0.739575 0.768456
O O4 0.463737 0.030336 0.806083
O O5 0.790880 0.412542 0.767853
O O6 0.000000 0.500000 0.000000
O O7 0.106057 0.273292 0.014099
O O8 0.778050 0.194122 0.999508
O O9 0.249443 0.446876 0.746165
O O10 0.543254 0.747677 0.793505
O O11 0.500000 0.500000 0.000000
O O12 0.634495 0.847124 0.081429
O O13 0.535354 0.603041 0.283702
O O14 0.815942 0.978479 0.723879
O O15 0.780161 0.998600 0.911347
O O16 0.500000 0.500000 0.500000
O O17 0.328895 0.282116 0.360406
O O18 0.500000 0.000000 0.500000
#
# Coordination Sequence:
#
# PCOD9054559 Si02
#       8
#     2   2   2   2   2   2   2   2
#     4  11  22  35  62  96 128 168 215 279 327 376
#     4  12  24  42  64  96 134 176 220 277 333 396
#     4  11  21  36  60  97 131 166 221 276 324 390
#     4  12  21  38  65  95 132 163 225 285 323 389
#     4  11  23  39  64  93 135 173 217 270 332 397
#     4  11  23  39  61  96 128 173 221 274 330 392
#     4  12  24  40  67  99 126 170 227 274 329 397
#     4  12  20  38  60  93 132 168 215 271 327 386
#
# _framework density 24.514813
#
# number of rings (size 3 to 8) (size 9 to 14) (size 15 to 20)
#    0.000    0.500   10.000    0.750    0.000    0.000 
#    0.000    0.000    0.000    5.250    0.000    0.000 
#    0.000    0.000    0.000    0.000    0.000    0.000 
#
# Total GULP energy -89085.088361 kJ/mol
# GULP energy per Si atom -5567.818023 kJ/mol
# Density = 2.445902 g / cm^3
# Si number density = 24.514813 Si / 1000 Ang^3
#
#
#
# Elastic Constant Matrix: (Units=GPa)
#
#
# Indices 1 2 3 4 5 6 
#
# 1 31.7746 35.1008 20.0726 12.2235 -1.4506 -8.4279
# 2 35.1008 134.8314 35.2353 -8.3226 -3.8891 -25.2161
# 3 20.0726 35.2353 125.6860 0.3903 -22.8414 -2.6761
# 4 12.2235 -8.3226 0.3903 42.0852 -8.4633 -6.2211
# 5 -1.4506 -3.8891 -22.8414 -8.4633 42.0705 -0.9746
# 6 -8.4279 -25.2161 -2.6761 -6.2211 -0.9746 39.5601
#
#
#
# Elastic Compliance Matrix: (Units=1/GPa)
#
#
# Indices 1 2 3 4 5 6 
#
# 1 0.061574 -0.016183 -0.006635 -0.022757 -0.007586 -0.001412
# 2 -0.016183 0.013678 -0.000727 0.008850 0.002246 0.006669
# 3 -0.006635 -0.000727 0.010255 0.002768 0.005815 -0.000605
# 4 -0.022757 0.008850 0.002768 0.034831 0.008698 0.006672
# 5 -0.007586 0.002246 0.005815 0.008698 0.028675 0.002283
# 6 -0.001412 0.006669 -0.000605 0.006672 0.002283 0.030292
#
#
# Mechanical properties :
#
#
# Convention : Reuss Voigt Hill
#
# Bulk Modulus (GPa) = 26.03059 52.56772 39.29915
# Shear Modulus (GPa) = 20.90287 38.20205 29.55246
#
# Velocity S-wave (km/s) = 2.92321 3.95185 3.47579
# Velocity P-wave (km/s) = 4.69413 6.50481 5.67219
#
# Compressibility (1/GPa) = 0.03841635
#
# Stress axis : x y z
#
# Youngs Moduli (GPa) = 16.24059 73.11035 97.51283
#
# Poissons Ratio (x) = 1.18317 0.64697
# Poissons Ratio (y) = 0.26283 0.07091
# Poissons Ratio (z) = 0.10775 0.05317
#
# Static dielectric constant tensor:
#      x y z
#    x 2.026850 -0.106870 -0.088300 
#    y -0.106870 2.145430 0.058160 
#    z -0.088300 0.058160 1.964970 
# 
# From -- ./inp_files/419228.got.cif
#   From: 2010.05.17/outbox.cif.g08.bks.cpg/sg2_210_cif.got.tgz:419228.got - 2010.06.03 11:33:40.
