data_PCOD9054051
_publ_section_title
;
Structure prediction by ZEFSAII (Michael W. Deem and Ramdas Pophale) SiO2 
 PCOD9054051
Probable space group: P -1
;
_chemical_formula_sum "Si O2"
_cell_formula_units_Z 12
_cell_length_a 15.599970
_cell_length_b 15.415988
_cell_length_c 11.733113
_cell_angle_alpha 24.702950
_cell_angle_beta 152.528373
_cell_angle_gamma 144.121563
_cell_volume 543.855385
_symmetry_space_group_name_H-M "P -1"
_symmetry_group_IT_number 2
_symmetry_cell_setting 'triclinic'
loop_
_space_group_symop_operation_xyz
x,y,z
-x,-y,-z
loop_
_atom_site_type_symbol
_atom_site_label
_atom_site_fract_x
_atom_site_fract_y
_atom_site_fract_z
Si Si1 0.689645 0.502425 0.854826
Si Si2 0.067832 0.719383 0.422329
Si Si3 0.587795 0.240105 0.640353
Si Si4 0.718905 0.445562 0.336358
Si Si5 0.260451 0.959423 0.548285
Si Si6 0.812120 0.921242 0.428328
O O1 0.510907 0.584646 0.611287
O O2 0.757949 0.679308 0.637392
O O3 0.846448 0.469013 0.175939
O O4 0.663792 0.269412 0.057823
O O5 0.195282 0.709888 0.471110
O O6 0.116678 0.913477 0.331017
O O7 0.855091 0.647177 0.243951
O O8 0.730029 0.342871 0.596995
O O9 0.429884 0.113343 0.534234
O O10 0.663533 0.071310 0.018024
O O11 0.500000 0.500000 0.000000
O O12 0.176870 0.046884 0.460950
O O13 0.000000 0.000000 0.500000
#
# Coordination Sequence:
#
# PCOD9054051 Si02
#       6
#     2   2   2   2   2   2
#     4   9  19  41  61  88 123 159 203 254 313 355
#     4   9  21  40  65  91 121 167 204 257 310 364
#     4  11  22  38  66  91 123 166 207 254 310 372
#     4  11  20  40  65  89 128 165 207 254 314 362
#     4   9  21  42  62  92 123 159 212 251 312 373
#     4  11  23  38  60  95 128 161 201 260 313 371
#
# _framework density 22.064689000000001
#
# number of rings (size 3 to 8) (size 9 to 14) (size 15 to 20)
#    1.000    1.000    1.667    3.000    0.000    4.000 
#    6.000    0.833    0.000    0.000    0.000    0.000 
#    0.000    0.000    0.000    0.000    0.000    0.000 
#
# Total GULP energy -66947.065320 kJ/mol
# GULP energy per Si atom -5578.922110 kJ/mol
# Density = 2.201447 g / cm^3
# Si number density = 22.064689 Si / 1000 Ang^3
#
#
#
# Elastic Constant Matrix: (Units=GPa)
#
#
# Indices 1 2 3 4 5 6 
#
# 1 96.0582 38.4229 7.4101 2.6360 2.3394 30.8921
# 2 38.4229 84.2870 5.5802 -3.2373 17.4758 -0.4375
# 3 7.4101 5.5802 60.1464 -1.1235 -0.1788 9.2230
# 4 2.6360 -3.2373 -1.1235 45.8844 5.5083 -6.2781
# 5 2.3394 17.4758 -0.1788 5.5083 28.3776 5.1942
# 6 30.8921 -0.4375 9.2230 -6.2781 5.1942 30.9094
#
#
#
# Elastic Compliance Matrix: (Units=1/GPa)
#
#
# Indices 1 2 3 4 5 6 
#
# 1 0.027001 -0.016232 0.003049 -0.008933 0.015480 -0.032541
# 2 -0.016232 0.023860 -0.003561 0.007878 -0.019011 0.022418
# 3 0.003049 -0.003561 0.018022 -0.001788 0.004147 -0.009535
# 4 -0.008933 0.007878 -0.001788 0.026647 -0.012424 0.017073
# 5 0.015480 -0.019011 0.004147 -0.012424 0.053318 -0.028461
# 6 -0.032541 0.022418 -0.009535 0.017073 -0.028461 0.076289
#
#
# Mechanical properties :
#
#
# Convention : Reuss Voigt Hill
#
# Bulk Modulus (GPa) = 28.25306 38.14642 33.19974
# Shear Modulus (GPa) = 18.48951 33.63950 26.06450
#
# Velocity S-wave (km/s) = 2.89791 3.90883 3.44070
# Velocity P-wave (km/s) = 4.90200 6.13986 5.55552
#
# Compressibility (1/GPa) = 0.03539440
#
# Stress axis : x y z
#
# Youngs Moduli (GPa) = 37.03517 41.91092 55.48797
#
# Poissons Ratio (x) = 0.68030 -0.16916
# Poissons Ratio (y) = 0.60116 0.19759
# Poissons Ratio (z) = -0.11290 0.14924
#
# Static dielectric constant tensor:
#      x y z
#    x 1.761500 -0.006510 -0.036150 
#    y -0.006510 1.834210 0.034310 
#    z -0.036150 0.034310 1.951210 
# 
# From -- ./inp_files/453569.got.cif
#   From: 2010.05.17/outbox.cif.g08.bks.cpg/sg2_227_cif.got.tgz:453569.got - 2010.06.03 11:33:40.
