data_PCOD9054804
_publ_section_title
;
Structure prediction by ZEFSAII (Michael W. Deem and Ramdas Pophale) SiO2 
 PCOD9054804
Probable space group: P -1
;
_chemical_formula_sum "Si O2"
_cell_formula_units_Z 16
_cell_length_a 11.946992
_cell_length_b 19.763882
_cell_length_c 9.161703
_cell_angle_alpha 69.847490
_cell_angle_beta 42.863065
_cell_angle_gamma 38.335263
_cell_volume 764.611812
_symmetry_space_group_name_H-M "P -1"
_symmetry_group_IT_number 2
_symmetry_cell_setting 'triclinic'
loop_
_space_group_symop_operation_xyz
x,y,z
-x,-y,-z
loop_
_atom_site_type_symbol
_atom_site_label
_atom_site_fract_x
_atom_site_fract_y
_atom_site_fract_z
Si Si1 0.776750 0.690080 0.576283
Si Si2 0.262311 0.755990 0.359787
Si Si3 0.268053 0.584271 0.531489
Si Si4 0.569436 0.548412 0.819422
Si Si5 0.334556 0.264180 0.004549
Si Si6 0.806214 0.184545 0.955473
Si Si7 0.314218 0.003434 0.098282
Si Si8 0.581346 0.044265 0.313017
O O1 0.494380 0.746119 0.757477
O O2 0.115927 0.540684 0.340893
O O3 0.688296 0.801338 0.521350
O O4 0.737522 0.708407 0.774577
O O5 0.261618 0.669125 0.414226
O O6 0.556811 0.694740 0.165903
O O7 0.021870 0.861421 0.633981
O O8 0.171754 0.820763 0.238394
O O9 0.500000 0.500000 0.500000
O O10 0.367846 0.493779 0.376170
O O11 0.960129 0.665210 0.829696
O O12 0.284718 0.702137 0.995508
O O13 0.500000 0.500000 0.000000
O O14 0.587134 0.111629 0.854775
O O15 0.105058 0.047202 0.845968
O O16 0.369977 0.983731 0.886072
O O17 0.500000 0.000000 0.000000
O O18 0.500000 0.000000 0.500000
#
# Coordination Sequence:
#
# PCOD9054804 Si02
#       8
#     2   2   2   2   2   2   2   2
#     4   9  21  40  60  89 125 160 203 258 309 367
#     4  11  22  41  65  88 125 167 201 252 319 366
#     4  11  24  41  63  88 125 162 211 258 301 365
#     4  11  21  39  64  87 118 163 210 244 311 373
#     4   9  21  40  63  90 121 163 207 251 309 374
#     4  11  22  39  64  90 122 163 207 258 308 364
#     4  11  21  38  66  90 126 164 203 250 315 372
#     4  11  23  38  63  96 124 158 207 259 304 366
#
# _framework density 20.925650999999998
#
# number of rings (size 3 to 8) (size 9 to 14) (size 15 to 20)
#    0.000    1.500    2.500    2.625    3.500    0.500 
#    0.000    2.500    0.000    0.000    0.000    0.000 
#    0.000    0.000    0.000    0.000    0.000    0.000 
#
# Total GULP energy -89218.760986 kJ/mol
# GULP energy per Si atom -5576.172562 kJ/mol
# Density = 2.087802 g / cm^3
# Si number density = 20.925651 Si / 1000 Ang^3
#
#
#
# Elastic Constant Matrix: (Units=GPa)
#
#
# Indices 1 2 3 4 5 6 
#
# 1 73.0111 12.4166 15.7475 -3.9658 -22.8624 -12.2342
# 2 12.4166 35.0474 13.1270 5.8729 -3.4581 -3.2402
# 3 15.7475 13.1270 61.4921 -6.5734 -21.6470 -6.3709
# 4 -3.9658 5.8729 -6.5734 24.4213 2.8238 -5.5133
# 5 -22.8624 -3.4581 -21.6470 2.8238 45.0709 4.2662
# 6 -12.2342 -3.2402 -6.3709 -5.5133 4.2662 34.2464
#
#
#
# Elastic Compliance Matrix: (Units=1/GPa)
#
#
# Indices 1 2 3 4 5 6 
#
# 1 0.018502 -0.006298 0.000707 0.005079 0.008363 0.005921
# 2 -0.006298 0.035493 -0.008762 -0.011930 -0.003746 -0.001976
# 3 0.000707 -0.008762 0.022605 0.008025 0.009689 0.003714
# 4 0.005079 -0.011930 0.008025 0.048850 0.001522 0.009853
# 5 0.008363 -0.003746 0.009689 0.001522 0.030618 0.000866
# 6 0.005921 -0.001976 0.003714 0.009853 0.000866 0.033298
#
#
# Mechanical properties :
#
#
# Convention : Reuss Voigt Hill
#
# Bulk Modulus (GPa) = 20.88023 28.01475 24.44749
# Shear Modulus (GPa) = 21.36412 29.29835 25.33123
#
# Velocity S-wave (km/s) = 3.19870 3.74587 3.48305
# Velocity P-wave (km/s) = 4.86233 5.66794 5.28052
#
# Compressibility (1/GPa) = 0.04789219
#
# Stress axis : x y z
#
# Youngs Moduli (GPa) = 54.04834 28.17471 44.23770
#
# Poissons Ratio (x) = 0.17745 -0.03126
# Poissons Ratio (y) = 0.34040 0.38763
# Poissons Ratio (z) = -0.03819 0.24688
#
# Static dielectric constant tensor:
#      x y z
#    x 2.208010 0.164830 -0.220280 
#    y 0.164830 1.824290 -0.047590 
#    z -0.220280 -0.047590 1.843920 
# 
# From -- ./inp_files/203679.got.cif
#   From: 2010.05.17/outbox.cif.g08.bks.cpg/sg2_102_cif.got.tgz:203679.got - 2010.06.03 11:33:40.
