data_PCOD9054318
_publ_section_title
;
Structure prediction by ZEFSAII (Michael W. Deem and Ramdas Pophale) SiO2 
 PCOD9054318
Probable space group: P -1
;
_chemical_formula_sum "Si O2"
_cell_formula_units_Z 14
_cell_length_a 13.790042
_cell_length_b 11.399554
_cell_length_c 18.565221
_cell_angle_alpha 32.528305
_cell_angle_beta 23.458301
_cell_angle_gamma 33.898303
_cell_volume 602.485997
_symmetry_space_group_name_H-M "P -1"
_symmetry_group_IT_number 2
_symmetry_cell_setting 'triclinic'
loop_
_space_group_symop_operation_xyz
x,y,z
-x,-y,-z
loop_
_atom_site_type_symbol
_atom_site_label
_atom_site_fract_x
_atom_site_fract_y
_atom_site_fract_z
Si Si1 0.437625 0.260354 0.654216
Si Si2 0.844049 0.543597 0.509715
Si Si3 0.515586 0.043116 0.852396
Si Si4 0.983057 0.945064 0.426752
Si Si5 0.867983 0.671909 0.942264
Si Si6 0.374488 0.471739 0.944893
Si Si7 0.976936 0.757647 0.168642
O O1 0.500000 0.500000 0.500000
O O2 0.257894 0.281265 0.697705
O O3 0.688091 0.047209 0.590198
O O4 0.347270 0.186606 0.829907
O O5 0.557096 0.584582 0.714745
O O6 0.910854 0.723563 0.315024
O O7 0.000000 0.500000 0.500000
O O8 0.934512 0.311252 0.522582
O O9 0.814312 0.023969 0.667038
O O10 0.483691 0.791096 0.002142
O O11 0.414739 0.199103 0.909537
O O12 0.010643 0.120736 0.255108
O O13 0.854521 0.548397 0.940593
O O14 0.000000 0.500000 0.000000
O O15 0.240777 0.589610 0.047262
O O16 0.000000 0.000000 0.000000
#
# Coordination Sequence:
#
# PCOD9054318 Si02
#       7
#     2   2   2   2   2   2   2
#     4  12  25  43  72 108 146 188 238 307 364 427
#     4  12  28  48  77 101 138 201 253 290 360 446
#     4  11  20  42  71 105 144 181 238 294 364 433
#     4  11  22  42  68 106 140 183 246 293 352 441
#     4  11  21  37  69 110 145 180 227 303 368 418
#     4  11  24  48  74 100 147 191 240 298 361 440
#     4  12  31  51  70 110 150 190 246 309 370 429
#
# _framework density 23.237055999999999
#
# number of rings (size 3 to 8) (size 9 to 14) (size 15 to 20)
#    0.000    0.571    2.857    6.429    6.000    2.286 
#    0.000    0.000    0.000    0.000    0.000    0.000 
#    0.000    0.000    0.000    0.000    0.000    0.000 
#
# Total GULP energy -78099.406111 kJ/mol
# GULP energy per Si atom -5578.529008 kJ/mol
# Density = 2.318417 g / cm^3
# Si number density = 23.237056 Si / 1000 Ang^3
#
#
#
# Elastic Constant Matrix: (Units=GPa)
#
#
# Indices 1 2 3 4 5 6 
#
# 1 103.2444 16.0601 27.9686 -13.1428 20.9798 -25.2784
# 2 16.0601 67.9569 36.0829 7.5220 13.5025 -12.4036
# 3 27.9686 36.0829 93.1567 -3.0972 20.1180 4.7255
# 4 -13.1428 7.5220 -3.0972 51.0996 -3.3490 14.8359
# 5 20.9798 13.5025 20.1180 -3.3490 38.1434 -6.3873
# 6 -25.2784 -12.4036 4.7255 14.8359 -6.3873 32.4784
#
#
#
# Elastic Compliance Matrix: (Units=1/GPa)
#
#
# Indices 1 2 3 4 5 6 
#
# 1 0.014475 0.002479 -0.005076 -0.000859 -0.004139 0.012529
# 2 0.002479 0.024120 -0.010680 -0.008376 -0.002314 0.016066
# 3 -0.005076 -0.010680 0.018359 0.005123 -0.005009 -0.014026
# 4 -0.000859 -0.008376 0.005123 0.025633 0.000261 -0.016270
# 5 -0.004139 -0.002314 -0.005009 0.000261 0.032461 0.002888
# 6 0.012529 0.016066 -0.014026 -0.016270 0.002888 0.056718
#
#
# Mechanical properties :
#
#
# Convention : Reuss Voigt Hill
#
# Bulk Modulus (GPa) = 32.89700 47.17568 40.03634
# Shear Modulus (GPa) = 23.98608 36.62738 30.30673
#
# Velocity S-wave (km/s) = 3.21633 3.97451 3.61535
# Velocity P-wave (km/s) = 5.28969 6.43493 5.89021
#
# Compressibility (1/GPa) = 0.03039791
#
# Stress axis : x y z
#
# Youngs Moduli (GPa) = 69.08595 41.46008 54.46869
#
# Poissons Ratio (x) = -0.10277 0.27649
# Poissons Ratio (y) = -0.17125 0.58175
# Poissons Ratio (z) = 0.35069 0.44281
#
# Static dielectric constant tensor:
#      x y z
#    x 2.046650 0.169100 0.228500 
#    y 0.169100 2.059970 0.252840 
#    z 0.228500 0.252840 2.268170 
# 
# From -- ./inp_files/597915.got.cif
#   From: 2010.05.17/outbox.cif.g08.bks.cpg/sg2_299_cif.got.tgz:597915.got - 2010.06.03 11:33:40.
