data_PCOD9054037
_publ_section_title
;
Structure prediction by ZEFSAII (Michael W. Deem and Ramdas Pophale) SiO2 
 PCOD9054037
Probable space group: P -1
;
_chemical_formula_sum "Si O2"
_cell_formula_units_Z 16
_cell_length_a 12.027648
_cell_length_b 9.592677
_cell_length_c 24.492421
_cell_angle_alpha 154.104366
_cell_angle_beta 42.010189
_cell_angle_gamma 131.109686
_cell_volume 825.395364
_symmetry_space_group_name_H-M "P -1"
_symmetry_group_IT_number 2
_symmetry_cell_setting 'triclinic'
loop_
_space_group_symop_operation_xyz
x,y,z
-x,-y,-z
loop_
_atom_site_type_symbol
_atom_site_label
_atom_site_fract_x
_atom_site_fract_y
_atom_site_fract_z
Si Si1 0.968193 0.706108 0.449248
Si Si2 0.404395 0.323307 0.631968
Si Si3 0.777794 0.845813 0.715361
Si Si4 0.483629 0.726244 0.850294
Si Si5 0.282423 0.338741 0.167143
Si Si6 0.394695 0.716903 0.157330
Si Si7 0.570726 0.648105 0.581420
Si Si8 0.880648 0.123187 0.428666
O O1 0.773171 0.630921 0.496402
O O2 0.096492 0.420072 0.283434
O O3 0.035428 0.806145 0.519075
O O4 0.000000 0.000000 0.500000
O O5 0.411841 0.546819 0.761161
O O6 0.491524 0.468141 0.598444
O O7 0.500000 0.000000 0.500000
O O8 0.222897 0.191484 0.640143
O O9 0.638431 0.917721 0.836519
O O10 0.781638 0.458955 0.569319
O O11 0.967988 0.916438 0.683095
O O12 0.721788 0.057267 0.758847
O O13 0.581857 0.525697 0.791113
O O14 0.343792 0.970694 0.010177
O O15 0.303644 0.496282 0.155719
O O16 0.481635 0.980458 0.256166
O O17 0.500000 0.500000 0.000000
O O18 0.500000 0.500000 0.500000
#
# Coordination Sequence:
#
# PCOD9054037 Si02
#       8
#     2   2   2   2   2   2   2   2
#     4  12  21  40  65  93 126 167 215 264 321 374
#     4  12  22  38  61  93 131 166 207 264 324 373
#     4  11  20  40  62  94 117 168 214 258 306 384
#     4  11  22  40  63  95 126 168 216 260 322 380
#     4  11  23  38  67  91 126 169 217 264 313 387
#     4  12  22  41  65  91 124 169 213 256 316 389
#     4  12  26  40  64 100 131 164 218 269 323 378
#     4  11  22  36  66  91 125 162 214 263 313 377
#
# _framework density 19.384649
#
# number of rings (size 3 to 8) (size 9 to 14) (size 15 to 20)
#    0.000    0.500    7.500    0.750    3.500    0.000 
#    0.000    1.250    0.000    6.000    0.000    0.000 
#    0.000    0.000    0.000    0.000    0.000    0.000 
#
# Total GULP energy -89197.954974 kJ/mol
# GULP energy per Si atom -5574.872186 kJ/mol
# Density = 1.934053 g / cm^3
# Si number density = 19.384649 Si / 1000 Ang^3
#
#
#
# Elastic Constant Matrix: (Units=GPa)
#
#
# Indices 1 2 3 4 5 6 
#
# 1 121.0431 50.2040 57.8027 -8.0034 14.5886 2.6588
# 2 50.2040 114.3667 40.2714 -12.7640 1.4391 9.7497
# 3 57.8027 40.2714 142.1943 -21.6050 5.8294 13.0532
# 4 -8.0034 -12.7640 -21.6050 28.2223 -4.7447 -7.6486
# 5 14.5886 1.4391 5.8294 -4.7447 33.1253 0.8584
# 6 2.6588 9.7497 13.0532 -7.6486 0.8584 42.9526
#
#
#
# Elastic Compliance Matrix: (Units=1/GPa)
#
#
# Indices 1 2 3 4 5 6 
#
# 1 0.012396 -0.004283 -0.004040 -0.002018 -0.004882 0.001171
# 2 -0.004283 0.011416 -0.000959 0.003149 0.002049 -0.001515
# 3 -0.004040 -0.000959 0.009924 0.005758 0.000939 -0.001542
# 4 -0.002018 0.003149 0.005758 0.043077 0.005773 0.005216
# 5 -0.004882 0.002049 0.000939 0.005773 0.032913 -0.000078
# 6 0.001171 -0.001515 -0.001542 0.005216 -0.000078 0.024952
#
#
# Mechanical properties :
#
#
# Convention : Reuss Voigt Hill
#
# Bulk Modulus (GPa) = 65.90363 74.90670 70.40516
# Shear Modulus (GPa) = 31.58562 36.14845 33.86703
#
# Velocity S-wave (km/s) = 4.04098 4.32302 4.18437
# Velocity P-wave (km/s) = 7.47291 7.97773 7.72944
#
# Compressibility (1/GPa) = 0.01517367
#
# Stress axis : x y z
#
# Youngs Moduli (GPa) = 80.66883 87.59510 100.76091
#
# Poissons Ratio (x) = 0.37513 0.40710
# Poissons Ratio (y) = 0.34547 0.09662
# Poissons Ratio (z) = 0.32592 0.08399
#
# Static dielectric constant tensor:
#      x y z
#    x 1.769380 -0.011120 0.014500 
#    y -0.011120 1.735410 -0.031810 
#    z 0.014500 -0.031810 1.736080 
# 
# From -- ./inp_files/609952.got.cif
#   From: 2010.05.17/outbox.cif.g08.bks.cpg/sg2_305_cif.got.tgz:609952.got - 2010.06.03 11:33:40.
