data_PCOD9054095
_publ_section_title
;
Structure prediction by ZEFSAII (Michael W. Deem and Ramdas Pophale) SiO2 
 PCOD9054095
Probable space group: P -1
;
_chemical_formula_sum "Si O2"
_cell_formula_units_Z 16
_cell_length_a 8.644941
_cell_length_b 17.625026
_cell_length_c 11.313848
_cell_angle_alpha 40.492540
_cell_angle_beta 57.696825
_cell_angle_gamma 85.043985
_cell_volume 768.671355
_symmetry_space_group_name_H-M "P -1"
_symmetry_group_IT_number 2
_symmetry_cell_setting 'triclinic'
loop_
_space_group_symop_operation_xyz
x,y,z
-x,-y,-z
loop_
_atom_site_type_symbol
_atom_site_label
_atom_site_fract_x
_atom_site_fract_y
_atom_site_fract_z
Si Si1 0.934847 0.431357 0.737764
Si Si2 0.988354 0.968452 0.679964
Si Si3 0.492610 0.136537 0.355985
Si Si4 0.158323 0.350010 0.906806
Si Si5 0.394479 0.508136 0.842951
Si Si6 0.263467 0.721273 0.680659
Si Si7 0.162724 0.359136 0.355473
Si Si8 0.250709 0.904372 0.261254
O O1 0.898090 0.530313 0.718943
O O2 0.000000 0.500000 0.500000
O O3 0.136374 0.426014 0.713119
O O4 0.696426 0.271845 0.036898
O O5 0.823808 0.000041 0.768677
O O6 0.900797 0.803467 0.924272
O O7 0.000000 0.000000 0.500000
O O8 0.242200 0.080403 0.490129
O O9 0.538739 0.183852 0.417746
O O10 0.500000 0.000000 0.500000
O O11 0.363482 0.436703 0.812693
O O12 0.954890 0.324796 0.100260
O O13 0.286501 0.596937 0.777482
O O14 0.650079 0.610367 0.663211
O O15 0.269013 0.394751 0.137246
O O16 0.254093 0.805289 0.476411
O O17 0.936173 0.200814 0.633751
O O18 0.500000 0.000000 0.000000
#
# Coordination Sequence:
#
# PCOD9054095 Si02
#       8
#     2   2   2   2   2   2   2   2
#     4  11  25  43  66 102 148 184 230 296 363 419
#     4  12  23  42  72 103 136 185 246 288 346 435
#     4  11  21  41  69 104 134 187 243 289 345 427
#     4  11  21  41  70 101 133 183 235 289 348 428
#     4  11  21  40  72 103 128 166 245 290 335 414
#     4  11  20  40  68  96 131 180 230 287 342 420
#     4  11  23  42  70 100 133 179 227 290 350 420
#     4  12  27  46  66 102 144 184 233 298 365 416
#
# _framework density 20.815137
#
# number of rings (size 3 to 8) (size 9 to 14) (size 15 to 20)
#    0.000    0.750    7.500    1.875    3.500    2.000 
#    2.250    1.875    0.000    0.000    0.000    0.000 
#    0.000    0.000    0.000    0.000    0.000    0.000 
#
# Total GULP energy -89441.531561 kJ/mol
# GULP energy per Si atom -5590.095723 kJ/mol
# Density = 2.076776 g / cm^3
# Si number density = 20.815137 Si / 1000 Ang^3
#
#
#
# Elastic Constant Matrix: (Units=GPa)
#
#
# Indices 1 2 3 4 5 6 
#
# 1 143.3894 39.3175 50.5510 -5.1873 -17.5471 12.4963
# 2 39.3175 97.1298 50.0872 -27.3453 -16.9245 -12.7419
# 3 50.5510 50.0872 87.3102 -4.5707 -16.8398 3.5677
# 4 -5.1873 -27.3453 -4.5707 28.0675 0.6462 0.1311
# 5 -17.5471 -16.9245 -16.8398 0.6462 42.3611 -6.3038
# 6 12.4963 -12.7419 3.5677 0.1311 -6.3038 46.0041
#
#
#
# Elastic Compliance Matrix: (Units=1/GPa)
#
#
# Indices 1 2 3 4 5 6 
#
# 1 0.009262 -0.002290 -0.003800 -0.001149 0.001025 -0.002712
# 2 -0.002290 0.025808 -0.011554 0.022662 0.005822 0.009400
# 3 -0.003800 -0.011554 0.020255 -0.008678 0.001471 -0.003512
# 4 -0.001149 0.022662 -0.008678 0.055919 0.005443 0.007848
# 5 0.001025 0.005822 0.001471 0.005443 0.027601 0.004987
# 6 -0.002712 0.009400 -0.003512 0.007848 0.004987 0.026011
#
#
# Mechanical properties :
#
#
# Convention : Reuss Voigt Hill
#
# Bulk Modulus (GPa) = 49.91082 67.52672 58.71877
# Shear Modulus (GPa) = 24.17507 35.81146 29.99327
#
# Velocity S-wave (km/s) = 3.41166 4.15233 3.80008
# Velocity P-wave (km/s) = 6.28883 7.44988 6.89384
#
# Compressibility (1/GPa) = 0.02003574
#
# Stress axis : x y z
#
# Youngs Moduli (GPa) = 107.96874 38.74713 49.37027
#
# Poissons Ratio (x) = 0.08874 0.18763
# Poissons Ratio (y) = 0.24726 0.57044
# Poissons Ratio (z) = 0.41033 0.44770
#
# Static dielectric constant tensor:
#      x y z
#    x 1.803560 0.042800 -0.050920 
#    y 0.042800 1.751430 -0.054790 
#    z -0.050920 -0.054790 1.842960 
# 
# From -- ./inp_files/402815.got.cif
#   From: 2010.05.17/outbox.cif.g08.bks.cpg/sg2_202_cif.got.tgz:402815.got - 2010.06.03 11:33:40.
