data_PCOD9054470
_publ_section_title
;
Structure prediction by ZEFSAII (Michael W. Deem and Ramdas Pophale) SiO2 
 PCOD9054470
Probable space group: P -1
;
_chemical_formula_sum "Si O2"
_cell_formula_units_Z 16
_cell_length_a 7.825568
_cell_length_b 11.684354
_cell_length_c 9.706111
_cell_angle_alpha 83.042655
_cell_angle_beta 47.189666
_cell_angle_gamma 107.724668
_cell_volume 547.592034
_symmetry_space_group_name_H-M "P -1"
_symmetry_group_IT_number 2
_symmetry_cell_setting 'triclinic'
loop_
_space_group_symop_operation_xyz
x,y,z
-x,-y,-z
loop_
_atom_site_type_symbol
_atom_site_label
_atom_site_fract_x
_atom_site_fract_y
_atom_site_fract_z
Si Si1 0.123417 0.663028 0.795971
Si Si2 0.020819 0.404992 0.613814
Si Si3 0.595347 0.924892 0.568909
Si Si4 0.018020 0.837583 0.246226
Si Si5 0.529094 0.650395 0.379188
Si Si6 0.387916 0.576759 0.958010
Si Si7 0.059418 0.188209 0.324535
Si Si8 0.757791 0.905325 0.035214
O O1 0.306721 0.787841 0.780207
O O2 0.337038 0.632094 0.615745
O O3 0.829571 0.533610 0.014655
O O4 0.051005 0.723137 0.693436
O O5 0.930718 0.249957 0.659728
O O6 0.352527 0.499539 0.437570
O O7 0.000000 0.500000 0.500000
O O8 0.811128 0.395044 0.846416
O O9 0.797621 0.879568 0.402060
O O10 0.500000 0.000000 0.500000
O O11 0.802201 0.045473 0.540180
O O12 0.842618 0.720417 0.244526
O O13 0.275833 0.975053 0.025266
O O14 0.548593 0.767210 0.250252
O O15 0.500000 0.500000 0.000000
O O16 0.665135 0.719130 0.752971
O O17 0.160058 0.149818 0.134095
O O18 0.000000 0.000000 0.000000
#
# Coordination Sequence:
#
# PCOD9054470 Si02
#       8
#     2   2   2   2   2   2   2   2
#     4   8  15  27  48  74  99 135 177 215 264 326
#     4  11  21  33  52  78 108 145 185 227 273 328
#     4   8  14  27  49  75  99 131 174 221 265 315
#     4   9  18  32  52  79 107 141 182 226 276 332
#     4   9  17  32  52  76 105 138 179 229 276 325
#     4   9  18  32  50  70 100 142 183 218 268 326
#     4   9  15  27  47  74 102 136 173 216 269 326
#     4   9  17  30  50  76 105 136 173 222 274 322
#
# _framework density 29.218831999999999
#
# number of rings (size 3 to 8) (size 9 to 14) (size 15 to 20)
#    0.000    3.000    0.000    1.875    0.000    0.000 
#    0.000    5.625    0.000   18.000    0.000   65.625 
#    0.000    0.000    0.000    0.000    0.000    0.000 
#
# Total GULP energy -89384.132327 kJ/mol
# GULP energy per Si atom -5586.508270 kJ/mol
# Density = 2.915233 g / cm^3
# Si number density = 29.218832 Si / 1000 Ang^3
#
#
#
# Elastic Constant Matrix: (Units=GPa)
#
#
# Indices 1 2 3 4 5 6 
#
# 1 124.8855 49.2631 48.7353 -28.1702 -20.0492 -24.9050
# 2 49.2631 157.2185 85.7443 -34.9135 -9.3714 -8.7526
# 3 48.7353 85.7443 216.5273 -40.0945 -16.0196 10.6828
# 4 -28.1702 -34.9135 -40.0945 64.3321 7.1666 -16.4178
# 5 -20.0492 -9.3714 -16.0196 7.1666 54.8899 -21.3687
# 6 -24.9050 -8.7526 10.6828 -16.4178 -21.3687 51.8443
#
#
#
# Elastic Compliance Matrix: (Units=1/GPa)
#
#
# Indices 1 2 3 4 5 6 
#
# 1 0.014725 -0.000814 -0.001614 0.007397 0.008986 0.013315
# 2 -0.000814 0.009263 -0.002891 0.003603 0.001313 0.003451
# 3 -0.001614 -0.002891 0.006439 0.001173 -0.000263 -0.002327
# 4 0.007397 0.003603 0.001173 0.024406 0.005965 0.014107
# 5 0.008986 0.001313 -0.000263 0.005965 0.027863 0.017966
# 6 0.013315 0.003451 -0.002327 0.014107 0.017966 0.038619
#
#
# Mechanical properties :
#
#
# Convention : Reuss Voigt Hill
#
# Bulk Modulus (GPa) = 50.53402 96.23520 73.38461
# Shear Modulus (GPa) = 36.08834 55.20583 45.64708
#
# Velocity S-wave (km/s) = 3.51822 4.35143 3.95682
# Velocity P-wave (km/s) = 5.81691 7.63244 6.78566
#
# Compressibility (1/GPa) = 0.01978865
#
# Stress axis : x y z
#
# Youngs Moduli (GPa) = 67.91255 107.95941 155.30595
#
# Poissons Ratio (x) = 0.08787 0.25071
# Poissons Ratio (y) = 0.05528 0.44894
# Poissons Ratio (z) = 0.10963 0.31208
#
# Static dielectric constant tensor:
#      x y z
#    x 2.363810 -0.176920 -0.092130 
#    y -0.176920 1.935640 -0.231660 
#    z -0.092130 -0.231660 2.120920 
# 
# From -- ./inp_files/500247.got.cif
#   From: 2010.05.17/outbox.cif.g08.bks.cpg/sg2_251_cif.got.tgz:500247.got - 2010.06.03 11:33:40.
