data_PCOD9054901
_publ_section_title
;
Structure prediction by ZEFSAII (Michael W. Deem and Ramdas Pophale) SiO2 
 PCOD9054901
Probable space group: P -1
;
_chemical_formula_sum "Si O2"
_cell_formula_units_Z 16
_cell_length_a 10.768045
_cell_length_b 14.757070
_cell_length_c 8.250744
_cell_angle_alpha 102.087074
_cell_angle_beta 59.156099
_cell_angle_gamma 139.107441
_cell_volume 698.894662
_symmetry_space_group_name_H-M "P -1"
_symmetry_group_IT_number 2
_symmetry_cell_setting 'triclinic'
loop_
_space_group_symop_operation_xyz
x,y,z
-x,-y,-z
loop_
_atom_site_type_symbol
_atom_site_label
_atom_site_fract_x
_atom_site_fract_y
_atom_site_fract_z
Si Si1 0.232980 0.001935 0.921200
Si Si2 0.899659 0.491665 0.730095
Si Si3 0.325282 0.792460 0.075913
Si Si4 0.576047 0.478503 0.786340
Si Si5 0.229153 0.809295 0.666919
Si Si6 0.759035 0.821424 0.271346
Si Si7 0.968861 0.222922 0.547821
Si Si8 0.617826 0.906299 0.604665
O O1 0.174331 0.876653 0.822769
O O2 0.468471 0.102854 0.893744
O O3 0.250088 0.098725 0.824633
O O4 0.022467 0.924271 0.149857
O O5 0.819791 0.370184 0.851697
O O6 0.692968 0.449344 0.785135
O O7 0.000000 0.500000 0.500000
O O8 0.073288 0.645381 0.762788
O O9 0.152613 0.792521 0.219944
O O10 0.455520 0.848858 0.841601
O O11 0.376808 0.335220 0.759110
O O12 0.765448 0.625749 0.604999
O O13 0.500000 0.500000 0.000000
O O14 0.150070 0.781654 0.524528
O O15 0.486640 0.901368 0.552057
O O16 0.643002 0.812727 0.500164
O O17 0.869438 0.071359 0.530957
#
# Coordination Sequence:
#
# PCOD9054901 Si02
#       8
#     2   2   2   2   2   2   2   2
#     4  11  23  40  66  89 129 163 217 259 315 370
#     4  11  21  39  64  91 127 167 207 262 314 367
#     4  12  24  41  62  97 131 171 205 262 320 381
#     4  11  23  40  68  96 123 157 215 268 315 366
#     4  11  21  39  65  94 121 165 210 268 306 372
#     4  11  23  41  63  97 121 168 214 263 304 381
#     4  11  22  40  65  94 128 165 209 265 314 370
#     4  12  25  38  65  96 131 167 213 256 323 372
#
# _framework density 22.893294000000001
#
# number of rings (size 3 to 8) (size 9 to 14) (size 15 to 20)
#    0.000    0.750    6.250    3.750    1.750    1.000 
#    0.000    0.000    0.000    2.250    0.000    0.000 
#    0.000    0.000    0.000    0.000    0.000    0.000 
#
# Total GULP energy -89463.862619 kJ/mol
# GULP energy per Si atom -5591.491414 kJ/mol
# Density = 2.284119 g / cm^3
# Si number density = 22.893294 Si / 1000 Ang^3
#
#
#
# Elastic Constant Matrix: (Units=GPa)
#
#
# Indices 1 2 3 4 5 6 
#
# 1 29.1960 -1.5775 12.9313 0.5218 -7.3122 -1.6781
# 2 -1.5775 154.3817 44.5697 -7.8811 0.1670 -6.1904
# 3 12.9313 44.5697 137.7624 11.3124 -21.7265 -7.8573
# 4 0.5218 -7.8811 11.3124 34.5072 -3.0075 -8.8875
# 5 -7.3122 0.1670 -21.7265 -3.0075 31.2516 0.3951
# 6 -1.6781 -6.1904 -7.8573 -8.8875 0.3951 21.3802
#
#
#
# Elastic Compliance Matrix: (Units=1/GPa)
#
#
# Indices 1 2 3 4 5 6 
#
# 1 0.037479 0.001439 -0.002892 0.002095 0.006914 0.003039
# 2 0.001439 0.007614 -0.002947 0.003225 -0.001476 0.002602
# 3 -0.002892 -0.002947 0.009708 -0.003018 0.005784 0.001126
# 4 0.002095 0.003225 -0.003018 0.034488 0.001513 0.014297
# 5 0.006914 -0.001476 0.005784 0.001513 0.037763 0.002172
# 6 0.003039 0.002602 0.001126 0.014297 0.002172 0.054081
#
#
# Mechanical properties :
#
#
# Convention : Reuss Voigt Hill
#
# Bulk Modulus (GPa) = 21.73899 48.13191 34.93545
# Shear Modulus (GPa) = 24.35857 35.12222 29.74039
#
# Velocity S-wave (km/s) = 3.26545 3.92110 3.60820
# Velocity P-wave (km/s) = 4.87175 6.44749 5.71419
#
# Compressibility (1/GPa) = 0.04600030
#
# Stress axis : x y z
#
# Youngs Moduli (GPa) = 26.68169 131.34324 103.00710
#
# Poissons Ratio (x) = -0.18903 0.29789
# Poissons Ratio (y) = -0.03840 0.30361
# Poissons Ratio (z) = 0.07716 0.38712
#
# Static dielectric constant tensor:
#      x y z
#    x 1.862180 -0.001090 0.045430 
#    y -0.001090 1.883490 -0.025230 
#    z 0.045430 -0.025230 1.907570 
# 
# From -- ./inp_files/271501.got.cif
#   From: 2010.05.17/outbox.cif.g08.bks.cpg/sg2_136_cif.got.tgz:271501.got - 2010.06.03 11:33:40.
