data_PCOD9054718
_publ_section_title
;
Structure prediction by ZEFSAII (Michael W. Deem and Ramdas Pophale) SiO2 
 PCOD9054718
Probable space group: P -1
;
_chemical_formula_sum "Si O2"
_cell_formula_units_Z 16
_cell_length_a 15.982878
_cell_length_b 7.332172
_cell_length_c 9.432316
_cell_angle_alpha 81.511532
_cell_angle_beta 49.384534
_cell_angle_gamma 60.457681
_cell_volume 704.389188
_symmetry_space_group_name_H-M "P -1"
_symmetry_group_IT_number 2
_symmetry_cell_setting 'triclinic'
loop_
_space_group_symop_operation_xyz
x,y,z
-x,-y,-z
loop_
_atom_site_type_symbol
_atom_site_label
_atom_site_fract_x
_atom_site_fract_y
_atom_site_fract_z
Si Si1 0.628766 0.351245 0.790629
Si Si2 0.046574 0.872597 0.755048
Si Si3 0.357088 0.046231 0.686338
Si Si4 0.216281 0.463281 0.427247
Si Si5 0.117405 0.432671 0.269457
Si Si6 0.256155 0.003512 0.512929
Si Si7 0.773121 0.041647 0.917408
Si Si8 0.110072 0.529501 0.948852
O O1 0.667154 0.508964 0.655626
O O2 0.636699 0.179224 0.688979
O O3 0.500000 0.500000 0.000000
O O4 0.731350 0.207574 0.816342
O O5 0.096340 0.676510 0.606765
O O6 0.131308 0.981881 0.631831
O O7 0.106784 0.984211 0.120839
O O8 0.088059 0.743984 0.872944
O O9 0.226188 0.242966 0.485530
O O10 0.249366 0.307089 0.792952
O O11 0.500000 0.000000 0.500000
O O12 0.340128 0.932235 0.856733
O O13 0.213282 0.461181 0.260748
O O14 0.000000 0.500000 0.500000
O O15 0.178144 0.185457 0.188280
O O16 0.088132 0.552144 0.138388
O O17 0.308507 0.964503 0.618633
O O18 0.000000 0.500000 0.000000
#
# Coordination Sequence:
#
# PCOD9054718 Si02
#       8
#     2   2   2   2   2   2   2   2
#     4  11  28  46  69 103 145 191 246 294 349 439
#     4  11  23  45  72 108 146 179 242 301 356 434
#     4  11  26  45  73 104 146 192 239 298 359 438
#     4  11  23  44  70 104 144 183 231 298 358 429
#     4  11  21  37  71 107 142 185 226 293 375 417
#     4  11  26  45  76 103 139 198 233 294 375 416
#     4  11  24  45  68 110 145 184 244 302 352 431
#     4  11  21  42  70 106 146 185 241 299 358 424
#
# _framework density 22.714715999999999
#
# number of rings (size 3 to 8) (size 9 to 14) (size 15 to 20)
#    0.000    1.000    6.250    0.000    1.750    7.000 
#    0.000    1.250    0.000    0.000    0.000    0.000 
#    0.000    0.000    0.000    0.000    0.000    0.000 
#
# Total GULP energy -89450.930438 kJ/mol
# GULP energy per Si atom -5590.683152 kJ/mol
# Density = 2.266302 g / cm^3
# Si number density = 22.714716 Si / 1000 Ang^3
#
#
#
# Elastic Constant Matrix: (Units=GPa)
#
#
# Indices 1 2 3 4 5 6 
#
# 1 80.4268 35.8861 42.3092 5.1376 19.4752 20.5526
# 2 35.8861 100.3962 36.9254 -2.8163 4.2880 25.3757
# 3 42.3092 36.9254 134.6765 8.1733 10.8264 7.3952
# 4 5.1376 -2.8163 8.1733 37.4857 -10.0900 -2.5067
# 5 19.4752 4.2880 10.8264 -10.0900 46.8406 -6.1071
# 6 20.5526 25.3757 7.3952 -2.5067 -6.1071 35.8846
#
#
#
# Elastic Compliance Matrix: (Units=1/GPa)
#
#
# Indices 1 2 3 4 5 6 
#
# 1 0.022011 -0.003039 -0.004203 -0.006011 -0.010740 -0.011839
# 2 -0.003039 0.013917 -0.002534 0.001493 -0.000079 -0.007487
# 3 -0.004203 -0.002534 0.009445 -0.001608 -0.000277 0.002093
# 4 -0.006011 0.001493 -0.001608 0.031186 0.010320 0.006654
# 5 -0.010740 -0.000079 -0.000277 0.010320 0.029678 0.012036
# 6 -0.011839 -0.007487 0.002093 0.006654 0.012036 0.042024
#
#
# Mechanical properties :
#
#
# Convention : Reuss Voigt Hill
#
# Bulk Modulus (GPa) = 38.72938 60.63787 49.68362
# Shear Modulus (GPa) = 28.34118 37.40076 32.87097
#
# Velocity S-wave (km/s) = 3.53611 4.06216 3.80823
# Velocity P-wave (km/s) = 5.81029 6.98247 6.42318
#
# Compressibility (1/GPa) = 0.02582019
#
# Stress axis : x y z
#
# Youngs Moduli (GPa) = 45.43159 71.85653 105.87223
#
# Poissons Ratio (x) = 0.21839 0.44501
# Poissons Ratio (y) = 0.13808 0.26827
# Poissons Ratio (z) = 0.19096 0.18208
#
# Static dielectric constant tensor:
#      x y z
#    x 1.886490 -0.015230 -0.013790 
#    y -0.015230 1.891970 -0.011960 
#    z -0.013790 -0.011960 1.885750 
# 
# From -- ./inp_files/328676.got.cif
#   From: 2010.05.17/outbox.cif.g08.bks.cpg/sg2_165_cif.got.tgz:328676.got - 2010.06.03 11:33:40.
