data_PCOD9054405
_publ_section_title
;
Structure prediction by ZEFSAII (Michael W. Deem and Ramdas Pophale) SiO2 
 PCOD9054405
Probable space group: P -1
;
_chemical_formula_sum "Si O2"
_cell_formula_units_Z 16
_cell_length_a 8.143917
_cell_length_b 17.189730
_cell_length_c 9.796204
_cell_angle_alpha 129.876943
_cell_angle_beta 135.191722
_cell_angle_gamma 63.200606
_cell_volume 741.669066
_symmetry_space_group_name_H-M "P -1"
_symmetry_group_IT_number 2
_symmetry_cell_setting 'triclinic'
loop_
_space_group_symop_operation_xyz
x,y,z
-x,-y,-z
loop_
_atom_site_type_symbol
_atom_site_label
_atom_site_fract_x
_atom_site_fract_y
_atom_site_fract_z
Si Si1 0.352148 0.837103 0.001055
Si Si2 0.539925 0.035264 0.218038
Si Si3 0.100156 0.796257 0.361394
Si Si4 0.700354 0.728816 0.259895
Si Si5 0.380623 0.676900 0.595172
Si Si6 0.040047 0.470656 0.831782
Si Si7 0.914773 0.671427 0.864589
Si Si8 0.842391 0.809706 0.727560
O O1 0.456596 0.766849 0.101694
O O2 0.506520 0.936999 0.181771
O O3 0.356997 0.769512 0.790998
O O4 0.087310 0.865124 0.905568
O O5 0.784311 0.093487 0.445785
O O6 0.339745 0.115210 0.227108
O O7 0.500000 0.000000 0.000000
O O8 0.300825 0.720399 0.450217
O O9 0.893892 0.779220 0.329713
O O10 0.006279 0.758922 0.119099
O O11 0.742222 0.767595 0.479825
O O12 0.750703 0.609183 0.144762
O O13 0.191116 0.591214 0.421669
O O14 0.647509 0.644827 0.718320
O O15 0.062755 0.571615 0.869680
O O16 0.000000 0.500000 0.000000
O O17 0.901377 0.716505 0.757213
#
# Coordination Sequence:
#
# PCOD9054405 Si02
#       8
#     2   2   2   2   2   2   2   2
#     4  12  24  46  69  97 144 190 216 283 359 399
#     4  12  25  46  74 101 134 183 235 283 345 410
#     4  11  22  44  70 103 136 175 240 287 324 412
#     4  11  25  46  68 100 145 176 230 284 340 404
#     4  11  20  44  69 102 140 179 230 288 329 409
#     4  11  21  42  76 103 133 183 237 277 338 409
#     4  12  24  42  73 103 137 186 229 284 345 398
#     4  12  27  46  66 103 147 173 229 289 342 411
#
# _framework density 21.572963000000001
#
# number of rings (size 3 to 8) (size 9 to 14) (size 15 to 20)
#    0.000    0.500    8.750    0.750    1.750    1.500 
#    2.250    0.625    0.000    0.000    0.000    0.000 
#    0.000    0.000    0.000    0.000    0.000    0.000 
#
# Total GULP energy -89521.116067 kJ/mol
# GULP energy per Si atom -5595.069754 kJ/mol
# Density = 2.152386 g / cm^3
# Si number density = 21.572963 Si / 1000 Ang^3
#
#
#
# Elastic Constant Matrix: (Units=GPa)
#
#
# Indices 1 2 3 4 5 6 
#
# 1 39.8418 9.0204 -2.9434 2.9351 -12.7732 -15.4275
# 2 9.0204 87.6272 12.7714 0.4243 -5.8369 -7.3524
# 3 -2.9434 12.7714 77.6885 -6.4937 -0.1617 -4.3798
# 4 2.9351 0.4243 -6.4937 41.1432 3.0486 5.6506
# 5 -12.7732 -5.8369 -0.1617 3.0486 19.3670 2.9605
# 6 -15.4275 -7.3524 -4.3798 5.6506 2.9605 32.9279
#
#
#
# Elastic Compliance Matrix: (Units=1/GPa)
#
#
# Indices 1 2 3 4 5 6 
#
# 1 0.041182 -0.001338 0.002281 -0.006927 0.025080 0.018233
# 2 -0.001338 0.012166 -0.002013 -0.000779 0.002627 0.001719
# 3 0.002281 -0.002013 0.013549 0.001677 0.000427 0.002095
# 4 -0.006927 -0.000779 0.001677 0.026627 -0.007902 -0.007055
# 5 0.025080 0.002627 0.000427 -0.007902 0.069062 0.007541
# 6 0.018233 0.001719 0.002095 -0.007055 0.007541 0.040107
#
#
# Mechanical properties :
#
#
# Convention : Reuss Voigt Hill
#
# Bulk Modulus (GPa) = 15.44240 26.98378 21.21309
# Shear Modulus (GPa) = 22.08314 31.10825 26.59569
#
# Velocity S-wave (km/s) = 3.20292 3.80149 3.51497
# Velocity P-wave (km/s) = 4.56640 5.63948 5.13107
#
# Compressibility (1/GPa) = 0.06475678
#
# Stress axis : x y z
#
# Youngs Moduli (GPa) = 24.28263 82.19503 73.80877
#
# Poissons Ratio (x) = 0.10996 -0.16838
# Poissons Ratio (y) = 0.03248 0.14861
# Poissons Ratio (z) = -0.05540 0.16549
#
# Static dielectric constant tensor:
#      x y z
#    x 1.803220 -0.002950 0.032740 
#    y -0.002950 1.807770 -0.001020 
#    z 0.032740 -0.001020 1.750400 
# 
# From -- ./inp_files/216045.got.cif
#   From: 2010.05.17/outbox.cif.g08.bks.cpg/sg2_109_cif.got.tgz:216045.got - 2010.06.03 11:33:40.
