data_PCOD9054220
_publ_section_title
;
Structure prediction by ZEFSAII (Michael W. Deem and Ramdas Pophale) SiO2 
 PCOD9054220
Probable space group: P -1
;
_chemical_formula_sum "Si O2"
_cell_formula_units_Z 16
_cell_length_a 12.290159
_cell_length_b 7.606664
_cell_length_c 8.494659
_cell_angle_alpha 93.912928
_cell_angle_beta 109.237961
_cell_angle_gamma 123.790558
_cell_volume 590.264067
_symmetry_space_group_name_H-M "P -1"
_symmetry_group_IT_number 2
_symmetry_cell_setting 'triclinic'
loop_
_space_group_symop_operation_xyz
x,y,z
-x,-y,-z
loop_
_atom_site_type_symbol
_atom_site_label
_atom_site_fract_x
_atom_site_fract_y
_atom_site_fract_z
Si Si1 0.685939 0.322753 0.924951
Si Si2 0.107789 0.570462 0.242428
Si Si3 0.912522 0.699479 0.272759
Si Si4 0.724732 0.335378 0.381135
Si Si5 0.335815 0.273038 0.409760
Si Si6 0.031120 0.127799 0.189478
Si Si7 0.630991 0.858960 0.248702
Si Si8 0.411966 0.156835 0.124420
O O1 0.821774 0.391805 0.889232
O O2 0.540074 0.278885 0.790976
O O3 0.622708 0.079211 0.938037
O O4 0.762950 0.520744 0.097664
O O5 0.250404 0.681844 0.426612
O O6 0.995216 0.300397 0.188150
O O7 0.035756 0.687600 0.258173
O O8 0.869541 0.575972 0.411205
O O9 0.956627 0.940413 0.277642
O O10 0.582219 0.312735 0.266345
O O11 0.708326 0.122506 0.293994
O O12 0.500000 0.500000 0.500000
O O13 0.205066 0.281792 0.307013
O O14 0.305173 0.177823 0.568505
O O15 0.331377 0.140782 0.245236
O O16 0.000000 0.000000 0.000000
O O17 0.623069 0.784624 0.057477
#
# Coordination Sequence:
#
# PCOD9054220 Si02
#       8
#     2   2   2   2   2   2   2   2
#     4  11  20  41  70 105 136 181 249 302 356 439
#     4  12  26  43  73 100 144 202 234 309 374 427
#     4  12  24  44  71 104 145 189 246 296 366 445
#     4  11  22  43  69 108 146 181 249 310 364 439
#     4  12  28  47  70 107 150 194 251 307 368 440
#     4  12  28  47  72 108 149 193 251 301 362 453
#     4  11  22  43  73 106 142 187 250 308 362 444
#     4  11  22  42  76 105 140 195 247 305 374 434
#
# _framework density 27.10651
#
# number of rings (size 3 to 8) (size 9 to 14) (size 15 to 20)
#    0.000    0.500    3.750    6.000    1.750    3.000 
#    0.000    2.500    0.000    0.000    0.000    0.000 
#    0.000    0.000    0.000    0.000    0.000    0.000 
#
# Total GULP energy -89531.948058 kJ/mol
# GULP energy per Si atom -5595.746754 kJ/mol
# Density = 2.704481 g / cm^3
# Si number density = 27.106510 Si / 1000 Ang^3
#
#
#
# Elastic Constant Matrix: (Units=GPa)
#
#
# Indices 1 2 3 4 5 6 
#
# 1 77.1647 16.7790 27.2281 -10.6551 19.2282 3.6590
# 2 16.7790 104.3598 10.9337 5.5066 -4.6654 -2.7732
# 3 27.2281 10.9337 149.6887 -10.4804 9.2729 -14.9397
# 4 -10.6551 5.5066 -10.4804 46.5484 8.6442 -3.0855
# 5 19.2282 -4.6654 9.2729 8.6442 28.9375 1.4759
# 6 3.6590 -2.7732 -14.9397 -3.0855 1.4759 35.7825
#
#
#
# Elastic Compliance Matrix: (Units=1/GPa)
#
#
# Indices 1 2 3 4 5 6 
#
# 1 0.019290 -0.003979 -0.001993 0.007067 -0.014835 -0.001892
# 2 -0.003979 0.010717 -0.000584 -0.003304 0.005521 0.000481
# 3 -0.001993 -0.000584 0.007710 0.001963 -0.002012 0.003630
# 4 0.007067 -0.003304 0.001963 0.026709 -0.013975 0.002720
# 5 -0.014835 0.005521 -0.002012 -0.013975 0.050235 -0.002172
# 6 -0.001892 0.000481 0.003630 0.002720 -0.002172 0.030017
#
#
# Mechanical properties :
#
#
# Convention : Reuss Voigt Hill
#
# Bulk Modulus (GPa) = 40.64355 49.01053 44.82704
# Shear Modulus (GPa) = 30.12174 40.67184 35.39679
#
# Velocity S-wave (km/s) = 3.33714 3.87776 3.61756
# Velocity P-wave (km/s) = 5.46582 6.17813 5.83286
#
# Compressibility (1/GPa) = 0.02460415
#
# Stress axis : x y z
#
# Youngs Moduli (GPa) = 51.84023 93.30844 129.69925
#
# Poissons Ratio (x) = 0.37128 0.25851
# Poissons Ratio (y) = 0.20627 0.07580
# Poissons Ratio (z) = 0.10333 0.05453
#
# Static dielectric constant tensor:
#      x y z
#    x 2.091590 -0.010620 -0.031060 
#    y -0.010620 2.115450 -0.025540 
#    z -0.031060 -0.025540 2.159700 
# 
# From -- ./inp_files/295567.got.cif
#   From: 2010.05.17/outbox.cif.g08.bks.cpg/sg2_148_cif.got.tgz:295567.got - 2010.06.03 11:33:40.
