data_PCOD9054210
_publ_section_title
;
Structure prediction by ZEFSAII (Michael W. Deem and Ramdas Pophale) SiO2 
 PCOD9054210
Probable space group: P -1
;
_chemical_formula_sum "Si O2"
_cell_formula_units_Z 13
_cell_length_a 8.902139
_cell_length_b 8.742851
_cell_length_c 11.622594
_cell_angle_alpha 129.397512
_cell_angle_beta 54.763462
_cell_angle_gamma 126.950767
_cell_volume 529.924742
_symmetry_space_group_name_H-M "P -1"
_symmetry_group_IT_number 2
_symmetry_cell_setting 'triclinic'
loop_
_space_group_symop_operation_xyz
x,y,z
-x,-y,-z
loop_
_atom_site_type_symbol
_atom_site_label
_atom_site_fract_x
_atom_site_fract_y
_atom_site_fract_z
Si Si1 0.409353 0.237724 0.560501
Si Si2 0.143644 0.985174 0.227030
Si Si3 0.747389 0.349223 0.857975
Si Si4 0.428867 0.678409 0.822256
Si Si5 0.916711 0.213871 0.083641
Si Si6 0.000000 0.000000 0.500000
Si Si7 0.630903 0.940219 0.255940
O O1 0.486525 0.489451 0.659056
O O2 0.568843 0.140227 0.405983
O O3 0.343542 0.153760 0.678785
O O4 0.227099 0.155565 0.515077
O O5 0.373177 0.112481 0.162924
O O6 0.130410 0.811492 0.254177
O O7 0.037840 0.113098 0.404292
O O8 0.053009 0.869713 0.095575
O O9 0.893159 0.582086 0.866161
O O10 0.558765 0.234404 0.807132
O O11 0.666005 0.366693 0.029703
O O12 0.260224 0.703358 0.829002
O O13 0.817252 0.025129 0.128203
#
# Coordination Sequence:
#
# PCOD9054210 Si02
#       7
#     2   2   2   2   2   1   2
#     4  11  26  43  66  97 138 172 216 274 329 387
#     4  11  21  39  67 100 131 170 221 277 319 386
#     4  11  20  41  69  96 132 173 219 270 327 387
#     4  11  21  40  68  99 129 175 226 265 322 392
#     4  11  21  41  73  96 128 176 224 268 325 390
#     4  12  22  42  64  94 130 172 222 266 310 400
#     4  11  24  48  64  98 140 172 209 277 340 381
#
# _framework density 24.531784999999999
#
# number of rings (size 3 to 8) (size 9 to 14) (size 15 to 20)
#    0.000    0.923    4.615    4.615    0.000    4.308 
#    2.769    3.077    0.000    0.000    0.000    0.000 
#    0.000    0.000    0.000    0.000    0.000    0.000 
#
# Total GULP energy -72612.989736 kJ/mol
# GULP energy per Si atom -5585.614595 kJ/mol
# Density = 2.447595 g / cm^3
# Si number density = 24.531785 Si / 1000 Ang^3
#
#
#
# Elastic Constant Matrix: (Units=GPa)
#
#
# Indices 1 2 3 4 5 6 
#
# 1 85.1857 45.4542 28.4882 9.3270 21.0851 1.9032
# 2 45.4542 87.0401 46.3719 0.0939 17.0598 13.1155
# 3 28.4882 46.3719 93.0666 -3.4779 17.9827 -3.8157
# 4 9.3270 0.0939 -3.4779 45.8133 2.2236 1.8714
# 5 21.0851 17.0598 17.9827 2.2236 43.3481 -11.3352
# 6 1.9032 13.1155 -3.8157 1.8714 -11.3352 26.2043
#
#
#
# Elastic Compliance Matrix: (Units=1/GPa)
#
#
# Indices 1 2 3 4 5 6 
#
# 1 0.017860 -0.008239 -0.000524 -0.003463 -0.004810 0.000917
# 2 -0.008239 0.023966 -0.008846 0.001869 -0.005866 -0.015356
# 3 -0.000524 -0.008846 0.015858 0.001141 -0.001297 0.006132
# 4 -0.003463 0.001869 0.001141 0.022797 -0.001415 -0.002758
# 5 -0.004810 -0.005866 -0.001297 -0.001415 0.032884 0.017422
# 6 0.000917 -0.015356 0.006132 -0.002758 0.017422 0.054407
#
#
# Mechanical properties :
#
#
# Convention : Reuss Voigt Hill
#
# Bulk Modulus (GPa) = 44.51293 56.21343 50.36318
# Shear Modulus (GPa) = 23.75557 32.73836 28.24696
#
# Velocity S-wave (km/s) = 3.11522 3.65708 3.39697
# Velocity P-wave (km/s) = 5.57888 6.38722 5.99669
#
# Compressibility (1/GPa) = 0.02246538
#
# Stress axis : x y z
#
# Youngs Moduli (GPa) = 55.99109 41.72597 63.06129
#
# Poissons Ratio (x) = 0.34380 0.03305
# Poissons Ratio (y) = 0.46133 0.55781
# Poissons Ratio (z) = 0.02934 0.36909
#
# Static dielectric constant tensor:
#      x y z
#    x 1.840320 -0.022100 0.166720 
#    y -0.022100 1.952270 -0.006730 
#    z 0.166720 -0.006730 1.350930 
# 
# From -- ./inp_files/158243.got.cif
#   From: 2010.05.17/outbox.cif.g08.bks.cpg/sg2_80_cif.got.tgz:158243.got - 2010.06.03 11:33:40.
