data_PCOD9054192
_publ_section_title
;
Structure prediction by ZEFSAII (Michael W. Deem and Ramdas Pophale) SiO2 
 PCOD9054192
Probable space group: P -1
;
_chemical_formula_sum "Si O2"
_cell_formula_units_Z 16
_cell_length_a 16.102865
_cell_length_b 11.923678
_cell_length_c 7.308794
_cell_angle_alpha 93.253392
_cell_angle_beta 78.429393
_cell_angle_gamma 36.170521
_cell_volume 751.134676
_symmetry_space_group_name_H-M "P -1"
_symmetry_group_IT_number 2
_symmetry_cell_setting 'triclinic'
loop_
_space_group_symop_operation_xyz
x,y,z
-x,-y,-z
loop_
_atom_site_type_symbol
_atom_site_label
_atom_site_fract_x
_atom_site_fract_y
_atom_site_fract_z
Si Si1 0.336467 0.792816 0.103645
Si Si2 0.857382 0.616020 0.452316
Si Si3 0.707679 0.978962 0.331125
Si Si4 0.356396 0.349486 0.408019
Si Si5 0.663598 0.271098 0.337637
Si Si6 0.316933 0.565017 0.116538
Si Si7 0.079553 0.205637 0.118152
Si Si8 0.170817 0.692295 0.813546
O O1 0.291671 0.722476 0.201653
O O2 0.212375 0.029739 0.191996
O O3 0.350443 0.750630 0.872553
O O4 0.510257 0.631010 0.065613
O O5 0.763792 0.823815 0.432093
O O6 0.733712 0.665820 0.595754
O O7 0.000000 0.500000 0.500000
O O8 0.948569 0.439349 0.247707
O O9 0.539991 0.134084 0.335135
O O10 0.697628 0.118987 0.417302
O O11 0.834534 0.845653 0.102789
O O12 0.316660 0.481193 0.277417
O O13 0.289957 0.478218 0.635437
O O14 0.500000 0.500000 0.500000
O O15 0.792327 0.225634 0.276561
O O16 0.202704 0.661256 0.012369
O O17 0.995977 0.177618 0.129853
#
# Coordination Sequence:
#
# PCOD9054192 Si02
#       8
#     2   2   2   2   2   2   2   2
#     4   9  19  35  61  97 133 163 197 265 310 388
#     4  11  27  46  61  90 125 167 221 272 310 373
#     4  11  22  42  68  88 127 175 206 262 316 372
#     4  11  22  45  65  93 129 162 222 261 312 382
#     4  10  17  35  63  97 128 161 208 249 317 382
#     4  10  19  36  64  97 132 159 213 249 319 376
#     4  10  22  44  64  90 132 164 210 260 328 374
#     4  10  22  36  66 100 129 170 200 259 322 383
#
# _framework density 21.301106000000001
#
# number of rings (size 3 to 8) (size 9 to 14) (size 15 to 20)
#    0.000    1.750    3.750    0.750    1.750    5.500 
#    4.500    1.875    0.000    0.000    0.000    0.000 
#    0.000    0.000    0.000    0.000    0.000    0.000 
#
# Total GULP energy -89370.857004 kJ/mol
# GULP energy per Si atom -5585.678563 kJ/mol
# Density = 2.125262 g / cm^3
# Si number density = 21.301106 Si / 1000 Ang^3
#
#
#
# Elastic Constant Matrix: (Units=GPa)
#
#
# Indices 1 2 3 4 5 6 
#
# 1 115.0245 28.7238 26.8795 -6.9104 -24.6525 10.7983
# 2 28.7238 100.7010 19.9980 -13.0054 -7.1060 34.3401
# 3 26.8795 19.9980 67.7289 1.8727 -17.1206 9.0192
# 4 -6.9104 -13.0054 1.8727 32.4352 5.1139 -10.7208
# 5 -24.6525 -7.1060 -17.1206 5.1139 28.5313 -3.3629
# 6 10.7983 34.3401 9.0192 -10.7208 -3.3629 36.0574
#
#
#
# Elastic Compliance Matrix: (Units=1/GPa)
#
#
# Indices 1 2 3 4 5 6 
#
# 1 0.011464 -0.002319 -0.001820 0.000361 0.008183 0.000101
# 2 -0.002319 0.015723 -0.002350 0.001770 -0.001382 -0.013295
# 3 -0.001820 -0.002350 0.019154 -0.004831 0.009904 -0.002520
# 4 0.000361 0.001770 -0.004831 0.036216 -0.007520 0.009481
# 5 0.008183 -0.001382 0.009904 -0.007520 0.048916 -0.001286
# 6 0.000101 -0.013295 -0.002520 0.009481 -0.001286 0.043694
#
#
# Mechanical properties :
#
#
# Convention : Reuss Voigt Hill
#
# Bulk Modulus (GPa) = 29.97313 48.29522 39.13417
# Shear Modulus (GPa) = 25.09208 33.26165 29.17687
#
# Velocity S-wave (km/s) = 3.43588 3.95587 3.70501
# Velocity P-wave (km/s) = 5.46279 6.60205 6.05925
#
# Compressibility (1/GPa) = 0.03336322
#
# Stress axis : x y z
#
# Youngs Moduli (GPa) = 87.22754 63.60006 52.20898
#
# Poissons Ratio (x) = 0.14749 0.09502
# Poissons Ratio (y) = 0.20228 0.12270
# Poissons Ratio (z) = 0.15875 0.14947
#
# Static dielectric constant tensor:
#      x y z
#    x 1.799740 0.020070 0.025370 
#    y 0.020070 1.774100 -0.001560 
#    z 0.025370 -0.001560 1.791020 
# 
# From -- ./inp_files/307490.got.cif
#   From: 2010.05.17/outbox.cif.g08.bks.cpg/sg2_154_cif.got.tgz:307490.got - 2010.06.03 11:33:40.
