data_PCOD9054234
_publ_section_title
;
Structure prediction by ZEFSAII (Michael W. Deem and Ramdas Pophale) SiO2 
 PCOD9054234
Probable space group: P -1
;
_chemical_formula_sum "Si O2"
_cell_formula_units_Z 16
_cell_length_a 9.094240
_cell_length_b 23.436655
_cell_length_c 10.393576
_cell_angle_alpha 37.598648
_cell_angle_beta 46.746880
_cell_angle_gamma 28.370434
_cell_volume 641.695024
_symmetry_space_group_name_H-M "P -1"
_symmetry_group_IT_number 2
_symmetry_cell_setting 'triclinic'
loop_
_space_group_symop_operation_xyz
x,y,z
-x,-y,-z
loop_
_atom_site_type_symbol
_atom_site_label
_atom_site_fract_x
_atom_site_fract_y
_atom_site_fract_z
Si Si1 0.875994 0.546316 0.207185
Si Si2 0.030149 0.855317 0.454781
Si Si3 0.909753 0.400413 0.683301
Si Si4 0.705575 0.092748 0.415745
Si Si5 0.456758 0.406914 0.212145
Si Si6 0.510673 0.826145 0.091586
Si Si7 0.811493 0.861881 0.318514
Si Si8 0.350055 0.693991 0.078595
O O1 0.859010 0.468027 0.458658
O O2 0.691430 0.703045 0.092969
O O3 0.691505 0.576283 0.142353
O O4 0.239100 0.441619 0.170741
O O5 0.231162 0.747357 0.647551
O O6 0.223783 0.865171 0.242589
O O7 0.942995 0.811576 0.475649
O O8 0.754522 0.003348 0.427837
O O9 0.764618 0.521605 0.657725
O O10 0.720923 0.370903 0.847961
O O11 0.250424 0.254274 0.788673
O O12 0.403961 0.152513 0.556991
O O13 0.693243 0.196351 0.169320
O O14 0.000000 0.000000 0.500000
O O15 0.500000 0.500000 0.000000
O O16 0.394380 0.970115 0.866387
O O17 0.095063 0.775220 0.202937
#
# Coordination Sequence:
#
# PCOD9054234 Si02
#       8
#     2   2   2   2   2   2   2   2
#     4  11  22  44  68  99 129 179 231 277 333 410
#     4  12  23  46  71  99 136 178 232 283 339 406
#     4  11  23  43  66  99 135 180 227 277 337 411
#     4  12  30  45  67 105 142 178 230 282 341 414
#     4  11  25  41  70 100 137 180 229 279 339 404
#     4  11  20  41  71  95 130 176 232 273 338 398
#     4  12  26  45  73 102 135 184 228 285 342 399
#     4  12  26  45  71  99 144 181 225 283 347 398
#
# _framework density 24.933962000000001
#
# number of rings (size 3 to 8) (size 9 to 14) (size 15 to 20)
#    0.000    0.500    5.000    3.375    8.750    1.000 
#    0.000    0.625    0.000    0.000    0.000    0.000 
#    0.000    0.000    0.000    0.000    0.000    0.000 
#
# Total GULP energy -89626.573014 kJ/mol
# GULP energy per Si atom -5601.660813 kJ/mol
# Density = 2.487721 g / cm^3
# Si number density = 24.933962 Si / 1000 Ang^3
#
#
#
# Elastic Constant Matrix: (Units=GPa)
#
#
# Indices 1 2 3 4 5 6 
#
# 1 127.8096 43.2658 24.7272 10.6689 1.2198 -29.7987
# 2 43.2658 79.8045 24.7426 6.8201 2.9305 -3.1985
# 3 24.7272 24.7426 104.6672 11.6678 -15.2660 -25.1573
# 4 10.6689 6.8201 11.6678 33.4008 -6.4453 -6.8067
# 5 1.2198 2.9305 -15.2660 -6.4453 40.0321 1.9361
# 6 -29.7987 -3.1985 -25.1573 -6.8067 1.9361 58.7751
#
#
#
# Elastic Compliance Matrix: (Units=1/GPa)
#
#
# Indices 1 2 3 4 5 6 
#
# 1 0.011061 -0.005679 0.000078 -0.001417 -0.000370 0.005180
# 2 -0.005679 0.016842 -0.003715 -0.001564 -0.002552 -0.003650
# 3 0.000078 -0.003715 0.012419 -0.001760 0.004490 0.004801
# 4 -0.001417 -0.001564 -0.001760 0.032644 0.004642 0.002071
# 5 -0.000370 -0.002552 0.004490 0.004642 0.027578 0.001224
# 6 0.005180 -0.003650 0.004801 0.002071 0.001224 0.021697
#
#
# Mechanical properties :
#
#
# Convention : Reuss Voigt Hill
#
# Bulk Modulus (GPa) = 46.10084 55.30581 50.70332
# Shear Modulus (GPa) = 33.76066 41.07797 37.41932
#
# Velocity S-wave (km/s) = 3.68367 4.06331 3.87814
# Velocity P-wave (km/s) = 6.05160 6.65154 6.35865
#
# Compressibility (1/GPa) = 0.02169158
#
# Stress axis : x y z
#
# Youngs Moduli (GPa) = 90.40848 59.37503 80.52285
#
# Poissons Ratio (x) = 0.33717 -0.00631
# Poissons Ratio (y) = 0.51340 0.29913
# Poissons Ratio (z) = -0.00709 0.22057
#
# Static dielectric constant tensor:
#      x y z
#    x 1.998020 0.047120 0.047540 
#    y 0.047120 2.108590 0.087510 
#    z 0.047540 0.087510 1.974720 
# 
# From -- ./inp_files/226680.got.cif
#   From: 2010.05.17/outbox.cif.g08.bks.cpg/sg2_114_cif.got.tgz:226680.got - 2010.06.03 11:33:40.
