data_PCOD9054675
_publ_section_title
;
Structure prediction by ZEFSAII (Michael W. Deem and Ramdas Pophale) SiO2 
 PCOD9054675
Probable space group: P -1
;
_chemical_formula_sum "Si O2"
_cell_formula_units_Z 16
_cell_length_a 5.709863
_cell_length_b 20.173660
_cell_length_c 8.531251
_cell_angle_alpha 128.235239
_cell_angle_beta 101.525199
_cell_angle_gamma 54.227629
_cell_volume 605.702953
_symmetry_space_group_name_H-M "P -1"
_symmetry_group_IT_number 2
_symmetry_cell_setting 'triclinic'
loop_
_space_group_symop_operation_xyz
x,y,z
-x,-y,-z
loop_
_atom_site_type_symbol
_atom_site_label
_atom_site_fract_x
_atom_site_fract_y
_atom_site_fract_z
Si Si1 0.879314 0.803488 0.813598
Si Si2 0.884549 0.949837 0.800206
Si Si3 0.462066 0.149946 0.624908
Si Si4 0.344032 0.568261 0.922149
Si Si5 0.649899 0.666258 0.960654
Si Si6 0.529195 0.607970 0.528228
Si Si7 0.731306 0.923192 0.262421
Si Si8 0.477207 0.243035 0.460631
O O1 0.773398 0.899223 0.824839
O O2 0.627278 0.786606 0.750082
O O3 0.178599 0.697663 0.638604
O O4 0.929518 0.837617 0.033666
O O5 0.173868 0.848435 0.609375
O O6 0.606233 0.030167 0.772498
O O7 0.000000 0.000000 0.000000
O O8 0.233236 0.134961 0.657702
O O9 0.342780 0.226547 0.570584
O O10 0.714090 0.028105 0.426721
O O11 0.531950 0.208798 0.844026
O O12 0.491775 0.628454 0.993060
O O13 0.411892 0.499395 0.672518
O O14 0.988206 0.628198 0.983582
O O15 0.500000 0.500000 0.000000
O O16 0.665688 0.619967 0.721718
O O17 0.608867 0.645167 0.436213
#
# Coordination Sequence:
#
# PCOD9054675 Si02
#       8
#     2   2   2   2   2   2   2   2
#     4  11  23  42  70 100 150 192 252 308 373 454
#     4  11  21  37  65 100 135 199 257 312 370 441
#     4  11  26  44  69 104 153 203 253 323 380 457
#     4  12  29  54  87 118 156 200 254 324 402 471
#     4  12  29  52  80 118 159 202 259 322 389 469
#     4  11  28  47  81 113 147 201 254 319 391 470
#     4  11  23  44  67 103 152 203 260 311 387 453
#     4  11  23  42  69 102 148 193 258 313 382 451
#
# _framework density 26.415586999999999
#
# number of rings (size 3 to 8) (size 9 to 14) (size 15 to 20)
#    0.000    0.750    2.500    3.750    8.750    1.500 
#    2.250    0.000    0.000    0.000    0.000    0.000 
#    0.000    0.000    0.000    0.000    0.000    0.000 
#
# Total GULP energy -89474.537402 kJ/mol
# GULP energy per Si atom -5592.158588 kJ/mol
# Density = 2.635546 g / cm^3
# Si number density = 26.415587 Si / 1000 Ang^3
#
#
#
# Elastic Constant Matrix: (Units=GPa)
#
#
# Indices 1 2 3 4 5 6 
#
# 1 120.6635 56.1345 24.2509 1.1208 29.6911 -4.0178
# 2 56.1345 70.8636 -7.3545 -14.3445 16.0776 12.4135
# 3 24.2509 -7.3545 123.9197 3.2373 28.2191 -1.5744
# 4 1.1208 -14.3445 3.2373 43.1589 8.4477 8.4570
# 5 29.6911 16.0776 28.2191 8.4477 44.3650 -5.0992
# 6 -4.0178 12.4135 -1.5744 8.4570 -5.0992 62.9933
#
#
#
# Elastic Compliance Matrix: (Units=1/GPa)
#
#
# Indices 1 2 3 4 5 6 
#
# 1 0.016703 -0.015158 -0.003549 -0.005752 -0.001805 0.004590
# 2 -0.015158 0.034255 0.006927 0.015433 -0.010819 -0.010492
# 3 -0.003549 0.006927 0.010877 0.003631 -0.008028 -0.002457
# 4 -0.005752 0.015433 0.003631 0.032024 -0.011130 -0.008518
# 5 -0.001805 -0.010819 -0.008028 -0.011130 0.035607 0.006193
# 6 0.004590 -0.010492 -0.002457 -0.008518 0.006193 0.019818
#
#
# Mechanical properties :
#
#
# Convention : Reuss Voigt Hill
#
# Bulk Modulus (GPa) = 26.12699 51.27874 38.70287
# Shear Modulus (GPa) = 26.93918 46.26450 36.60184
#
# Velocity S-wave (km/s) = 3.19693 4.18952 3.72642
# Velocity P-wave (km/s) = 4.85174 6.54655 5.76180
#
# Compressibility (1/GPa) = 0.03827459
#
# Stress axis : x y z
#
# Youngs Moduli (GPa) = 59.86908 29.19293 91.93408
#
# Poissons Ratio (x) = 0.44252 0.32625
# Poissons Ratio (y) = 0.90752 -0.63681
# Poissons Ratio (z) = 0.21246 -0.20221
#
# Static dielectric constant tensor:
#      x y z
#    x 2.137390 0.008370 -0.008890 
#    y 0.008370 2.056460 -0.055870 
#    z -0.008890 -0.055870 2.163530 
# 
# From -- ./inp_files/141617.got.cif
#   From: 2010.05.17/outbox.cif.g08.bks.cpg/sg2_71_cif.got.tgz:141617.got - 2010.06.03 11:33:40.
