data_PCOD9054545
_publ_section_title
;
Structure prediction by ZEFSAII (Michael W. Deem and Ramdas Pophale) SiO2 
 PCOD9054545
Probable space group: P -1
;
_chemical_formula_sum "Si O2"
_cell_formula_units_Z 16
_cell_length_a 15.850135
_cell_length_b 11.787922
_cell_length_c 21.890631
_cell_angle_alpha 30.628743
_cell_angle_beta 30.402884
_cell_angle_gamma 26.981692
_cell_volume 860.652502
_symmetry_space_group_name_H-M "P -1"
_symmetry_group_IT_number 2
_symmetry_cell_setting 'triclinic'
loop_
_space_group_symop_operation_xyz
x,y,z
-x,-y,-z
loop_
_atom_site_type_symbol
_atom_site_label
_atom_site_fract_x
_atom_site_fract_y
_atom_site_fract_z
Si Si1 0.208182 0.555973 0.544843
Si Si2 0.993924 0.114608 0.355349
Si Si3 0.040744 0.625159 0.184922
Si Si4 0.659419 0.801056 0.942499
Si Si5 0.089861 0.646430 0.912204
Si Si6 0.537603 0.927043 0.830262
Si Si7 0.148970 0.026593 0.979494
Si Si8 0.637975 0.438694 0.330522
O O1 0.111477 0.710831 0.598197
O O2 0.448031 0.418934 0.457742
O O3 0.147154 0.345598 0.676754
O O4 0.099561 0.798441 0.450867
O O5 0.810460 0.248211 0.360190
O O6 0.174197 0.138418 0.207673
O O7 0.227716 0.305943 0.224820
O O8 0.112699 0.803625 0.084235
O O9 0.969046 0.731823 0.110215
O O10 0.539628 0.829785 0.943039
O O11 0.775092 0.523186 0.035385
O O12 0.500000 0.000000 0.000000
O O13 0.238058 0.646144 0.771076
O O14 0.913332 0.902107 0.942860
O O15 0.000000 0.500000 0.000000
O O16 0.463351 0.240584 0.738709
O O17 0.383092 0.926696 0.881220
#
# Coordination Sequence:
#
# PCOD9054545 Si02
#       8
#     2   2   2   2   2   2   2   2
#     4  11  21  39  54  84 122 161 197 239 294 356
#     4  11  21  36  56  87 123 155 197 244 299 348
#     4  11  24  42  62  83 126 160 200 243 287 363
#     4  12  19  33  57  94 124 148 185 249 310 350
#     4  12  20  37  61  91 122 148 196 252 306 347
#     4  12  20  36  60  90 120 149 197 243 299 349
#     4  11  24  41  62  91 117 159 200 246 298 352
#     4  12  23  34  62  93 118 156 193 252 300 355
#
# _framework density 18.590546
#
# number of rings (size 3 to 8) (size 9 to 14) (size 15 to 20)
#    0.000    0.500    7.500    2.250    0.000    1.000 
#    0.000    0.625    0.000    0.750    0.000    0.000 
#    0.000    0.000    0.000    0.000    0.000    0.000 
#
# Total GULP energy -89192.712153 kJ/mol
# GULP energy per Si atom -5574.544510 kJ/mol
# Density = 1.854823 g / cm^3
# Si number density = 18.590546 Si / 1000 Ang^3
#
#
#
# Elastic Constant Matrix: (Units=GPa)
#
#
# Indices 1 2 3 4 5 6 
#
# 1 109.7421 35.7139 36.3526 5.2393 -4.0217 -29.7031
# 2 35.7139 64.0004 33.2583 18.8554 0.3646 -26.3387
# 3 36.3526 33.2583 90.6747 23.0209 -2.1690 -15.5204
# 4 5.2393 18.8554 23.0209 32.5138 -5.5373 1.2477
# 5 -4.0217 0.3646 -2.1690 -5.5373 26.9232 4.1131
# 6 -29.7031 -26.3387 -15.5204 1.2477 4.1131 31.3732
#
#
#
# Elastic Compliance Matrix: (Units=1/GPa)
#
#
# Indices 1 2 3 4 5 6 
#
# 1 0.013350 -0.002630 -0.003263 0.001479 0.000748 0.008660
# 2 -0.002630 0.037205 -0.001936 -0.022690 -0.010309 0.030041
# 3 -0.003263 -0.001936 0.016328 -0.010390 -0.001898 0.004025
# 4 0.001479 -0.022690 -0.010390 0.054628 0.015041 -0.026933
# 5 0.000748 -0.010309 -0.001898 0.015041 0.042637 -0.015073
# 6 0.008660 0.030041 0.004025 -0.026933 -0.015073 0.070332
#
#
# Mechanical properties :
#
#
# Convention : Reuss Voigt Hill
#
# Bulk Modulus (GPa) = 19.52166 52.78518 36.15342
# Shear Modulus (GPa) = 18.71172 28.76819 23.73995
#
# Velocity S-wave (km/s) = 3.17601 3.93805 3.57738
# Velocity P-wave (km/s) = 4.89623 7.00948 6.04590
#
# Compressibility (1/GPa) = 0.05122514
#
# Stress axis : x y z
#
# Youngs Moduli (GPa) = 74.90767 26.87813 61.24438
#
# Poissons Ratio (x) = 0.07069 0.19983
# Poissons Ratio (y) = 0.19702 0.11856
# Poissons Ratio (z) = 0.24441 0.05203
#
# Static dielectric constant tensor:
#      x y z
#    x 1.648660 0.023020 0.004240 
#    y 0.023020 1.770540 0.038390 
#    z 0.004240 0.038390 1.669800 
# 
# From -- ./inp_files/425271.got.cif
#   From: 2010.05.17/outbox.cif.g08.bks.cpg/sg2_213_cif.got.tgz:425271.got - 2010.06.03 11:33:40.
