data_PCOD9054628
_publ_section_title
;
Structure prediction by ZEFSAII (Michael W. Deem and Ramdas Pophale) SiO2 
 PCOD9054628
Probable space group: P -1
;
_chemical_formula_sum "Si O2"
_cell_formula_units_Z 16
_cell_length_a 20.627168
_cell_length_b 5.605041
_cell_length_c 8.713713
_cell_angle_alpha 66.586082
_cell_angle_beta 50.989649
_cell_angle_gamma 83.985036
_cell_volume 703.278073
_symmetry_space_group_name_H-M "P -1"
_symmetry_group_IT_number 2
_symmetry_cell_setting 'triclinic'
loop_
_space_group_symop_operation_xyz
x,y,z
-x,-y,-z
loop_
_atom_site_type_symbol
_atom_site_label
_atom_site_fract_x
_atom_site_fract_y
_atom_site_fract_z
Si Si1 0.505386 0.694542 0.091243
Si Si2 0.162616 0.010626 0.354828
Si Si3 0.687788 0.128435 0.178100
Si Si4 0.345442 0.499550 0.598533
Si Si5 0.116058 0.748594 0.193428
Si Si6 0.060187 0.264153 0.645865
Si Si7 0.683215 0.585498 0.874727
Si Si8 0.215265 0.494589 0.536985
O O1 0.428387 0.578595 0.348223
O O2 0.500000 0.500000 0.000000
O O3 0.600097 0.693161 0.008159
O O4 0.500000 0.000000 0.000000
O O5 0.122977 0.975562 0.254817
O O6 0.208326 0.777174 0.403071
O O7 0.088012 0.016478 0.586285
O O8 0.237468 0.267940 0.180730
O O9 0.647626 0.283622 0.331508
O O10 0.661263 0.813290 0.279581
O O11 0.790310 0.203153 0.028383
O O12 0.666717 0.275889 0.018306
O O13 0.258913 0.515985 0.630083
O O14 0.091989 0.490587 0.407869
O O15 0.039564 0.751005 0.190130
O O16 0.119745 0.330791 0.688917
O O17 0.720109 0.628320 0.636901
#
# Coordination Sequence:
#
# PCOD9054628 Si02
#       8
#     2   2   2   2   2   2   2   2
#     4  12  26  46  75 105 130 171 234 281 319 395
#     4  10  17  35  66  97 125 167 231 281 328 372
#     4  12  26  44  66  98 145 178 214 272 356 398
#     4  12  28  45  66 101 140 180 213 280 349 401
#     4  10  19  37  59 100 130 174 221 285 326 395
#     4   9  19  33  66  96 125 167 244 276 318 378
#     4  11  23  41  72  95 131 178 226 271 331 401
#     4  10  21  40  65  95 128 176 231 275 327 397
#
# _framework density 22.750606000000001
#
# number of rings (size 3 to 8) (size 9 to 14) (size 15 to 20)
#    0.000    1.250    5.000    2.625    3.500    1.000 
#    0.000    1.250    0.000    0.000    0.000    0.000 
#    0.000    0.000    0.000    0.000    0.000    0.000 
#
# Total GULP energy -89309.289160 kJ/mol
# GULP energy per Si atom -5581.830572 kJ/mol
# Density = 2.269882 g / cm^3
# Si number density = 22.750606 Si / 1000 Ang^3
#
#
#
# Elastic Constant Matrix: (Units=GPa)
#
#
# Indices 1 2 3 4 5 6 
#
# 1 60.4706 2.3289 -12.8034 -6.1234 -17.1908 -16.7950
# 2 2.3289 95.7655 26.5873 -3.6110 -7.4110 -8.0096
# 3 -12.8034 26.5873 48.7313 -3.1426 -20.9637 -10.7080
# 4 -6.1234 -3.6110 -3.1426 33.6969 -2.7383 4.6496
# 5 -17.1908 -7.4110 -20.9637 -2.7383 31.5991 15.0879
# 6 -16.7950 -8.0096 -10.7080 4.6496 15.0879 37.0633
#
#
#
# Elastic Compliance Matrix: (Units=1/GPa)
#
#
# Indices 1 2 3 4 5 6 
#
# 1 0.037038 -0.005568 0.030920 0.010810 0.036291 0.008384
# 2 -0.005568 0.013338 -0.012373 -0.001477 -0.008429 0.000401
# 3 0.030920 -0.012373 0.059923 0.013314 0.052066 0.005784
# 4 0.010810 -0.001477 0.013314 0.034798 0.019171 -0.003744
# 5 0.036291 -0.008429 0.052066 0.019171 0.090116 -0.009424
# 6 0.008384 0.000401 0.005784 -0.003744 -0.009424 0.036844
#
#
# Mechanical properties :
#
#
# Convention : Reuss Voigt Hill
#
# Bulk Modulus (GPa) = 7.33902 26.35477 16.84689
# Shear Modulus (GPa) = 17.15153 33.06216 25.10685
#
# Velocity S-wave (km/s) = 2.74869 3.81628 3.32560
# Velocity P-wave (km/s) = 3.64782 5.57028 4.70822
#
# Compressibility (1/GPa) = 0.13625805
#
# Stress axis : x y z
#
# Youngs Moduli (GPa) = 26.99911 74.97183 16.68806
#
# Poissons Ratio (x) = 0.41743 -0.51600
# Poissons Ratio (y) = 0.15033 0.20649
# Poissons Ratio (z) = -0.83482 0.92765
#
# Static dielectric constant tensor:
#      x y z
#    x 1.872810 0.026110 0.006570 
#    y 0.026110 1.967190 -0.022560 
#    z 0.006570 -0.022560 1.851770 
# 
# From -- ./inp_files/51192.got.cif
#   From: 2010.05.17/outbox.cif.g08.bks.cpg/sg2_26_cif.got.tgz:51192.got - 2010.06.03 11:33:40.
