data_PCOD9054027
_publ_section_title
;
Structure prediction by ZEFSAII (Michael W. Deem and Ramdas Pophale) SiO2 
 PCOD9054027
Probable space group: P -1
;
_chemical_formula_sum "Si O2"
_cell_formula_units_Z 10
_cell_length_a 9.269779
_cell_length_b 9.674648
_cell_length_c 7.054072
_cell_angle_alpha 111.224442
_cell_angle_beta 129.812491
_cell_angle_gamma 55.871716
_cell_volume 402.253296
_symmetry_space_group_name_H-M "P -1"
_symmetry_group_IT_number 2
_symmetry_cell_setting 'triclinic'
loop_
_space_group_symop_operation_xyz
x,y,z
-x,-y,-z
loop_
_atom_site_type_symbol
_atom_site_label
_atom_site_fract_x
_atom_site_fract_y
_atom_site_fract_z
Si Si1 0.289478 0.976169 0.851161
Si Si2 0.590881 0.414219 0.232960
Si Si3 0.758450 0.595987 0.904659
Si Si4 0.064123 0.277479 0.560676
Si Si5 0.710466 0.858253 0.701732
O O1 0.347648 0.783258 0.804026
O O2 0.125071 0.098130 0.619532
O O3 0.500000 0.000000 0.000000
O O4 0.209211 0.053117 0.030663
O O5 0.384526 0.496032 0.234502
O O6 0.818935 0.405142 0.450728
O O7 0.500000 0.500000 0.000000
O O8 0.657984 0.735560 0.726765
O O9 0.000000 0.500000 0.000000
O O10 0.789712 0.660269 0.170707
O O11 0.126485 0.242584 0.376451
O O12 0.500000 0.000000 0.500000
#
# Coordination Sequence:
#
# PCOD9054027 Si02
#       5
#     2   2   2   2   2
#     4  11  21  45  69  99 137 175 227 275 330 405
#     4  12  25  43  69 103 138 174 228 282 334 400
#     4  11  25  46  66  96 141 177 222 278 342 400
#     4  11  24  44  71  99 134 181 226 278 335 401
#     4  11  20  39  73  96 127 182 223 271 334 396
#
# _framework density 24.859959
#
# number of rings (size 3 to 8) (size 9 to 14) (size 15 to 20)
#    0.000    0.800    6.000    1.800    0.000    6.400 
#    0.000    8.000    0.000    0.000    0.000    0.000 
#    0.000    0.000    0.000    0.000    0.000    0.000 
#
# Total GULP energy -55906.472693 kJ/mol
# GULP energy per Si atom -5590.647269 kJ/mol
# Density = 2.480338 g / cm^3
# Si number density = 24.859959 Si / 1000 Ang^3
#
#
#
# Elastic Constant Matrix: (Units=GPa)
#
#
# Indices 1 2 3 4 5 6 
#
# 1 142.6652 19.5953 68.5241 -14.0388 -2.5062 -23.5731
# 2 19.5953 58.2664 15.7163 -22.8938 -2.6565 4.8654
# 3 68.5241 15.7163 118.0905 -21.3659 -8.9235 0.9972
# 4 -14.0388 -22.8938 -21.3659 64.2163 -11.4118 -7.4176
# 5 -2.5062 -2.6565 -8.9235 -11.4118 50.9724 -4.0788
# 6 -23.5731 4.8654 0.9972 -7.4176 -4.0788 45.8889
#
#
#
# Elastic Compliance Matrix: (Units=1/GPa)
#
#
# Indices 1 2 3 4 5 6 
#
# 1 0.011475 -0.002615 -0.006343 0.000172 -0.000138 0.006325
# 2 -0.002615 0.021111 0.000215 0.007206 0.002446 -0.002204
# 3 -0.006343 0.000215 0.012884 0.003077 0.002416 -0.002849
# 4 0.000172 0.007206 0.003077 0.020588 0.005780 0.003099
# 5 -0.000138 0.002446 0.002416 0.005780 0.021654 0.002476
# 6 0.006325 -0.002204 -0.002849 0.003099 0.002476 0.026058
#
#
# Mechanical properties :
#
#
# Convention : Reuss Voigt Hill
#
# Bulk Modulus (GPa) = 35.73578 58.52151 47.12864
# Shear Modulus (GPa) = 35.56603 46.56128 41.06365
#
# Velocity S-wave (km/s) = 3.78650 4.33245 4.06864
# Velocity P-wave (km/s) = 5.78989 6.97269 6.40864
#
# Compressibility (1/GPa) = 0.02798316
#
# Stress axis : x y z
#
# Youngs Moduli (GPa) = 87.14578 47.36855 77.61860
#
# Poissons Ratio (x) = 0.12387 0.49236
# Poissons Ratio (y) = 0.22789 -0.01670
# Poissons Ratio (z) = 0.55279 -0.01019
#
# Static dielectric constant tensor:
#      x y z
#    x 2.021240 -0.069170 0.001150 
#    y -0.069170 2.101830 0.072980 
#    z 0.001150 0.072980 1.971170 
# 
# From -- ./inp_files/20388.got.cif
#   From: 2010.05.17/outbox.cif.g08.bks.cpg/sg2_11_cif.got.tgz:20388.got - 2010.06.03 11:33:40.
