data_PCOD9054226
_publ_section_title
;
Structure prediction by ZEFSAII (Michael W. Deem and Ramdas Pophale) SiO2 
 PCOD9054226
Probable space group: P -1
;
_chemical_formula_sum "Si O2"
_cell_formula_units_Z 12
_cell_length_a 8.294907
_cell_length_b 11.579751
_cell_length_c 8.267888
_cell_angle_alpha 109.663591
_cell_angle_beta 60.107794
_cell_angle_gamma 134.919415
_cell_volume 487.376748
_symmetry_space_group_name_H-M "P -1"
_symmetry_group_IT_number 2
_symmetry_cell_setting 'triclinic'
loop_
_space_group_symop_operation_xyz
x,y,z
-x,-y,-z
loop_
_atom_site_type_symbol
_atom_site_label
_atom_site_fract_x
_atom_site_fract_y
_atom_site_fract_z
Si Si1 0.000543 0.881676 0.334405
Si Si2 0.453552 0.604121 0.471292
Si Si3 0.754691 0.604121 0.820722
Si Si4 0.345088 0.845088 0.193975
Si Si5 0.733608 0.233608 0.180282
Si Si6 0.762808 0.881676 0.953273
O O1 0.091416 0.801235 0.348621
O O2 0.729629 0.750884 0.336387
O O3 0.198252 0.000000 0.150874
O O4 0.000000 0.000000 0.500000
O O5 0.500000 0.500000 0.500000
O O6 0.274410 0.500000 0.362795
O O7 0.361175 0.678286 0.659652
O O8 0.772140 0.750884 0.815132
O O9 0.995396 0.678286 0.842541
O O10 0.500000 0.500000 0.000000
O O11 0.540373 0.040373 0.227629
O O12 0.268663 0.768663 0.014164
O O13 0.511054 0.801235 0.138802
O O14 0.000000 0.000000 0.000000
#
# Coordination Sequence:
#
# PCOD9054226 Si02
#       6
#     2   2   2   2   2   2
#     4  12  22  42  69  96 127 174 224 267 321 391
#     4  12  26  44  67 101 139 174 215 274 339 393
#     4  12  26  44  67 101 139 174 215 274 339 393
#     4  11  20  41  70  97 128 170 231 274 319 383
#     4  11  21  43  66  96 134 176 218 276 321 393
#     4  12  22  42  69  96 127 174 224 267 321 391
#
# _framework density 24.621607999999998
#
# number of rings (size 3 to 8) (size 9 to 14) (size 15 to 20)
#    0.000    0.333    6.667    4.500    0.000    1.333 
#    0.000   10.000    0.000    0.000    0.000    0.000 
#    0.000    0.000    0.000    0.000    0.000    0.000 
#
# Total GULP energy -67055.371854 kJ/mol
# GULP energy per Si atom -5587.947654 kJ/mol
# Density = 2.456557 g / cm^3
# Si number density = 24.621608 Si / 1000 Ang^3
#
#
#
# Elastic Constant Matrix: (Units=GPa)
#
#
# Indices 1 2 3 4 5 6 
#
# 1 172.5516 51.7228 47.8543 13.5326 -29.3333 35.3430
# 2 51.7228 92.8698 52.2494 22.1537 3.2718 17.1563
# 3 47.8543 52.2494 117.7248 39.0613 -31.8390 -1.1777
# 4 13.5326 22.1537 39.0613 48.7823 -2.1584 0.2985
# 5 -29.3333 3.2718 -31.8390 -2.1584 50.3975 10.7893
# 6 35.3430 17.1563 -1.1777 0.2985 10.7893 52.2066
#
#
#
# Elastic Compliance Matrix: (Units=1/GPa)
#
#
# Indices 1 2 3 4 5 6 
#
# 1 0.009761 -0.004398 0.000048 -0.000380 0.007414 -0.006692
# 2 -0.004398 0.018997 -0.008898 -0.000676 -0.009105 -0.001581
# 3 0.000048 -0.008898 0.019355 -0.010937 0.012178 0.000874
# 4 -0.000380 -0.000676 -0.010937 0.029391 -0.006113 0.001328
# 5 0.007414 -0.009105 0.012178 -0.006113 0.034055 -0.008755
# 6 -0.006692 -0.001581 0.000874 0.001328 -0.008755 0.026026
#
#
# Mechanical properties :
#
#
# Convention : Reuss Voigt Hill
#
# Bulk Modulus (GPa) = 46.25567 76.31101 61.28334
# Shear Modulus (GPa) = 29.19119 45.69860 37.44489
#
# Velocity S-wave (km/s) = 3.44698 4.31285 3.90399
# Velocity P-wave (km/s) = 5.88809 7.47407 6.72797
#
# Compressibility (1/GPa) = 0.02161897
#
# Stress axis : x y z
#
# Youngs Moduli (GPa) = 102.44929 52.64008 51.66590
#
# Poissons Ratio (x) = 0.23150 -0.00250
# Poissons Ratio (y) = 0.45054 0.45971
# Poissons Ratio (z) = -0.00496 0.46837
#
# Static dielectric constant tensor:
#      x y z
#    x 1.971660 -0.049520 0.002840 
#    y -0.049520 2.006860 -0.081240 
#    z 0.002840 -0.081240 1.960280 
# 
# From -- ./inp_files/172654.got.cif
#   From: 2010.05.17/outbox.cif.g08.bks.cpg/sg2_87_cif.got.tgz:172654.got - 2010.06.03 11:33:40.
