data_PCOD9054668
_publ_section_title
;
Structure prediction by ZEFSAII (Michael W. Deem and Ramdas Pophale) SiO2 
 PCOD9054668
Probable space group: P -1
;
_chemical_formula_sum "Si O2"
_cell_formula_units_Z 12
_cell_length_a 6.780795
_cell_length_b 13.292717
_cell_length_c 7.933893
_cell_angle_alpha 51.325926
_cell_angle_beta 77.123831
_cell_angle_gamma 69.789133
_cell_volume 523.906027
_symmetry_space_group_name_H-M "P -1"
_symmetry_group_IT_number 2
_symmetry_cell_setting 'triclinic'
loop_
_space_group_symop_operation_xyz
x,y,z
-x,-y,-z
loop_
_atom_site_type_symbol
_atom_site_label
_atom_site_fract_x
_atom_site_fract_y
_atom_site_fract_z
Si Si1 0.594932 0.776463 0.801367
Si Si2 0.163960 0.340981 0.444247
Si Si3 0.160536 0.384759 0.768652
Si Si4 0.752614 0.044279 0.490802
Si Si5 0.047496 0.811726 0.134254
Si Si6 0.685924 0.064818 0.848792
O O1 0.690529 0.685913 0.716986
O O2 0.348082 0.848031 0.745994
O O3 0.684381 0.907005 0.637714
O O4 0.682877 0.693760 0.037948
O O5 0.256994 0.374710 0.571232
O O6 0.957853 0.463837 0.322999
O O7 0.080076 0.213724 0.645962
O O8 0.975753 0.309492 0.851783
O O9 0.657244 0.112510 0.613505
O O10 0.000000 0.000000 0.500000
O O11 0.264944 0.829207 0.142950
O O12 0.900824 0.944876 0.940121
O O13 0.500000 0.000000 0.000000
#
# Coordination Sequence:
#
# PCOD9054668 Si02
#       6
#     2   2   2   2   2   2
#     4  11  21  38  63  94 123 170 213 258 324 383
#     4   9  18  37  67  92 130 171 208 265 321 377
#     4   9  19  38  63  98 125 170 213 262 320 382
#     4  11  24  39  59  94 133 166 212 271 320 383
#     4   9  19  37  59  93 121 164 207 259 321 376
#     4  11  21  37  64  90 127 168 213 265 320 386
#
# _framework density 22.904869000000001
#
# number of rings (size 3 to 8) (size 9 to 14) (size 15 to 20)
#    1.000    1.000    1.667    2.500    0.000    4.000 
#    0.000    2.500    0.000   22.000    0.000    0.000 
#    0.000    0.000    0.000    0.000    0.000    0.000 
#
# Total GULP energy -66967.871113 kJ/mol
# GULP energy per Si atom -5580.655926 kJ/mol
# Density = 2.285274 g / cm^3
# Si number density = 22.904869 Si / 1000 Ang^3
#
#
#
# Elastic Constant Matrix: (Units=GPa)
#
#
# Indices 1 2 3 4 5 6 
#
# 1 92.8015 22.4748 22.6832 9.9597 22.2923 -13.1212
# 2 22.4748 82.6103 36.1742 14.9046 25.4550 -11.0226
# 3 22.6832 36.1742 121.3915 7.1985 48.8358 -14.4499
# 4 9.9597 14.9046 7.1985 34.9325 -2.0465 -0.8372
# 5 22.2923 25.4550 48.8358 -2.0465 35.1895 -5.7136
# 6 -13.1212 -11.0226 -14.4499 -0.8372 -5.7136 22.3079
#
#
#
# Elastic Compliance Matrix: (Units=1/GPa)
#
#
# Indices 1 2 3 4 5 6 
#
# 1 0.014959 0.000918 0.004431 -0.006279 -0.015364 0.007952
# 2 0.000918 0.018597 0.002437 -0.009530 -0.016895 0.006623
# 3 0.004431 0.002437 0.022002 -0.008622 -0.034145 0.008993
# 4 -0.006279 -0.009530 -0.008622 0.037510 0.023973 -0.006439
# 5 -0.015364 -0.016895 -0.034145 0.023973 0.096915 -0.013780
# 6 0.007952 0.006623 0.008993 -0.006439 -0.013780 0.054831
#
#
# Mechanical properties :
#
#
# Convention : Reuss Voigt Hill
#
# Bulk Modulus (GPa) = 14.05874 51.05197 32.55536
# Shear Modulus (GPa) = 19.76656 32.85072 26.30864
#
# Velocity S-wave (km/s) = 2.94085 3.79122 3.39278
# Velocity P-wave (km/s) = 4.20507 6.44217 5.43986
#
# Compressibility (1/GPa) = 0.07113014
#
# Stress axis : x y z
#
# Youngs Moduli (GPa) = 66.84863 53.77183 45.45014
#
# Poissons Ratio (x) = -0.04936 -0.20139
# Poissons Ratio (y) = -0.06137 -0.11075
# Poissons Ratio (z) = -0.29621 -0.13103
#
# Static dielectric constant tensor:
#      x y z
#    x 1.880310 0.016000 0.005080 
#    y 0.016000 1.903100 0.050070 
#    z 0.005080 0.050070 1.857590 
# 
# From -- ./inp_files/133860.got.cif
#   From: 2010.05.17/outbox.cif.g08.bks.cpg/sg2_67_cif.got.tgz:133860.got - 2010.06.03 11:33:40.
