data_PCOD9054426
_publ_section_title
;
Structure prediction by ZEFSAII (Michael W. Deem and Ramdas Pophale) SiO2 
 PCOD9054426
Probable space group: P -1
;
_chemical_formula_sum "Si O2"
_cell_formula_units_Z 16
_cell_length_a 14.970961
_cell_length_b 21.966223
_cell_length_c 8.324258
_cell_angle_alpha 125.455921
_cell_angle_beta 128.140868
_cell_angle_gamma 19.246366
_cell_volume 709.651299
_symmetry_space_group_name_H-M "P -1"
_symmetry_group_IT_number 2
_symmetry_cell_setting 'triclinic'
loop_
_space_group_symop_operation_xyz
x,y,z
-x,-y,-z
loop_
_atom_site_type_symbol
_atom_site_label
_atom_site_fract_x
_atom_site_fract_y
_atom_site_fract_z
Si Si1 0.291849 0.906960 0.617104
Si Si2 0.085486 0.646983 0.882611
Si Si3 0.264280 0.000660 0.062842
Si Si4 0.955568 0.945227 0.792300
Si Si5 0.275068 0.161412 0.630828
Si Si6 0.492006 0.483421 0.282476
Si Si7 0.470700 0.085680 0.222097
Si Si8 0.633128 0.555949 0.412643
O O1 0.187320 0.994508 0.813996
O O2 0.492521 0.855682 0.718257
O O3 0.447706 0.734686 0.544572
O O4 0.117678 0.006687 0.407284
O O5 0.328538 0.464399 0.767584
O O6 0.832905 0.742321 0.773805
O O7 0.216591 0.601043 0.118528
O O8 0.955505 0.797939 0.880580
O O9 0.568338 0.858257 0.159784
O O10 0.251564 0.969265 0.174947
O O11 0.239394 0.726933 0.784537
O O12 0.000000 0.000000 0.000000
O O13 0.955590 0.367352 0.543606
O O14 0.500000 0.000000 0.500000
O O15 0.286557 0.083466 0.642961
O O16 0.500000 0.500000 0.500000
O O17 0.503192 0.554222 0.307352
O O18 0.500000 0.000000 0.000000
#
# Coordination Sequence:
#
# PCOD9054426 Si02
#       8
#     2   2   2   2   2   2   2   2
#     4  12  27  46  72 112 141 182 240 300 355 417
#     4  11  23  45  72  98 137 192 236 284 360 424
#     4  11  24  46  74  99 142 189 234 291 355 426
#     4  12  28  49  73 103 144 192 239 293 356 429
#     4  11  20  44  73  99 131 189 236 281 357 423
#     4  12  27  45  71 103 138 190 240 294 349 428
#     4  11  22  43  73 102 138 183 235 288 349 422
#     4  12  26  44  71 103 144 181 234 300 352 420
#
# _framework density 22.546282999999999
#
# number of rings (size 3 to 8) (size 9 to 14) (size 15 to 20)
#    0.000    0.500    6.250    3.375    5.250    1.500 
#    2.250    0.000    0.000    0.000    0.000    0.000 
#    0.000    0.000    0.000    0.000    0.000    0.000 
#
# Total GULP energy -89379.520305 kJ/mol
# GULP energy per Si atom -5586.220019 kJ/mol
# Density = 2.249497 g / cm^3
# Si number density = 22.546283 Si / 1000 Ang^3
#
#
#
# Elastic Constant Matrix: (Units=GPa)
#
#
# Indices 1 2 3 4 5 6 
#
# 1 64.4342 12.3899 8.8589 4.1496 7.1516 2.6274
# 2 12.3899 72.8190 24.8007 1.7520 14.3397 11.2544
# 3 8.8589 24.8007 122.3490 -1.0343 0.9195 6.4719
# 4 4.1496 1.7520 -1.0343 51.3478 6.0601 3.6099
# 5 7.1516 14.3397 0.9195 6.0601 39.7102 3.5598
# 6 2.6274 11.2544 6.4719 3.6099 3.5598 20.3998
#
#
#
# Elastic Compliance Matrix: (Units=1/GPa)
#
#
# Indices 1 2 3 4 5 6 
#
# 1 0.016316 -0.002075 -0.000744 -0.001013 -0.002000 -0.000192
# 2 -0.002075 0.017250 -0.002903 0.000666 -0.005214 -0.007536
# 3 -0.000744 -0.002903 0.008882 0.000310 0.001051 -0.001359
# 4 -0.001013 0.000666 0.000310 0.020113 -0.002830 -0.003401
# 5 -0.002000 -0.005214 0.001051 -0.002830 0.027975 -0.001580
# 6 -0.000192 -0.007536 -0.001359 -0.003401 -0.001580 0.054511
#
#
# Mechanical properties :
#
#
# Convention : Reuss Voigt Hill
#
# Bulk Modulus (GPa) = 32.25325 39.07790 35.66557
# Shear Modulus (GPa) = 29.97130 36.52840 33.24985
#
# Velocity S-wave (km/s) = 3.64994 4.02948 3.84440
# Velocity P-wave (km/s) = 5.66562 6.24651 5.96314
#
# Compressibility (1/GPa) = 0.03100463
#
# Stress axis : x y z
#
# Youngs Moduli (GPa) = 61.28928 57.97122 112.58405
#
# Poissons Ratio (x) = 0.12027 0.08378
# Poissons Ratio (y) = 0.12716 0.32682
# Poissons Ratio (z) = 0.04561 0.16829
#
# Static dielectric constant tensor:
#      x y z
#    x 1.870760 -0.022450 -0.047650 
#    y -0.022450 1.819850 -0.061070 
#    z -0.047650 -0.061070 1.908890 
# 
# From -- ./inp_files/319490.got.cif
#   From: 2010.05.17/outbox.cif.g08.bks.cpg/sg2_160_cif.got.tgz:319490.got - 2010.06.03 11:33:40.
