data_PCOD9054232
_publ_section_title
;
Structure prediction by ZEFSAII (Michael W. Deem and Ramdas Pophale) SiO2 
 PCOD9054232
Probable space group: P -1
;
_chemical_formula_sum "Si O2"
_cell_formula_units_Z 16
_cell_length_a 22.618573
_cell_length_b 17.944924
_cell_length_c 13.688202
_cell_angle_alpha 32.160926
_cell_angle_beta 158.981576
_cell_angle_gamma 158.595980
_cell_volume 716.375269
_symmetry_space_group_name_H-M "P -1"
_symmetry_group_IT_number 2
_symmetry_cell_setting 'triclinic'
loop_
_space_group_symop_operation_xyz
x,y,z
-x,-y,-z
loop_
_atom_site_type_symbol
_atom_site_label
_atom_site_fract_x
_atom_site_fract_y
_atom_site_fract_z
Si Si1 0.054382 0.488897 0.934631
Si Si2 0.637723 0.588140 0.012731
Si Si3 0.738516 0.404793 0.228663
Si Si4 0.911913 0.949460 0.741722
Si Si5 0.587908 0.059871 0.782069
Si Si6 0.720196 0.555179 0.833380
Si Si7 0.263865 0.901774 0.809796
Si Si8 0.517459 0.297880 0.492310
O O1 0.184749 0.505715 0.023401
O O2 0.234580 0.578555 0.205046
O O3 0.052355 0.655059 0.736065
O O4 0.808050 0.253743 0.840043
O O5 0.731109 0.504334 0.199371
O O6 0.500000 0.500000 0.000000
O O7 0.453826 0.548081 0.699074
O O8 0.861614 0.835454 0.096521
O O9 0.000000 0.500000 0.500000
O O10 0.561657 0.162764 0.243565
O O11 0.661068 0.447345 0.966139
O O12 0.932916 0.804535 0.898211
O O13 0.691486 0.804065 0.639336
O O14 0.822009 0.999815 0.463884
O O15 0.442909 0.112183 0.523939
O O16 0.673396 0.063748 0.017627
O O17 0.500000 0.500000 0.500000
O O18 0.500000 0.000000 0.000000
#
# Coordination Sequence:
#
# PCOD9054232 Si02
#       8
#     2   2   2   2   2   2   2   2
#     4  11  24  41  72 106 141 171 229 297 351 404
#     4  12  30  46  68 100 143 188 233 286 355 417
#     4  12  28  49  72 103 140 190 242 286 344 430
#     4  12  24  42  72  94 137 181 233 273 344 416
#     4  11  25  41  72 102 144 172 228 298 354 400
#     4  12  24  47  71 103 136 182 237 287 344 420
#     4  11  20  41  71 105 130 182 229 276 344 423
#     4  11  22  47  69 100 138 184 230 279 347 425
#
# _framework density 22.334662999999999
#
# number of rings (size 3 to 8) (size 9 to 14) (size 15 to 20)
#    0.000    0.500    5.000    4.125    8.750    0.000 
#    0.000    3.125    0.000    0.000    0.000    0.000 
#    0.000    0.000    0.000    0.000    0.000    0.000 
#
# Total GULP energy -89518.296766 kJ/mol
# GULP energy per Si atom -5594.893548 kJ/mol
# Density = 2.228383 g / cm^3
# Si number density = 22.334663 Si / 1000 Ang^3
#
#
#
# Elastic Constant Matrix: (Units=GPa)
#
#
# Indices 1 2 3 4 5 6 
#
# 1 101.1833 35.3114 25.4826 -6.6842 8.3594 2.4097
# 2 35.3114 168.5821 16.0837 -5.4401 10.5727 -12.9698
# 3 25.4826 16.0837 48.8681 -14.5956 -0.2194 0.4959
# 4 -6.6842 -5.4401 -14.5956 32.3264 -3.4770 3.0507
# 5 8.3594 10.5727 -0.2194 -3.4770 16.8009 -9.1091
# 6 2.4097 -12.9698 0.4959 3.0507 -9.1091 48.7943
#
#
#
# Elastic Compliance Matrix: (Units=1/GPa)
#
#
# Indices 1 2 3 4 5 6 
#
# 1 0.012645 -0.001835 -0.006310 -0.001048 -0.006641 -0.002222
# 2 -0.001835 0.006710 -0.001361 -0.000280 -0.002617 0.001417
# 3 -0.006310 -0.001361 0.027727 0.011706 0.006903 0.000225
# 4 -0.001048 -0.000280 0.011706 0.036904 0.007966 -0.000962
# 5 -0.006641 -0.002617 0.006903 0.007966 0.073103 0.012711
# 6 -0.002222 0.001417 0.000225 -0.000962 0.012711 0.023411
#
#
# Mechanical properties :
#
#
# Convention : Reuss Voigt Hill
#
# Bulk Modulus (GPa) = 35.62642 52.48764 44.05703
# Shear Modulus (GPa) = 23.93847 35.70139 29.81993
#
# Velocity S-wave (km/s) = 3.27740 4.00243 3.65792
# Velocity P-wave (km/s) = 5.50523 6.70155 6.13263
#
# Compressibility (1/GPa) = 0.02806906
#
# Stress axis : x y z
#
# Youngs Moduli (GPa) = 79.08308 149.02750 36.06617
#
# Poissons Ratio (x) = 0.27345 0.22758
# Poissons Ratio (y) = 0.14511 0.04910
# Poissons Ratio (z) = 0.49902 0.20289
#
# Static dielectric constant tensor:
#      x y z
#    x 1.754720 0.005700 0.070900 
#    y 0.005700 1.834990 -0.017490 
#    z 0.070900 -0.017490 1.720380 
# 
# From -- ./inp_files/543167.got.cif
#   From: 2010.05.17/outbox.cif.g08.bks.cpg/sg2_272_cif.got.tgz:543167.got - 2010.06.03 11:33:40.
