data_PCOD9054101
_publ_section_title
;
Structure prediction by ZEFSAII (Michael W. Deem and Ramdas Pophale) SiO2 
 PCOD9054101
Probable space group: P -1
;
_chemical_formula_sum "Si O2"
_cell_formula_units_Z 16
_cell_length_a 8.765837
_cell_length_b 12.054566
_cell_length_c 13.892099
_cell_angle_alpha 147.864595
_cell_angle_beta 112.654415
_cell_angle_gamma 65.378923
_cell_volume 708.252473
_symmetry_space_group_name_H-M "P -1"
_symmetry_group_IT_number 2
_symmetry_cell_setting 'triclinic'
loop_
_space_group_symop_operation_xyz
x,y,z
-x,-y,-z
loop_
_atom_site_type_symbol
_atom_site_label
_atom_site_fract_x
_atom_site_fract_y
_atom_site_fract_z
Si Si1 0.581964 0.861418 0.117559
Si Si2 0.275712 0.574110 0.248475
Si Si3 0.305690 0.502403 0.432733
Si Si4 0.050108 0.805721 0.001974
Si Si5 0.257625 0.056239 0.099613
Si Si6 0.910049 0.068488 0.323150
Si Si7 0.928002 0.671683 0.289935
Si Si8 0.591678 0.988027 0.411613
O O1 0.755131 0.951592 0.223295
O O2 0.494929 0.945486 0.259229
O O3 0.453958 0.956164 0.071385
O O4 0.625149 0.610516 0.928993
O O5 0.291050 0.500012 0.310303
O O6 0.076931 0.613822 0.205851
O O7 0.344892 0.790251 0.419705
O O8 0.500000 0.500000 0.500000
O O9 0.251557 0.295144 0.311854
O O10 0.182704 0.715256 0.593152
O O11 0.083143 0.551901 0.826481
O O12 0.858615 0.899168 0.989764
O O13 0.050088 0.910271 0.182977
O O14 0.170850 0.901148 0.029932
O O15 0.999362 0.160889 0.501859
O O16 0.747094 0.791020 0.303075
O O17 0.500000 0.000000 0.500000
#
# Coordination Sequence:
#
# PCOD9054101 Si02
#       8
#     2   2   2   2   2   2   2   2
#     4  12  25  44  73 104 135 184 235 280 345 409
#     4  11  24  45  70 104 135 180 238 277 343 411
#     4  11  20  40  69 101 140 182 226 276 335 409
#     4  11  25  44  65 106 141 186 221 278 348 405
#     4  11  24  43  65 104 151 173 226 281 337 417
#     4  11  22  41  70  99 134 180 231 273 337 405
#     4  11  24  48  71  97 139 179 236 279 337 416
#     4  12  29  48  70 101 137 182 231 297 349 399
#
# _framework density 22.590813000000001
#
# number of rings (size 3 to 8) (size 9 to 14) (size 15 to 20)
#    0.000    0.750    7.500    0.375    5.250    3.500 
#    0.000    0.000    0.000    0.000    0.000    0.000 
#    0.000    0.000    0.000    0.000    0.000    0.000 
#
# Total GULP energy -89400.031030 kJ/mol
# GULP energy per Si atom -5587.501939 kJ/mol
# Density = 2.253940 g / cm^3
# Si number density = 22.590813 Si / 1000 Ang^3
#
#
#
# Elastic Constant Matrix: (Units=GPa)
#
#
# Indices 1 2 3 4 5 6 
#
# 1 48.3132 33.1340 26.1851 9.9001 11.4449 10.0314
# 2 33.1340 71.0596 37.6812 16.7408 2.5455 4.1507
# 3 26.1851 37.6812 129.4685 17.9480 6.7745 17.7157
# 4 9.9001 16.7408 17.9480 32.3318 3.4884 2.8750
# 5 11.4449 2.5455 6.7745 3.4884 29.7895 6.9227
# 6 10.0314 4.1507 17.7157 2.8750 6.9227 38.6670
#
#
#
# Elastic Compliance Matrix: (Units=1/GPa)
#
#
# Indices 1 2 3 4 5 6 
#
# 1 0.035445 -0.014892 -0.001498 -0.000710 -0.010776 -0.004929
# 2 -0.014892 0.024240 -0.003723 -0.006661 0.004666 0.002627
# 3 -0.001498 -0.003723 0.009999 -0.002825 -0.000226 -0.003542
# 4 -0.000710 -0.006661 -0.002825 0.036466 -0.002781 -0.000020
# 5 -0.010776 0.004666 -0.000226 -0.002781 0.038692 -0.004322
# 6 -0.004929 0.002627 -0.003542 -0.000020 -0.004322 0.029257
#
#
# Mechanical properties :
#
#
# Convention : Reuss Voigt Hill
#
# Bulk Modulus (GPa) = 33.94765 49.20467 41.57616
# Shear Modulus (GPa) = 22.30734 30.28039 26.29387
#
# Velocity S-wave (km/s) = 3.14578 3.66510 3.41533
# Velocity P-wave (km/s) = 5.31549 6.30387 5.83066
#
# Compressibility (1/GPa) = 0.02945712
#
# Stress axis : x y z
#
# Youngs Moduli (GPa) = 28.21291 41.25492 100.01487
#
# Poissons Ratio (x) = 0.61437 0.14980
# Poissons Ratio (y) = 0.42014 0.37237
# Poissons Ratio (z) = 0.04226 0.15360
#
# Static dielectric constant tensor:
#      x y z
#    x 1.835370 -0.019150 -0.005350 
#    y -0.019150 1.897150 -0.017880 
#    z -0.005350 -0.017880 1.810860 
# 
# From -- ./inp_files/501217.got.cif
#   From: 2010.05.17/outbox.cif.g08.bks.cpg/sg2_251_cif.got.tgz:501217.got - 2010.06.03 11:33:40.
