data_PCOD9054061
_publ_section_title
;
Structure prediction by ZEFSAII (Michael W. Deem and Ramdas Pophale) SiO2 
 PCOD9054061
Probable space group: P -1
;
_chemical_formula_sum "Si O2"
_cell_formula_units_Z 16
_cell_length_a 17.297846
_cell_length_b 11.662153
_cell_length_c 9.846581
_cell_angle_alpha 67.516058
_cell_angle_beta 114.632731
_cell_angle_gamma 160.889554
_cell_volume 590.698238
_symmetry_space_group_name_H-M "P -1"
_symmetry_group_IT_number 2
_symmetry_cell_setting 'triclinic'
loop_
_space_group_symop_operation_xyz
x,y,z
-x,-y,-z
loop_
_atom_site_type_symbol
_atom_site_label
_atom_site_fract_x
_atom_site_fract_y
_atom_site_fract_z
Si Si1 0.534060 0.313600 0.911250
Si Si2 0.983262 0.554001 0.779401
Si Si3 0.770236 0.489939 0.787091
Si Si4 0.255007 0.397319 0.547928
Si Si5 0.991020 0.675879 0.218883
Si Si6 0.765683 0.800792 0.046779
Si Si7 0.400551 0.342397 0.351125
Si Si8 0.246643 0.634523 0.560051
O O1 0.620750 0.311662 0.894340
O O2 0.606580 0.532159 0.774987
O O3 0.246229 0.923747 0.872996
O O4 0.686332 0.555659 0.047333
O O5 0.812868 0.404531 0.818617
O O6 0.946144 0.359133 0.807125
O O7 0.938574 0.554823 0.597962
O O8 0.661048 0.416579 0.612732
O O9 0.037784 0.914231 0.819640
O O10 0.423855 0.515001 0.658187
O O11 0.222912 0.454363 0.613788
O O12 0.000000 0.000000 0.500000
O O13 0.755560 0.332492 0.295842
O O14 0.158584 0.934775 0.354067
O O15 0.082189 0.913239 0.084467
O O16 0.500000 0.500000 0.000000
O O17 0.500000 0.500000 0.500000
O O18 0.500000 0.000000 0.500000
#
# Coordination Sequence:
#
# PCOD9054061 Si02
#       8
#     2   2   2   2   2   2   2   2
#     4  11  23  43  74  98 143 188 236 304 357 419
#     4  11  24  44  71 105 147 186 236 299 365 431
#     4  11  24  44  71 105 143 189 244 297 357 425
#     4  11  23  37  68 104 138 178 234 293 355 422
#     4  11  26  43  73 104 144 189 238 290 363 426
#     4  11  25  50  73 103 141 192 245 300 351 420
#     4  11  20  40  66 103 137 179 233 293 353 420
#     4  11  25  43  67 107 147 186 229 292 361 434
#
# _framework density 27.086589
#
# number of rings (size 3 to 8) (size 9 to 14) (size 15 to 20)
#    0.000    1.000    2.500    4.500    7.000    0.500 
#    0.000    0.625    0.000    0.000    0.000    0.000 
#    0.000    0.000    0.000    0.000    0.000    0.000 
#
# Total GULP energy -89405.743823 kJ/mol
# GULP energy per Si atom -5587.858989 kJ/mol
# Density = 2.702494 g / cm^3
# Si number density = 27.086589 Si / 1000 Ang^3
#
#
#
# Elastic Constant Matrix: (Units=GPa)
#
#
# Indices 1 2 3 4 5 6 
#
# 1 170.0599 34.2864 5.0287 1.0525 -25.2574 -5.7856
# 2 34.2864 75.7068 21.0767 2.4354 4.4186 -12.0482
# 3 5.0287 21.0767 122.9450 5.2145 -9.1791 -2.8800
# 4 1.0525 2.4354 5.2145 34.7782 2.0941 -11.5586
# 5 -25.2574 4.4186 -9.1791 2.0941 20.6474 5.3530
# 6 -5.7856 -12.0482 -2.8800 -11.5586 5.3530 57.8236
#
#
#
# Elastic Compliance Matrix: (Units=1/GPa)
#
#
# Indices 1 2 3 4 5 6 
#
# 1 0.008860 -0.005454 0.001589 -0.001491 0.013304 -0.001700
# 2 -0.005454 0.018254 -0.003899 0.001862 -0.013721 0.004706
# 3 0.001589 -0.003899 0.009353 -0.002057 0.007480 -0.001291
# 4 -0.001491 0.001862 -0.002057 0.031892 -0.008257 0.007276
# 5 0.013304 -0.013721 0.007480 -0.008257 0.074317 -0.009686
# 6 -0.001700 0.004706 -0.001291 0.007276 -0.009686 0.020391
#
#
# Mechanical properties :
#
#
# Convention : Reuss Voigt Hill
#
# Bulk Modulus (GPa) = 47.75870 54.38835 51.07353
# Shear Modulus (GPa) = 26.94317 43.20452 35.07384
#
# Velocity S-wave (km/s) = 3.15732 3.99814 3.60235
# Velocity P-wave (km/s) = 5.56432 6.43712 6.01657
#
# Compressibility (1/GPa) = 0.02093859
#
# Stress axis : x y z
#
# Youngs Moduli (GPa) = 112.86316 54.78118 106.92167
#
# Poissons Ratio (x) = 0.29879 -0.16994
# Poissons Ratio (y) = 0.61559 0.41693
# Poissons Ratio (z) = -0.17938 0.21362
#
# Static dielectric constant tensor:
#      x y z
#    x 2.234610 0.284210 -0.201890 
#    y 0.284210 1.963480 0.015470 
#    z -0.201890 0.015470 2.344360 
# 
# From -- ./inp_files/464533.got.cif
#   From: 2010.05.17/outbox.cif.g08.bks.cpg/sg2_233_cif.got.tgz:464533.got - 2010.06.03 11:33:40.
