data_PCOD9054835
_publ_section_title
;
Structure prediction by ZEFSAII (Michael W. Deem and Ramdas Pophale) SiO2 
 PCOD9054835
Probable space group: P -1
;
_chemical_formula_sum "Si O2"
_cell_formula_units_Z 14
_cell_length_a 5.934539
_cell_length_b 18.971336
_cell_length_c 8.745234
_cell_angle_alpha 142.563499
_cell_angle_beta 85.785002
_cell_angle_gamma 86.603864
_cell_volume 585.558734
_symmetry_space_group_name_H-M "P -1"
_symmetry_group_IT_number 2
_symmetry_cell_setting 'triclinic'
loop_
_space_group_symop_operation_xyz
x,y,z
-x,-y,-z
loop_
_atom_site_type_symbol
_atom_site_label
_atom_site_fract_x
_atom_site_fract_y
_atom_site_fract_z
Si Si1 0.912787 0.416619 0.235175
Si Si2 0.955071 0.051486 0.344151
Si Si3 0.791190 0.213613 0.110539
Si Si4 0.413739 0.879902 0.287678
Si Si5 0.248025 0.245608 0.702727
Si Si6 0.244658 0.533452 0.983042
Si Si7 0.336165 0.757627 0.496617
O O1 0.844187 0.311463 0.158485
O O2 0.000000 0.500000 0.500000
O O3 0.734075 0.486241 0.236726
O O4 0.098084 0.349350 0.988419
O O5 0.841423 0.091095 0.581812
O O6 0.771780 0.108343 0.320891
O O7 0.157014 0.126641 0.459160
O O8 0.026600 0.910350 0.091931
O O9 0.731344 0.263959 0.365955
O O10 0.576431 0.169635 0.967005
O O11 0.549855 0.791572 0.248196
O O12 0.500000 0.000000 0.500000
O O13 0.389125 0.275894 0.600694
O O14 0.209335 0.675089 0.257009
O O15 0.500000 0.500000 0.000000
O O16 0.000000 0.500000 0.000000
#
# Coordination Sequence:
#
# PCOD9054835 Si02
#       7
#     2   2   2   2   2   2   2
#     4  12  26  50  82 115 148 202 268 332 389 473
#     4  11  22  45  72 100 155 198 243 306 389 465
#     4  12  24  44  71 113 150 192 257 320 380 468
#     4  11  21  38  68 104 141 196 246 312 385 450
#     4  11  22  46  72 100 151 195 248 307 394 460
#     4  12  27  52  82 110 157 215 263 327 408 479
#     4  11  26  45  72 111 150 201 253 313 390 474
#
# _framework density 23.908788999999999
#
# number of rings (size 3 to 8) (size 9 to 14) (size 15 to 20)
#    0.000    0.571    4.286    4.286    0.000    1.714 
#    5.143    4.286    0.000    0.000    0.000    0.000 
#    0.000    0.000    0.000    0.000    0.000    0.000 
#
# Total GULP energy -78047.205832 kJ/mol
# GULP energy per Si atom -5574.800417 kJ/mol
# Density = 2.385437 g / cm^3
# Si number density = 23.908789 Si / 1000 Ang^3
#
#
#
# Elastic Constant Matrix: (Units=GPa)
#
#
# Indices 1 2 3 4 5 6 
#
# 1 95.2217 49.6602 39.6375 0.7461 6.0853 9.0843
# 2 49.6602 141.7563 44.5028 -11.3416 4.1097 0.0750
# 3 39.6375 44.5028 108.3205 -16.0376 22.2080 2.8453
# 4 0.7461 -11.3416 -16.0376 43.9001 0.0424 9.4654
# 5 6.0853 4.1097 22.2080 0.0424 38.3907 8.2109
# 6 9.0843 0.0750 2.8453 9.4654 8.2109 46.6745
#
#
#
# Elastic Compliance Matrix: (Units=1/GPa)
#
#
# Indices 1 2 3 4 5 6 
#
# 1 0.014475 -0.003980 -0.004153 -0.002303 0.001022 -0.002271
# 2 -0.003980 0.009273 -0.002321 0.001520 0.000886 0.000437
# 3 -0.004153 -0.002321 0.013826 0.004458 -0.007166 0.000326
# 4 -0.002303 0.001520 0.004458 0.025883 -0.001372 -0.004834
# 5 0.001022 0.000886 -0.007166 -0.001372 0.030994 -0.004938
# 6 -0.002271 0.000437 0.000326 -0.004834 -0.004938 0.023695
#
#
# Mechanical properties :
#
#
# Convention : Reuss Voigt Hill
#
# Bulk Modulus (GPa) = 60.00150 68.09995 64.05073
# Shear Modulus (GPa) = 34.57569 39.89293 37.23431
#
# Velocity S-wave (km/s) = 3.80695 4.08922 3.95061
# Velocity P-wave (km/s) = 6.66891 7.13026 6.90344
#
# Compressibility (1/GPa) = 0.01666625
#
# Stress axis : x y z
#
# Youngs Moduli (GPa) = 69.08262 107.83814 72.32840
#
# Poissons Ratio (x) = 0.42920 0.30035
# Poissons Ratio (y) = 0.27495 0.16791
# Poissons Ratio (z) = 0.28687 0.25034
#
# Static dielectric constant tensor:
#      x y z
#    x 2.131900 0.057610 -0.036390 
#    y 0.057610 2.248620 0.163900 
#    z -0.036390 0.163900 1.969220 
# 
# From -- ./inp_files/140867.got.cif
#   From: 2010.05.17/outbox.cif.g08.bks.cpg/sg2_71_cif.got.tgz:140867.got - 2010.06.03 11:33:40.
