data_PCOD9054430
_publ_section_title
;
Structure prediction by ZEFSAII (Michael W. Deem and Ramdas Pophale) SiO2 
 PCOD9054430
Probable space group: P -1
;
_chemical_formula_sum "Si O2"
_cell_formula_units_Z 14
_cell_length_a 11.862655
_cell_length_b 17.637945
_cell_length_c 7.962692
_cell_angle_alpha 43.036480
_cell_angle_beta 49.119682
_cell_angle_gamma 31.647489
_cell_volume 594.161547
_symmetry_space_group_name_H-M "P -1"
_symmetry_group_IT_number 2
_symmetry_cell_setting 'triclinic'
loop_
_space_group_symop_operation_xyz
x,y,z
-x,-y,-z
loop_
_atom_site_type_symbol
_atom_site_label
_atom_site_fract_x
_atom_site_fract_y
_atom_site_fract_z
Si Si1 0.334396 0.674953 0.973423
Si Si2 0.996326 0.338200 0.614665
Si Si3 0.194595 0.385242 0.864880
Si Si4 0.244771 0.143631 0.008254
Si Si5 0.105510 0.017231 0.533729
Si Si6 0.283619 0.051800 0.601373
Si Si7 0.656893 0.206512 0.859725
O O1 0.380572 0.704560 0.069623
O O2 0.151679 0.685410 0.167038
O O3 0.500000 0.500000 0.000000
O O4 0.234665 0.830320 0.708336
O O5 0.108909 0.239428 0.495073
O O6 0.865527 0.517129 0.406471
O O7 0.167877 0.243319 0.749819
O O8 0.423494 0.312857 0.825707
O O9 0.195454 0.256855 0.019805
O O10 0.000000 0.500000 0.000000
O O11 0.130641 0.084544 0.239515
O O12 0.500000 0.000000 0.000000
O O13 0.253996 0.007237 0.530030
O O14 0.862785 0.140755 0.653672
O O15 0.500000 0.000000 0.500000
O O16 0.268046 0.958089 0.897973
#
# Coordination Sequence:
#
# PCOD9054430 Si02
#       7
#     2   2   2   2   2   2   2
#     4  11  26  44  76 117 154 192 244 325 380 428
#     4  12  25  47  72 108 158 184 251 318 373 442
#     4  12  29  49  76 112 150 202 252 310 384 454
#     4  12  29  49  76 112 150 202 252 310 384 454
#     4  11  23  48  79 107 147 204 258 303 374 460
#     4  11  20  44  78 107 142 196 253 309 369 453
#     4  11  23  48  79 107 147 204 258 303 374 460
#
# _framework density 23.562615999999998
#
# number of rings (size 3 to 8) (size 9 to 14) (size 15 to 20)
#    0.000    0.571    2.857    5.571    4.000    3.429 
#    0.000    0.000    0.000    0.000    0.000    0.000 
#    0.000    0.000    0.000    0.000    0.000    0.000 
#
# Total GULP energy -78068.569520 kJ/mol
# GULP energy per Si atom -5576.326394 kJ/mol
# Density = 2.350899 g / cm^3
# Si number density = 23.562616 Si / 1000 Ang^3
#
#
#
# Elastic Constant Matrix: (Units=GPa)
#
#
# Indices 1 2 3 4 5 6 
#
# 1 126.6188 52.7101 55.1904 -13.7601 3.4913 0.5316
# 2 52.7101 128.5522 53.9634 -23.2253 -7.3749 19.8497
# 3 55.1904 53.9634 169.1719 -20.1521 -3.1820 -1.3789
# 4 -13.7601 -23.2253 -20.1521 29.1974 -0.0819 -3.6143
# 5 3.4913 -7.3749 -3.1820 -0.0819 42.5746 -5.9559
# 6 0.5316 19.8497 -1.3789 -3.6143 -5.9559 42.4729
#
#
#
# Elastic Compliance Matrix: (Units=1/GPa)
#
#
# Indices 1 2 3 4 5 6 
#
# 1 0.010435 -0.003493 -0.002216 0.000766 -0.001444 0.001292
# 2 -0.003493 0.011950 -0.001982 0.005891 0.001536 -0.004889
# 3 -0.002216 -0.001982 0.007628 0.002836 0.000628 0.001531
# 4 0.000766 0.005891 0.002836 0.041388 0.001396 0.001047
# 5 -0.001444 0.001536 0.000628 0.001396 0.024321 0.002850
# 6 0.001292 -0.004889 0.001531 0.001047 0.002850 0.026351
#
#
# Mechanical properties :
#
#
# Convention : Reuss Voigt Hill
#
# Bulk Modulus (GPa) = 68.33521 83.11898 75.72709
# Shear Modulus (GPa) = 35.12929 40.34759 37.73844
#
# Velocity S-wave (km/s) = 3.86539 4.14255 4.00637
# Velocity P-wave (km/s) = 6.99901 7.63108 7.32187
#
# Compressibility (1/GPa) = 0.01463374
#
# Stress axis : x y z
#
# Youngs Moduli (GPa) = 95.83105 83.68040 131.09277
#
# Poissons Ratio (x) = 0.29226 0.29044
# Poissons Ratio (y) = 0.33470 0.25979
# Poissons Ratio (z) = 0.21232 0.16583
#
# Static dielectric constant tensor:
#      x y z
#    x 1.825050 -0.022980 0.081110 
#    y -0.022980 1.929660 -0.001040 
#    z 0.081110 -0.001040 1.944780 
# 
# From -- ./inp_files/278760.got.cif
#   From: 2010.05.17/outbox.cif.g08.bks.cpg/sg2_140_cif.got.tgz:278760.got - 2010.06.03 11:33:40.
