data_PCOD9054212
_publ_section_title
;
Structure prediction by ZEFSAII (Michael W. Deem and Ramdas Pophale) SiO2 
 PCOD9054212
Probable space group: P -1
;
_chemical_formula_sum "Si O2"
_cell_formula_units_Z 15
_cell_length_a 10.073045
_cell_length_b 12.231029
_cell_length_c 8.916571
_cell_angle_alpha 82.234481
_cell_angle_beta 80.298906
_cell_angle_gamma 140.290899
_cell_volume 627.712561
_symmetry_space_group_name_H-M "P -1"
_symmetry_group_IT_number 2
_symmetry_cell_setting 'triclinic'
loop_
_space_group_symop_operation_xyz
x,y,z
-x,-y,-z
loop_
_atom_site_type_symbol
_atom_site_label
_atom_site_fract_x
_atom_site_fract_y
_atom_site_fract_z
Si Si1 0.276113 0.564915 0.788584
Si Si2 0.789131 0.943855 0.578711
Si Si3 0.859802 0.714508 0.356513
Si Si4 0.136138 0.659844 0.568604
Si Si5 0.053895 0.329470 0.144578
Si Si6 0.500000 0.500000 0.000000
Si Si7 0.596811 0.930371 0.315444
Si Si8 0.480174 0.358873 0.717777
O O1 0.551967 0.726373 0.716168
O O2 0.158070 0.386616 0.753573
O O3 0.222212 0.635343 0.688281
O O4 0.177827 0.501587 0.984799
O O5 0.711954 0.955631 0.440395
O O6 0.000000 0.000000 0.500000
O O7 0.894027 0.096280 0.653982
O O8 0.684720 0.550974 0.546236
O O9 0.748066 0.751253 0.305272
O O10 0.375057 0.855920 0.411691
O O11 0.000000 0.500000 0.500000
O O12 0.986034 0.649565 0.685756
O O13 0.217834 0.333186 0.097149
O O14 0.801292 0.134347 0.166453
O O15 0.527919 0.599487 0.122567
O O16 0.511709 0.767360 0.271033
#
# Coordination Sequence:
#
# PCOD9054212 Si02
#       8
#     2   2   2   2   2   1   2   2
#     4  11  25  48  69 108 143 188 245 302 361 430
#     4  11  21  38  74 103 140 194 243 290 357 433
#     4  11  20  41  69  99 140 188 242 288 351 430
#     4  11  25  51  76  97 137 197 252 299 354 435
#     4  12  27  45  69 106 152 184 235 305 372 424
#     4  12  26  40  68 106 150 188 220 304 378 404
#     4  11  24  44  74 105 142 197 245 293 361 446
#     4  11  21  41  66 104 145 184 242 291 351 433
#
# _framework density 23.89629
#
# number of rings (size 3 to 8) (size 9 to 14) (size 15 to 20)
#    0.000    0.800    5.333    3.200    3.733    0.533 
#    4.800    0.667    0.000    0.000    0.000    0.000 
#    0.000    0.000    0.000    0.000    0.000    0.000 
#
# Total GULP energy -83723.354092 kJ/mol
# GULP energy per Si atom -5581.556939 kJ/mol
# Density = 2.384190 g / cm^3
# Si number density = 23.896290 Si / 1000 Ang^3
#
#
#
# Elastic Constant Matrix: (Units=GPa)
#
#
# Indices 1 2 3 4 5 6 
#
# 1 62.6344 3.8555 32.6198 -1.7698 -16.5914 14.1083
# 2 3.8555 149.6281 57.3367 10.8494 -15.0193 8.0217
# 3 32.6198 57.3367 130.6852 2.3712 -38.7533 6.3949
# 4 -1.7698 10.8494 2.3712 50.8059 0.4160 -9.2309
# 5 -16.5914 -15.0193 -38.7533 0.4160 38.5894 3.6594
# 6 14.1083 8.0217 6.3949 -9.2309 3.6594 37.0350
#
#
#
# Elastic Compliance Matrix: (Units=1/GPa)
#
#
# Indices 1 2 3 4 5 6 
#
# 1 0.021747 0.002193 -0.003749 -0.001258 0.007320 -0.009149
# 2 0.002193 0.008475 -0.003943 -0.002017 0.000545 -0.002547
# 3 -0.003749 -0.003943 0.013496 -0.000212 0.010517 -0.001140
# 4 -0.001258 -0.002017 -0.000212 0.021278 -0.002383 0.006492
# 5 0.007320 0.000545 0.010517 -0.002383 0.040747 -0.009343
# 6 -0.009149 -0.002547 -0.001140 0.006492 -0.009343 0.033776
#
#
# Mechanical properties :
#
#
# Convention : Reuss Voigt Hill
#
# Bulk Modulus (GPa) = 30.56242 58.95243 44.75743
# Shear Modulus (GPa) = 30.97406 41.89511 36.43459
#
# Velocity S-wave (km/s) = 3.60417 4.19167 3.90897
# Velocity P-wave (km/s) = 5.48975 6.93906 6.25651
#
# Compressibility (1/GPa) = 0.03271992
#
# Stress axis : x y z
#
# Youngs Moduli (GPa) = 45.98240 117.99319 74.09537
#
# Poissons Ratio (x) = -0.25873 0.27780
# Poissons Ratio (y) = -0.10083 0.29215
# Poissons Ratio (z) = 0.17240 0.46523
#
# Static dielectric constant tensor:
#      x y z
#    x 1.986480 -0.020200 0.034440 
#    y -0.020200 1.937490 -0.023310 
#    z 0.034440 -0.023310 1.909580 
# 
# From -- ./inp_files/273352.got.cif
#   From: 2010.05.17/outbox.cif.g08.bks.cpg/sg2_137_cif.got.tgz:273352.got - 2010.06.03 11:33:40.
