data_PCOD9054637
_publ_section_title
;
Structure prediction by ZEFSAII (Michael W. Deem and Ramdas Pophale) SiO2 
 PCOD9054637
Probable space group: P -1
;
_chemical_formula_sum "Si O2"
_cell_formula_units_Z 16
_cell_length_a 16.313407
_cell_length_b 8.549339
_cell_length_c 19.647788
_cell_angle_alpha 131.258906
_cell_angle_beta 159.286275
_cell_angle_gamma 58.656547
_cell_volume 678.743709
_symmetry_space_group_name_H-M "P -1"
_symmetry_group_IT_number 2
_symmetry_cell_setting 'triclinic'
loop_
_space_group_symop_operation_xyz
x,y,z
-x,-y,-z
loop_
_atom_site_type_symbol
_atom_site_label
_atom_site_fract_x
_atom_site_fract_y
_atom_site_fract_z
Si Si1 0.253327 0.049337 0.307274
Si Si2 0.554020 0.843541 0.919907
Si Si3 0.998617 0.278673 0.088850
Si Si4 0.030388 0.742373 0.307244
Si Si5 0.529531 0.152619 0.777573
Si Si6 0.702727 0.622716 0.443352
Si Si7 0.742602 0.322841 0.138275
Si Si8 0.023346 0.764781 0.467033
O O1 0.224912 0.175821 0.389280
O O2 0.500000 0.000000 0.500000
O O3 0.061965 0.815127 0.061454
O O4 0.230682 0.225467 0.283654
O O5 0.474659 0.628309 0.744195
O O6 0.271582 0.798560 0.713927
O O7 0.620135 0.095786 0.018907
O O8 0.793383 0.819061 0.134799
O O9 0.756598 0.130315 0.903808
O O10 0.014235 0.527326 0.188161
O O11 0.041506 0.689517 0.380781
O O12 0.285806 0.936110 0.539134
O O13 0.444876 0.321240 0.716437
O O14 0.635482 0.256822 0.961382
O O15 0.965524 0.634691 0.623348
O O16 0.776482 0.579836 0.254880
O O17 0.000000 0.000000 0.500000
#
# Coordination Sequence:
#
# PCOD9054637 Si02
#       8
#     2   2   2   2   2   2   2   2
#     4  11  21  37  62  87 126 169 208 259 312 354
#     4  11  22  40  68  94 122 164 209 252 308 374
#     4  11  23  40  60  89 126 165 209 263 307 360
#     4  12  23  42  66  94 120 165 212 252 310 380
#     4  12  21  38  66  89 120 165 206 252 306 367
#     4  11  21  39  64  90 122 165 211 259 304 357
#     4  11  22  40  65  94 121 164 211 251 308 370
#     4  11  25  43  65  94 129 161 199 257 314 369
#
# _framework density 23.572960999999999
#
# number of rings (size 3 to 8) (size 9 to 14) (size 15 to 20)
#    0.000    0.750    7.500    0.750    0.000    1.000 
#    0.000    5.000    0.000    0.000    0.000    0.000 
#    0.000    0.000    0.000    0.000    0.000    0.000 
#
# Total GULP energy -89156.933854 kJ/mol
# GULP energy per Si atom -5572.308366 kJ/mol
# Density = 2.351931 g / cm^3
# Si number density = 23.572961 Si / 1000 Ang^3
#
#
#
# Elastic Constant Matrix: (Units=GPa)
#
#
# Indices 1 2 3 4 5 6 
#
# 1 36.9958 21.0320 30.1155 16.1840 -6.0696 -0.9165
# 2 21.0320 128.6223 73.3065 11.9332 -9.1014 -2.6104
# 3 30.1155 73.3065 143.9511 10.9808 6.0422 15.0371
# 4 16.1840 11.9332 10.9808 65.4601 9.9252 -4.0556
# 5 -6.0696 -9.1014 6.0422 9.9252 34.0993 -3.7165
# 6 -0.9165 -2.6104 15.0371 -4.0556 -3.7165 30.1553
#
#
#
# Elastic Compliance Matrix: (Units=1/GPa)
#
#
# Indices 1 2 3 4 5 6 
#
# 1 0.040943 0.000534 -0.009227 -0.010222 0.012703 0.006082
# 2 0.000534 0.012375 -0.007049 -0.001757 0.005711 0.005070
# 3 -0.009227 -0.007049 0.013495 0.001908 -0.007372 -0.008272
# 4 -0.010222 -0.001757 0.001908 0.019049 -0.008156 0.000143
# 5 0.012703 0.005711 -0.007372 -0.008156 0.037675 0.008103
# 6 0.006082 0.005070 -0.008272 0.000143 0.008103 0.038928
#
#
# Mechanical properties :
#
#
# Convention : Reuss Voigt Hill
#
# Bulk Modulus (GPa) = 28.30422 62.05304 45.17863
# Shear Modulus (GPa) = 24.30443 38.28397 31.29420
#
# Velocity S-wave (km/s) = 3.21445 4.03434 3.64750
# Velocity P-wave (km/s) = 5.08036 6.93413 6.07833
#
# Compressibility (1/GPa) = 0.03533042
#
# Stress axis : x y z
#
# Youngs Moduli (GPa) = 24.42405 80.80935 74.10361
#
# Poissons Ratio (x) = -0.04317 0.68372
# Poissons Ratio (y) = -0.01305 0.52235
# Poissons Ratio (z) = 0.22535 0.56961
#
# Static dielectric constant tensor:
#      x y z
#    x 1.919310 -0.056580 -0.019850 
#    y -0.056580 2.092160 0.066280 
#    z -0.019850 0.066280 1.924800 
# 
# From -- ./inp_files/599571.got.cif
#   From: 2010.05.17/outbox.cif.g08.bks.cpg/sg2_300_cif.got.tgz:599571.got - 2010.06.03 11:33:40.
