data_PCOD9054445
_publ_section_title
;
Structure prediction by ZEFSAII (Michael W. Deem and Ramdas Pophale) SiO2 
 PCOD9054445
Probable space group: P -1
;
_chemical_formula_sum "Si O2"
_cell_formula_units_Z 14
_cell_length_a 5.215226
_cell_length_b 8.707224
_cell_length_c 21.938126
_cell_angle_alpha 32.879698
_cell_angle_beta 82.971282
_cell_angle_gamma 89.979507
_cell_volume 526.972482
_symmetry_space_group_name_H-M "P -1"
_symmetry_group_IT_number 2
_symmetry_cell_setting 'triclinic'
loop_
_space_group_symop_operation_xyz
x,y,z
-x,-y,-z
loop_
_atom_site_type_symbol
_atom_site_label
_atom_site_fract_x
_atom_site_fract_y
_atom_site_fract_z
Si Si1 0.271038 0.724563 0.771635
Si Si2 0.451671 0.010166 0.143680
Si Si3 0.751856 0.916182 0.991411
Si Si4 0.055684 0.642141 0.545538
Si Si5 0.763721 0.160983 0.400907
Si Si6 0.507737 0.311857 0.636151
Si Si7 0.171500 0.454631 0.070141
O O1 0.312934 0.707842 0.703776
O O2 0.974178 0.689324 0.817618
O O3 0.418898 0.026560 0.693851
O O4 0.322541 0.430244 0.898061
O O5 0.228638 0.930250 0.126055
O O6 0.349319 0.231369 0.118473
O O7 0.541874 0.776340 0.261534
O O8 0.688969 0.216994 0.034231
O O9 0.500000 0.000000 0.000000
O O10 0.000000 0.000000 0.000000
O O11 0.075698 0.634010 0.621359
O O12 0.328422 0.550006 0.547328
O O13 0.819158 0.428585 0.590735
O O14 0.956279 0.947197 0.442188
O O15 0.500000 0.000000 0.500000
O O16 0.000000 0.500000 0.000000
#
# Coordination Sequence:
#
# PCOD9054445 Si02
#       7
#     2   2   2   2   2   2   2
#     4  12  27  50  81 117 154 215 265 333 392 470
#     4  11  24  43  73 108 166 203 249 323 382 472
#     4  12  29  46  71 116 163 210 259 314 384 486
#     4  11  27  53  79 118 153 207 262 338 402 472
#     4  11  27  58  80 111 163 207 264 334 408 473
#     4  12  26  47  83 120 152 209 265 326 402 468
#     4  11  20  46  70 110 158 200 257 310 389 457
#
# _framework density 26.566852999999998
#
# number of rings (size 3 to 8) (size 9 to 14) (size 15 to 20)
#    0.000    0.571    4.286    2.571    4.000    2.286 
#   18.000    0.000    0.000    0.000    0.000    0.000 
#    0.000    0.000    0.000    0.000    0.000    0.000 
#
# Total GULP energy -78268.622797 kJ/mol
# GULP energy per Si atom -5590.615914 kJ/mol
# Density = 2.650639 g / cm^3
# Si number density = 26.566853 Si / 1000 Ang^3
#
#
#
# Elastic Constant Matrix: (Units=GPa)
#
#
# Indices 1 2 3 4 5 6 
#
# 1 128.7158 26.5656 30.0119 -8.3769 -1.8767 5.6128
# 2 26.5656 94.7333 19.1834 13.7211 -11.1734 16.2201
# 3 30.0119 19.1834 124.2037 25.0824 -3.5499 16.9184
# 4 -8.3769 13.7211 25.0824 43.4291 -1.4084 14.4991
# 5 -1.8767 -11.1734 -3.5499 -1.4084 41.6262 -0.4953
# 6 5.6128 16.2201 16.9184 14.4991 -0.4953 58.7777
#
#
#
# Elastic Compliance Matrix: (Units=1/GPa)
#
#
# Indices 1 2 3 4 5 6 
#
# 1 0.009219 -0.002638 -0.002632 0.004270 -0.000378 -0.000451
# 2 -0.002638 0.012600 -0.000201 -0.003514 0.003100 -0.002275
# 3 -0.002632 -0.000201 0.010072 -0.005865 0.000474 -0.001142
# 4 0.004270 -0.003514 -0.005865 0.030063 -0.000295 -0.005168
# 5 -0.000378 0.003100 0.000474 -0.000295 0.024861 -0.000674
# 6 -0.000451 -0.002275 -0.001142 -0.005168 -0.000674 0.019282
#
#
# Mechanical properties :
#
#
# Convention : Reuss Voigt Hill
#
# Bulk Modulus (GPa) = 47.73253 55.46385 51.59819
# Shear Modulus (GPa) = 40.31549 46.89274 43.60412
#
# Velocity S-wave (km/s) = 3.89975 4.20585 4.05569
# Velocity P-wave (km/s) = 6.18735 6.67143 6.43395
#
# Compressibility (1/GPa) = 0.02095007
#
# Stress axis : x y z
#
# Youngs Moduli (GPa) = 108.46814 79.36221 99.28871
#
# Poissons Ratio (x) = 0.20937 0.26132
# Poissons Ratio (y) = 0.28616 0.01992
# Poissons Ratio (z) = 0.28548 0.01592
#
# Static dielectric constant tensor:
#      x y z
#    x 2.178960 -0.012500 -0.118120 
#    y -0.012500 2.109660 0.023100 
#    z -0.118120 0.023100 2.097720 
# 
# From -- ./inp_files/582174.got.cif
#   From: 2010.05.17/outbox.cif.g08.bks.cpg/sg2_292_cif.got.tgz:582174.got - 2010.06.03 11:33:40.
