data_PCOD9054538
_publ_section_title
;
Structure prediction by ZEFSAII (Michael W. Deem and Ramdas Pophale) SiO2 
 PCOD9054538
Probable space group: P -1
;
_chemical_formula_sum "Si O2"
_cell_formula_units_Z 14
_cell_length_a 13.607705
_cell_length_b 5.270430
_cell_length_c 18.245358
_cell_angle_alpha 97.617054
_cell_angle_beta 31.805354
_cell_angle_gamma 116.648702
_cell_volume 523.536615
_symmetry_space_group_name_H-M "P -1"
_symmetry_group_IT_number 2
_symmetry_cell_setting 'triclinic'
loop_
_space_group_symop_operation_xyz
x,y,z
-x,-y,-z
loop_
_atom_site_type_symbol
_atom_site_label
_atom_site_fract_x
_atom_site_fract_y
_atom_site_fract_z
Si Si1 0.235563 0.767183 0.558903
Si Si2 0.346028 0.257692 0.221108
Si Si3 0.719662 0.327453 0.827991
Si Si4 0.742963 0.453835 0.320013
Si Si5 0.610989 0.329481 0.678966
Si Si6 0.239806 0.296196 0.818394
Si Si7 0.240028 0.659626 0.955973
O O1 0.238528 0.526376 0.603973
O O2 0.257249 0.765810 0.456801
O O3 0.956165 0.608077 0.736861
O O4 0.473324 0.126745 0.451986
O O5 0.346210 0.465939 0.163455
O O6 0.240406 0.327313 0.358746
O O7 0.613130 0.408084 0.088784
O O8 0.220764 0.875396 0.266804
O O9 0.500000 0.000000 0.000000
O O10 0.782890 0.736338 0.255149
O O11 0.969947 0.481384 0.147794
O O12 0.462179 0.334208 0.708738
O O13 0.418631 0.059116 0.850807
O O14 0.255842 0.587137 0.857819
O O15 0.000000 0.000000 0.000000
#
# Coordination Sequence:
#
# PCOD9054538 Si02
#       7
#     2   2   2   2   2   2   2
#     4  11  27  44  72 108 159 196 253 310 389 444
#     4  11  26  48  82 108 145 200 256 314 369 446
#     4  12  27  52  78 112 150 200 255 316 377 453
#     4  11  23  45  70 111 157 200 243 317 380 453
#     4  11  23  44  71 115 144 202 245 313 373 454
#     4  11  21  35  73 108 148 200 250 302 369 460
#     4  11  21  44  76 107 151 189 260 295 380 453
#
# _framework density 26.741202000000001
#
# number of rings (size 3 to 8) (size 9 to 14) (size 15 to 20)
#    0.000    0.857    4.286    2.571    0.000    2.857 
#    0.000    2.857    0.000    0.000    0.000    0.000 
#    0.000    0.000    0.000    0.000    0.000    0.000 
#
# Total GULP energy -78097.803352 kJ/mol
# GULP energy per Si atom -5578.414525 kJ/mol
# Density = 2.668034 g / cm^3
# Si number density = 26.741202 Si / 1000 Ang^3
#
#
#
# Elastic Constant Matrix: (Units=GPa)
#
#
# Indices 1 2 3 4 5 6 
#
# 1 173.4019 33.3821 59.7068 -11.7876 -1.3625 -30.8613
# 2 33.3821 90.4265 29.4509 -9.3875 -2.3814 -12.7067
# 3 59.7068 29.4509 148.9539 -18.1792 -8.7508 2.3881
# 4 -11.7876 -9.3875 -18.1792 33.6108 10.6858 1.7814
# 5 -1.3625 -2.3814 -8.7508 10.6858 37.7498 -0.4587
# 6 -30.8613 -12.7067 2.3881 1.7814 -0.4587 45.6896
#
#
#
# Elastic Compliance Matrix: (Units=1/GPa)
#
#
# Indices 1 2 3 4 5 6 
#
# 1 0.007999 -0.001182 -0.002998 0.000781 -0.000639 0.005194
# 2 -0.001182 0.012688 -0.001840 0.002058 -0.000218 0.002744
# 3 -0.002998 -0.001840 0.008754 0.003046 0.000905 -0.003104
# 4 0.000781 0.002058 0.003046 0.035169 -0.009097 -0.000522
# 5 -0.000639 -0.000218 0.000905 -0.009097 0.029240 0.000109
# 6 0.005194 0.002744 -0.003104 -0.000522 0.000109 0.026342
#
#
# Mechanical properties :
#
#
# Convention : Reuss Voigt Hill
#
# Bulk Modulus (GPa) = 57.47328 73.09576 65.28452
# Shear Modulus (GPa) = 36.22315 42.75955 39.49135
#
# Velocity S-wave (km/s) = 3.68446 4.00311 3.84708
# Velocity P-wave (km/s) = 6.29598 6.98286 6.64830
#
# Compressibility (1/GPa) = 0.01739939
#
# Stress axis : x y z
#
# Youngs Moduli (GPa) = 125.00806 78.81450 114.23565
#
# Poissons Ratio (x) = 0.09319 0.34250
# Poissons Ratio (y) = 0.14781 0.21024
# Poissons Ratio (z) = 0.37480 0.14505
#
# Static dielectric constant tensor:
#      x y z
#    x 2.960230 0.869800 -0.312490 
#    y 0.869800 3.197010 -0.298300 
#    z -0.312490 -0.298300 2.333090 
# 
# From -- ./inp_files/596656.got.cif
#   From: 2010.05.17/outbox.cif.g08.bks.cpg/sg2_299_cif.got.tgz:596656.got - 2010.06.03 11:33:40.
