data_PCOD9054138
_publ_section_title
;
Structure prediction by ZEFSAII (Michael W. Deem and Ramdas Pophale) SiO2 
 PCOD9054138
Probable space group: P -1
;
_chemical_formula_sum "Si O2"
_cell_formula_units_Z 16
_cell_length_a 8.056196
_cell_length_b 8.955750
_cell_length_c 16.108857
_cell_angle_alpha 40.231454
_cell_angle_beta 107.021682
_cell_angle_gamma 92.666882
_cell_volume 687.686322
_symmetry_space_group_name_H-M "P -1"
_symmetry_group_IT_number 2
_symmetry_cell_setting 'triclinic'
loop_
_space_group_symop_operation_xyz
x,y,z
-x,-y,-z
loop_
_atom_site_type_symbol
_atom_site_label
_atom_site_fract_x
_atom_site_fract_y
_atom_site_fract_z
Si Si1 0.338953 0.327700 0.905671
Si Si2 0.643553 0.855629 0.193680
Si Si3 0.489648 0.248908 0.236229
Si Si4 0.065846 0.058439 0.683359
Si Si5 0.797769 0.794679 0.512591
Si Si6 0.271611 0.989191 0.411227
Si Si7 0.452957 0.496760 0.396771
Si Si8 0.832482 0.500757 0.035531
O O1 0.292757 0.243095 0.846094
O O2 0.395604 0.572202 0.799334
O O3 0.179011 0.370293 0.931674
O O4 0.520100 0.129557 0.048028
O O5 0.505945 0.718646 0.269418
O O6 0.821737 0.825374 0.287844
O O7 0.628381 0.983203 0.358734
O O8 0.357515 0.200018 0.307818
O O9 0.356265 0.362481 0.093994
O O10 0.164887 0.771832 0.826036
O O11 0.049290 0.199490 0.533072
O O12 0.861228 0.046000 0.666630
O O13 0.745245 0.546990 0.619022
O O14 0.811363 0.920351 0.549197
O O15 0.424269 0.735862 0.536966
O O16 0.500000 0.500000 0.500000
O O17 0.000000 0.500000 0.000000
#
# Coordination Sequence:
#
# PCOD9054138 Si02
#       8
#     2   2   2   2   2   2   2   2
#     4  11  23  41  71  97 125 172 218 268 316 389
#     4  11  24  42  66  95 135 174 216 256 324 393
#     4  11  20  40  71  93 124 163 219 272 313 370
#     4  12  23  42  65  95 133 168 208 268 332 383
#     4  11  22  42  66  95 125 167 222 265 312 379
#     4  11  25  40  66  96 129 167 213 270 320 376
#     4  11  23  41  63  93 127 171 216 257 313 385
#     4  12  24  41  68 101 131 163 215 276 332 374
#
# _framework density 23.26642
#
# number of rings (size 3 to 8) (size 9 to 14) (size 15 to 20)
#    0.000    0.750    5.000    4.500    1.750    0.500 
#    0.000    0.625    0.000    0.000    0.000    0.000 
#    0.000    0.000    0.000    0.000    0.000    0.000 
#
# Total GULP energy -89338.502376 kJ/mol
# GULP energy per Si atom -5583.656398 kJ/mol
# Density = 2.321346 g / cm^3
# Si number density = 23.266420 Si / 1000 Ang^3
#
#
#
# Elastic Constant Matrix: (Units=GPa)
#
#
# Indices 1 2 3 4 5 6 
#
# 1 69.5538 48.2002 11.1397 9.6924 -16.6861 12.9333
# 2 48.2002 118.8074 18.0167 20.2781 -24.3286 -1.0310
# 3 11.1397 18.0167 63.9331 -2.3839 -17.7879 2.5248
# 4 9.6924 20.2781 -2.3839 33.3066 1.7039 -10.2636
# 5 -16.6861 -24.3286 -17.7879 1.7039 30.2547 7.2484
# 6 12.9333 -1.0310 2.5248 -10.2636 7.2484 34.7768
#
#
#
# Elastic Compliance Matrix: (Units=1/GPa)
#
#
# Indices 1 2 3 4 5 6 
#
# 1 0.026371 -0.006522 0.001573 -0.009225 0.014546 -0.015869
# 2 -0.006522 0.014053 -0.000890 -0.007401 0.007815 -0.000906
# 3 0.001573 -0.000890 0.019323 -0.000683 0.012717 -0.004866
# 4 -0.009225 -0.007401 -0.000683 0.044375 -0.018797 0.020275
# 5 0.014546 0.007815 0.012717 -0.018797 0.061769 -0.024523
# 6 -0.015869 -0.000906 -0.004866 0.020275 -0.024523 0.046078
#
#
# Mechanical properties :
#
#
# Convention : Reuss Voigt Hill
#
# Bulk Modulus (GPa) = 20.80328 45.22306 33.01317
# Shear Modulus (GPa) = 20.86197 31.33013 26.09605
#
# Velocity S-wave (km/s) = 2.99767 3.67356 3.35269
# Velocity P-wave (km/s) = 4.57625 6.12149 5.40438
#
# Compressibility (1/GPa) = 0.04806934
#
# Stress axis : x y z
#
# Youngs Moduli (GPa) = 37.92064 71.15722 51.75194
#
# Poissons Ratio (x) = 0.46407 -0.08139
# Poissons Ratio (y) = 0.24731 0.04605
# Poissons Ratio (z) = -0.05964 0.06332
#
# Static dielectric constant tensor:
#      x y z
#    x 1.973720 -0.051070 -0.031280 
#    y -0.051070 1.877150 0.023650 
#    z -0.031280 0.023650 1.902060 
# 
# From -- ./inp_files/298873.got.cif
#   From: 2010.05.17/outbox.cif.g08.bks.cpg/sg2_150_cif.got.tgz:298873.got - 2010.06.03 11:33:40.
