data_PCOD9054789
_publ_section_title
;
Structure prediction by ZEFSAII (Michael W. Deem and Ramdas Pophale) SiO2 
 PCOD9054789
Probable space group: P -1
;
_chemical_formula_sum "Si O2"
_cell_formula_units_Z 16
_cell_length_a 11.301367
_cell_length_b 6.567020
_cell_length_c 17.360265
_cell_angle_alpha 98.557663
_cell_angle_beta 57.734280
_cell_angle_gamma 56.670738
_cell_volume 710.002842
_symmetry_space_group_name_H-M "P -1"
_symmetry_group_IT_number 2
_symmetry_cell_setting 'triclinic'
loop_
_space_group_symop_operation_xyz
x,y,z
-x,-y,-z
loop_
_atom_site_type_symbol
_atom_site_label
_atom_site_fract_x
_atom_site_fract_y
_atom_site_fract_z
Si Si1 0.089563 0.534296 0.050260
Si Si2 0.211156 0.839851 0.732614
Si Si3 0.384043 0.840792 0.388088
Si Si4 0.896251 0.803046 0.841966
Si Si5 0.438627 0.064982 0.791981
Si Si6 0.668086 0.421346 0.735074
Si Si7 0.936783 0.766748 0.344464
Si Si8 0.500310 0.685981 0.089724
O O1 0.114479 0.302678 0.079229
O O2 0.194455 0.377251 0.921125
O O3 0.263988 0.503741 0.024690
O O4 0.873881 0.896546 0.161336
O O5 0.442768 0.497504 0.650948
O O6 0.058115 0.811508 0.788141
O O7 0.184942 0.976994 0.666875
O O8 0.507095 0.890009 0.304952
O O9 0.275171 0.823289 0.358150
O O10 0.217672 0.101934 0.522907
O O11 0.979459 0.536430 0.739108
O O12 0.666679 0.130743 0.910409
O O13 0.560049 0.061664 0.816224
O O14 0.532032 0.738254 0.753627
O O15 0.524083 0.483038 0.856196
O O16 0.870661 0.304013 0.696496
#
# Coordination Sequence:
#
# PCOD9054789 Si02
#       8
#     2   2   2   2   2   2   2   2
#     4   9  22  38  63  95 126 164 204 259 308 374
#     4  11  25  42  63  95 128 168 208 253 313 379
#     4  11  26  43  63  91 131 169 208 255 313 372
#     4  11  21  38  65  92 131 158 210 255 321 362
#     4   9  22  40  61  94 124 161 208 252 315 365
#     4  11  21  42  68  93 126 160 212 262 312 368
#     4  11  23  43  67  95 121 163 217 264 305 364
#     4   9  19  37  60  97 122 157 201 260 307 364
#
# _framework density 22.535121
#
# number of rings (size 3 to 8) (size 9 to 14) (size 15 to 20)
#    0.750    1.000    2.500    1.125    1.750    5.000 
#    0.000    1.250    0.000    0.000    0.000    0.000 
#    0.000    0.000    0.000    0.000    0.000    0.000 
#
# Total GULP energy -89442.765423 kJ/mol
# GULP energy per Si atom -5590.172839 kJ/mol
# Density = 2.248383 g / cm^3
# Si number density = 22.535121 Si / 1000 Ang^3
#
#
#
# Elastic Constant Matrix: (Units=GPa)
#
#
# Indices 1 2 3 4 5 6 
#
# 1 46.6539 10.4184 12.2936 -3.5671 18.0926 -9.4381
# 2 10.4184 98.0693 28.2716 -11.3461 14.5207 2.2170
# 3 12.2936 28.2716 105.1829 -22.0673 24.5192 12.2389
# 4 -3.5671 -11.3461 -22.0673 25.8369 -0.5213 -5.7915
# 5 18.0926 14.5207 24.5192 -0.5213 20.7408 0.7350
# 6 -9.4381 2.2170 12.2389 -5.7915 0.7350 29.4126
#
#
#
# Elastic Compliance Matrix: (Units=1/GPa)
#
#
# Indices 1 2 3 4 5 6 
#
# 1 0.040421 0.001708 0.006448 0.014093 -0.044222 0.014038
# 2 0.001708 0.012101 -0.000185 0.005427 -0.009643 0.001022
# 3 0.006448 -0.000185 0.018639 0.015759 -0.027068 -0.001894
# 4 0.014093 0.005427 0.015759 0.058015 -0.033612 0.009819
# 5 -0.044222 -0.009643 -0.027068 -0.033612 0.125118 -0.011945
# 6 0.014038 0.001022 -0.001894 0.009819 -0.011945 0.041447
#
#
# Mechanical properties :
#
#
# Convention : Reuss Voigt Hill
#
# Bulk Modulus (GPa) = 11.48043 39.09704 25.28874
# Shear Modulus (GPa) = 16.18993 28.45956 22.32474
#
# Velocity S-wave (km/s) = 2.68326 3.55758 3.15090
# Velocity P-wave (km/s) = 3.83476 5.85340 4.94811
#
# Compressibility (1/GPa) = 0.08710472
#
# Stress axis : x y z
#
# Youngs Moduli (GPa) = 24.73966 82.63584 53.64975
#
# Poissons Ratio (x) = -0.14113 -0.34596
# Poissons Ratio (y) = -0.04225 0.00991
# Poissons Ratio (z) = -0.15953 0.01526
#
# Static dielectric constant tensor:
#      x y z
#    x 1.923470 0.004100 -0.002370 
#    y 0.004100 1.787120 0.019050 
#    z -0.002370 0.019050 1.799230 
# 
# From -- ./inp_files/564452.got.cif
#   From: 2010.05.17/outbox.cif.g08.bks.cpg/sg2_283_cif.got.tgz:564452.got - 2010.06.03 11:33:40.
