data_PCOD9054855
_publ_section_title
;
Structure prediction by ZEFSAII (Michael W. Deem and Ramdas Pophale) SiO2 
 PCOD9054855
Probable space group: P -1
;
_chemical_formula_sum "Si O2"
_cell_formula_units_Z 16
_cell_length_a 11.730699
_cell_length_b 16.256988
_cell_length_c 9.355360
_cell_angle_alpha 135.830210
_cell_angle_beta 37.363958
_cell_angle_gamma 135.278570
_cell_volume 711.612424
_symmetry_space_group_name_H-M "P -1"
_symmetry_group_IT_number 2
_symmetry_cell_setting 'triclinic'
loop_
_space_group_symop_operation_xyz
x,y,z
-x,-y,-z
loop_
_atom_site_type_symbol
_atom_site_label
_atom_site_fract_x
_atom_site_fract_y
_atom_site_fract_z
Si Si1 0.792477 0.811416 0.626688
Si Si2 0.947119 0.423348 0.312891
Si Si3 0.956578 0.040935 0.939326
Si Si4 0.594044 0.533653 0.107089
Si Si5 0.693251 0.807391 0.395754
Si Si6 0.578038 0.275640 0.914464
Si Si7 0.977198 0.600228 0.261679
Si Si8 0.364354 0.833099 0.586100
O O1 0.774543 0.838247 0.511812
O O2 0.862307 0.690521 0.430205
O O3 0.943257 0.930421 0.704337
O O4 0.583178 0.792096 0.891170
O O5 0.792973 0.289697 0.337421
O O6 0.000000 0.500000 0.500000
O O7 0.877077 0.510403 0.382270
O O8 0.165430 0.422353 0.051871
O O9 0.129414 0.161842 0.858275
O O10 0.752090 0.069826 0.190078
O O11 0.000000 0.000000 0.000000
O O12 0.560740 0.660658 0.345126
O O13 0.500000 0.500000 0.000000
O O14 0.527213 0.402423 0.091189
O O15 0.551336 0.878689 0.562163
O O16 0.803120 0.314810 0.797974
O O17 0.573131 0.206274 0.680512
O O18 0.000000 0.500000 0.000000
#
# Coordination Sequence:
#
# PCOD9054855 Si02
#       8
#     2   2   2   2   2   2   2   2
#     4  12  29  47  72 106 153 191 237 299 362 433
#     4  11  21  39  68 103 141 184 233 296 354 416
#     4  12  29  50  77 101 140 195 251 302 354 424
#     4  11  21  38  71 106 144 178 233 297 362 422
#     4  12  27  47  72 107 142 193 241 299 365 430
#     4  11  25  42  69 109 143 188 235 294 362 428
#     4  11  26  44  69 106 151 188 230 294 367 438
#     4  12  25  45  74 103 140 189 248 296 352 429
#
# _framework density 22.484148999999999
#
# number of rings (size 3 to 8) (size 9 to 14) (size 15 to 20)
#    0.000    0.500    5.000    3.375    5.250    4.500 
#    0.000    0.000    0.000    0.000    0.000    0.000 
#    0.000    0.000    0.000    0.000    0.000    0.000 
#
# Total GULP energy -89448.030383 kJ/mol
# GULP energy per Si atom -5590.501899 kJ/mol
# Density = 2.243297 g / cm^3
# Si number density = 22.484149 Si / 1000 Ang^3
#
#
#
# Elastic Constant Matrix: (Units=GPa)
#
#
# Indices 1 2 3 4 5 6 
#
# 1 168.7319 30.7779 60.5747 7.2800 7.9651 -26.4478
# 2 30.7779 70.7767 33.1534 -1.2475 7.4075 -11.9064
# 3 60.5747 33.1534 76.8454 14.5058 -12.6225 -23.6274
# 4 7.2800 -1.2475 14.5058 43.9864 0.3453 0.7771
# 5 7.9651 7.4075 -12.6225 0.3453 44.2138 2.5436
# 6 -26.4478 -11.9064 -23.6274 0.7771 2.5436 35.3951
#
#
#
# Elastic Compliance Matrix: (Units=1/GPa)
#
#
# Indices 1 2 3 4 5 6 
#
# 1 0.009007 0.000346 -0.007410 0.000955 -0.003928 0.002161
# 2 0.000346 0.019676 -0.010494 0.004007 -0.006400 0.000244
# 3 -0.007410 -0.010494 0.030202 -0.009304 0.011184 0.010494
# 4 0.000955 0.004007 -0.009304 0.025864 -0.003445 -0.004469
# 5 -0.003928 -0.006400 0.011184 -0.003445 0.027590 0.000471
# 6 0.002161 0.000244 0.010494 -0.004469 0.000471 0.037019
#
#
# Mechanical properties :
#
#
# Convention : Reuss Voigt Hill
#
# Bulk Modulus (GPa) = 42.07370 62.81846 52.44608
# Shear Modulus (GPa) = 25.98816 37.50893 31.74854
#
# Velocity S-wave (km/s) = 3.40346 4.08884 3.76179
# Velocity P-wave (km/s) = 5.84790 7.09162 6.49958
#
# Compressibility (1/GPa) = 0.02376782
#
# Stress axis : x y z
#
# Youngs Moduli (GPa) = 111.03072 50.82421 33.11093
#
# Poissons Ratio (x) = -0.01757 0.24534
# Poissons Ratio (y) = -0.03839 0.34747
# Poissons Ratio (z) = 0.82271 0.53335
#
# Static dielectric constant tensor:
#      x y z
#    x 1.831610 -0.012210 -0.049820 
#    y -0.012210 1.842330 0.032670 
#    z -0.049820 0.032670 1.823530 
# 
# From -- ./inp_files/274254.got.cif
#   From: 2010.05.17/outbox.cif.g08.bks.cpg/sg2_138_cif.got.tgz:274254.got - 2010.06.03 11:33:40.
