data_PCOD9054477
_publ_section_title
;
Structure prediction by ZEFSAII (Michael W. Deem and Ramdas Pophale) SiO2 
 PCOD9054477
Probable space group: P -1
;
_chemical_formula_sum "Si O2"
_cell_formula_units_Z 14
_cell_length_a 7.703998
_cell_length_b 8.370975
_cell_length_c 11.654837
_cell_angle_alpha 101.326800
_cell_angle_beta 54.382102
_cell_angle_gamma 117.248666
_cell_volume 540.630019
_symmetry_space_group_name_H-M "P -1"
_symmetry_group_IT_number 2
_symmetry_cell_setting 'triclinic'
loop_
_space_group_symop_operation_xyz
x,y,z
-x,-y,-z
loop_
_atom_site_type_symbol
_atom_site_label
_atom_site_fract_x
_atom_site_fract_y
_atom_site_fract_z
Si Si1 0.224252 0.277170 0.247770
Si Si2 0.578778 0.016500 0.603897
Si Si3 0.465033 0.680688 0.205740
Si Si4 0.704533 0.246047 0.126333
Si Si5 0.775520 0.735906 0.506104
Si Si6 0.252244 0.433684 0.734303
Si Si7 0.168336 0.032582 0.046945
O O1 0.294544 0.478199 0.204269
O O2 0.467319 0.254478 0.171699
O O3 0.117849 0.274863 0.413673
O O4 0.080758 0.110007 0.198051
O O5 0.645089 0.212978 0.659173
O O6 0.500000 0.000000 0.500000
O O7 0.373093 0.889880 0.754017
O O8 0.757562 0.923875 0.529917
O O9 0.660486 0.661778 0.213750
O O10 0.589732 0.802180 0.065707
O O11 0.859857 0.443011 0.147595
O O12 0.798405 0.150421 0.982034
O O13 0.502079 0.586255 0.608369
O O14 0.868817 0.688262 0.346205
O O15 0.000000 0.000000 0.000000
#
# Coordination Sequence:
#
# PCOD9054477 Si02
#       7
#     2   2   2   2   2   2   2
#     4   9  18  32  51  71  99 123 165 196 238 281
#     4   9  13  21  42  77 103 113 144 198 246 275
#     4   9  17  28  48  75  96 124 158 205 233 275
#     4   8  18  29  48  71  93 130 158 197 237 281
#     4   8  14  23  44  73  98 123 141 195 246 286
#     4   8  13  26  44  71  97 113 157 193 242 280
#     4  11  21  34  48  68  98 133 164 199 239 280
#
# _framework density 25.895712
#
# number of rings (size 3 to 8) (size 9 to 14) (size 15 to 20)
#    0.000    3.714    1.429    0.857    2.000    0.000 
#    0.000    2.857    0.000    1.714    0.000    0.000 
#    0.000    0.000    0.000    0.000    0.000    0.000 
#
# Total GULP energy -78198.902336 kJ/mol
# GULP energy per Si atom -5585.635881 kJ/mol
# Density = 2.583677 g / cm^3
# Si number density = 25.895712 Si / 1000 Ang^3
#
#
#
# Elastic Constant Matrix: (Units=GPa)
#
#
# Indices 1 2 3 4 5 6 
#
# 1 53.7062 22.2236 21.1854 11.6941 3.0095 -7.6214
# 2 22.2236 155.8644 68.8810 36.3523 -0.9747 -24.8125
# 3 21.1854 68.8810 136.9116 44.4729 9.6145 4.0295
# 4 11.6941 36.3523 44.4729 51.6575 12.6319 3.5241
# 5 3.0095 -0.9747 9.6145 12.6319 28.7682 6.0324
# 6 -7.6214 -24.8125 4.0295 3.5241 6.0324 25.3550
#
#
#
# Elastic Compliance Matrix: (Units=1/GPa)
#
#
# Indices 1 2 3 4 5 6 
#
# 1 0.021400 -0.000166 -0.002447 -0.002686 -0.001812 0.007463
# 2 -0.000166 0.011778 -0.004574 -0.005603 0.001772 0.012561
# 3 -0.002447 -0.004574 0.012224 -0.006352 0.000126 -0.006302
# 4 -0.002686 -0.005603 -0.006352 0.032444 -0.010503 -0.007292
# 5 -0.001812 0.001772 0.000126 -0.010503 0.041078 -0.007144
# 6 0.007463 0.012561 -0.006302 -0.007292 -0.007144 0.057690
#
#
# Mechanical properties :
#
#
# Convention : Reuss Voigt Hill
#
# Bulk Modulus (GPa) = 32.23087 63.45134 47.84110
# Shear Modulus (GPa) = 24.83474 36.76895 30.80184
#
# Velocity S-wave (km/s) = 3.10018 3.77222 3.45259
# Velocity P-wave (km/s) = 5.02874 6.59763 5.86588
#
# Compressibility (1/GPa) = 0.03102616
#
# Stress axis : x y z
#
# Youngs Moduli (GPa) = 46.72978 84.90066 81.80783
#
# Poissons Ratio (x) = 0.01412 0.20022
# Poissons Ratio (y) = 0.00777 0.37419
# Poissons Ratio (z) = 0.11437 0.38834
#
# Static dielectric constant tensor:
#      x y z
#    x 2.059650 0.071880 -0.030340 
#    y 0.071880 2.097980 0.019900 
#    z -0.030340 0.019900 2.104570 
# 
# From -- ./inp_files/220673.got.cif
#   From: 2010.05.17/outbox.cif.g08.bks.cpg/sg2_111_cif.got.tgz:220673.got - 2010.06.03 11:33:40.
