data_PCOD9054898
_publ_section_title
;
Structure prediction by ZEFSAII (Michael W. Deem and Ramdas Pophale) SiO2 
 PCOD9054898
Probable space group: P -1
;
_chemical_formula_sum "Si O2"
_cell_formula_units_Z 16
_cell_length_a 9.016214
_cell_length_b 7.789104
_cell_length_c 12.727194
_cell_angle_alpha 49.642384
_cell_angle_beta 99.079825
_cell_angle_gamma 108.307069
_cell_volume 645.339612
_symmetry_space_group_name_H-M "P -1"
_symmetry_group_IT_number 2
_symmetry_cell_setting 'triclinic'
loop_
_space_group_symop_operation_xyz
x,y,z
-x,-y,-z
loop_
_atom_site_type_symbol
_atom_site_label
_atom_site_fract_x
_atom_site_fract_y
_atom_site_fract_z
Si Si1 0.846332 0.416388 0.870418
Si Si2 0.375015 0.749230 0.280531
Si Si3 0.970766 0.949756 0.705798
Si Si4 0.105574 0.186684 0.012779
Si Si5 0.702522 0.118961 0.178081
Si Si6 0.274368 0.843954 0.463151
Si Si7 0.536902 0.658535 0.625186
Si Si8 0.581964 0.490539 0.122008
O O1 0.754642 0.278558 0.814190
O O2 0.882493 0.695715 0.747391
O O3 0.021008 0.392429 0.917123
O O4 0.761347 0.293638 0.016170
O O5 0.327213 0.844758 0.346691
O O6 0.397294 0.487103 0.393938
O O7 0.547168 0.918473 0.206570
O O8 0.155341 0.978460 0.726702
O O9 0.905938 0.149633 0.564415
O O10 0.906043 0.911319 0.832931
O O11 0.276640 0.277948 0.949807
O O12 0.000000 0.000000 0.000000
O O13 0.648629 0.266100 0.205973
O O14 0.354364 0.650007 0.591843
O O15 0.361907 0.076467 0.447272
O O16 0.534389 0.531061 0.786914
O O17 0.500000 0.500000 0.000000
#
# Coordination Sequence:
#
# PCOD9054898 Si02
#       8
#     2   2   2   2   2   2   2   2
#     4  11  21  39  63  97 133 175 214 269 330 393
#     4  12  24  42  69  98 127 174 228 273 329 389
#     4  11  21  44  63  94 134 179 216 267 329 395
#     4  11  23  36  62  97 139 172 216 266 330 400
#     4  11  23  39  64 100 140 165 217 279 328 392
#     4  11  24  46  70  90 130 183 227 267 332 384
#     4  11  25  43  68  99 132 170 226 281 318 394
#     4  12  23  40  67 101 136 174 211 272 343 389
#
# _framework density 24.793150000000001
#
# number of rings (size 3 to 8) (size 9 to 14) (size 15 to 20)
#    0.000    0.750    5.000    3.750    5.250    0.000 
#    0.000    1.250    2.750    0.000    0.000    0.000 
#    0.000    0.000    0.000    0.000    0.000    0.000 
#
# Total GULP energy -89472.410677 kJ/mol
# GULP energy per Si atom -5592.025667 kJ/mol
# Density = 2.473672 g / cm^3
# Si number density = 24.793150 Si / 1000 Ang^3
#
#
#
# Elastic Constant Matrix: (Units=GPa)
#
#
# Indices 1 2 3 4 5 6 
#
# 1 75.5411 8.2948 21.4133 -0.2359 28.7117 6.5599
# 2 8.2948 94.7435 6.4517 -3.1100 -0.2828 14.8924
# 3 21.4133 6.4517 55.1956 15.2871 33.7850 2.6608
# 4 -0.2359 -3.1100 15.2871 22.6214 -2.0560 12.2664
# 5 28.7117 -0.2828 33.7850 -2.0560 50.6034 -3.1452
# 6 6.5599 14.8924 2.6608 12.2664 -3.1452 45.8197
#
#
#
# Elastic Compliance Matrix: (Units=1/GPa)
#
#
# Indices 1 2 3 4 5 6 
#
# 1 0.017496 -0.000851 -0.001655 0.002176 -0.008946 -0.003329
# 2 -0.000851 0.012311 -0.006546 0.009676 0.004958 -0.005749
# 3 -0.001655 -0.006546 0.054061 -0.045610 -0.036489 0.008931
# 4 0.002176 0.009676 -0.045610 0.091845 0.031558 -0.023229
# 5 -0.008946 0.004958 -0.036489 0.031558 0.050309 -0.003207
# 6 -0.003329 -0.005749 0.008931 -0.023229 -0.003207 0.029650
#
#
# Mechanical properties :
#
#
# Convention : Reuss Voigt Hill
#
# Bulk Modulus (GPa) = 15.20589 33.08886 24.14738
# Shear Modulus (GPa) = 16.90908 36.43028 26.66968
#
# Velocity S-wave (km/s) = 2.61436 3.83739 3.28333
# Velocity P-wave (km/s) = 3.90635 5.74535 4.91267
#
# Compressibility (1/GPa) = 0.06576397
#
# Stress axis : x y z
#
# Youngs Moduli (GPa) = 57.15503 81.22655 18.49763
#
# Poissons Ratio (x) = 0.06914 0.03061
# Poissons Ratio (y) = 0.04865 0.12109
# Poissons Ratio (z) = 0.09458 0.53174
#
# Static dielectric constant tensor:
#      x y z
#    x 1.999270 -0.049250 0.106340 
#    y -0.049250 1.970690 -0.041660 
#    z 0.106340 -0.041660 2.014420 
# 
# From -- ./inp_files/272535.got.cif
#   From: 2010.05.17/outbox.cif.g08.bks.cpg/sg2_137_cif.got.tgz:272535.got - 2010.06.03 11:33:40.
