data_PCOD9054618
_publ_section_title
;
Structure prediction by ZEFSAII (Michael W. Deem and Ramdas Pophale) SiO2 
 PCOD9054618
Probable space group: P -1
;
_chemical_formula_sum "Si O2"
_cell_formula_units_Z 16
_cell_length_a 9.172982
_cell_length_b 11.170334
_cell_length_c 13.622159
_cell_angle_alpha 104.851554
_cell_angle_beta 44.577404
_cell_angle_gamma 71.764387
_cell_volume 646.814116
_symmetry_space_group_name_H-M "P -1"
_symmetry_group_IT_number 2
_symmetry_cell_setting 'triclinic'
loop_
_space_group_symop_operation_xyz
x,y,z
-x,-y,-z
loop_
_atom_site_type_symbol
_atom_site_label
_atom_site_fract_x
_atom_site_fract_y
_atom_site_fract_z
Si Si1 0.181859 0.741077 0.946875
Si Si2 0.898724 0.559127 0.353400
Si Si3 0.496458 0.972661 0.615314
Si Si4 0.360819 0.477082 0.976950
Si Si5 0.161381 0.078228 0.257827
Si Si6 0.393747 0.230894 0.181460
Si Si7 0.667651 0.167389 0.619388
Si Si8 0.495405 0.412900 0.587158
O O1 0.222961 0.634106 0.999327
O O2 0.398346 0.765920 0.857453
O O3 0.302988 0.605712 0.770469
O O4 0.829400 0.928531 0.165338
O O5 0.733764 0.762202 0.481967
O O6 0.653166 0.565078 0.438035
O O7 0.099841 0.431039 0.322579
O O8 0.132381 0.479062 0.135097
O O9 0.500000 0.000000 0.500000
O O10 0.582321 0.063202 0.645719
O O11 0.598204 0.293291 0.764461
O O12 0.500000 0.500000 0.000000
O O13 0.294973 0.143309 0.256779
O O14 0.864308 0.257939 0.377796
O O15 0.009590 0.045157 0.394976
O O16 0.403370 0.905020 0.036846
O O17 0.463810 0.309776 0.656167
#
# Coordination Sequence:
#
# PCOD9054618 Si02
#       8
#     2   2   2   2   2   2   2   2
#     4  11  21  38  63  90 125 170 203 257 318 384
#     4  12  23  36  62  98 129 161 206 273 315 368
#     4  12  20  35  64  92 130 168 209 250 317 391
#     4  11  21  37  59  97 129 160 206 269 326 361
#     4   9  22  44  66  87 118 178 210 260 312 387
#     4  11  23  41  66  92 127 160 221 262 316 374
#     4   9  20  40  63  90 124 171 215 247 313 392
#     4   9  20  40  61  90 122 167 216 245 315 377
#
# _framework density 24.736626000000001
#
# number of rings (size 3 to 8) (size 9 to 14) (size 15 to 20)
#    0.750    0.750    3.750    2.250    0.000    3.000 
#    0.000    6.250    0.000    3.750    0.000    0.000 
#    0.000    0.000    0.000    0.000    0.000    0.000 
#
# Total GULP energy -89561.935012 kJ/mol
# GULP energy per Si atom -5597.620938 kJ/mol
# Density = 2.468032 g / cm^3
# Si number density = 24.736626 Si / 1000 Ang^3
#
#
#
# Elastic Constant Matrix: (Units=GPa)
#
#
# Indices 1 2 3 4 5 6 
#
# 1 102.2918 23.5410 20.2105 -0.4580 -4.2332 22.8680
# 2 23.5410 80.8901 27.2664 11.6837 -1.4548 2.6440
# 3 20.2105 27.2664 87.1923 17.6570 -10.6620 -13.5661
# 4 -0.4580 11.6837 17.6570 40.9679 12.3976 3.4248
# 5 -4.2332 -1.4548 -10.6620 12.3976 36.5604 -8.1588
# 6 22.8680 2.6440 -13.5661 3.4248 -8.1588 37.2594
#
#
#
# Elastic Compliance Matrix: (Units=1/GPa)
#
#
# Indices 1 2 3 4 5 6 
#
# 1 0.014266 -0.002593 -0.006379 0.006297 -0.005265 -0.012626
# 2 -0.002593 0.014708 -0.003520 -0.002686 0.000064 -0.000473
# 3 -0.006379 -0.003520 0.020869 -0.013419 0.013308 0.015911
# 4 0.006297 -0.002686 -0.013419 0.038463 -0.020011 -0.016477
# 5 -0.005265 0.000064 0.013308 -0.020011 0.041659 0.019034
# 6 -0.012626 -0.000473 0.015911 -0.016477 0.019034 0.046098
#
#
# Mechanical properties :
#
#
# Convention : Reuss Voigt Hill
#
# Bulk Modulus (GPa) = 40.22882 45.82333 43.02607
# Shear Modulus (GPa) = 23.88525 36.24796 30.06661
#
# Velocity S-wave (km/s) = 3.11075 3.83215 3.49014
# Velocity P-wave (km/s) = 5.40375 6.17618 5.80283
#
# Compressibility (1/GPa) = 0.02485780
#
# Stress axis : x y z
#
# Youngs Moduli (GPa) = 70.09610 67.98877 47.91821
#
# Poissons Ratio (x) = 0.17629 0.30569
# Poissons Ratio (y) = 0.18176 0.16869
# Poissons Ratio (z) = 0.44717 0.23935
#
# Static dielectric constant tensor:
#      x y z
#    x 1.944380 -0.058070 -0.036380 
#    y -0.058070 2.018230 -0.035990 
#    z -0.036380 -0.035990 1.924710 
# 
# From -- ./inp_files/500529.got.cif
#   From: 2010.05.17/outbox.cif.g08.bks.cpg/sg2_251_cif.got.tgz:500529.got - 2010.06.03 11:33:40.
