data_PCOD9054080
_publ_section_title
;
Structure prediction by ZEFSAII (Michael W. Deem and Ramdas Pophale) SiO2 
 PCOD9054080
Probable space group: P -1
;
_chemical_formula_sum "Si O2"
_cell_formula_units_Z 14
_cell_length_a 7.252621
_cell_length_b 13.071529
_cell_length_c 8.204797
_cell_angle_alpha 79.341604
_cell_angle_beta 106.935039
_cell_angle_gamma 131.043004
_cell_volume 561.197114
_symmetry_space_group_name_H-M "P -1"
_symmetry_group_IT_number 2
_symmetry_cell_setting 'triclinic'
loop_
_space_group_symop_operation_xyz
x,y,z
-x,-y,-z
loop_
_atom_site_type_symbol
_atom_site_label
_atom_site_fract_x
_atom_site_fract_y
_atom_site_fract_z
Si Si1 0.324130 0.850735 0.247766
Si Si2 0.752211 0.482190 0.429352
Si Si3 0.150298 0.401382 0.940585
Si Si4 0.094025 0.249290 0.564290
Si Si5 0.723749 0.930839 0.878762
Si Si6 0.686140 0.836406 0.533796
Si Si7 0.542088 0.675114 0.070401
O O1 0.142937 0.719374 0.123727
O O2 0.568069 0.874207 0.360530
O O3 0.156226 0.810253 0.381851
O O4 0.350560 0.974981 0.146119
O O5 0.795359 0.601872 0.510919
O O6 0.522218 0.327647 0.451651
O O7 0.000000 0.500000 0.500000
O O8 0.752726 0.522287 0.231905
O O9 0.724404 0.475432 0.938341
O O10 0.283740 0.335044 0.004166
O O11 0.073659 0.148470 0.462587
O O12 0.295890 0.274469 0.739044
O O13 0.722083 0.904718 0.694496
O O14 0.535882 0.786560 0.960930
O O15 0.000000 0.000000 0.000000
#
# Coordination Sequence:
#
# PCOD9054080 Si02
#       7
#     2   2   2   2   2   2   2
#     4  10  22  41  62  89 124 160 205 249 302 362
#     4  10  17  35  63  90 120 155 200 247 300 358
#     4   9  16  32  62  83 114 160 195 241 301 353
#     4  10  22  37  62  91 125 155 204 251 306 356
#     4  12  22  39  65  89 118 168 207 245 309 365
#     4  12  23  38  64  91 122 162 204 251 304 362
#     4   9  18  35  60  87 117 159 199 244 302 357
#
# _framework density 24.946669
#
# number of rings (size 3 to 8) (size 9 to 14) (size 15 to 20)
#    0.000    2.000    7.143    0.857    0.000    0.571 
#    0.000    1.429    6.286    0.000    0.000    0.000 
#    0.000    0.000    0.000    0.000    0.000    0.000 
#
# Total GULP energy -78329.330109 kJ/mol
# GULP energy per Si atom -5594.952151 kJ/mol
# Density = 2.488989 g / cm^3
# Si number density = 24.946669 Si / 1000 Ang^3
#
#
#
# Elastic Constant Matrix: (Units=GPa)
#
#
# Indices 1 2 3 4 5 6 
#
# 1 100.9282 47.5534 28.7361 11.6980 5.2114 -8.0436
# 2 47.5534 171.1006 32.5850 -4.9592 14.5569 -13.5624
# 3 28.7361 32.5850 35.0785 9.0953 11.5943 -8.8368
# 4 11.6980 -4.9592 9.0953 38.7409 -2.3278 7.9373
# 5 5.2114 14.5569 11.5943 -2.3278 31.0532 -3.4041
# 6 -8.0436 -13.5624 -8.8368 7.9373 -3.4041 35.6914
#
#
#
# Elastic Compliance Matrix: (Units=1/GPa)
#
#
# Indices 1 2 3 4 5 6 
#
# 1 0.013790 -0.002295 -0.009049 -0.002357 0.002042 0.000714
# 2 -0.002295 0.007752 -0.005723 0.002920 -0.000863 0.000280
# 3 -0.009049 -0.005723 0.052280 -0.013284 -0.015192 0.010235
# 4 -0.002357 0.002920 -0.013284 0.032260 0.005378 -0.009372
# 5 0.002042 -0.000863 -0.015192 0.005378 0.038211 -0.001181
# 6 0.000714 0.000280 0.010235 -0.009372 -0.001181 0.032791
#
#
# Mechanical properties :
#
#
# Convention : Reuss Voigt Hill
#
# Bulk Modulus (GPa) = 25.19513 58.31738 41.75625
# Shear Modulus (GPa) = 22.27686 34.31262 28.29474
#
# Velocity S-wave (km/s) = 2.99152 3.71271 3.37146
# Velocity P-wave (km/s) = 4.69614 6.46580 5.65068
#
# Compressibility (1/GPa) = 0.03969022
#
# Stress axis : x y z
#
# Youngs Moduli (GPa) = 72.51436 128.99270 19.12759
#
# Poissons Ratio (x) = 0.29601 0.17309
# Poissons Ratio (y) = 0.16640 0.10946
# Poissons Ratio (z) = 0.65619 0.73818
#
# Static dielectric constant tensor:
#      x y z
#    x 1.970610 0.022430 -0.037740 
#    y 0.022430 2.068710 0.024400 
#    z -0.037740 0.024400 2.025310 
# 
# From -- ./inp_files/131815.got.cif
#   From: 2010.05.17/outbox.cif.g08.bks.cpg/sg2_66_cif.got.tgz:131815.got - 2010.06.03 11:33:40.
