data_PCOD9054370
_publ_section_title
;
Structure prediction by ZEFSAII (Michael W. Deem and Ramdas Pophale) SiO2 
 PCOD9054370
Probable space group: P -1
;
_chemical_formula_sum "Si O2"
_cell_formula_units_Z 14
_cell_length_a 9.194090
_cell_length_b 6.785827
_cell_length_c 20.330182
_cell_angle_alpha 63.545788
_cell_angle_beta 138.997081
_cell_angle_gamma 125.195157
_cell_volume 679.927493
_symmetry_space_group_name_H-M "P -1"
_symmetry_group_IT_number 2
_symmetry_cell_setting 'triclinic'
loop_
_space_group_symop_operation_xyz
x,y,z
-x,-y,-z
loop_
_atom_site_type_symbol
_atom_site_label
_atom_site_fract_x
_atom_site_fract_y
_atom_site_fract_z
Si Si1 0.049049 0.949177 0.322789
Si Si2 0.332863 0.959289 0.290595
Si Si3 0.744711 0.313372 0.465900
Si Si4 0.861167 0.145499 0.897267
Si Si5 0.333622 0.613962 0.962557
Si Si6 0.379124 0.466177 0.392712
Si Si7 0.534559 0.862496 0.132390
O O1 0.134410 0.967070 0.273589
O O2 0.195783 0.824650 0.432342
O O3 0.760126 0.819587 0.246048
O O4 0.143705 0.217121 0.344484
O O5 0.277796 0.007947 0.190798
O O6 0.320372 0.691761 0.324759
O O7 0.591503 0.130472 0.384118
O O8 0.574406 0.441244 0.413373
O O9 0.000000 0.500000 0.500000
O O10 0.672805 0.176050 0.879277
O O11 0.063083 0.405340 0.905267
O O12 0.000000 0.000000 0.000000
O O13 0.360766 0.857982 0.897957
O O14 0.500000 0.500000 0.000000
O O15 0.428682 0.698375 0.056437
O O16 0.500000 0.500000 0.500000
#
# Coordination Sequence:
#
# PCOD9054370 Si02
#       7
#     2   2   2   2   2   2   2
#     4  11  23  43  67  98 133 174 223 274 337 405
#     4  11  24  45  67  95 135 178 224 275 334 399
#     4  11  25  41  64 101 138 169 219 276 332 407
#     4  12  26  46  70  99 137 181 230 282 337 401
#     4  11  23  48  70  96 134 178 226 285 339 396
#     4  11  20  43  70  89 128 181 217 267 334 395
#     4  11  26  43  71 100 134 178 226 281 342 398
#
# _framework density 20.590430999999999
#
# number of rings (size 3 to 8) (size 9 to 14) (size 15 to 20)
#    0.000    0.857    4.286    3.000    4.000    2.857 
#    5.143    0.000    0.000    0.000    0.000    0.000 
#    0.000    0.000    0.000    0.000    0.000    0.000 
#
# Total GULP energy -78324.847812 kJ/mol
# GULP energy per Si atom -5594.631987 kJ/mol
# Density = 2.054357 g / cm^3
# Si number density = 20.590431 Si / 1000 Ang^3
#
#
#
# Elastic Constant Matrix: (Units=GPa)
#
#
# Indices 1 2 3 4 5 6 
#
# 1 122.4001 29.4216 54.4143 28.7378 -0.3157 -1.5612
# 2 29.4216 65.9951 7.8295 15.3700 -0.0586 -10.5159
# 3 54.4143 7.8295 114.3822 13.9375 -7.3339 -14.5779
# 4 28.7378 15.3700 13.9375 30.0831 3.5051 3.4471
# 5 -0.3157 -0.0586 -7.3339 3.5051 39.8897 9.0866
# 6 -1.5612 -10.5159 -14.5779 3.4471 9.0866 34.7618
#
#
#
# Elastic Compliance Matrix: (Units=1/GPa)
#
#
# Indices 1 2 3 4 5 6 
#
# 1 0.013327 -0.003734 -0.005331 -0.008155 0.000300 -0.002036
# 2 -0.003734 0.019747 0.002414 -0.008467 -0.000592 0.007813
# 3 -0.005331 0.002414 0.012210 -0.002571 0.001165 0.005562
# 4 -0.008155 -0.008467 -0.002571 0.047805 -0.002932 -0.007980
# 5 0.000300 -0.000592 0.001165 -0.002932 0.027011 -0.006447
# 6 -0.002036 0.007813 0.005562 -0.007980 -0.006447 0.035848
#
#
# Mechanical properties :
#
#
# Convention : Reuss Voigt Hill
#
# Bulk Modulus (GPa) = 31.26672 54.01205 42.63938
# Shear Modulus (GPa) = 27.79160 35.02105 31.40632
#
# Velocity S-wave (km/s) = 3.67786 4.12860 3.90973
# Velocity P-wave (km/s) = 5.76659 7.00112 6.41363
#
# Compressibility (1/GPa) = 0.03198289
#
# Stress axis : x y z
#
# Youngs Moduli (GPa) = 75.03665 50.64021 81.89854
#
# Poissons Ratio (x) = 0.18908 0.43659
# Poissons Ratio (y) = 0.28017 -0.19770
# Poissons Ratio (z) = 0.40001 -0.12225
#
# Static dielectric constant tensor:
#      x y z
#    x 1.713450 0.015930 -0.020560 
#    y 0.015930 1.724270 -0.015010 
#    z -0.020560 -0.015010 1.762950 
# 
# From -- ./inp_files/37093.got.cif
#   From: 2010.05.17/outbox.cif.g08.bks.cpg/sg2_19_cif.got.tgz:37093.got - 2010.06.03 11:33:40.
