data_PCOD9054759
_publ_section_title
;
Structure prediction by ZEFSAII (Michael W. Deem and Ramdas Pophale) SiO2 
 PCOD9054759
Probable space group: P -1
;
_chemical_formula_sum "Si O2"
_cell_formula_units_Z 16
_cell_length_a 12.254290
_cell_length_b 13.600369
_cell_length_c 8.973850
_cell_angle_alpha 130.868730
_cell_angle_beta 48.368491
_cell_angle_gamma 140.466118
_cell_volume 679.146794
_symmetry_space_group_name_H-M "P -1"
_symmetry_group_IT_number 2
_symmetry_cell_setting 'triclinic'
loop_
_space_group_symop_operation_xyz
x,y,z
-x,-y,-z
loop_
_atom_site_type_symbol
_atom_site_label
_atom_site_fract_x
_atom_site_fract_y
_atom_site_fract_z
Si Si1 0.195625 0.395701 0.687310
Si Si2 0.611923 0.529454 0.108298
Si Si3 0.489183 0.928250 0.147041
Si Si4 0.214053 0.290715 0.142311
Si Si5 0.808119 0.150069 0.900912
Si Si6 0.761265 0.859362 0.765867
Si Si7 0.113840 0.489619 0.568189
Si Si8 0.722980 0.317826 0.675561
O O1 0.211864 0.262713 0.461781
O O2 0.212125 0.510590 0.654972
O O3 0.997309 0.317049 0.860906
O O4 0.333372 0.458882 0.760739
O O5 0.744980 0.693806 0.054981
O O6 0.625214 0.400453 0.882547
O O7 0.401703 0.449170 0.199552
O O8 0.328438 0.899252 0.161945
O O9 0.405734 0.862129 0.320007
O O10 0.562050 0.823995 0.920799
O O11 0.674520 0.105779 0.119311
O O12 0.180862 0.142039 0.117398
O O13 0.079277 0.333802 0.354909
O O14 0.864522 0.029641 0.757955
O O15 0.215310 0.636721 0.505738
O O16 0.907283 0.424586 0.711864
#
# Coordination Sequence:
#
# PCOD9054759 Si02
#       8
#     2   2   2   2   2   2   2   2
#     4  11  20  33  49  87 108 129 172 221 262 292
#     4  10  20  32  55  73 110 136 168 218 256 321
#     4   9  17  32  57  76 100 142 177 205 246 319
#     4   9  18  36  50  75  99 143 177 199 269 315
#     4   9  18  33  52  80 103 137 174 217 249 303
#     4   9  18  32  55  76 102 139 173 214 251 304
#     4   9  20  30  54  75 109 129 173 213 251 316
#     4  10  17  36  51  80 101 142 175 200 262 312
#
# _framework density 23.558973999999999
#
# number of rings (size 3 to 8) (size 9 to 14) (size 15 to 20)
#    0.750    1.750    2.500    0.375    0.000    2.500 
#    0.000    0.625    0.000    0.000    0.000    9.625 
#    0.000    0.000    0.000    0.000    0.000    0.000 
#
# Total GULP energy -89077.432936 kJ/mol
# GULP energy per Si atom -5567.339559 kJ/mol
# Density = 2.350535 g / cm^3
# Si number density = 23.558974 Si / 1000 Ang^3
#
#
#
# Elastic Constant Matrix: (Units=GPa)
#
#
# Indices 1 2 3 4 5 6 
#
# 1 107.2155 20.9779 33.0690 -10.2104 26.5482 -34.4830
# 2 20.9779 43.9840 51.7628 -30.9990 15.1192 -30.6943
# 3 33.0690 51.7628 51.3154 -21.8466 17.1576 -0.5814
# 4 -10.2104 -30.9990 -21.8466 36.4024 -7.2855 8.1783
# 5 26.5482 15.1192 17.1576 -7.2855 36.4618 -12.4852
# 6 -34.4830 -30.6943 -0.5814 8.1783 -12.4852 29.5142
#
#
#
# Elastic Compliance Matrix: (Units=1/GPa)
#
#
# Indices 1 2 3 4 5 6 
#
# 1 0.011603 -0.011487 0.003893 -0.005598 -0.006463 0.000505
# 2 -0.011487 -0.009696 0.021565 0.006435 -0.005836 -0.027332
# 3 0.003893 0.021565 0.003202 0.016012 -0.002742 0.021441
# 4 -0.005598 0.006435 0.016012 0.043414 -0.001651 -0.012260
# 5 -0.006463 -0.005836 -0.002742 -0.001651 0.036235 0.002111
# 6 0.000505 -0.027332 0.021441 -0.012260 0.002111 0.010760
#
#
# Mechanical properties :
#
#
# Convention : Reuss Voigt Hill
#
# Bulk Modulus (GPa) = 30.25613 46.01489 38.13551
# Shear Modulus (GPa) = 63.61828 26.92270 45.27049
#
# Velocity S-wave (km/s) = 5.20216 3.38417 4.38834
# Velocity P-wave (km/s) = 6.99671 5.90291 6.47295
#
# Compressibility (1/GPa) = 0.03305115
#
# Stress axis : x y z
#
# Youngs Moduli (GPa) = 86.18119 -103.13141 312.26160
#
# Poissons Ratio (x) = -1.18463 -1.21556
# Poissons Ratio (y) = 0.98993 -6.73383
# Poissons Ratio (z) = -0.33548 2.22400
#
# Static dielectric constant tensor:
#      x y z
#    x 1.874970 -0.036210 0.029280 
#    y -0.036210 1.971840 -0.041180 
#    z 0.029280 -0.041180 1.908170 
# 
# From -- ./inp_files/268274.got.cif
#   From: 2010.05.17/outbox.cif.g08.bks.cpg/sg2_135_cif.got.tgz:268274.got - 2010.06.03 11:33:40.
