data_PCOD9054290
_publ_section_title
;
Structure prediction by ZEFSAII (Michael W. Deem and Ramdas Pophale) SiO2 
 PCOD9054290
Probable space group: P -1
;
_chemical_formula_sum "Si O2"
_cell_formula_units_Z 16
_cell_length_a 17.998406
_cell_length_b 21.675593
_cell_length_c 6.762070
_cell_angle_alpha 67.410742
_cell_angle_beta 64.945068
_cell_angle_gamma 17.528083
_cell_volume 717.872044
_symmetry_space_group_name_H-M "P -1"
_symmetry_group_IT_number 2
_symmetry_cell_setting 'triclinic'
loop_
_space_group_symop_operation_xyz
x,y,z
-x,-y,-z
loop_
_atom_site_type_symbol
_atom_site_label
_atom_site_fract_x
_atom_site_fract_y
_atom_site_fract_z
Si Si1 0.672458 0.733581 0.729726
Si Si2 0.102723 0.167838 0.766690
Si Si3 0.380371 0.547041 0.904988
Si Si4 0.283889 0.930347 0.553764
Si Si5 0.992405 0.611396 0.511065
Si Si6 0.737427 0.586352 0.159937
Si Si7 0.030217 0.898187 0.615948
Si Si8 0.578031 0.254093 0.976518
O O1 0.750294 0.750090 0.598021
O O2 0.787327 0.603751 0.573979
O O3 0.375390 0.951364 0.829722
O O4 0.799038 0.603641 0.939354
O O5 0.034215 0.298092 0.679973
O O6 0.867514 0.304955 0.933442
O O7 0.175934 0.081790 0.576263
O O8 0.565452 0.343944 0.888879
O O9 0.500000 0.500000 0.000000
O O10 0.287279 0.669021 0.689535
O O11 0.494221 0.780249 0.336718
O O12 0.057284 0.067407 0.531155
O O13 0.395322 0.798641 0.769693
O O14 0.047471 0.588419 0.704532
O O15 0.653852 0.594837 0.082716
O O16 0.825403 0.040965 0.842492
O O17 0.000000 0.000000 0.500000
#
# Coordination Sequence:
#
# PCOD9054290 Si02
#       8
#     2   2   2   2   2   2   2   2
#     4  11  23  47  67  99 142 178 228 280 342 405
#     4  12  23  45  69  96 139 180 225 278 345 400
#     4  12  27  44  72 103 133 183 230 282 341 405
#     4  11  22  43  69  94 133 186 218 278 345 400
#     4  11  25  41  72 103 134 182 227 282 338 408
#     4  11  20  42  68  99 134 180 222 276 338 397
#     4  11  26  44  68  98 133 176 228 285 345 403
#     4  11  24  46  68  96 138 179 227 281 338 406
#
# _framework density 22.288095999999999
#
# number of rings (size 3 to 8) (size 9 to 14) (size 15 to 20)
#    0.000    0.750    3.750    3.750    3.500    2.500 
#    2.250    0.625    0.000    0.000    0.000    0.000 
#    0.000    0.000    0.000    0.000    0.000    0.000 
#
# Total GULP energy -89368.273811 kJ/mol
# GULP energy per Si atom -5585.517113 kJ/mol
# Density = 2.223737 g / cm^3
# Si number density = 22.288096 Si / 1000 Ang^3
#
#
#
# Elastic Constant Matrix: (Units=GPa)
#
#
# Indices 1 2 3 4 5 6 
#
# 1 115.3275 41.2905 34.7658 -14.5080 -6.9412 18.4549
# 2 41.2905 76.4792 23.6660 -8.9370 3.9938 6.3321
# 3 34.7658 23.6660 104.8970 -10.1140 4.4919 3.4417
# 4 -14.5080 -8.9370 -10.1140 35.0960 -1.2778 -4.6206
# 5 -6.9412 3.9938 4.4919 -1.2778 41.9004 0.3142
# 6 18.4549 6.3321 3.4417 -4.6206 0.3142 38.5210
#
#
#
# Elastic Compliance Matrix: (Units=1/GPa)
#
#
# Indices 1 2 3 4 5 6 
#
# 1 0.012703 -0.005495 -0.002700 0.002571 0.003031 -0.004658
# 2 -0.005495 0.016856 -0.001750 0.001461 -0.002286 0.000212
# 3 -0.002700 -0.001750 0.011018 0.001668 -0.001417 0.000808
# 4 0.002571 0.001461 0.001668 0.030717 0.001029 0.002055
# 5 0.003031 -0.002286 -0.001417 0.001029 0.024777 -0.001028
# 6 -0.004658 0.000212 0.000808 0.002055 -0.001028 0.028339
#
#
# Mechanical properties :
#
#
# Convention : Reuss Voigt Hill
#
# Bulk Modulus (GPa) = 48.33699 55.12756 51.73228
# Shear Modulus (GPa) = 33.06961 36.23560 34.65260
#
# Velocity S-wave (km/s) = 3.85611 4.03647 3.94732
# Velocity P-wave (km/s) = 6.44674 6.81997 6.63598
#
# Compressibility (1/GPa) = 0.02068809
#
# Stress axis : x y z
#
# Youngs Moduli (GPa) = 78.71879 59.32470 90.76336
#
# Poissons Ratio (x) = 0.32601 0.24502
# Poissons Ratio (y) = 0.43258 0.15882
# Poissons Ratio (z) = 0.21250 0.10381
#
# Static dielectric constant tensor:
#      x y z
#    x 1.843610 -0.040440 -0.020300 
#    y -0.040440 1.856630 0.019860 
#    z -0.020300 0.019860 1.816310 
# 
# From -- ./inp_files/112341.got.cif
#   From: 2010.05.17/outbox.cif.g08.bks.cpg/sg2_57_cif.got.tgz:112341.got - 2010.06.03 11:33:40.
