data_PCOD9054146
_publ_section_title
;
Structure prediction by ZEFSAII (Michael W. Deem and Ramdas Pophale) SiO2 
 PCOD9054146
Probable space group: P -1
;
_chemical_formula_sum "Si O2"
_cell_formula_units_Z 14
_cell_length_a 6.989879
_cell_length_b 16.481955
_cell_length_c 9.603834
_cell_angle_alpha 136.603100
_cell_angle_beta 130.049771
_cell_angle_gamma 52.814639
_cell_volume 561.852243
_symmetry_space_group_name_H-M "P -1"
_symmetry_group_IT_number 2
_symmetry_cell_setting 'triclinic'
loop_
_space_group_symop_operation_xyz
x,y,z
-x,-y,-z
loop_
_atom_site_type_symbol
_atom_site_label
_atom_site_fract_x
_atom_site_fract_y
_atom_site_fract_z
Si Si1 0.695850 0.020580 0.901516
Si Si2 0.532662 0.191577 0.514133
Si Si3 0.698054 0.592764 0.108137
Si Si4 0.861756 0.424951 0.235450
Si Si5 0.786291 0.828862 0.003608
Si Si6 0.166813 0.982141 0.328463
Si Si7 0.005134 0.754525 0.322162
O O1 0.518086 0.120376 0.043350
O O2 0.636658 0.063759 0.764137
O O3 0.639462 0.888620 0.734405
O O4 0.000000 0.000000 0.000000
O O5 0.718943 0.084043 0.558376
O O6 0.690797 0.255164 0.562854
O O7 0.404934 0.295918 0.692467
O O8 0.440352 0.579672 0.887294
O O9 0.086645 0.362413 0.820481
O O10 0.825550 0.481148 0.131703
O O11 0.000000 0.500000 0.500000
O O12 0.061542 0.291541 0.158053
O O13 0.902618 0.939437 0.145301
O O14 0.892210 0.793308 0.165547
O O15 0.099513 0.127869 0.482098
#
# Coordination Sequence:
#
# PCOD9054146 Si02
#       7
#     2   2   2   2   2   2   2
#     4  12  25  39  66 109 152 188 231 296 376 443
#     4  11  20  42  70 106 143 181 238 295 362 447
#     4  11  24  47  78 107 140 193 253 301 364 435
#     4  11  27  52  74 101 149 199 251 313 354 428
#     4  11  23  44  71 103 147 192 237 299 366 435
#     4  11  20  40  72 106 140 185 227 293 370 447
#     4  11  20  40  78 109 137 184 238 297 370 449
#
# _framework density 24.917580000000001
#
# number of rings (size 3 to 8) (size 9 to 14) (size 15 to 20)
#    0.000    0.857    7.143    2.143    0.000    2.286 
#    2.571    0.714    3.143    0.000    0.000    0.000 
#    0.000    0.000    0.000    0.000    0.000    0.000 
#
# Total GULP energy -78249.034294 kJ/mol
# GULP energy per Si atom -5589.216735 kJ/mol
# Density = 2.486087 g / cm^3
# Si number density = 24.917580 Si / 1000 Ang^3
#
#
#
# Elastic Constant Matrix: (Units=GPa)
#
#
# Indices 1 2 3 4 5 6 
#
# 1 172.8200 29.6796 44.5933 4.4498 45.7848 4.3711
# 2 29.6796 112.0989 52.8599 8.1245 24.5843 -6.4112
# 3 44.5933 52.8599 134.7965 -6.1098 23.9730 -22.2056
# 4 4.4498 8.1245 -6.1098 40.5006 -6.1021 6.8644
# 5 45.7848 24.5843 23.9730 -6.1021 50.4168 4.1469
# 6 4.3711 -6.4112 -22.2056 6.8644 4.1469 36.5006
#
#
#
# Elastic Compliance Matrix: (Units=1/GPa)
#
#
# Indices 1 2 3 4 5 6 
#
# 1 0.008083 0.000318 -0.001822 -0.002109 -0.006814 -0.000850
# 2 0.000318 0.012142 -0.004028 -0.003969 -0.004852 0.000941
# 3 -0.001822 -0.004028 0.011034 0.001324 -0.001977 0.006199
# 4 -0.002109 -0.003969 0.001324 0.027950 0.007073 -0.005699
# 5 -0.006814 -0.004852 -0.001977 0.007073 0.030683 -0.006055
# 6 -0.000850 0.000941 0.006199 -0.005699 -0.006055 0.033195
#
#
# Mechanical properties :
#
#
# Convention : Reuss Voigt Hill
#
# Bulk Modulus (GPa) = 49.52247 74.88676 62.20461
# Shear Modulus (GPa) = 35.49042 44.98914 40.23978
#
# Velocity S-wave (km/s) = 3.77810 4.25375 4.02296
# Velocity P-wave (km/s) = 6.24097 7.36511 6.82622
#
# Compressibility (1/GPa) = 0.02019286
#
# Stress axis : x y z
#
# Youngs Moduli (GPa) = 123.71412 82.36170 90.62900
#
# Poissons Ratio (x) = -0.02619 0.16517
# Poissons Ratio (y) = -0.03934 0.36509
# Poissons Ratio (z) = 0.22547 0.33179
#
# Static dielectric constant tensor:
#      x y z
#    x 1.996880 0.030820 -0.032040 
#    y 0.030820 2.104320 -0.171720 
#    z -0.032040 -0.171720 2.210170 
# 
# From -- ./inp_files/405176.got.cif
#   From: 2010.05.17/outbox.cif.g08.bks.cpg/sg2_203_cif.got.tgz:405176.got - 2010.06.03 11:33:40.
