data_PCOD9054305
_publ_section_title
;
Structure prediction by ZEFSAII (Michael W. Deem and Ramdas Pophale) SiO2 
 PCOD9054305
Probable space group: P -1
;
_chemical_formula_sum "Si O2"
_cell_formula_units_Z 14
_cell_length_a 9.903671
_cell_length_b 9.845214
_cell_length_c 11.603480
_cell_angle_alpha 130.791371
_cell_angle_beta 67.381480
_cell_angle_gamma 120.769792
_cell_volume 733.774575
_symmetry_space_group_name_H-M "P -1"
_symmetry_group_IT_number 2
_symmetry_cell_setting 'triclinic'
loop_
_space_group_symop_operation_xyz
x,y,z
-x,-y,-z
loop_
_atom_site_type_symbol
_atom_site_label
_atom_site_fract_x
_atom_site_fract_y
_atom_site_fract_z
Si Si1 0.836022 0.081721 0.182002
Si Si2 0.657537 0.642014 0.581935
Si Si3 0.032155 0.210343 0.897955
Si Si4 0.899223 0.781309 0.383248
Si Si5 0.328808 0.020902 0.061185
Si Si6 0.812886 0.382248 0.515878
Si Si7 0.070723 0.488783 0.222519
O O1 0.766248 0.170514 0.358500
O O2 0.961539 0.279047 0.194693
O O3 0.923033 0.949647 0.134163
O O4 0.717953 0.977366 0.058347
O O5 0.500000 0.500000 0.500000
O O6 0.752687 0.742735 0.493399
O O7 0.649861 0.792309 0.764352
O O8 0.734248 0.506300 0.542494
O O9 0.106754 0.227723 0.757259
O O10 0.838855 0.139034 0.922381
O O11 0.110442 0.417975 0.048754
O O12 0.975180 0.627181 0.311302
O O13 0.000000 0.000000 0.500000
O O14 0.500000 0.000000 0.000000
O O15 0.794467 0.401023 0.669057
O O16 0.000000 0.500000 0.500000
#
# Coordination Sequence:
#
# PCOD9054305 Si02
#       7
#     2   2   2   2   2   2   2
#     4  10  19  37  64  93 120 161 217 258 298 371
#     4  12  24  40  63  92 129 166 210 259 313 373
#     4  11  22  38  65  95 127 158 211 266 308 362
#     4  12  23  40  62  94 129 164 210 260 316 366
#     4  11  22  37  60  92 124 164 207 255 309 370
#     4  10  17  35  64  88 115 159 217 253 291 367
#     4  10  20  35  62  92 119 162 209 256 298 368
#
# _framework density 19.079429999999999
#
# number of rings (size 3 to 8) (size 9 to 14) (size 15 to 20)
#    0.000    1.143    4.286    6.429    2.000    0.000 
#    0.000    0.000    3.143    4.286    0.000    0.000 
#    0.000    0.000    0.000    0.000    0.000    0.000 
#
# Total GULP energy -77962.954483 kJ/mol
# GULP energy per Si atom -5568.782463 kJ/mol
# Density = 1.903600 g / cm^3
# Si number density = 19.079430 Si / 1000 Ang^3
#
#
#
# Elastic Constant Matrix: (Units=GPa)
#
#
# Indices 1 2 3 4 5 6 
#
# 1 124.6001 43.4668 61.9900 -6.1472 4.2561 -9.1302
# 2 43.4668 70.1526 43.9353 1.7471 -0.2892 -7.1100
# 3 61.9900 43.9353 220.0318 -10.4847 16.7427 2.0576
# 4 -6.1472 1.7471 -10.4847 20.9662 -12.0056 3.2366
# 5 4.2561 -0.2892 16.7427 -12.0056 36.1363 2.2163
# 6 -9.1302 -7.1100 2.0576 3.2366 2.2163 20.3303
#
#
#
# Elastic Compliance Matrix: (Units=1/GPa)
#
#
# Indices 1 2 3 4 5 6 
#
# 1 0.011265 -0.005485 -0.002005 0.002404 0.000177 0.002941
# 2 -0.005485 0.020122 -0.002786 -0.005644 -0.000131 0.005769
# 3 -0.002005 -0.002786 0.005916 0.002039 -0.001690 -0.002614
# 4 0.002404 -0.005644 0.002039 0.063879 0.020780 -0.013535
# 5 0.000177 -0.000131 -0.001690 0.020780 0.035767 -0.007003
# 6 0.002941 0.005769 -0.002614 -0.013535 -0.007003 0.055709
#
#
# Mechanical properties :
#
#
# Convention : Reuss Voigt Hill
#
# Bulk Modulus (GPa) = 59.69346 79.28541 69.48943
# Shear Modulus (GPa) = 22.85266 33.17939 28.01603
#
# Velocity S-wave (km/s) = 3.46463 4.17467 3.83611
# Velocity P-wave (km/s) = 6.88183 8.05499 7.49141
#
# Compressibility (1/GPa) = 0.01675225
#
# Stress axis : x y z
#
# Youngs Moduli (GPa) = 88.77311 49.69573 169.03443
#
# Poissons Ratio (x) = 0.27259 0.33887
# Poissons Ratio (y) = 0.48693 0.47085
# Poissons Ratio (z) = 0.17797 0.13843
#
# Static dielectric constant tensor:
#      x y z
#    x 1.659610 0.008000 0.007910 
#    y 0.008000 1.711880 -0.052450 
#    z 0.007910 -0.052450 1.755440 
# 
# From -- ./inp_files/160249.got.cif
#   From: 2010.05.17/outbox.cif.g08.bks.cpg/sg2_81_cif.got.tgz:160249.got - 2010.06.03 11:33:40.
