data_PCOD9054766
_publ_section_title
;
Structure prediction by ZEFSAII (Michael W. Deem and Ramdas Pophale) SiO2 
 PCOD9054766
Probable space group: P -1
;
_chemical_formula_sum "Si O2"
_cell_formula_units_Z 16
_cell_length_a 9.283585
_cell_length_b 13.026575
_cell_length_c 12.549419
_cell_angle_alpha 50.916988
_cell_angle_beta 36.248246
_cell_angle_gamma 48.824684
_cell_volume 658.345456
_symmetry_space_group_name_H-M "P -1"
_symmetry_group_IT_number 2
_symmetry_cell_setting 'triclinic'
loop_
_space_group_symop_operation_xyz
x,y,z
-x,-y,-z
loop_
_atom_site_type_symbol
_atom_site_label
_atom_site_fract_x
_atom_site_fract_y
_atom_site_fract_z
Si Si1 0.170184 0.490006 0.199245
Si Si2 0.744125 0.480871 0.116723
Si Si3 0.442131 0.195585 0.292290
Si Si4 0.132993 0.198067 0.786230
Si Si5 0.326523 0.606034 0.449124
Si Si6 0.775323 0.057307 0.980540
Si Si7 0.683976 0.181630 0.378804
Si Si8 0.060914 0.894067 0.368399
O O1 0.375222 0.363815 0.221322
O O2 0.078168 0.649410 0.187604
O O3 0.916108 0.445444 0.386196
O O4 0.255663 0.487324 0.028426
O O5 0.492811 0.582242 0.258339
O O6 0.748339 0.324038 0.241205
O O7 0.000000 0.500000 0.000000
O O8 0.629558 0.141946 0.315626
O O9 0.179275 0.159195 0.487203
O O10 0.559019 0.132712 0.148833
O O11 0.406957 0.205992 0.582528
O O12 0.017472 0.103431 0.843509
O O13 0.174124 0.108692 0.929101
O O14 0.500000 0.500000 0.500000
O O15 0.224759 0.770831 0.429454
O O16 0.750020 0.100334 0.845085
O O17 0.908464 0.054847 0.381682
#
# Coordination Sequence:
#
# PCOD9054766 Si02
#       8
#     2   2   2   2   2   2   2   2
#     4  11  24  42  68  99 130 177 221 267 334 390
#     4  12  25  45  73  93 129 178 232 276 324 383
#     4  11  23  39  67 102 142 170 213 268 327 408
#     4  11  22  38  64  97 138 178 211 259 329 394
#     4  11  24  46  71  93 129 169 221 284 325 382
#     4  11  21  38  63  94 142 177 206 261 322 404
#     4  12  23  43  66 100 140 176 214 275 328 394
#     4  11  23  41  69 102 132 174 217 263 339 399
#
# _framework density 24.303349999999998
#
# number of rings (size 3 to 8) (size 9 to 14) (size 15 to 20)
#    0.000    0.750    5.000    4.125    0.000    3.500 
#    0.000    1.250    2.750    0.000    0.000    0.000 
#    0.000    0.000    0.000    0.000    0.000    0.000 
#
# Total GULP energy -89535.719747 kJ/mol
# GULP energy per Si atom -5595.982484 kJ/mol
# Density = 2.424803 g / cm^3
# Si number density = 24.303350 Si / 1000 Ang^3
#
#
#
# Elastic Constant Matrix: (Units=GPa)
#
#
# Indices 1 2 3 4 5 6 
#
# 1 22.1352 8.6972 19.2872 -2.8353 -1.3571 -8.3129
# 2 8.6972 179.3771 41.0127 -19.6352 18.5687 -21.2455
# 3 19.2872 41.0127 167.3710 6.1480 -3.6464 1.4967
# 4 -2.8353 -19.6352 6.1480 49.4754 4.1055 4.0463
# 5 -1.3571 18.5687 -3.6464 4.1055 21.8131 -2.5129
# 6 -8.3129 -21.2455 1.4967 4.0463 -2.5129 31.7894
#
#
#
# Elastic Compliance Matrix: (Units=1/GPa)
#
#
# Indices 1 2 3 4 5 6 
#
# 1 0.057421 0.000653 -0.006955 0.002875 0.003117 0.015660
# 2 0.000653 0.007720 -0.002293 0.003613 -0.007085 0.004418
# 3 -0.006955 -0.002293 0.007510 -0.002214 0.002823 -0.003200
# 4 0.002875 0.003613 -0.002214 0.022732 -0.007571 -0.000221
# 5 0.003117 -0.007085 0.002823 -0.007571 0.054103 0.001187
# 6 0.015660 0.004418 -0.003200 -0.000221 0.001187 0.038777
#
#
# Mechanical properties :
#
#
# Convention : Reuss Voigt Hill
#
# Bulk Modulus (GPa) = 18.03123 56.31972 37.17547
# Shear Modulus (GPa) = 22.32745 40.60797 31.46771
#
# Velocity S-wave (km/s) = 3.03429 4.09207 3.60222
# Velocity P-wave (km/s) = 4.43973 6.74913 5.71235
#
# Compressibility (1/GPa) = 0.05545933
#
# Stress axis : x y z
#
# Youngs Moduli (GPa) = 17.41536 129.53766 133.16237
#
# Poissons Ratio (x) = -0.08455 0.92609
# Poissons Ratio (y) = -0.01137 0.30540
# Poissons Ratio (z) = 0.12112 0.29709
#
# Static dielectric constant tensor:
#      x y z
#    x 1.954930 -0.013330 0.044660 
#    y -0.013330 1.968440 0.021760 
#    z 0.044660 0.021760 1.909600 
# 
# From -- ./inp_files/521416.got.cif
#   From: 2010.05.17/outbox.cif.g08.bks.cpg/sg2_261_cif.got.tgz:521416.got - 2010.06.03 11:33:40.
