data_PCOD9054500
_publ_section_title
;
Structure prediction by ZEFSAII (Michael W. Deem and Ramdas Pophale) SiO2 
 PCOD9054500
Probable space group: P -1
;
_chemical_formula_sum "Si O2"
_cell_formula_units_Z 14
_cell_length_a 11.216206
_cell_length_b 6.675085
_cell_length_c 10.091756
_cell_angle_alpha 58.833606
_cell_angle_beta 76.106955
_cell_angle_gamma 66.087797
_cell_volume 590.573207
_symmetry_space_group_name_H-M "P -1"
_symmetry_group_IT_number 2
_symmetry_cell_setting 'triclinic'
loop_
_space_group_symop_operation_xyz
x,y,z
-x,-y,-z
loop_
_atom_site_type_symbol
_atom_site_label
_atom_site_fract_x
_atom_site_fract_y
_atom_site_fract_z
Si Si1 0.007119 0.402172 0.679047
Si Si2 0.460566 0.044588 0.341690
Si Si3 0.736368 0.239834 0.513565
Si Si4 0.721031 0.752591 0.261324
Si Si5 0.795886 0.328233 0.181184
Si Si6 0.240418 0.496801 0.134838
Si Si7 0.069382 0.180439 0.240121
O O1 0.878418 0.356559 0.785232
O O2 0.008692 0.642415 0.680780
O O3 0.000000 0.500000 0.500000
O O4 0.146639 0.202502 0.745666
O O5 0.362736 0.322498 0.243215
O O6 0.500000 0.000000 0.500000
O O7 0.382108 0.857468 0.391033
O O8 0.588639 0.974985 0.241028
O O9 0.707113 0.532044 0.436481
O O10 0.767092 0.182279 0.367019
O O11 0.855682 0.084664 0.627241
O O12 0.744202 0.608056 0.164750
O O13 0.953479 0.221229 0.154243
O O14 0.732435 0.349168 0.046530
O O15 0.177165 0.308752 0.142129
#
# Coordination Sequence:
#
# PCOD9054500 Si02
#       7
#     2   2   2   2   2   2   2
#     4   9  17  30  51  79 102 132 169 207 250 302
#     4  11  21  35  52  76  99 138 176 210 250 310
#     4   9  18  33  51  77 101 134 172 211 252 296
#     4   9  20  30  54  76 104 129 173 213 252 287
#     4   9  17  30  53  78 104 127 167 216 257 294
#     4   9  18  31  52  77 101 134 167 211 254 299
#     4   8  16  28  53  77  99 130 167 206 248 299
#
# _framework density 23.705781000000002
#
# number of rings (size 3 to 8) (size 9 to 14) (size 15 to 20)
#    1.714    1.143    0.000    2.143    0.000    0.571 
#    0.000    0.714    0.000    0.857    0.000    0.000 
#    0.000    0.000    0.000    0.000    0.000    0.000 
#
# Total GULP energy -78002.935844 kJ/mol
# GULP energy per Si atom -5571.638275 kJ/mol
# Density = 2.365183 g / cm^3
# Si number density = 23.705781 Si / 1000 Ang^3
#
#
#
# Elastic Constant Matrix: (Units=GPa)
#
#
# Indices 1 2 3 4 5 6 
#
# 1 88.6646 48.8105 37.9762 -6.0646 11.4020 -33.9418
# 2 48.8105 71.5476 37.9190 5.1042 2.4580 -26.3874
# 3 37.9762 37.9190 119.6782 9.1591 20.8334 -16.6058
# 4 -6.0646 5.1042 9.1591 30.4995 2.0440 -3.4673
# 5 11.4020 2.4580 20.8334 2.0440 29.5155 -6.5668
# 6 -33.9418 -26.3874 -16.6058 -3.4673 -6.5668 44.9578
#
#
#
# Elastic Compliance Matrix: (Units=1/GPa)
#
#
# Indices 1 2 3 4 5 6 
#
# 1 0.023918 -0.011816 -0.002232 0.008905 -0.005016 0.010252
# 2 -0.011816 0.026832 -0.004844 -0.005231 0.007383 0.005713
# 3 -0.002232 -0.004844 0.011882 -0.002877 -0.007238 -0.001418
# 4 0.008905 -0.005231 -0.002877 0.037038 -0.002405 0.005096
# 5 -0.005016 0.007383 -0.007238 -0.002405 0.041306 0.003721
# 6 0.010252 0.005713 -0.001418 0.005096 0.003721 0.033749
#
#
# Mechanical properties :
#
#
# Convention : Reuss Voigt Hill
#
# Bulk Modulus (GPa) = 40.24487 58.81131 49.52809
# Shear Modulus (GPa) = 22.64580 31.34022 26.99301
#
# Velocity S-wave (km/s) = 3.09412 3.63994 3.37808
# Velocity P-wave (km/s) = 5.45697 6.52137 6.01277
#
# Compressibility (1/GPa) = 0.02484789
#
# Stress axis : x y z
#
# Youngs Moduli (GPa) = 41.80965 37.26908 84.16116
#
# Poissons Ratio (x) = 0.44039 0.18781
# Poissons Ratio (y) = 0.49404 0.40767
# Poissons Ratio (z) = 0.09330 0.18053
#
# Static dielectric constant tensor:
#      x y z
#    x 1.993680 0.021770 -0.027130 
#    y 0.021770 1.933220 -0.010980 
#    z -0.027130 -0.010980 1.899490 
# 
# From -- ./inp_files/416289.got.cif
#   From: 2010.05.17/outbox.cif.g08.bks.cpg/sg2_209_cif.got.tgz:416289.got - 2010.06.03 11:33:40.
