data_PCOD9054890
_publ_section_title
;
Structure prediction by ZEFSAII (Michael W. Deem and Ramdas Pophale) SiO2 
 PCOD9054890
Probable space group: P -1
;
_chemical_formula_sum "Si O2"
_cell_formula_units_Z 16
_cell_length_a 30.105075
_cell_length_b 7.076440
_cell_length_c 10.255301
_cell_angle_alpha 138.185210
_cell_angle_beta 33.808864
_cell_angle_gamma 114.979112
_cell_volume 686.809003
_symmetry_space_group_name_H-M "P -1"
_symmetry_group_IT_number 2
_symmetry_cell_setting 'triclinic'
loop_
_space_group_symop_operation_xyz
x,y,z
-x,-y,-z
loop_
_atom_site_type_symbol
_atom_site_label
_atom_site_fract_x
_atom_site_fract_y
_atom_site_fract_z
Si Si1 0.598374 0.814879 0.591296
Si Si2 0.411984 0.792538 0.713275
Si Si3 0.906174 0.810870 0.334166
Si Si4 0.649402 0.790331 0.174985
Si Si5 0.918165 0.437549 0.622933
Si Si6 0.891248 0.349455 0.932430
Si Si7 0.366242 0.791950 0.106054
Si Si8 0.807364 0.944151 0.921090
O O1 0.635217 0.425793 0.314669
O O2 0.582196 0.897341 0.520333
O O3 0.500000 0.000000 0.000000
O O4 0.656763 0.951631 0.589224
O O5 0.372296 0.938400 0.027863
O O6 0.524670 0.522684 0.303747
O O7 0.392182 0.047451 0.778735
O O8 0.840676 0.912082 0.673257
O O9 0.931629 0.081591 0.369203
O O10 0.878489 0.651907 0.205106
O O11 0.000000 0.500000 0.000000
O O12 0.691468 0.392594 0.855788
O O13 0.716815 0.918385 0.118540
O O14 0.870297 0.479875 0.902669
O O15 0.871788 0.661021 0.723900
O O16 0.000000 0.500000 0.500000
O O17 0.816592 0.249962 0.104480
O O18 0.000000 0.000000 0.500000
#
# Coordination Sequence:
#
# PCOD9054890 Si02
#       8
#     2   2   2   2   2   2   2   2
#     4   9  20  37  59  88 118 154 201 245 288 356
#     4   9  19  37  60  85 117 159 194 244 293 347
#     4  11  21  39  63  87 116 152 202 247 297 361
#     4  11  23  38  58  87 125 155 195 249 297 348
#     4  11  21  39  64  87 117 156 200 249 297 355
#     4  11  21  41  60  88 119 150 196 250 294 357
#     4   9  19  36  59  86 116 151 204 240 290 356
#     4  11  25  40  57  90 123 155 198 248 303 352
#
# _framework density 23.296140999999999
#
# number of rings (size 3 to 8) (size 9 to 14) (size 15 to 20)
#    0.000    1.750    3.750    1.125    0.000   11.000 
#    0.000    2.500    0.000    0.000    0.000    0.000 
#    0.000    0.000    0.000    0.000    0.000    0.000 
#
# Total GULP energy -89230.684907 kJ/mol
# GULP energy per Si atom -5576.917807 kJ/mol
# Density = 2.324312 g / cm^3
# Si number density = 23.296141 Si / 1000 Ang^3
#
#
#
# Elastic Constant Matrix: (Units=GPa)
#
#
# Indices 1 2 3 4 5 6 
#
# 1 112.7410 63.7027 34.9758 10.8249 24.0387 12.2457
# 2 63.7027 183.7206 30.4983 1.9728 15.6899 5.7545
# 3 34.9758 30.4983 20.8794 4.0101 16.3346 -6.2164
# 4 10.8249 1.9728 4.0101 21.5040 8.7110 9.0862
# 5 24.0387 15.6899 16.3346 8.7110 45.3048 5.1095
# 6 12.2457 5.7545 -6.2164 9.0862 5.1095 59.3522
#
#
#
# Elastic Compliance Matrix: (Units=1/GPa)
#
#
# Indices 1 2 3 4 5 6 
#
# 1 0.023090 -0.000800 -0.044259 -0.001416 0.005334 -0.009564
# 2 -0.000800 0.007713 -0.012829 0.002223 0.002228 -0.002459
# 3 -0.044259 -0.012829 0.184800 -0.009089 -0.040862 0.034640
# 4 -0.001416 0.002223 -0.009089 0.054963 -0.006324 -0.008745
# 5 0.005334 0.002228 -0.040862 -0.006324 0.035284 -0.007666
# 6 -0.009564 -0.002459 0.034640 -0.008745 -0.007666 0.024687
#
#
# Mechanical properties :
#
#
# Convention : Reuss Voigt Hill
#
# Bulk Modulus (GPa) = 10.01735 63.96608 36.99172
# Shear Modulus (GPa) = 10.42561 37.77648 24.10105
#
# Velocity S-wave (km/s) = 2.11777 4.03125 3.21993
# Velocity P-wave (km/s) = 3.20769 7.01323 5.45319
#
# Compressibility (1/GPa) = 0.09982679
#
# Stress axis : x y z
#
# Youngs Moduli (GPa) = 43.30918 129.65467 5.41126
#
# Poissons Ratio (x) = 0.10368 0.23950
# Poissons Ratio (y) = 0.03463 0.06942
# Poissons Ratio (z) = 1.91683 1.66334
#
# Static dielectric constant tensor:
#      x y z
#    x 1.859820 -0.011070 -0.014150 
#    y -0.011070 1.766280 0.033900 
#    z -0.014150 0.033900 1.916490 
# 
# From -- ./inp_files/358286.got.cif
#   From: 2010.05.17/outbox.cif.g08.bks.cpg/sg2_180_cif.got.tgz:358286.got - 2010.06.03 11:33:40.
