data_PCOD9054102
_publ_section_title
;
Structure prediction by ZEFSAII (Michael W. Deem and Ramdas Pophale) SiO2 
 PCOD9054102
Probable space group: P -1
;
_chemical_formula_sum "Si O2"
_cell_formula_units_Z 14
_cell_length_a 5.718862
_cell_length_b 9.366162
_cell_length_c 20.739725
_cell_angle_alpha 143.501938
_cell_angle_beta 90.976481
_cell_angle_gamma 73.142835
_cell_volume 585.037945
_symmetry_space_group_name_H-M "P -1"
_symmetry_group_IT_number 2
_symmetry_cell_setting 'triclinic'
loop_
_space_group_symop_operation_xyz
x,y,z
-x,-y,-z
loop_
_atom_site_type_symbol
_atom_site_label
_atom_site_fract_x
_atom_site_fract_y
_atom_site_fract_z
Si Si1 0.410228 0.255686 0.546107
Si Si2 0.134064 0.669533 0.497852
Si Si3 0.776207 0.558046 0.157388
Si Si4 0.262564 0.066418 0.301771
Si Si5 0.202028 0.734076 0.819390
Si Si6 0.327934 0.198614 0.014296
Si Si7 0.264636 0.816773 0.074505
O O1 0.658255 0.243876 0.501755
O O2 0.326278 0.510645 0.685147
O O3 0.141017 0.283280 0.521657
O O4 0.500000 0.000000 0.500000
O O5 0.280078 0.344500 0.390448
O O6 0.006696 0.835256 0.622809
O O7 0.724531 0.392299 0.154956
O O8 0.531650 0.852825 0.260655
O O9 0.806082 0.413342 0.035562
O O10 0.082664 0.468064 0.140133
O O11 0.237818 0.921804 0.184359
O O12 0.271098 0.975907 0.896745
O O13 0.889539 0.906697 0.868408
O O14 0.446530 0.305722 0.998526
O O15 0.500000 0.000000 0.000000
#
# Coordination Sequence:
#
# PCOD9054102 Si02
#       7
#     2   2   2   2   2   2   2
#     4  12  26  50  81 112 142 193 264 318 373 442
#     4  11  27  53  73 109 153 199 249 315 378 443
#     4  11  23  40  65 109 142 188 249 299 367 456
#     4  11  25  47  71 103 156 201 242 299 382 457
#     4  11  22  40  72 101 143 187 247 313 374 427
#     4  11  20  40  69 101 146 190 244 312 369 434
#     4  11  21  44  66  99 145 191 240 301 372 442
#
# _framework density 23.930073
#
# number of rings (size 3 to 8) (size 9 to 14) (size 15 to 20)
#    0.000    0.857    4.286    3.429    0.000    2.857 
#   12.857    0.000    0.000    0.000    0.000    0.000 
#    0.000    0.000    0.000    0.000    0.000    0.000 
#
# Total GULP energy -78057.982613 kJ/mol
# GULP energy per Si atom -5575.570187 kJ/mol
# Density = 2.387561 g / cm^3
# Si number density = 23.930073 Si / 1000 Ang^3
#
#
#
# Elastic Constant Matrix: (Units=GPa)
#
#
# Indices 1 2 3 4 5 6 
#
# 1 92.0464 42.2390 35.6154 5.8350 -12.0798 9.7607
# 2 42.2390 114.1643 41.6395 24.0703 -11.3890 -14.2274
# 3 35.6154 41.6395 109.9827 0.5324 -16.7924 -2.7478
# 4 5.8350 24.0703 0.5324 53.6620 -10.3019 -10.1989
# 5 -12.0798 -11.3890 -16.7924 -10.3019 25.1901 -0.6686
# 6 9.7607 -14.2274 -2.7478 -10.1989 -0.6686 36.1474
#
#
#
# Elastic Compliance Matrix: (Units=1/GPa)
#
#
# Indices 1 2 3 4 5 6 
#
# 1 0.015361 -0.005197 -0.002694 0.000079 0.003085 -0.006319
# 2 -0.005197 0.013453 -0.003309 -0.004517 -0.000326 0.005166
# 3 -0.002694 -0.003309 0.012266 0.003213 0.006740 0.001389
# 4 0.000079 -0.004517 0.003213 0.023521 0.009897 0.005265
# 5 0.003085 -0.000326 0.006740 0.009897 0.049657 0.003262
# 6 -0.006319 0.005166 0.001389 0.005265 0.003262 0.033055
#
#
# Mechanical properties :
#
#
# Convention : Reuss Voigt Hill
#
# Bulk Modulus (GPa) = 53.53494 61.68678 57.61086
# Shear Modulus (GPa) = 28.41864 36.11322 32.26593
#
# Velocity S-wave (km/s) = 3.44985 3.88895 3.67596
# Velocity P-wave (km/s) = 6.18778 6.78226 6.49183
#
# Compressibility (1/GPa) = 0.01867939
#
# Stress axis : x y z
#
# Youngs Moduli (GPa) = 65.09839 74.33392 81.52823
#
# Poissons Ratio (x) = 0.38633 0.21963
# Poissons Ratio (y) = 0.33833 0.26978
# Poissons Ratio (z) = 0.17537 0.24598
#
# Static dielectric constant tensor:
#      x y z
#    x 2.246350 -0.155920 -0.032270 
#    y -0.155920 1.983910 0.038940 
#    z -0.032270 0.038940 2.002700 
# 
# From -- ./inp_files/94743.got.cif
#   From: 2010.05.17/outbox.cif.g08.bks.cpg/sg2_48_cif.got.tgz:94743.got - 2010.06.03 11:33:40.
