data_PCOD9054087
_publ_section_title
;
Structure prediction by ZEFSAII (Michael W. Deem and Ramdas Pophale) SiO2 
 PCOD9054087
Probable space group: P -1
;
_chemical_formula_sum "Si O2"
_cell_formula_units_Z 16
_cell_length_a 8.905895
_cell_length_b 11.424137
_cell_length_c 15.142282
_cell_angle_alpha 112.205725
_cell_angle_beta 141.730611
_cell_angle_gamma 88.012636
_cell_volume 785.785899
_symmetry_space_group_name_H-M "P -1"
_symmetry_group_IT_number 2
_symmetry_cell_setting 'triclinic'
loop_
_space_group_symop_operation_xyz
x,y,z
-x,-y,-z
loop_
_atom_site_type_symbol
_atom_site_label
_atom_site_fract_x
_atom_site_fract_y
_atom_site_fract_z
Si Si1 0.359167 0.615525 0.368155
Si Si2 0.676649 0.413565 0.852713
Si Si3 0.549406 0.913517 0.288409
Si Si4 0.078361 0.051705 0.690872
Si Si5 0.975488 0.866835 0.038298
Si Si6 0.875055 0.683274 0.116105
Si Si7 0.833153 0.698056 0.746476
Si Si8 0.798031 0.060785 0.116222
O O1 0.463031 0.608076 0.314408
O O2 0.595471 0.690720 0.569962
O O3 0.203794 0.455275 0.287399
O O4 0.146855 0.679129 0.276799
O O5 0.581333 0.257654 0.804765
O O6 0.654309 0.522218 0.943977
O O7 0.000000 0.500000 0.000000
O O8 0.700796 0.952896 0.275691
O O9 0.299471 0.949390 0.194981
O O10 0.789831 0.995130 0.492484
O O11 0.186470 0.213930 0.819476
O O12 0.033176 0.951428 0.725783
O O13 0.936305 0.763682 0.073362
O O14 0.841811 0.965196 0.034639
O O15 0.843547 0.777153 0.864707
O O16 0.102116 0.787187 0.838750
O O17 0.500000 0.000000 0.000000
#
# Coordination Sequence:
#
# PCOD9054087 Si02
#       8
#     2   2   2   2   2   2   2   2
#     4  10  20  36  64  92 123 152 211 256 299 368
#     4  10  17  35  63  90 122 156 203 259 300 364
#     4  11  21  40  64  93 125 156 211 257 315 353
#     4  10  25  39  61  96 127 161 202 271 303 360
#     4  11  21  39  68  89 117 167 207 252 299 375
#     4  10  20  38  63  95 121 157 210 262 309 351
#     4  11  22  37  61  93 121 168 201 244 309 370
#     4  11  25  41  58  89 129 166 200 246 312 370
#
# _framework density 20.361778999999999
#
# number of rings (size 3 to 8) (size 9 to 14) (size 15 to 20)
#    0.000    1.500    3.750    2.625    1.750    1.500 
#    2.250    1.250    0.000    1.500    0.000    0.000 
#    0.000    0.000    0.000    0.000    0.000    0.000 
#
# Total GULP energy -89315.809856 kJ/mol
# GULP energy per Si atom -5582.238116 kJ/mol
# Density = 2.031543 g / cm^3
# Si number density = 20.361779 Si / 1000 Ang^3
#
#
#
# Elastic Constant Matrix: (Units=GPa)
#
#
# Indices 1 2 3 4 5 6 
#
# 1 88.7052 21.9193 44.0136 8.5359 -4.7715 -4.7359
# 2 21.9193 77.0189 9.3829 -3.6659 3.8281 14.8283
# 3 44.0136 9.3829 96.8475 -9.6575 -14.6879 -0.0355
# 4 8.5359 -3.6659 -9.6575 27.0763 7.0167 -0.5518
# 5 -4.7715 3.8281 -14.6879 7.0167 27.6176 -2.5709
# 6 -4.7359 14.8283 -0.0355 -0.5518 -2.5709 31.2310
#
#
#
# Elastic Compliance Matrix: (Units=1/GPa)
#
#
# Indices 1 2 3 4 5 6 
#
# 1 0.018275 -0.005871 -0.008344 -0.010097 0.002619 0.005586
# 2 -0.005871 0.016857 0.000799 0.005578 -0.005202 -0.009223
# 3 -0.008344 0.000799 0.015464 0.006990 0.004793 -0.001109
# 4 -0.010097 0.005578 0.006990 0.046105 -0.010910 -0.004255
# 5 0.002619 -0.005202 0.004793 -0.010910 0.043284 0.006243
# 6 0.005586 -0.009223 -0.001109 -0.004255 0.006243 0.037683
#
#
# Mechanical properties :
#
#
# Convention : Reuss Voigt Hill
#
# Bulk Modulus (GPa) = 42.08148 45.91149 43.99648
# Shear Modulus (GPa) = 23.53828 29.66871 26.60349
#
# Velocity S-wave (km/s) = 3.40369 3.82131 3.61853
# Velocity P-wave (km/s) = 6.01320 6.48589 6.25401
#
# Compressibility (1/GPa) = 0.02376342
#
# Stress axis : x y z
#
# Youngs Moduli (GPa) = 54.72004 59.32283 64.66780
#
# Poissons Ratio (x) = 0.34827 0.53960
# Poissons Ratio (y) = 0.32124 -0.05166
# Poissons Ratio (z) = 0.45659 -0.04739
#
# Static dielectric constant tensor:
#      x y z
#    x 1.717310 -0.015030 -0.020040 
#    y -0.015030 1.758190 -0.000780 
#    z -0.020040 -0.000780 1.770920 
# 
# From -- ./inp_files/500621.got.cif
#   From: 2010.05.17/outbox.cif.g08.bks.cpg/sg2_251_cif.got.tgz:500621.got - 2010.06.03 11:33:40.
