data_PCOD9054897
_publ_section_title
;
Structure prediction by ZEFSAII (Michael W. Deem and Ramdas Pophale) SiO2 
 PCOD9054897
Probable space group: P -1
;
_chemical_formula_sum "Si O2"
_cell_formula_units_Z 14
_cell_length_a 9.520291
_cell_length_b 15.364503
_cell_length_c 13.545002
_cell_angle_alpha 153.624245
_cell_angle_beta 47.556045
_cell_angle_gamma 132.501011
_cell_volume 634.121948
_symmetry_space_group_name_H-M "P -1"
_symmetry_group_IT_number 2
_symmetry_cell_setting 'triclinic'
loop_
_space_group_symop_operation_xyz
x,y,z
-x,-y,-z
loop_
_atom_site_type_symbol
_atom_site_label
_atom_site_fract_x
_atom_site_fract_y
_atom_site_fract_z
Si Si1 0.362202 0.288477 0.956494
Si Si2 0.049020 0.290176 0.534878
Si Si3 0.301726 0.898679 0.344746
Si Si4 0.979868 0.386386 0.291606
Si Si5 0.870356 0.348405 0.012346
Si Si6 0.310352 0.339666 0.799239
Si Si7 0.730353 0.056153 0.963019
O O1 0.153150 0.266488 0.080602
O O2 0.503496 0.487251 0.136567
O O3 0.484709 0.119249 0.739936
O O4 0.328627 0.316554 0.885255
O O5 0.856352 0.170435 0.562591
O O6 0.998176 0.440870 0.628448
O O7 0.170747 0.444169 0.714745
O O8 0.171766 0.137153 0.277221
O O9 0.240956 0.755698 0.134909
O O10 0.305138 0.123139 0.537937
O O11 0.000000 0.500000 0.500000
O O12 0.788595 0.214121 0.185581
O O13 0.102493 0.389792 0.927001
O O14 0.824806 0.184694 0.954395
O O15 0.500000 0.000000 0.000000
#
# Coordination Sequence:
#
# PCOD9054897 Si02
#       7
#     2   2   2   2   2   2   2
#     4  11  22  40  63  97 133 171 216 267 334 389
#     4  11  22  43  69  92 134 175 214 274 334 383
#     4  12  23  36  70 102 135 170 212 270 339 395
#     4  11  26  47  67  95 134 175 227 277 319 396
#     4  11  23  41  65 101 134 171 219 269 327 400
#     4  11  21  39  63  96 137 169 214 268 333 389
#     4  11  26  46  68  94 132 181 228 270 322 392
#
# _framework density 22.077773000000001
#
# number of rings (size 3 to 8) (size 9 to 14) (size 15 to 20)
#    0.000    0.857    5.714    2.143    0.000    7.429 
#    0.000    0.000    0.000    0.000    0.000    0.000 
#    0.000    0.000    0.000    0.000    0.000    0.000 
#
# Total GULP energy -78283.153887 kJ/mol
# GULP energy per Si atom -5591.653849 kJ/mol
# Density = 2.202752 g / cm^3
# Si number density = 22.077773 Si / 1000 Ang^3
#
#
#
# Elastic Constant Matrix: (Units=GPa)
#
#
# Indices 1 2 3 4 5 6 
#
# 1 92.0480 7.7333 42.9310 -5.1640 14.4840 17.5602
# 2 7.7333 30.1560 14.2855 12.4641 7.3869 14.3390
# 3 42.9310 14.2855 124.6195 15.2626 4.9613 2.3397
# 4 -5.1640 12.4641 15.2626 29.5894 1.2615 0.8940
# 5 14.4840 7.3869 4.9613 1.2615 46.6603 1.5279
# 6 17.5602 14.3390 2.3397 0.8940 1.5279 33.6849
#
#
#
# Elastic Compliance Matrix: (Units=1/GPa)
#
#
# Indices 1 2 3 4 5 6 
#
# 1 0.016305 0.001578 -0.006167 0.005817 -0.004528 -0.008692
# 2 0.001578 0.055978 -0.003723 -0.020348 -0.007636 -0.023506
# 3 -0.006167 -0.003723 0.011109 -0.005419 0.001334 0.004111
# 4 0.005817 -0.020348 -0.005419 0.046009 0.000592 0.004758
# 5 -0.004528 -0.007636 0.001334 0.000592 0.023743 0.004426
# 6 -0.008692 -0.023506 0.004111 0.004758 0.004426 0.043612
#
#
# Mechanical properties :
#
#
# Convention : Reuss Voigt Hill
#
# Bulk Modulus (GPa) = 14.97728 41.85811 28.41770
# Shear Modulus (GPa) = 21.21924 34.11183 27.66553
#
# Velocity S-wave (km/s) = 3.10355 3.93501 3.54375
# Velocity P-wave (km/s) = 4.43185 6.29653 5.44461
#
# Compressibility (1/GPa) = 0.06676779
#
# Stress axis : x y z
#
# Youngs Moduli (GPa) = 61.33264 17.86415 90.01685
#
# Poissons Ratio (x) = -0.02819 0.55511
# Poissons Ratio (y) = -0.09677 0.33514
# Poissons Ratio (z) = 0.37822 0.06651
#
# Static dielectric constant tensor:
#      x y z
#    x 1.829960 -0.017800 0.006870 
#    y -0.017800 1.821280 0.031870 
#    z 0.006870 0.031870 1.860470 
# 
# From -- ./inp_files/227277.got.cif
#   From: 2010.05.17/outbox.cif.g08.bks.cpg/sg2_114_cif.got.tgz:227277.got - 2010.06.03 11:33:40.
