data_PCOD9054800
_publ_section_title
;
Structure prediction by ZEFSAII (Michael W. Deem and Ramdas Pophale) SiO2 
 PCOD9054800
Probable space group: P -1
;
_chemical_formula_sum "Si O2"
_cell_formula_units_Z 15
_cell_length_a 5.084598
_cell_length_b 9.523689
_cell_length_c 16.755776
_cell_angle_alpha 130.103929
_cell_angle_beta 80.507369
_cell_angle_gamma 105.130799
_cell_volume 599.088349
_symmetry_space_group_name_H-M "P -1"
_symmetry_group_IT_number 2
_symmetry_cell_setting 'triclinic'
loop_
_space_group_symop_operation_xyz
x,y,z
-x,-y,-z
loop_
_atom_site_type_symbol
_atom_site_label
_atom_site_fract_x
_atom_site_fract_y
_atom_site_fract_z
Si Si1 0.000000 0.000000 0.000000
Si Si2 0.662610 0.572926 0.831962
Si Si3 0.886471 0.359199 0.882373
Si Si4 0.589004 0.130624 0.212670
Si Si5 0.639414 0.182694 0.974061
Si Si6 0.008843 0.976513 0.719604
Si Si7 0.107572 0.663802 0.488311
Si Si8 0.631748 0.567289 0.356290
O O1 0.895033 0.111244 0.968728
O O2 0.856288 0.779667 0.883110
O O3 0.803148 0.462740 0.848952
O O4 0.520189 0.426986 0.718817
O O5 0.414130 0.644710 0.912073
O O6 0.634881 0.239023 0.902318
O O7 0.051514 0.200647 0.792147
O O8 0.000000 0.500000 0.000000
O O9 0.296577 0.095688 0.258768
O O10 0.635568 0.347228 0.272099
O O11 0.801347 0.082783 0.245210
O O12 0.606652 0.005316 0.083756
O O13 0.072141 0.862052 0.598088
O O14 0.927915 0.642187 0.407972
O O15 0.000000 0.500000 0.500000
O O16 0.416249 0.640281 0.450864
#
# Coordination Sequence:
#
# PCOD9054800 Si02
#       8
#     1   2   2   2   2   2   2   2
#     4  12  24  40  68 100 142 174 236 286 360 398
#     4  12  27  43  66 104 146 189 231 294 353 421
#     4  11  24  47  71 100 141 192 238 275 351 437
#     4  11  21  38  66 102 133 174 227 288 350 408
#     4  11  25  41  71 100 143 187 233 283 350 429
#     4  11  24  41  69  99 133 177 236 289 340 412
#     4  12  23  43  69 102 138 179 240 294 356 413
#     4  12  25  39  69 103 140 180 230 302 357 408
#
# _framework density 25.038043999999999
#
# number of rings (size 3 to 8) (size 9 to 14) (size 15 to 20)
#    0.000    0.533    5.333    2.800    3.733    1.067 
#    0.000    1.333    0.000    0.000    0.000    0.000 
#    0.000    0.000    0.000    0.000    0.000    0.000 
#
# Total GULP energy -83609.406579 kJ/mol
# GULP energy per Si atom -5573.960439 kJ/mol
# Density = 2.498106 g / cm^3
# Si number density = 25.038044 Si / 1000 Ang^3
#
#
#
# Elastic Constant Matrix: (Units=GPa)
#
#
# Indices 1 2 3 4 5 6 
#
# 1 102.1852 26.2758 9.1092 -10.6330 -10.4145 -32.5225
# 2 26.2758 114.1957 28.0515 4.9194 -0.2076 -40.5260
# 3 9.1092 28.0515 144.6007 16.8983 -4.2368 -15.0985
# 4 -10.6330 4.9194 16.8983 29.6378 -16.9351 -1.3173
# 5 -10.4145 -0.2076 -4.2368 -16.9351 35.9287 -0.6625
# 6 -32.5225 -40.5260 -15.0985 -1.3173 -0.6625 43.1266
#
#
#
# Elastic Compliance Matrix: (Units=1/GPa)
#
#
# Indices 1 2 3 4 5 6 
#
# 1 0.016454 0.000586 -0.001007 0.013363 0.011196 0.013186
# 2 0.000586 0.013434 -0.001237 -0.000771 -0.000029 0.012608
# 3 -0.001007 -0.001237 0.007906 -0.005840 -0.002108 0.000635
# 4 0.013363 -0.000771 -0.005840 0.060685 0.031963 0.009654
# 5 0.011196 -0.000029 -0.002108 0.031963 0.046068 0.009362
# 6 0.013186 0.012608 0.000635 0.009654 0.009362 0.045640
#
#
# Mechanical properties :
#
#
# Convention : Reuss Voigt Hill
#
# Bulk Modulus (GPa) = 29.00567 54.20605 41.60586
# Shear Modulus (GPa) = 24.39084 41.57497 32.98291
#
# Velocity S-wave (km/s) = 3.12453 4.07931 3.63342
# Velocity P-wave (km/s) = 4.96253 6.62451 5.85281
#
# Compressibility (1/GPa) = 0.03447601
#
# Stress axis : x y z
#
# Youngs Moduli (GPa) = 60.77690 74.44046 126.48547
#
# Poissons Ratio (x) = -0.04359 0.12736
# Poissons Ratio (y) = -0.03559 0.15649
# Poissons Ratio (z) = 0.06120 0.09210
#
# Static dielectric constant tensor:
#      x y z
#    x 2.054680 0.262110 0.068250 
#    y 0.262110 2.248210 -0.061640 
#    z 0.068250 -0.061640 2.103350 
# 
# From -- ./inp_files/78874.got.cif
#   From: 2010.05.17/outbox.cif.g08.bks.cpg/sg2_40_cif.got.tgz:78874.got - 2010.06.03 11:33:40.
