data_PCOD9054606
_publ_section_title
;
Structure prediction by ZEFSAII (Michael W. Deem and Ramdas Pophale) SiO2 
 PCOD9054606
Probable space group: P -1
;
_chemical_formula_sum "Si O2"
_cell_formula_units_Z 14
_cell_length_a 11.730691
_cell_length_b 10.801693
_cell_length_c 12.330675
_cell_angle_alpha 101.191990
_cell_angle_beta 134.231440
_cell_angle_gamma 42.834465
_cell_volume 577.369460
_symmetry_space_group_name_H-M "P -1"
_symmetry_group_IT_number 2
_symmetry_cell_setting 'triclinic'
loop_
_space_group_symop_operation_xyz
x,y,z
-x,-y,-z
loop_
_atom_site_type_symbol
_atom_site_label
_atom_site_fract_x
_atom_site_fract_y
_atom_site_fract_z
Si Si1 0.391300 0.459102 0.496230
Si Si2 0.171918 0.555802 0.700167
Si Si3 0.719899 0.268451 0.905655
Si Si4 0.875569 0.673503 0.293334
Si Si5 0.280531 0.186095 0.071617
Si Si6 0.324828 0.921269 0.534789
Si Si7 0.287986 0.461198 0.110406
O O1 0.500000 0.500000 0.500000
O O2 0.505372 0.417774 0.683299
O O3 0.563642 0.220367 0.523527
O O4 0.044077 0.648010 0.313017
O O5 0.531099 0.328296 0.884429
O O6 0.087284 0.501905 0.716947
O O7 0.038394 0.601014 0.502753
O O8 0.007422 0.799766 0.650393
O O9 0.754326 0.394183 0.973094
O O10 0.000000 0.000000 0.000000
O O11 0.524175 0.942668 0.125925
O O12 0.459237 0.108712 0.288373
O O13 0.227779 0.359407 0.012558
O O14 0.964686 0.344318 0.930116
O O15 0.392804 0.777194 0.654629
#
# Coordination Sequence:
#
# PCOD9054606 Si02
#       7
#     2   2   2   2   2   2   2
#     4  11  21  37  57  85 113 144 183 232 281 322
#     4   9  19  34  54  82 108 148 188 223 271 330
#     4  11  22  36  59  81 113 150 185 226 275 332
#     4   9  18  33  55  80 110 145 187 225 268 332
#     4   8  16  33  56  80 107 143 187 224 264 330
#     4   9  18  34  57  80 113 140 186 232 272 325
#     4   9  17  32  57  81 110 142 185 226 269 324
#
# _framework density 24.247904999999999
#
# number of rings (size 3 to 8) (size 9 to 14) (size 15 to 20)
#    0.857    1.714    1.429    0.857    0.000    3.429 
#    0.000    1.429    0.000    0.000    0.000    0.000 
#    0.000    0.000    0.000    0.000    0.000    0.000 
#
# Total GULP energy -78048.978746 kJ/mol
# GULP energy per Si atom -5574.927053 kJ/mol
# Density = 2.419272 g / cm^3
# Si number density = 24.247905 Si / 1000 Ang^3
#
#
#
# Elastic Constant Matrix: (Units=GPa)
#
#
# Indices 1 2 3 4 5 6 
#
# 1 126.6732 18.2788 39.4486 -16.4701 15.6782 11.4138
# 2 18.2788 82.8960 23.3604 -26.6395 15.0678 21.4575
# 3 39.4486 23.3604 65.6462 -23.6386 15.0170 10.6424
# 4 -16.4701 -26.6395 -23.6386 49.8177 -13.9987 -7.1221
# 5 15.6782 15.0678 15.0170 -13.9987 21.3113 6.1578
# 6 11.4138 21.4575 10.6424 -7.1221 6.1578 26.1109
#
#
#
# Elastic Compliance Matrix: (Units=1/GPa)
#
#
# Indices 1 2 3 4 5 6 
#
# 1 0.010014 0.000255 -0.005084 -0.000228 -0.003617 -0.001724
# 2 0.000255 0.018297 -0.001470 0.006190 -0.004622 -0.011770
# 3 -0.005084 -0.001470 0.022985 0.006211 -0.006558 -0.002697
# 4 -0.000228 0.006190 0.006211 0.029071 0.011152 -0.002219
# 5 -0.003617 -0.004622 -0.006558 0.011152 0.066096 -0.004494
# 6 -0.001724 -0.011770 -0.002697 -0.002219 -0.004494 0.050278
#
#
# Mechanical properties :
#
#
# Convention : Reuss Voigt Hill
#
# Bulk Modulus (GPa) = 25.84046 48.59898 37.21972
# Shear Modulus (GPa) = 22.49818 32.38983 27.44400
#
# Velocity S-wave (km/s) = 3.04935 3.65880 3.36789
# Velocity P-wave (km/s) = 4.80395 6.15915 5.52327
#
# Compressibility (1/GPa) = 0.03869900
#
# Stress axis : x y z
#
# Youngs Moduli (GPa) = 99.85975 54.65287 43.50604
#
# Poissons Ratio (x) = -0.01393 0.22117
# Poissons Ratio (y) = -0.02545 0.06396
# Poissons Ratio (z) = 0.50765 0.08034
#
# Static dielectric constant tensor:
#      x y z
#    x 1.951620 -0.009160 -0.023690 
#    y -0.009160 1.944480 0.056900 
#    z -0.023690 0.056900 2.021150 
# 
# From -- ./inp_files/268980.got.cif
#   From: 2010.05.17/outbox.cif.g08.bks.cpg/sg2_135_cif.got.tgz:268980.got - 2010.06.03 11:33:40.
