data_PCOD9054717
_publ_section_title
;
Structure prediction by ZEFSAII (Michael W. Deem and Ramdas Pophale) SiO2 
 PCOD9054717
Probable space group: P -1
;
_chemical_formula_sum "Si O2"
_cell_formula_units_Z 16
_cell_length_a 9.425062
_cell_length_b 15.467421
_cell_length_c 20.844028
_cell_angle_alpha 159.774830
_cell_angle_beta 130.182898
_cell_angle_gamma 48.316176
_cell_volume 781.888173
_symmetry_space_group_name_H-M "P -1"
_symmetry_group_IT_number 2
_symmetry_cell_setting 'triclinic'
loop_
_space_group_symop_operation_xyz
x,y,z
-x,-y,-z
loop_
_atom_site_type_symbol
_atom_site_label
_atom_site_fract_x
_atom_site_fract_y
_atom_site_fract_z
Si Si1 0.218358 0.164180 0.957931
Si Si2 0.197306 0.286875 0.897946
Si Si3 0.198509 0.083319 0.611918
Si Si4 0.379248 0.747165 0.970607
Si Si5 0.502516 0.434013 0.676693
Si Si6 0.637351 0.403803 0.380852
Si Si7 0.740665 0.671527 0.713844
Si Si8 0.917639 0.401747 0.134944
O O1 0.199395 0.110436 0.839173
O O2 0.292545 0.892639 0.823597
O O3 0.360378 0.358232 0.143207
O O4 0.022178 0.291441 0.023138
O O5 0.216856 0.169223 0.750920
O O6 0.401980 0.357098 0.016082
O O7 0.000000 0.500000 0.000000
O O8 0.180162 0.309316 0.712287
O O9 0.360242 0.842669 0.469262
O O10 0.000000 0.000000 0.500000
O O11 0.358627 0.542989 0.767622
O O12 0.236861 0.742856 0.984008
O O13 0.334907 0.030841 0.123099
O O14 0.390905 0.432475 0.577269
O O15 0.767166 0.504571 0.540525
O O16 0.429344 0.417513 0.360283
O O17 0.919563 0.628333 0.783604
#
# Coordination Sequence:
#
# PCOD9054717 Si02
#       8
#     2   2   2   2   2   2   2   2
#     4  11  21  39  65  97 124 167 216 266 318 384
#     4  11  22  43  67  95 124 167 218 267 317 378
#     4  12  23  40  68  95 129 164 222 265 315 385
#     4  11  25  44  65  94 136 171 214 266 329 384
#     4  11  21  40  64  94 128 170 214 270 314 376
#     4  11  21  37  70  99 122 164 230 271 311 374
#     4  11  22  40  66  98 132 166 218 273 317 380
#     4  12  25  42  64  96 134 180 207 262 334 383
#
# _framework density 20.463283000000001
#
# number of rings (size 3 to 8) (size 9 to 14) (size 15 to 20)
#    0.000    0.750    6.250    3.000    3.500    1.000 
#    0.000    3.750    0.000    0.000    0.000    0.000 
#    0.000    0.000    0.000    0.000    0.000    0.000 
#
# Total GULP energy -89280.445639 kJ/mol
# GULP energy per Si atom -5580.027852 kJ/mol
# Density = 2.041671 g / cm^3
# Si number density = 20.463283 Si / 1000 Ang^3
#
#
#
# Elastic Constant Matrix: (Units=GPa)
#
#
# Indices 1 2 3 4 5 6 
#
# 1 48.4982 -2.0150 6.3778 -4.6276 0.0335 6.7386
# 2 -2.0150 91.9954 34.6359 6.7977 1.6508 5.6627
# 3 6.3778 34.6359 57.3130 3.2033 -23.8499 0.5383
# 4 -4.6276 6.7977 3.2033 30.8184 -7.2216 -8.8125
# 5 0.0335 1.6508 -23.8499 -7.2216 20.7684 1.8429
# 6 6.7386 5.6627 0.5383 -8.8125 1.8429 25.1504
#
#
#
# Elastic Compliance Matrix: (Units=1/GPa)
#
#
# Indices 1 2 3 4 5 6 
#
# 1 0.023169 0.005661 -0.011570 -0.001751 -0.013776 -0.006839
# 2 0.005661 0.027094 -0.036096 -0.015110 -0.048104 -0.008614
# 3 -0.011570 -0.036096 0.083373 0.025561 0.106580 0.010590
# 4 -0.001751 -0.015110 0.025561 0.048463 0.045906 0.016941
# 5 -0.013776 -0.048104 0.106580 0.045906 0.189068 0.014472
# 6 -0.006839 -0.008614 0.010590 0.016941 0.014472 0.048182
#
#
# Mechanical properties :
#
#
# Convention : Reuss Voigt Hill
#
# Bulk Modulus (GPa) = 20.15081 30.64488 25.39785
# Shear Modulus (GPa) = 9.61723 25.93463 17.77593
#
# Velocity S-wave (km/s) = 2.17024 3.56388 2.95053
# Velocity P-wave (km/s) = 4.01853 5.65182 4.90366
#
# Compressibility (1/GPa) = 0.04962579
#
# Stress axis : x y z
#
# Youngs Moduli (GPa) = 43.16172 36.90837 11.99429
#
# Poissons Ratio (x) = -0.20894 0.13877
# Poissons Ratio (y) = -0.24434 0.43295
# Poissons Ratio (z) = 0.49937 1.33225
#
# Static dielectric constant tensor:
#      x y z
#    x 1.616300 -0.196380 -0.137600 
#    y -0.196380 1.393700 -0.193970 
#    z -0.137600 -0.193970 1.716500 
# 
# From -- ./inp_files/306788.got.cif
#   From: 2010.05.17/outbox.cif.g08.bks.cpg/sg2_154_cif.got.tgz:306788.got - 2010.06.03 11:33:40.
