data_PCOD9054030
_publ_section_title
;
Structure prediction by ZEFSAII (Michael W. Deem and Ramdas Pophale) SiO2 
 PCOD9054030
Probable space group: P -1
;
_chemical_formula_sum "Si O2"
_cell_formula_units_Z 16
_cell_length_a 21.836125
_cell_length_b 19.637512
_cell_length_c 9.711702
_cell_angle_alpha 143.084042
_cell_angle_beta 143.794707
_cell_angle_gamma 18.629739
_cell_volume 772.253340
_symmetry_space_group_name_H-M "P -1"
_symmetry_group_IT_number 2
_symmetry_cell_setting 'triclinic'
loop_
_space_group_symop_operation_xyz
x,y,z
-x,-y,-z
loop_
_atom_site_type_symbol
_atom_site_label
_atom_site_fract_x
_atom_site_fract_y
_atom_site_fract_z
Si Si1 0.950369 0.917301 0.328221
Si Si2 0.822436 0.462381 0.075095
Si Si3 0.468988 0.627579 0.758499
Si Si4 0.900235 0.375040 0.382178
Si Si5 0.633379 0.397491 0.945962
Si Si6 0.229978 0.317089 0.151049
Si Si7 0.195903 0.987528 0.488450
Si Si8 0.540095 0.826877 0.940388
O O1 0.720889 0.121529 0.205284
O O2 0.951734 0.896839 0.462505
O O3 0.000000 0.000000 0.500000
O O4 0.059783 0.718878 0.119532
O O5 0.932164 0.382122 0.290976
O O6 0.658411 0.528048 0.935191
O O7 0.693549 0.674788 0.100526
O O8 0.500000 0.500000 0.500000
O O9 0.466236 0.572194 0.809908
O O10 0.776225 0.373508 0.172129
O O11 0.780208 0.583189 0.582731
O O12 0.101214 0.162701 0.489873
O O13 0.500000 0.500000 0.000000
O O14 0.761775 0.170152 0.764769
O O15 0.329145 0.272906 0.120140
O O16 0.000000 0.500000 0.000000
O O17 0.373019 0.079155 0.065278
O O18 0.405359 0.841088 0.688643
#
# Coordination Sequence:
#
# PCOD9054030 Si02
#       8
#     2   2   2   2   2   2   2   2
#     4  12  23  36  66  92 136 184 225 264 316 395
#     4  11  24  41  62  98 130 170 219 276 331 379
#     4  11  20  40  56  92 129 176 228 260 311 396
#     4  11  25  43  63  98 139 169 220 279 333 391
#     4  11  24  37  62  95 139 176 214 269 337 388
#     4  11  24  48  75  98 126 172 229 275 330 400
#     4  12  23  42  67  99 135 180 225 262 327 410
#     4  11  24  45  75  97 126 175 228 272 326 398
#
# _framework density 20.718589000000001
#
# number of rings (size 3 to 8) (size 9 to 14) (size 15 to 20)
#    0.000    0.750    5.000    2.625    3.500    0.500 
#    0.000    0.625    0.000    0.000    0.000    0.000 
#    0.000    0.000    0.000    0.000    0.000    0.000 
#
# Total GULP energy -89273.603162 kJ/mol
# GULP energy per Si atom -5579.600198 kJ/mol
# Density = 2.067143 g / cm^3
# Si number density = 20.718589 Si / 1000 Ang^3
#
#
#
# Elastic Constant Matrix: (Units=GPa)
#
#
# Indices 1 2 3 4 5 6 
#
# 1 113.4099 45.6092 38.4782 5.9481 -37.0335 4.1842
# 2 45.6092 124.1477 37.7403 13.9137 -26.6343 6.5633
# 3 38.4782 37.7403 78.4047 27.6925 -18.7211 2.7527
# 4 5.9481 13.9137 27.6925 39.4434 -0.1915 -6.5592
# 5 -37.0335 -26.6343 -18.7211 -0.1915 39.5366 -9.9677
# 6 4.1842 6.5633 2.7527 -6.5592 -9.9677 38.8504
#
#
#
# Elastic Compliance Matrix: (Units=1/GPa)
#
#
# Indices 1 2 3 4 5 6 
#
# 1 0.014383 -0.002030 -0.004330 0.001998 0.010609 0.002160
# 2 -0.002030 0.010642 -0.002560 -0.001748 0.003871 -0.000700
# 3 -0.004330 -0.002560 0.022265 -0.014394 0.004179 -0.002037
# 4 0.001998 -0.001748 -0.014394 0.036781 -0.004385 0.006185
# 5 0.010609 0.003871 0.004179 -0.004385 0.041784 0.007887
# 6 0.002160 -0.000700 -0.002037 0.006185 0.007887 0.028838
#
#
# Mechanical properties :
#
#
# Convention : Reuss Voigt Hill
#
# Bulk Modulus (GPa) = 33.95547 62.17975 48.06761
# Shear Modulus (GPa) = 27.41992 36.50839 31.96415
#
# Velocity S-wave (km/s) = 3.64187 4.20230 3.93208
# Velocity P-wave (km/s) = 5.84027 7.32274 6.62311
#
# Compressibility (1/GPa) = 0.02945034
#
# Stress axis : x y z
#
# Youngs Moduli (GPa) = 69.52821 93.96485 44.91342
#
# Poissons Ratio (x) = 0.19072 0.19446
# Poissons Ratio (y) = 0.14112 0.11499
# Poissons Ratio (z) = 0.30104 0.24058
#
# Static dielectric constant tensor:
#      x y z
#    x 1.730980 0.047070 0.057080 
#    y 0.047070 1.766740 -0.036600 
#    z 0.057080 -0.036600 1.668050 
# 
# From -- ./inp_files/348969.got.cif
#   From: 2010.05.17/outbox.cif.g08.bks.cpg/sg2_175_cif.got.tgz:348969.got - 2010.06.03 11:33:40.
