data_PCOD9054620
_publ_section_title
;
Structure prediction by ZEFSAII (Michael W. Deem and Ramdas Pophale) SiO2 
 PCOD9054620
Probable space group: P -1
;
_chemical_formula_sum "Si O2"
_cell_formula_units_Z 16
_cell_length_a 6.694231
_cell_length_b 9.273674
_cell_length_c 19.852092
_cell_angle_alpha 36.782953
_cell_angle_beta 68.011770
_cell_angle_gamma 80.319735
_cell_volume 664.741241
_symmetry_space_group_name_H-M "P -1"
_symmetry_group_IT_number 2
_symmetry_cell_setting 'triclinic'
loop_
_space_group_symop_operation_xyz
x,y,z
-x,-y,-z
loop_
_atom_site_type_symbol
_atom_site_label
_atom_site_fract_x
_atom_site_fract_y
_atom_site_fract_z
Si Si1 0.405289 0.294917 0.034133
Si Si2 0.915124 0.990251 0.240983
Si Si3 0.323824 0.333884 0.497202
Si Si4 0.488670 0.851602 0.126164
Si Si5 0.637031 0.392102 0.313555
Si Si6 0.554758 0.257512 0.225160
Si Si7 0.731647 0.231313 0.576457
Si Si8 0.988502 0.539691 0.321558
O O1 0.153689 0.162281 0.132184
O O2 0.520693 0.068198 0.096661
O O3 0.500000 0.500000 0.000000
O O4 0.431980 0.460959 0.901218
O O5 0.742145 0.161174 0.197260
O O6 0.881016 0.855450 0.369168
O O7 0.879490 0.763143 0.277570
O O8 0.423943 0.308693 0.420718
O O9 0.528732 0.290208 0.534686
O O10 0.287774 0.609476 0.414138
O O11 0.652629 0.676891 0.184286
O O12 0.242418 0.670069 0.227814
O O13 0.500000 0.000000 0.000000
O O14 0.599336 0.242977 0.304651
O O15 0.855949 0.399813 0.326903
O O16 0.329724 0.064545 0.303695
O O17 0.946722 0.349559 0.460635
#
# Coordination Sequence:
#
# PCOD9054620 Si02
#       8
#     2   2   2   2   2   2   2   2
#     4  11  25  41  58  86 122 159 198 252 299 340
#     4   9  20  41  62  88 117 151 210 246 282 367
#     4   8  16  34  62  88 113 155 196 243 298 346
#     4  11  24  45  58  87 127 154 207 246 284 375
#     4  11  22  38  64  92 120 163 191 241 315 349
#     4  11  21  37  60  93 120 152 200 245 299 358
#     4   8  16  34  60  89 117 148 201 248 286 353
#     4   9  21  41  65  88 117 162 199 245 299 348
#
# _framework density 24.069514999999999
#
# number of rings (size 3 to 8) (size 9 to 14) (size 15 to 20)
#    0.000    2.250    1.250    2.625    3.500    6.000 
#    2.250    2.500    0.000    0.000    0.000    0.000 
#    0.000    0.000    0.000    0.000    0.000    0.000 
#
# Total GULP energy -89458.151467 kJ/mol
# GULP energy per Si atom -5591.134467 kJ/mol
# Density = 2.401473 g / cm^3
# Si number density = 24.069515 Si / 1000 Ang^3
#
#
#
# Elastic Constant Matrix: (Units=GPa)
#
#
# Indices 1 2 3 4 5 6 
#
# 1 27.4997 16.3805 10.0377 -0.9084 -1.4983 16.8669
# 2 16.3805 79.2976 17.2643 -3.4852 -11.3884 26.4920
# 3 10.0377 17.2643 143.0774 -7.6321 -13.4618 11.3246
# 4 -0.9084 -3.4852 -7.6321 41.6122 6.1781 5.3051
# 5 -1.4983 -11.3884 -13.4618 6.1781 35.7951 -6.3212
# 6 16.8669 26.4920 11.3246 5.3051 -6.3212 32.9670
#
#
#
# Elastic Compliance Matrix: (Units=1/GPa)
#
#
# Indices 1 2 3 4 5 6 
#
# 1 0.055079 -0.002317 -0.001593 0.004921 -0.004731 -0.027470
# 2 -0.002317 0.018076 -0.000595 0.002620 0.002674 -0.013045
# 3 -0.001593 -0.000595 0.007521 0.001102 0.002198 -0.001047
# 4 0.004921 0.002620 0.001102 0.026599 -0.004943 -0.010230
# 5 -0.004731 0.002674 0.002198 -0.004943 0.031387 0.006330
# 6 -0.027470 -0.013045 -0.001047 -0.010230 0.006330 0.058090
#
#
# Mechanical properties :
#
#
# Convention : Reuss Voigt Hill
#
# Bulk Modulus (GPa) = 13.95333 37.47107 25.71220
# Shear Modulus (GPa) = 21.77222 35.82099 28.79661
#
# Velocity S-wave (km/s) = 3.01085 3.86194 3.46264
# Velocity P-wave (km/s) = 4.23044 5.95716 5.16645
#
# Compressibility (1/GPa) = 0.07166750
#
# Stress axis : x y z
#
# Youngs Moduli (GPa) = 18.15575 55.32137 132.95863
#
# Poissons Ratio (x) = 0.12817 0.21180
# Poissons Ratio (y) = 0.04206 0.07907
# Poissons Ratio (z) = 0.02892 0.03290
#
# Static dielectric constant tensor:
#      x y z
#    x 2.022620 0.031350 0.034460 
#    y 0.031350 1.920980 0.029870 
#    z 0.034460 0.029870 1.981540 
# 
# From -- ./inp_files/343582.got.cif
#   From: 2010.05.17/outbox.cif.g08.bks.cpg/sg2_172_cif.got.tgz:343582.got - 2010.06.03 11:33:40.
