data_PCOD9054846
_publ_section_title
;
Structure prediction by ZEFSAII (Michael W. Deem and Ramdas Pophale) SiO2 
 PCOD9054846
Probable space group: P -1
;
_chemical_formula_sum "Si O2"
_cell_formula_units_Z 14
_cell_length_a 9.714663
_cell_length_b 9.172618
_cell_length_c 11.635523
_cell_angle_alpha 57.258692
_cell_angle_beta 77.214764
_cell_angle_gamma 120.721750
_cell_volume 543.949773
_symmetry_space_group_name_H-M "P -1"
_symmetry_group_IT_number 2
_symmetry_cell_setting 'triclinic'
loop_
_space_group_symop_operation_xyz
x,y,z
-x,-y,-z
loop_
_atom_site_type_symbol
_atom_site_label
_atom_site_fract_x
_atom_site_fract_y
_atom_site_fract_z
Si Si1 0.040776 0.910418 0.673000
Si Si2 0.952769 0.686984 0.451971
Si Si3 0.371508 0.619277 0.163154
Si Si4 0.939997 0.747205 0.158165
Si Si5 0.840112 0.204221 0.101577
Si Si6 0.498704 0.348943 0.275318
Si Si7 0.576522 0.985793 0.764575
O O1 0.087873 0.898067 0.799319
O O2 0.843080 0.620407 0.774837
O O3 0.268629 0.087866 0.490469
O O4 0.991422 0.067671 0.612541
O O5 0.731855 0.431305 0.672482
O O6 0.931755 0.702942 0.313655
O O7 0.161143 0.760968 0.409149
O O8 0.499699 0.557822 0.175301
O O9 0.521217 0.887646 0.947884
O O10 0.702849 0.484676 0.257248
O O11 0.110823 0.782228 0.046491
O O12 0.000000 0.000000 0.000000
O O13 0.587426 0.019052 0.244733
O O14 0.000000 0.500000 0.000000
O O15 0.502168 0.255418 0.193372
#
# Coordination Sequence:
#
# PCOD9054846 Si02
#       7
#     2   2   2   2   2   2   2
#     4  11  21  42  70 104 135 175 240 281 320 417
#     4  11  24  44  68 100 140 175 231 285 338 396
#     4  11  21  38  70 106 133 175 236 282 322 418
#     4  12  25  46  69 101 139 180 227 285 343 400
#     4  12  25  43  70 102 137 179 231 277 340 417
#     4  11  22  40  72 103 131 184 231 280 338 399
#     4  12  23  42  72  98 136 183 227 276 349 396
#
# _framework density 25.737670999999999
#
# number of rings (size 3 to 8) (size 9 to 14) (size 15 to 20)
#    0.000    0.571    7.143    2.143    0.000    3.429 
#    5.143    0.714    0.000    0.000    0.000    0.000 
#    0.000    0.000    0.000    0.000    0.000    0.000 
#
# Total GULP energy -78550.451953 kJ/mol
# GULP energy per Si atom -5610.746568 kJ/mol
# Density = 2.567909 g / cm^3
# Si number density = 25.737671 Si / 1000 Ang^3
#
#
#
# Elastic Constant Matrix: (Units=GPa)
#
#
# Indices 1 2 3 4 5 6 
#
# 1 129.1176 29.4915 24.3524 4.2188 -26.6007 13.8338
# 2 29.4915 106.7535 55.9106 21.7646 -11.3855 4.5736
# 3 24.3524 55.9106 116.9704 19.9975 0.8323 3.4274
# 4 4.2188 21.7646 19.9975 56.8242 1.7469 -2.3547
# 5 -26.6007 -11.3855 0.8323 1.7469 41.8557 4.2722
# 6 13.8338 4.5736 3.4274 -2.3547 4.2722 42.3155
#
#
#
# Elastic Compliance Matrix: (Units=1/GPa)
#
#
# Indices 1 2 3 4 5 6 
#
# 1 0.010010 -0.001122 -0.001460 -0.000152 0.006469 -0.003695
# 2 -0.001122 0.013798 -0.005784 -0.003320 0.003415 -0.001186
# 3 -0.001460 -0.005784 0.011932 -0.001780 -0.002695 0.000309
# 4 -0.000152 -0.003320 -0.001780 0.019645 -0.001973 0.001845
# 5 0.006469 0.003415 -0.002695 -0.001973 0.029615 -0.005365
# 6 -0.003695 -0.001186 0.000309 0.001845 -0.005365 0.025587
#
#
# Mechanical properties :
#
#
# Convention : Reuss Voigt Hill
#
# Bulk Modulus (GPa) = 52.60378 63.59450 58.09914
# Shear Modulus (GPa) = 37.40978 44.40489 40.90734
#
# Velocity S-wave (km/s) = 3.81662 4.15816 3.99105
# Velocity P-wave (km/s) = 6.31703 6.91492 6.62273
#
# Compressibility (1/GPa) = 0.01901004
#
# Stress axis : x y z
#
# Youngs Moduli (GPa) = 99.90100 72.47185 83.80757
#
# Poissons Ratio (x) = 0.08129 0.12233
# Poissons Ratio (y) = 0.11206 0.48473
# Poissons Ratio (z) = 0.14582 0.41917
#
# Static dielectric constant tensor:
#      x y z
#    x 1.983300 -0.025440 0.019740 
#    y -0.025440 2.031790 -0.007630 
#    z 0.019740 -0.007630 2.000040 
# 
# From -- ./inp_files/157891.got.cif
#   From: 2010.05.17/outbox.cif.g08.bks.cpg/sg2_79_cif.got.tgz:157891.got - 2010.06.03 11:33:40.
