data_PCOD9054193
_publ_section_title
;
Structure prediction by ZEFSAII (Michael W. Deem and Ramdas Pophale) SiO2 
 PCOD9054193
Probable space group: P -1
;
_chemical_formula_sum "Si O2"
_cell_formula_units_Z 14
_cell_length_a 17.073474
_cell_length_b 17.315625
_cell_length_c 6.246039
_cell_angle_alpha 54.194663
_cell_angle_beta 115.737578
_cell_angle_gamma 156.880505
_cell_volume 555.910821
_symmetry_space_group_name_H-M "P -1"
_symmetry_group_IT_number 2
_symmetry_cell_setting 'triclinic'
loop_
_space_group_symop_operation_xyz
x,y,z
-x,-y,-z
loop_
_atom_site_type_symbol
_atom_site_label
_atom_site_fract_x
_atom_site_fract_y
_atom_site_fract_z
Si Si1 0.948077 0.521079 0.211246
Si Si2 0.999662 0.109524 0.255673
Si Si3 0.415277 0.722162 0.812418
Si Si4 0.299527 0.335553 0.903751
Si Si5 0.801939 0.595371 0.588485
Si Si6 0.662622 0.120513 0.178963
Si Si7 0.789959 0.961518 0.871559
O O1 0.817535 0.479703 0.218087
O O2 0.795245 0.323414 0.165274
O O3 0.000000 0.500000 0.500000
O O4 0.162527 0.758137 0.955967
O O5 0.070666 0.242584 0.317281
O O6 0.176004 0.279944 0.008328
O O7 0.000000 0.000000 0.500000
O O8 0.800133 0.953636 0.150886
O O9 0.568162 0.786715 0.827833
O O10 0.546914 0.939503 0.510594
O O11 0.360604 0.645386 0.124071
O O12 0.323189 0.433284 0.581052
O O13 0.500000 0.500000 0.000000
O O14 0.187905 0.124674 0.051061
O O15 0.003892 0.772617 0.389899
O O16 0.500000 0.000000 0.000000
#
# Coordination Sequence:
#
# PCOD9054193 Si02
#       7
#     2   2   2   2   2   2   2
#     4  11  25  50  81 108 141 189 238 288 364 452
#     4  11  20  41  68  88 129 196 236 282 345 404
#     4  12  26  44  70 110 141 183 227 297 362 414
#     4  11  23  40  66  93 133 191 240 282 350 418
#     4  11  24  44  65  99 143 180 242 296 341 412
#     4  11  25  51  79 108 145 185 238 290 364 453
#     4  11  24  43  63 100 140 180 241 292 341 416
#
# _framework density 25.183895
#
# number of rings (size 3 to 8) (size 9 to 14) (size 15 to 20)
#    0.000    0.857    4.286    3.000    2.000    2.286 
#   10.286    0.000    0.000    0.000    0.000    0.000 
#    0.000    0.000    0.000    0.000    0.000    0.000 
#
# Total GULP energy -78012.037597 kJ/mol
# GULP energy per Si atom -5572.288400 kJ/mol
# Density = 2.512658 g / cm^3
# Si number density = 25.183895 Si / 1000 Ang^3
#
#
#
# Elastic Constant Matrix: (Units=GPa)
#
#
# Indices 1 2 3 4 5 6 
#
# 1 100.0032 47.4217 36.4757 6.0128 6.8131 45.4026
# 2 47.4217 121.5291 51.5713 13.7192 3.2876 21.7396
# 3 36.4757 51.5713 164.0485 -17.2232 22.5773 21.8131
# 4 6.0128 13.7192 -17.2232 48.5479 11.6965 -7.0367
# 5 6.8131 3.2876 22.5773 11.6965 42.1656 6.1171
# 6 45.4026 21.7396 21.8131 -7.0367 6.1171 52.7364
#
#
#
# Elastic Compliance Matrix: (Units=1/GPa)
#
#
# Indices 1 2 3 4 5 6 
#
# 1 0.019549 -0.003580 -0.001901 -0.004720 0.001681 -0.015392
# 2 -0.003580 0.011999 -0.003811 -0.005309 0.003357 -0.001385
# 3 -0.001901 -0.003811 0.009070 0.006142 -0.006099 0.000983
# 4 -0.004720 -0.005309 0.006142 0.028902 -0.011420 0.008893
# 5 0.001681 0.003357 -0.006099 -0.011420 0.030393 -0.005358
# 6 -0.015392 -0.001385 0.000983 0.008893 -0.005358 0.034186
#
#
# Mechanical properties :
#
#
# Convention : Reuss Voigt Hill
#
# Bulk Modulus (GPa) = 45.38843 72.94646 59.16744
# Shear Modulus (GPa) = 31.24416 45.36413 38.30415
#
# Velocity S-wave (km/s) = 3.52609 4.24879 3.90420
# Velocity P-wave (km/s) = 5.88555 7.28684 6.62336
#
# Compressibility (1/GPa) = 0.02203205
#
# Stress axis : x y z
#
# Youngs Moduli (GPa) = 51.15467 83.33799 110.25271
#
# Poissons Ratio (x) = 0.29839 0.20961
# Poissons Ratio (y) = 0.18316 0.42021
# Poissons Ratio (z) = 0.09725 0.31763
#
# Static dielectric constant tensor:
#      x y z
#    x 2.008140 -0.008100 0.048500 
#    y -0.008100 2.090300 0.059260 
#    z 0.048500 0.059260 2.350360 
# 
# From -- ./inp_files/120350.got.cif
#   From: 2010.05.17/outbox.cif.g08.bks.cpg/sg2_61_cif.got.tgz:120350.got - 2010.06.03 11:33:40.
