data_PCOD9054357
_publ_section_title
;
Structure prediction by ZEFSAII (Michael W. Deem and Ramdas Pophale) SiO2 
 PCOD9054357
Probable space group: P -1
;
_chemical_formula_sum "Si O2"
_cell_formula_units_Z 16
_cell_length_a 7.825440
_cell_length_b 12.041605
_cell_length_c 12.198088
_cell_angle_alpha 48.736359
_cell_angle_beta 49.116683
_cell_angle_gamma 71.829753
_cell_volume 638.544162
_symmetry_space_group_name_H-M "P -1"
_symmetry_group_IT_number 2
_symmetry_cell_setting 'triclinic'
loop_
_space_group_symop_operation_xyz
x,y,z
-x,-y,-z
loop_
_atom_site_type_symbol
_atom_site_label
_atom_site_fract_x
_atom_site_fract_y
_atom_site_fract_z
Si Si1 0.283498 0.648699 0.716029
Si Si2 0.368843 0.322308 0.182816
Si Si3 0.554770 0.877038 0.141333
Si Si4 0.186778 0.788512 0.874516
Si Si5 0.740086 0.884318 0.299298
Si Si6 0.409253 0.332838 0.919512
Si Si7 0.901558 0.349255 0.445479
Si Si8 0.939388 0.332999 0.753518
O O1 0.127914 0.697118 0.846282
O O2 0.498718 0.785456 0.508611
O O3 0.379988 0.502964 0.805343
O O4 0.146221 0.610917 0.685734
O O5 0.544986 0.225525 0.215071
O O6 0.152075 0.310376 0.360309
O O7 0.500000 0.500000 0.000000
O O8 0.299343 0.270569 0.121981
O O9 0.695176 0.926887 0.162188
O O10 0.671617 0.766385 0.089263
O O11 0.307978 0.781518 0.346625
O O12 0.500000 0.000000 0.000000
O O13 0.178751 0.963335 0.766035
O O14 0.078683 0.712783 0.081023
O O15 0.928016 0.780020 0.288196
O O16 0.679652 0.326996 0.826808
O O17 0.915240 0.496231 0.418567
#
# Coordination Sequence:
#
# PCOD9054357 Si02
#       8
#     2   2   2   2   2   2   2   2
#     4  11  23  40  65  99 130 172 224 272 323 391
#     4  11  20  43  66  97 132 164 220 277 323 386
#     4  11  25  45  63  94 135 175 221 271 330 392
#     4  11  22  42  65  92 136 175 218 269 329 389
#     4  11  25  43  62  92 138 177 219 273 326 388
#     4  11  22  41  70  98 132 174 220 274 326 391
#     4  11  23  41  69  99 130 171 221 277 328 387
#     4  11  22  41  66  98 130 172 221 269 330 389
#
# _framework density 25.056999999999999
#
# number of rings (size 3 to 8) (size 9 to 14) (size 15 to 20)
#    0.000    1.000    3.750    3.750    0.000    8.000 
#    0.000    8.125    0.000    0.000    0.000    0.000 
#    0.000    0.000    0.000    0.000    0.000    0.000 
#
# Total GULP energy -89769.764267 kJ/mol
# GULP energy per Si atom -5610.610267 kJ/mol
# Density = 2.499997 g / cm^3
# Si number density = 25.057000 Si / 1000 Ang^3
#
#
#
# Elastic Constant Matrix: (Units=GPa)
#
#
# Indices 1 2 3 4 5 6 
#
# 1 102.8187 30.2354 10.9220 1.7251 12.4941 3.4730
# 2 30.2354 156.6068 44.8384 11.0630 -1.6748 -2.2845
# 3 10.9220 44.8384 83.2495 6.9422 9.2839 0.6607
# 4 1.7251 11.0630 6.9422 35.0414 12.6672 2.0747
# 5 12.4941 -1.6748 9.2839 12.6672 41.3470 9.8937
# 6 3.4730 -2.2845 0.6607 2.0747 9.8937 43.0346
#
#
#
# Elastic Compliance Matrix: (Units=1/GPa)
#
#
# Indices 1 2 3 4 5 6 
#
# 1 0.010828 -0.002273 0.000101 0.001556 -0.003817 -0.000194
# 2 -0.002273 0.008256 -0.004234 -0.002658 0.002742 0.000184
# 3 0.000101 -0.004234 0.014693 -0.000342 -0.003482 0.000359
# 4 0.001556 -0.002658 -0.000342 0.033248 -0.010837 0.000627
# 5 -0.003817 0.002742 -0.003482 -0.010837 0.031012 -0.006100
# 6 -0.000194 0.000184 0.000359 0.000627 -0.006100 0.024629
#
#
# Mechanical properties :
#
#
# Convention : Reuss Voigt Hill
#
# Bulk Modulus (GPa) = 47.69795 57.18517 52.44156
# Shear Modulus (GPa) = 35.09570 40.99654 38.04612
#
# Velocity S-wave (km/s) = 3.74657 4.04930 3.90087
# Velocity P-wave (km/s) = 6.14758 6.68835 6.42366
#
# Compressibility (1/GPa) = 0.02096526
#
# Stress axis : x y z
#
# Youngs Moduli (GPa) = 92.35502 121.11856 68.05774
#
# Poissons Ratio (x) = 0.27530 -0.00688
# Poissons Ratio (y) = 0.20992 0.28818
# Poissons Ratio (z) = -0.00934 0.51285
#
# Static dielectric constant tensor:
#      x y z
#    x 2.030160 0.038670 -0.000780 
#    y 0.038670 1.973270 0.017960 
#    z -0.000780 0.017960 1.955280 
# 
# From -- ./inp_files/391964.got.cif
#   From: 2010.05.17/outbox.cif.g08.bks.cpg/sg2_196_cif.got.tgz:391964.got - 2010.06.03 11:33:40.
