data_PCOD9054025
_publ_section_title
;
Structure prediction by ZEFSAII (Michael W. Deem and Ramdas Pophale) SiO2 
 PCOD9054025
Probable space group: P -1
;
_chemical_formula_sum "Si O2"
_cell_formula_units_Z 16
_cell_length_a 19.089720
_cell_length_b 15.629061
_cell_length_c 27.234480
_cell_angle_alpha 162.511016
_cell_angle_beta 159.267622
_cell_angle_gamma 20.095128
_cell_volume 775.062185
_symmetry_space_group_name_H-M "P -1"
_symmetry_group_IT_number 2
_symmetry_cell_setting 'triclinic'
loop_
_space_group_symop_operation_xyz
x,y,z
-x,-y,-z
loop_
_atom_site_type_symbol
_atom_site_label
_atom_site_fract_x
_atom_site_fract_y
_atom_site_fract_z
Si Si1 0.354095 0.258983 0.505304
Si Si2 0.098051 0.636041 0.879766
Si Si3 0.872081 0.506689 0.288097
Si Si4 0.123122 0.717896 0.684861
Si Si5 0.363835 0.438826 0.313151
Si Si6 0.591094 0.261147 0.025273
Si Si7 0.279348 0.850802 0.393793
Si Si8 0.159685 0.661137 0.397369
O O1 0.267829 0.583940 0.657545
O O2 0.504806 0.221897 0.536771
O O3 0.120631 0.276546 0.343823
O O4 0.500000 0.000000 0.500000
O O5 0.124122 0.445080 0.741206
O O6 0.935051 0.575891 0.776031
O O7 0.336523 0.509373 0.991471
O O8 0.000000 0.000000 0.000000
O O9 0.715843 0.337327 0.104122
O O10 0.780545 0.837442 0.439917
O O11 0.281337 0.703253 0.824229
O O12 0.000000 0.500000 0.500000
O O13 0.922860 0.052302 0.723561
O O14 0.305739 0.561904 0.287439
O O15 0.179208 0.664720 0.353604
O O16 0.594305 0.447580 0.480835
O O17 0.395124 0.087565 0.153642
O O18 0.000000 0.000000 0.500000
#
# Coordination Sequence:
#
# PCOD9054025 Si02
#       8
#     2   2   2   2   2   2   2   2
#     4  11  20  39  72  97 125 179 224 271 334 392
#     4  12  27  41  71 104 132 176 228 283 333 402
#     4  11  24  41  67 101 136 167 227 284 329 392
#     4  11  22  44  67  98 135 174 219 284 335 389
#     4  11  26  42  71  94 138 183 215 277 333 406
#     4  12  24  46  64 101 144 170 222 282 340 390
#     4  11  23  43  70  99 127 181 230 267 332 408
#     4  11  23  48  65  96 139 183 221 261 347 403
#
# _framework density 20.643505000000001
#
# number of rings (size 3 to 8) (size 9 to 14) (size 15 to 20)
#    0.000    0.750    5.000    2.625    7.000    1.500 
#    2.250    0.625    0.000    0.000    0.000    0.000 
#    0.000    0.000    0.000    0.000    0.000    0.000 
#
# Total GULP energy -89437.451490 kJ/mol
# GULP energy per Si atom -5589.840718 kJ/mol
# Density = 2.059652 g / cm^3
# Si number density = 20.643505 Si / 1000 Ang^3
#
#
#
# Elastic Constant Matrix: (Units=GPa)
#
#
# Indices 1 2 3 4 5 6 
#
# 1 120.8858 33.4635 23.5778 -12.1698 17.8146 -13.4948
# 2 33.4635 97.3653 39.7358 -8.0923 19.1895 -7.8699
# 3 23.5778 39.7358 70.8173 -23.7663 17.9870 -4.5864
# 4 -12.1698 -8.0923 -23.7663 35.4835 5.1052 -2.6425
# 5 17.8146 19.1895 17.9870 5.1052 33.5794 0.4136
# 6 -13.4948 -7.8699 -4.5864 -2.6425 0.4136 40.9193
#
#
#
# Elastic Compliance Matrix: (Units=1/GPa)
#
#
# Indices 1 2 3 4 5 6 
#
# 1 0.010376 -0.002212 0.001044 0.004814 -0.005574 0.003481
# 2 -0.002212 0.014489 -0.007105 -0.001685 -0.003059 0.001183
# 3 0.001044 -0.007105 0.028619 0.020330 -0.014959 0.003649
# 4 0.004814 -0.001685 0.020330 0.046389 -0.019616 0.006736
# 5 -0.005574 -0.003059 -0.014959 -0.019616 0.045552 -0.005830
# 6 0.003481 0.001183 0.003649 0.006736 -0.005830 0.026717
#
#
# Mechanical properties :
#
#
# Convention : Reuss Voigt Hill
#
# Bulk Modulus (GPa) = 27.07399 53.62473 40.34936
# Shear Modulus (GPa) = 24.87550 34.81587 29.84569
#
# Velocity S-wave (km/s) = 3.47508 4.11119 3.80645
# Velocity P-wave (km/s) = 5.40787 6.96913 6.23754
#
# Compressibility (1/GPa) = 0.03693583
#
# Stress axis : x y z
#
# Youngs Moduli (GPa) = 96.37905 69.01797 34.94231
#
# Poissons Ratio (x) = 0.15265 -0.03646
# Poissons Ratio (y) = 0.21317 0.24828
# Poissons Ratio (z) = -0.10057 0.49040
#
# Static dielectric constant tensor:
#      x y z
#    x 1.752090 0.006950 -0.018610 
#    y 0.006950 1.746250 0.014710 
#    z -0.018610 0.014710 1.739450 
# 
# From -- ./inp_files/620495.got.cif
#   From: 2010.05.17/outbox.cif.g08.bks.cpg/sg2_311_cif.got.tgz:620495.got - 2010.06.03 11:33:40.
