data_PCOD9054467
_publ_section_title
;
Structure prediction by ZEFSAII (Michael W. Deem and Ramdas Pophale) SiO2 
 PCOD9054467
Probable space group: P -1
;
_chemical_formula_sum "Si O2"
_cell_formula_units_Z 14
_cell_length_a 13.178045
_cell_length_b 7.292536
_cell_length_c 7.106520
_cell_angle_alpha 98.415825
_cell_angle_beta 81.973974
_cell_angle_gamma 117.114773
_cell_volume 599.276003
_symmetry_space_group_name_H-M "P -1"
_symmetry_group_IT_number 2
_symmetry_cell_setting 'triclinic'
loop_
_space_group_symop_operation_xyz
x,y,z
-x,-y,-z
loop_
_atom_site_type_symbol
_atom_site_label
_atom_site_fract_x
_atom_site_fract_y
_atom_site_fract_z
Si Si1 0.381581 0.221032 0.825836
Si Si2 0.584287 0.175234 0.243931
Si Si3 0.851771 0.055561 0.042078
Si Si4 0.254051 0.524600 0.464007
Si Si5 0.083382 0.271945 0.202380
Si Si6 0.426973 0.354486 0.270056
Si Si7 0.264602 0.698048 0.105262
O O1 0.459520 0.427085 0.726571
O O2 0.423881 0.047514 0.752197
O O3 0.245236 0.105383 0.818655
O O4 0.394365 0.285977 0.052403
O O5 0.697510 0.348996 0.341451
O O6 0.470791 0.198254 0.322899
O O7 0.617595 0.234918 0.025829
O O8 0.956084 0.216630 0.162705
O O9 0.792347 0.165035 0.946337
O O10 0.897510 0.928814 0.876612
O O11 0.124321 0.366354 0.415131
O O12 0.325621 0.394502 0.386537
O O13 0.286071 0.702514 0.322262
O O14 0.173674 0.456875 0.075650
#
# Coordination Sequence:
#
# PCOD9054467 Si02
#       7
#     2   2   2   2   2   2   2
#     4  10  21  36  60  90 108 155 200 232 285 349
#     4  11  22  38  60  87 117 154 192 236 291 338
#     4  10  17  35  65  82 110 158 187 232 290 341
#     4  10  22  39  57  90 118 149 194 237 283 347
#     4   9  19  36  60  87 114 146 196 230 283 350
#     4  11  20  39  57  81 123 154 188 245 282 333
#     4   9  20  37  58  84 117 149 185 235 289 334
#
# _framework density 23.361519999999999
#
# number of rings (size 3 to 8) (size 9 to 14) (size 15 to 20)
#    0.857    1.143    1.429    3.857    0.000    1.714 
#    2.571    2.857    0.000    2.571    0.000    0.000 
#    0.000    0.000    0.000    0.000    0.000    0.000 
#
# Total GULP energy -78186.148810 kJ/mol
# GULP energy per Si atom -5584.724915 kJ/mol
# Density = 2.330835 g / cm^3
# Si number density = 23.361520 Si / 1000 Ang^3
#
#
#
# Elastic Constant Matrix: (Units=GPa)
#
#
# Indices 1 2 3 4 5 6 
#
# 1 79.1063 16.2834 -3.1874 3.8005 12.7767 1.6330
# 2 16.2834 65.9493 -0.1703 20.8663 -1.4234 2.3930
# 3 -3.1874 -0.1703 42.9507 6.8755 12.3267 -3.4895
# 4 3.8005 20.8663 6.8755 23.6688 -0.7783 -4.1247
# 5 12.7767 -1.4234 12.3267 -0.7783 25.2228 14.6310
# 6 1.6330 2.3930 -3.4895 -4.1247 14.6310 31.1766
#
#
#
# Elastic Compliance Matrix: (Units=1/GPa)
#
#
# Indices 1 2 3 4 5 6 
#
# 1 0.016333 -0.004864 0.006405 0.000657 -0.016276 0.007960
# 2 -0.004864 0.023505 0.000318 -0.021154 0.007535 -0.007848
# 3 0.006405 0.000318 0.035407 -0.009700 -0.030470 0.016619
# 4 0.000657 -0.021154 -0.009700 0.065207 -0.000097 0.009176
# 5 -0.016276 0.007535 -0.030470 -0.000097 0.089356 -0.045083
# 6 0.007960 -0.007848 0.016619 0.009176 -0.045083 0.056492
#
#
# Mechanical properties :
#
#
# Convention : Reuss Voigt Hill
#
# Bulk Modulus (GPa) = 12.66392 23.76196 18.21294
# Shear Modulus (GPa) = 16.18635 27.68569 21.93602
#
# Velocity S-wave (km/s) = 2.63509 3.44626 3.06760
# Velocity P-wave (km/s) = 3.83286 5.10187 4.51220
#
# Compressibility (1/GPa) = 0.07896447
#
# Stress axis : x y z
#
# Youngs Moduli (GPa) = 61.22417 42.54348 28.24319
#
# Poissons Ratio (x) = 0.20694 -0.18091
# Poissons Ratio (y) = 0.29781 -0.00899
# Poissons Ratio (z) = -0.39216 -0.01354
#
# Static dielectric constant tensor:
#      x y z
#    x 1.888040 0.009810 0.014610 
#    y 0.009810 1.873960 0.001110 
#    z 0.014610 0.001110 1.923010 
# 
# From -- ./inp_files/291026.got.cif
#   From: 2010.05.17/outbox.cif.g08.bks.cpg/sg2_146_cif.got.tgz:291026.got - 2010.06.03 11:33:40.
