data_PCOD9054997
_publ_section_title
;
Structure prediction by ZEFSAII (Michael W. Deem and Ramdas Pophale) SiO2 
 PCOD9054997
Probable space group: P -1
;
_chemical_formula_sum "Si O2"
_cell_formula_units_Z 15
_cell_length_a 12.017815
_cell_length_b 9.038594
_cell_length_c 19.141301
_cell_angle_alpha 137.196576
_cell_angle_beta 22.285072
_cell_angle_gamma 130.813814
_cell_volume 533.165668
_symmetry_space_group_name_H-M "P -1"
_symmetry_group_IT_number 2
_symmetry_cell_setting 'triclinic'
loop_
_space_group_symop_operation_xyz
x,y,z
-x,-y,-z
loop_
_atom_site_type_symbol
_atom_site_label
_atom_site_fract_x
_atom_site_fract_y
_atom_site_fract_z
Si Si1 0.648059 0.674394 0.744436
Si Si2 0.500000 0.500000 0.500000
Si Si3 0.227341 0.794855 0.515882
Si Si4 0.891812 0.222532 0.822789
Si Si5 0.646586 0.792594 0.632340
Si Si6 0.823867 0.132086 0.272441
Si Si7 0.499367 0.241157 0.920912
Si Si8 0.004233 0.356996 0.018248
O O1 0.592873 0.419338 0.695338
O O2 0.771510 0.718742 0.610908
O O3 0.894720 0.722729 0.672945
O O4 0.335842 0.804778 0.989333
O O5 0.735209 0.640871 0.463086
O O6 0.661586 0.273408 0.355870
O O7 0.308437 0.803030 0.552572
O O8 0.165529 0.040266 0.608175
O O9 0.689526 0.193199 0.863819
O O10 0.976465 0.468274 0.870157
O O11 0.646383 0.054748 0.717049
O O12 0.316369 0.722832 0.810402
O O13 0.804267 0.875052 0.181057
O O14 0.163500 0.183550 0.097826
O O15 0.500000 0.500000 0.000000
O O16 0.000000 0.500000 0.000000
#
# Coordination Sequence:
#
# PCOD9054997 Si02
#       8
#     2   1   2   2   2   2   2   2
#     4  11  21  39  70 103 134 173 229 297 359 407
#     4  12  28  46  66  96 156 196 230 276 356 438
#     4  11  21  39  70 103 134 173 229 297 359 407
#     4  12  22  42  68 108 139 172 230 305 356 419
#     4  11  24  46  68  98 139 189 230 286 353 425
#     4  11  24  46  68  98 139 189 230 286 353 425
#     4  11  26  45  72  97 133 189 243 281 346 425
#     4  11  23  40  72 105 134 171 234 296 360 420
#
# _framework density 28.133845000000001
#
# number of rings (size 3 to 8) (size 9 to 14) (size 15 to 20)
#    0.000    0.800    6.667    1.200    3.733    1.067 
#    2.400    2.667    0.000    0.000    0.000    0.000 
#    0.000    0.000    0.000    0.000    0.000    0.000 
#
# Total GULP energy -83868.526404 kJ/mol
# GULP energy per Si atom -5591.235094 kJ/mol
# Density = 2.806981 g / cm^3
# Si number density = 28.133845 Si / 1000 Ang^3
#
#
#
# Elastic Constant Matrix: (Units=GPa)
#
#
# Indices 1 2 3 4 5 6 
#
# 1 160.1877 48.3959 45.1023 19.8478 -3.3923 4.5799
# 2 48.3959 203.8529 56.6622 60.7144 13.1863 24.6761
# 3 45.1023 56.6622 136.3467 58.8352 5.5424 -10.2071
# 4 19.8478 60.7144 58.8352 61.9691 3.0719 4.5508
# 5 -3.3923 13.1863 5.5424 3.0719 47.6433 15.0446
# 6 4.5799 24.6761 -10.2071 4.5508 15.0446 49.8569
#
#
#
# Elastic Compliance Matrix: (Units=1/GPa)
#
#
# Indices 1 2 3 4 5 6 
#
# 1 0.007284 -0.001429 -0.002638 0.001579 0.001462 -0.001087
# 2 -0.001429 0.007662 0.000097 -0.006894 -0.000926 -0.002732
# 3 -0.002638 0.000097 0.014295 -0.013067 -0.002650 0.005113
# 4 0.001579 -0.006894 -0.013067 0.034919 0.002331 -0.003299
# 5 0.001462 -0.000926 -0.002650 0.002331 0.023924 -0.007650
# 6 -0.001087 -0.002732 0.005113 -0.003299 -0.007650 0.025166
#
#
# Mechanical properties :
#
#
# Convention : Reuss Voigt Hill
#
# Bulk Modulus (GPa) = 46.94660 88.96756 67.95708
# Shear Modulus (GPa) = 38.97432 55.24232 47.10832
#
# Velocity S-wave (km/s) = 3.72602 4.43601 4.09643
# Velocity P-wave (km/s) = 5.93583 7.61112 6.82507
#
# Compressibility (1/GPa) = 0.02130080
#
# Stress axis : x y z
#
# Youngs Moduli (GPa) = 137.29595 130.51475 69.95237
#
# Poissons Ratio (x) = 0.18655 0.18450
# Poissons Ratio (y) = 0.19624 -0.00677
# Poissons Ratio (z) = 0.36213 -0.01264
#
# Static dielectric constant tensor:
#      x y z
#    x 2.271770 -0.050750 0.226700 
#    y -0.050750 2.537110 -0.410450 
#    z 0.226700 -0.410450 2.689650 
# 
# From -- ./inp_files/419932.got.cif
#   From: 2010.05.17/outbox.cif.g08.bks.cpg/sg2_210_cif.got.tgz:419932.got - 2010.06.03 11:33:40.
