data_PCOD9054275
_publ_section_title
;
Structure prediction by ZEFSAII (Michael W. Deem and Ramdas Pophale) SiO2 
 PCOD9054275
Probable space group: P -1
;
_chemical_formula_sum "Si O2"
_cell_formula_units_Z 15
_cell_length_a 10.250749
_cell_length_b 14.122567
_cell_length_c 8.110295
_cell_angle_alpha 72.615945
_cell_angle_beta 46.581450
_cell_angle_gamma 53.049846
_cell_volume 668.167918
_symmetry_space_group_name_H-M "P -1"
_symmetry_group_IT_number 2
_symmetry_cell_setting 'triclinic'
loop_
_space_group_symop_operation_xyz
x,y,z
-x,-y,-z
loop_
_atom_site_type_symbol
_atom_site_label
_atom_site_fract_x
_atom_site_fract_y
_atom_site_fract_z
Si Si1 0.496707 0.187186 0.700087
Si Si2 0.850392 0.808097 0.217703
Si Si3 0.500000 0.000000 0.000000
Si Si4 0.304408 0.593456 0.855350
Si Si5 0.303818 0.447683 0.637315
Si Si6 0.252192 0.936740 0.782591
Si Si7 0.351273 0.201229 0.273507
Si Si8 0.119114 0.464201 0.239671
O O1 0.274703 0.202945 0.820275
O O2 0.569503 0.093899 0.834172
O O3 0.434412 0.322564 0.692375
O O4 0.665357 0.124505 0.434338
O O5 0.801544 0.763600 0.449903
O O6 0.733996 0.949125 0.271180
O O7 0.107140 0.730281 0.997197
O O8 0.632133 0.908409 0.777990
O O9 0.265653 0.554657 0.730144
O O10 0.539300 0.570452 0.642150
O O11 0.270159 0.512426 0.052119
O O12 0.076450 0.476294 0.754645
O O13 0.414631 0.843697 0.828483
O O14 0.000000 0.000000 0.000000
O O15 0.253039 0.320005 0.188814
O O16 0.000000 0.500000 0.500000
#
# Coordination Sequence:
#
# PCOD9054275 Si02
#       8
#     2   2   1   2   2   2   2   2
#     4  11  21  41  67  94 127 171 219 261 324 390
#     4  11  20  42  66  88 126 177 218 253 321 395
#     4  12  22  38  68  94 130 156 214 282 316 380
#     4  11  24  43  67  96 131 175 223 266 317 396
#     4  11  25  43  67  98 130 177 222 263 326 394
#     4  11  22  42  66  91 129 174 217 261 320 396
#     4  11  23  40  63  97 126 167 217 263 323 386
#     4  12  23  42  67  97 135 171 214 275 328 379
#
# _framework density 22.449445000000001
#
# number of rings (size 3 to 8) (size 9 to 14) (size 15 to 20)
#    0.000    0.800    5.333    3.600    1.867    0.533 
#    2.400    0.667    0.000    0.000    0.000    0.000 
#    0.000    0.000    0.000    0.000    0.000    0.000 
#
# Total GULP energy -83587.181224 kJ/mol
# GULP energy per Si atom -5572.478748 kJ/mol
# Density = 2.239835 g / cm^3
# Si number density = 22.449445 Si / 1000 Ang^3
#
#
#
# Elastic Constant Matrix: (Units=GPa)
#
#
# Indices 1 2 3 4 5 6 
#
# 1 16.5174 9.1214 23.1565 5.1610 -3.4520 1.2026
# 2 9.1214 95.7011 30.6815 10.7594 -9.9573 0.9839
# 3 23.1565 30.6815 109.7363 3.3927 -13.2503 -17.5261
# 4 5.1610 10.7594 3.3927 45.1585 6.1882 1.0013
# 5 -3.4520 -9.9573 -13.2503 6.1882 32.5601 4.5623
# 6 1.2026 0.9839 -17.5261 1.0013 4.5623 19.1635
#
#
#
# Elastic Compliance Matrix: (Units=1/GPa)
#
#
# Indices 1 2 3 4 5 6 
#
# 1 0.103323 0.000629 -0.025809 -0.010283 0.006976 -0.031243
# 2 0.000629 0.012396 -0.003852 -0.003116 0.003567 -0.004885
# 3 -0.025809 -0.003852 0.018627 0.001961 0.000689 0.018586
# 4 -0.010283 -0.003116 0.001961 0.024721 -0.006338 0.002816
# 5 0.006976 0.003567 0.000689 -0.006338 0.035153 -0.008029
# 6 -0.031243 -0.004885 0.018586 0.002816 -0.008029 0.073156
#
#
# Mechanical properties :
#
#
# Convention : Reuss Voigt Hill
#
# Bulk Modulus (GPa) = 13.10908 38.65263 25.88086
# Shear Modulus (GPa) = 14.25052 29.97612 22.11332
#
# Velocity S-wave (km/s) = 2.52222 3.65810 3.14192
# Velocity P-wave (km/s) = 3.78605 5.92430 4.97149
#
# Compressibility (1/GPa) = 0.07628298
#
# Stress axis : x y z
#
# Youngs Moduli (GPa) = 9.67842 80.67270 53.68615
#
# Poissons Ratio (x) = -0.05078 1.38557
# Poissons Ratio (y) = -0.00609 0.20678
# Poissons Ratio (z) = 0.24979 0.31073
#
# Static dielectric constant tensor:
#      x y z
#    x 1.939550 0.059930 0.123710 
#    y 0.059930 1.958820 0.012680 
#    z 0.123710 0.012680 1.954270 
# 
# From -- ./inp_files/272335.got.cif
#   From: 2010.05.17/outbox.cif.g08.bks.cpg/sg2_137_cif.got.tgz:272335.got - 2010.06.03 11:33:40.
