data_PCOD9054409
_publ_section_title
;
Structure prediction by ZEFSAII (Michael W. Deem and Ramdas Pophale) SiO2 
 PCOD9054409
Probable space group: P -1
;
_chemical_formula_sum "Si O2"
_cell_formula_units_Z 15
_cell_length_a 15.131207
_cell_length_b 12.194899
_cell_length_c 16.841239
_cell_angle_alpha 26.550157
_cell_angle_beta 26.905733
_cell_angle_gamma 32.706704
_cell_volume 613.703832
_symmetry_space_group_name_H-M "P -1"
_symmetry_group_IT_number 2
_symmetry_cell_setting 'triclinic'
loop_
_space_group_symop_operation_xyz
x,y,z
-x,-y,-z
loop_
_atom_site_type_symbol
_atom_site_label
_atom_site_fract_x
_atom_site_fract_y
_atom_site_fract_z
Si Si1 0.412982 0.292614 0.905208
Si Si2 0.884439 0.698183 0.608606
Si Si3 0.018063 0.283420 0.311305
Si Si4 0.692352 0.597898 0.254874
Si Si5 0.428508 0.423313 0.276313
Si Si6 0.000000 0.500000 0.500000
Si Si7 0.780252 0.166050 0.057503
Si Si8 0.454430 0.923683 0.841928
O O1 0.304388 0.418252 0.831672
O O2 0.551339 0.460936 0.727124
O O3 0.244588 0.293679 0.105148
O O4 0.500000 0.000000 0.000000
O O5 0.017531 0.649694 0.611510
O O6 0.984800 0.737109 0.420625
O O7 0.688550 0.909392 0.647608
O O8 0.818946 0.430617 0.816940
O O9 0.877277 0.449801 0.252805
O O10 0.000000 0.000000 0.500000
O O11 0.500000 0.500000 0.500000
O O12 0.643429 0.883795 0.137768
O O13 0.217511 0.360616 0.461827
O O14 0.631525 0.226630 0.213083
O O15 0.440318 0.651290 0.059479
O O16 0.664871 0.033005 0.172239
O O17 0.000000 0.000000 0.000000
#
# Coordination Sequence:
#
# PCOD9054409 Si02
#       8
#     2   2   2   2   2   1   2   2
#     4  12  24  47  73 104 145 195 239 303 374 435
#     4  11  22  42  68  97 135 186 238 286 366 433
#     4  12  26  46  74 102 144 193 244 306 367 443
#     4  12  27  45  68 110 144 188 250 302 366 444
#     4  11  23  44  73 100 141 190 244 295 370 443
#     4  12  24  40  70 108 140 186 242 300 360 444
#     4  11  21  42  67  95 133 187 240 290 362 437
#     4  11  20  44  70  93 138 189 235 298 360 438
#
# _framework density 24.441756999999999
#
# number of rings (size 3 to 8) (size 9 to 14) (size 15 to 20)
#    0.000    0.533    6.667    3.600    3.733    0.000 
#    0.000    2.000    0.000    0.000    0.000    0.000 
#    0.000    0.000    0.000    0.000    0.000    0.000 
#
# Total GULP energy -83647.184008 kJ/mol
# GULP energy per Si atom -5576.478934 kJ/mol
# Density = 2.438613 g / cm^3
# Si number density = 24.441757 Si / 1000 Ang^3
#
#
#
# Elastic Constant Matrix: (Units=GPa)
#
#
# Indices 1 2 3 4 5 6 
#
# 1 224.8881 72.0712 3.5243 7.7263 -19.0651 7.0206
# 2 72.0712 120.8132 14.0087 23.3631 -2.4427 -16.8661
# 3 3.5243 14.0087 41.2595 12.5110 -16.6821 -4.2290
# 4 7.7263 23.3631 12.5110 34.9722 -6.2608 -1.8349
# 5 -19.0651 -2.4427 -16.6821 -6.2608 16.5754 3.9197
# 6 7.0206 -16.8661 -4.2290 -1.8349 3.9197 45.6031
#
#
#
# Elastic Compliance Matrix: (Units=1/GPa)
#
#
# Indices 1 2 3 4 5 6 
#
# 1 0.007884 -0.006330 0.007275 0.002798 0.017525 -0.004274
# 2 -0.006330 0.015390 -0.009028 -0.008693 -0.019066 0.007118
# 3 0.007275 -0.009028 0.050642 -0.003602 0.057798 -0.004875
# 4 0.002798 -0.008693 -0.003602 0.037252 0.013238 -0.003619
# 5 0.017525 -0.019066 0.057798 0.013238 0.144702 -0.016294
# 6 -0.004274 0.007118 -0.004875 -0.003619 -0.016294 0.026022
#
#
# Mechanical properties :
#
#
# Convention : Reuss Voigt Hill
#
# Bulk Modulus (GPa) = 17.31586 62.90768 40.11177
# Shear Modulus (GPa) = 15.75761 39.25391 27.50576
#
# Velocity S-wave (km/s) = 2.54185 4.01186 3.35828
# Velocity P-wave (km/s) = 3.96416 6.87414 5.61107
#
# Compressibility (1/GPa) = 0.05775053
#
# Stress axis : x y z
#
# Youngs Moduli (GPa) = 126.83213 64.97864 19.74647
#
# Poissons Ratio (x) = 0.41134 -0.14366
# Poissons Ratio (y) = 0.80290 0.17827
# Poissons Ratio (z) = -0.92275 0.58661
#
# Static dielectric constant tensor:
#      x y z
#    x 0.985980 -1.004980 -1.355610 
#    y -1.004980 1.011300 -1.367440 
#    z -1.355610 -1.367440 0.122950 
# 
# From -- ./inp_files/447838.got.cif
#   From: 2010.05.17/outbox.cif.g08.bks.cpg/sg2_224_cif.got.tgz:447838.got - 2010.06.03 11:33:40.
