data_PCOD9054624
_publ_section_title
;
Structure prediction by ZEFSAII (Michael W. Deem and Ramdas Pophale) SiO2 
 PCOD9054624
Probable space group: P -1
;
_chemical_formula_sum "Si O2"
_cell_formula_units_Z 16
_cell_length_a 25.715689
_cell_length_b 9.016641
_cell_length_c 25.522668
_cell_angle_alpha 43.817310
_cell_angle_beta 11.029704
_cell_angle_gamma 43.778682
_cell_volume 779.631279
_symmetry_space_group_name_H-M "P -1"
_symmetry_group_IT_number 2
_symmetry_cell_setting 'triclinic'
loop_
_space_group_symop_operation_xyz
x,y,z
-x,-y,-z
loop_
_atom_site_type_symbol
_atom_site_label
_atom_site_fract_x
_atom_site_fract_y
_atom_site_fract_z
Si Si1 0.575467 0.745096 0.487494
Si Si2 0.904738 0.586679 0.409300
Si Si3 0.114987 0.640438 0.036515
Si Si4 0.403737 0.375086 0.908399
Si Si5 0.592019 0.733394 0.357424
Si Si6 0.429319 0.088917 0.105749
Si Si7 0.104902 0.611640 0.419911
Si Si8 0.980651 0.995031 0.164308
O O1 0.696492 0.714376 0.318260
O O2 0.800153 0.644296 0.331825
O O3 0.500000 0.000000 0.500000
O O4 0.294606 0.652662 0.803842
O O5 0.649823 0.512726 0.647158
O O6 0.860013 0.552661 0.523699
O O7 0.958866 0.825136 0.276103
O O8 0.170012 0.429003 0.169686
O O9 0.254191 0.452844 0.983054
O O10 0.115050 0.852435 0.019302
O O11 0.512628 0.125855 0.862565
O O12 0.500000 0.500000 0.500000
O O13 0.320979 0.901459 0.578374
O O14 0.821962 0.817657 0.071505
O O15 0.121950 0.194982 0.388363
O O16 0.618816 0.273460 0.887683
O O17 0.500000 0.000000 0.000000
O O18 0.000000 0.500000 0.500000
#
# Coordination Sequence:
#
# PCOD9054624 Si02
#       8
#     2   2   2   2   2   2   2   2
#     4  12  21  38  62  88 120 151 202 259 313 358
#     4  11  21  39  64  93 124 164 212 261 315 386
#     4  11  21  37  61  95 119 154 205 263 315 359
#     4  11  22  37  65  96 126 159 213 270 316 368
#     4  12  25  40  59  89 120 163 204 250 307 380
#     4  12  22  42  68  97 131 169 223 269 322 380
#     4  12  25  42  65 101 136 175 217 266 327 391
#     4  11  21  39  62  87 120 159 209 252 307 376
#
# _framework density 20.522521999999999
#
# number of rings (size 3 to 8) (size 9 to 14) (size 15 to 20)
#    0.000    0.500    5.000    6.000    0.000    0.000 
#    0.000    3.750    0.000    0.000    0.000    0.000 
#    0.000    0.000    0.000    0.000    0.000    0.000 
#
# Total GULP energy -89381.150507 kJ/mol
# GULP energy per Si atom -5586.321907 kJ/mol
# Density = 2.047581 g / cm^3
# Si number density = 20.522522 Si / 1000 Ang^3
#
#
#
# Elastic Constant Matrix: (Units=GPa)
#
#
# Indices 1 2 3 4 5 6 
#
# 1 83.7498 44.3599 8.4863 -14.4021 -4.8849 -24.7025
# 2 44.3599 74.7815 12.9908 -7.8030 -6.2061 -24.5365
# 3 8.4863 12.9908 99.8620 -7.7908 -10.7115 -15.9878
# 4 -14.4021 -7.8030 -7.7908 38.6385 -4.3137 -5.2564
# 5 -4.8849 -6.2061 -10.7115 -4.3137 25.0060 -1.1813
# 6 -24.7025 -24.5365 -15.9878 -5.2564 -1.1813 28.3806
#
#
#
# Elastic Compliance Matrix: (Units=1/GPa)
#
#
# Indices 1 2 3 4 5 6 
#
# 1 0.022806 -0.006126 0.003571 0.011383 0.007325 0.018979
# 2 -0.006126 0.023652 0.001447 0.005939 0.007136 0.017329
# 3 0.003571 0.001447 0.013136 0.007050 0.008534 0.013420
# 4 0.011383 0.005939 0.007050 0.037994 0.014531 0.026656
# 5 0.007325 0.007136 0.008534 0.014531 0.050401 0.022142
# 6 0.018979 0.017329 0.013420 0.026656 0.022142 0.080155
#
#
# Mechanical properties :
#
#
# Convention : Reuss Voigt Hill
#
# Bulk Modulus (GPa) = 17.42801 43.34082 30.38442
# Shear Modulus (GPa) = 20.04120 31.24210 25.64165
#
# Velocity S-wave (km/s) = 3.12837 3.90594 3.53858
# Velocity P-wave (km/s) = 4.64322 6.44254 5.61542
#
# Compressibility (1/GPa) = 0.05737888
#
# Stress axis : x y z
#
# Youngs Moduli (GPa) = 43.84830 42.27886 76.12603
#
# Poissons Ratio (x) = 0.25899 -0.27186
# Poissons Ratio (y) = 0.26861 -0.11014
# Poissons Ratio (z) = -0.15659 -0.06117
#
# Static dielectric constant tensor:
#      x y z
#    x 1.633440 -0.095170 0.057890 
#    y -0.095170 1.746930 0.011590 
#    z 0.057890 0.011590 1.715760 
# 
# From -- ./inp_files/226241.got.cif
#   From: 2010.05.17/outbox.cif.g08.bks.cpg/sg2_114_cif.got.tgz:226241.got - 2010.06.03 11:33:40.
