data_PCOD9054611
_publ_section_title
;
Structure prediction by ZEFSAII (Michael W. Deem and Ramdas Pophale) SiO2 
 PCOD9054611
Probable space group: P -1
;
_chemical_formula_sum "Si O2"
_cell_formula_units_Z 16
_cell_length_a 9.197964
_cell_length_b 16.638486
_cell_length_c 11.145801
_cell_angle_alpha 42.724848
_cell_angle_beta 47.538359
_cell_angle_gamma 33.988027
_cell_volume 637.098358
_symmetry_space_group_name_H-M "P -1"
_symmetry_group_IT_number 2
_symmetry_cell_setting 'triclinic'
loop_
_space_group_symop_operation_xyz
x,y,z
-x,-y,-z
loop_
_atom_site_type_symbol
_atom_site_label
_atom_site_fract_x
_atom_site_fract_y
_atom_site_fract_z
Si Si1 0.575815 0.651245 0.641506
Si Si2 0.969609 0.133340 0.728629
Si Si3 0.714963 0.444430 0.158035
Si Si4 0.701155 0.871250 0.632102
Si Si5 0.395546 0.770055 0.867317
Si Si6 0.933572 0.657909 0.152784
Si Si7 0.395781 0.414250 0.698131
Si Si8 0.304584 0.133464 0.738234
O O1 0.405279 0.637030 0.665906
O O2 0.392470 0.753924 0.744952
O O3 0.663518 0.740320 0.443545
O O4 0.826605 0.482745 0.742216
O O5 0.658423 0.241904 0.787001
O O6 0.041300 0.169409 0.521591
O O7 0.081926 0.171421 0.730665
O O8 0.135192 0.946122 0.853661
O O9 0.784543 0.480765 0.202252
O O10 0.469787 0.616303 0.051023
O O11 0.940025 0.355302 0.030266
O O12 0.646237 0.754207 0.777667
O O13 0.500000 0.000000 0.500000
O O14 0.576436 0.963719 0.726172
O O15 0.755115 0.613514 0.275125
O O16 0.786787 0.825052 0.118623
O O17 0.500000 0.500000 0.500000
#
# Coordination Sequence:
#
# PCOD9054611 Si02
#       8
#     2   2   2   2   2   2   2   2
#     4  11  18  36  64  93 121 156 208 257 295 353
#     4  10  19  38  67  95 121 154 206 260 295 358
#     4  11  25  40  62  90 124 164 202 258 307 353
#     4   8  15  32  61  91 119 148 197 256 296 341
#     4   9  17  35  64  95 119 153 204 257 308 342
#     4  11  23  37  57  87 128 158 196 249 305 364
#     4  12  26  42  60  89 124 168 207 241 310 381
#     4  10  17  35  66  95 114 154 212 257 295 345
#
# _framework density 25.113859999999999
#
# number of rings (size 3 to 8) (size 9 to 14) (size 15 to 20)
#    0.000    2.000    3.750    4.500    1.750    0.500 
#    0.000    1.875    0.000    9.000    0.000    0.000 
#    0.000    0.000    0.000    0.000    0.000    0.000 
#
# Total GULP energy -89505.319565 kJ/mol
# GULP energy per Si atom -5594.082473 kJ/mol
# Density = 2.505670 g / cm^3
# Si number density = 25.113860 Si / 1000 Ang^3
#
#
#
# Elastic Constant Matrix: (Units=GPa)
#
#
# Indices 1 2 3 4 5 6 
#
# 1 129.1873 58.1322 19.2757 0.2395 -19.7938 21.2187
# 2 58.1322 103.1855 22.1980 20.8984 4.9040 30.6746
# 3 19.2757 22.1980 59.6516 2.5202 -18.9651 3.2650
# 4 0.2395 20.8984 2.5202 43.9340 9.6010 11.4856
# 5 -19.7938 4.9040 -18.9651 9.6010 33.9930 -1.3351
# 6 21.2187 30.6746 3.2650 11.4856 -1.3351 47.8579
#
#
#
# Elastic Compliance Matrix: (Units=1/GPa)
#
#
# Indices 1 2 3 4 5 6 
#
# 1 0.012584 -0.008043 0.001706 0.001918 0.008868 -0.000754
# 2 -0.008043 0.019518 -0.007457 -0.004472 -0.010697 -0.007661
# 3 0.001706 -0.007457 0.024075 -0.002285 0.016279 0.003383
# 4 0.001918 -0.004472 -0.002285 0.027904 -0.007580 -0.004736
# 5 0.008868 -0.010697 0.016279 -0.007580 0.047543 0.004959
# 6 -0.000754 -0.007661 0.003383 -0.004736 0.004959 0.027184
#
#
# Mechanical properties :
#
#
# Convention : Reuss Voigt Hill
#
# Bulk Modulus (GPa) = 34.97699 54.58178 44.77939
# Shear Modulus (GPa) = 25.52006 37.98488 31.75247
#
# Velocity S-wave (km/s) = 3.19121 3.89331 3.55961
# Velocity P-wave (km/s) = 5.24748 6.48008 5.89608
#
# Compressibility (1/GPa) = 0.02859022
#
# Stress axis : x y z
#
# Youngs Moduli (GPa) = 79.46452 51.23494 41.53751
#
# Poissons Ratio (x) = 0.41206 -0.07087
# Poissons Ratio (y) = 0.63910 0.30974
# Poissons Ratio (z) = -0.13558 0.38206
#
# Static dielectric constant tensor:
#      x y z
#    x 1.933590 -0.012660 0.016510 
#    y -0.012660 2.041610 0.062970 
#    z 0.016510 0.062970 2.086440 
# 
# From -- ./inp_files/398535.got.cif
#   From: 2010.05.17/outbox.cif.g08.bks.cpg/sg2_200_cif.got.tgz:398535.got - 2010.06.03 11:33:40.
