data_PCOD9054583
_publ_section_title
;
Structure prediction by ZEFSAII (Michael W. Deem and Ramdas Pophale) SiO2 
 PCOD9054583
Probable space group: P -1
;
_chemical_formula_sum "Si O2"
_cell_formula_units_Z 16
_cell_length_a 25.403382
_cell_length_b 9.926999
_cell_length_c 9.268236
_cell_angle_alpha 150.351421
_cell_angle_beta 45.927859
_cell_angle_gamma 137.630527
_cell_volume 769.077418
_symmetry_space_group_name_H-M "P -1"
_symmetry_group_IT_number 2
_symmetry_cell_setting 'triclinic'
loop_
_space_group_symop_operation_xyz
x,y,z
-x,-y,-z
loop_
_atom_site_type_symbol
_atom_site_label
_atom_site_fract_x
_atom_site_fract_y
_atom_site_fract_z
Si Si1 0.438013 0.933294 0.686402
Si Si2 0.541665 0.807583 0.620991
Si Si3 0.366771 0.544267 0.991562
Si Si4 0.360992 0.376068 0.170039
Si Si5 0.972062 0.727957 0.689922
Si Si6 0.962534 0.217171 0.706210
Si Si7 0.188965 0.421438 0.284925
Si Si8 0.807770 0.102408 0.043040
O O1 0.480087 0.841074 0.652856
O O2 0.362522 0.641290 0.515925
O O3 0.500000 0.000000 0.500000
O O4 0.413485 0.215383 0.996959
O O5 0.500000 0.500000 0.500000
O O6 0.582200 0.154022 0.910055
O O7 0.616982 0.738703 0.356091
O O8 0.390732 0.537973 0.109285
O O9 0.276307 0.512645 0.137373
O O10 0.278338 0.116914 0.048549
O O11 0.878249 0.586005 0.704541
O O12 0.000000 0.500000 0.500000
O O13 0.012533 0.775035 0.499357
O O14 0.000000 0.000000 0.000000
O O15 0.869710 0.153598 0.843304
O O16 0.000000 0.000000 0.500000
O O17 0.000000 0.500000 0.000000
O O18 0.164307 0.086974 0.072790
O O19 0.192763 0.619657 0.605081
#
# Coordination Sequence:
#
# PCOD9054583 Si02
#       8
#     2   2   2   2   2   2   2   2
#     4  12  21  38  61  90 124 157 210 269 331 377
#     4  12  25  40  60  90 126 170 214 260 321 399
#     4  11  21  40  63  91 121 164 221 264 324 392
#     4  11  21  36  63  96 121 159 212 279 330 373
#     4  12  25  42  65 101 138 174 219 269 334 399
#     4  12  22  42  68  97 130 173 224 271 329 390
#     4  11  22  40  67  94 128 169 218 275 325 396
#     4  11  21  39  65  98 128 163 223 278 326 385
#
# _framework density 20.804148000000001
#
# number of rings (size 3 to 8) (size 9 to 14) (size 15 to 20)
#    0.000    0.500    5.000    6.000    0.000    0.000 
#    0.000    3.750    0.000    0.000    0.000    0.000 
#    0.000    0.000    0.000    0.000    0.000    0.000 
#
# Total GULP energy -89171.244465 kJ/mol
# GULP energy per Si atom -5573.202779 kJ/mol
# Density = 2.075680 g / cm^3
# Si number density = 20.804148 Si / 1000 Ang^3
#
#
#
# Elastic Constant Matrix: (Units=GPa)
#
#
# Indices 1 2 3 4 5 6 
#
# 1 125.7999 45.3815 41.7795 0.2294 -16.4608 -5.5947
# 2 45.3815 89.5447 31.0584 4.2991 -3.8904 -18.0996
# 3 41.7795 31.0584 136.3651 14.4285 -1.3672 -3.9069
# 4 0.2294 4.2991 14.4285 28.2195 -4.0247 -4.6675
# 5 -16.4608 -3.8904 -1.3672 -4.0247 40.3626 7.7891
# 6 -5.5947 -18.0996 -3.9069 -4.6675 7.7891 38.7478
#
#
#
# Elastic Compliance Matrix: (Units=1/GPa)
#
#
# Indices 1 2 3 4 5 6 
#
# 1 0.011098 -0.004995 -0.002510 0.002330 0.004502 -0.001608
# 2 -0.004995 0.015622 -0.001792 -0.000590 -0.001947 0.006716
# 3 -0.002510 -0.001792 0.008964 -0.004564 -0.001233 -0.000598
# 4 0.002330 -0.000590 -0.004564 0.038984 0.003950 0.003503
# 5 0.004502 -0.001947 -0.001233 0.003950 0.027838 -0.005504
# 6 -0.001608 0.006716 -0.000598 0.003503 -0.005504 0.030181
#
#
# Mechanical properties :
#
#
# Convention : Reuss Voigt Hill
#
# Bulk Modulus (GPa) = 58.51774 65.34985 61.93379
# Shear Modulus (GPa) = 31.85155 37.03201 34.44178
#
# Velocity S-wave (km/s) = 3.91707 4.22362 4.07323
# Velocity P-wave (km/s) = 6.97473 7.43407 7.20806
#
# Compressibility (1/GPa) = 0.01708884
#
# Stress axis : x y z
#
# Youngs Moduli (GPa) = 90.10544 64.01206 111.55796
#
# Poissons Ratio (x) = 0.31976 0.28001
# Poissons Ratio (y) = 0.45011 0.19995
# Poissons Ratio (z) = 0.22616 0.11473
#
# Static dielectric constant tensor:
#      x y z
#    x 1.750350 0.037190 -0.016310 
#    y 0.037190 1.836990 -0.006670 
#    z -0.016310 -0.006670 1.768220 
# 
# From -- ./inp_files/352498.got.cif
#   From: 2010.05.17/outbox.cif.g08.bks.cpg/sg2_177_cif.got.tgz:352498.got - 2010.06.03 11:33:40.
