data_PCOD9054635
_publ_section_title
;
Structure prediction by ZEFSAII (Michael W. Deem and Ramdas Pophale) SiO2 
 PCOD9054635
Probable space group: P -1
;
_chemical_formula_sum "Si O2"
_cell_formula_units_Z 16
_cell_length_a 11.601066
_cell_length_b 16.174498
_cell_length_c 9.993671
_cell_angle_alpha 48.388026
_cell_angle_beta 98.321178
_cell_angle_gamma 135.278604
_cell_volume 772.636807
_symmetry_space_group_name_H-M "P -1"
_symmetry_group_IT_number 2
_symmetry_cell_setting 'triclinic'
loop_
_space_group_symop_operation_xyz
x,y,z
-x,-y,-z
loop_
_atom_site_type_symbol
_atom_site_label
_atom_site_fract_x
_atom_site_fract_y
_atom_site_fract_z
Si Si1 0.498613 0.379562 0.941246
Si Si2 0.737048 0.487674 0.111054
Si Si3 0.941813 0.890338 0.744381
Si Si4 0.619785 0.434917 0.600552
Si Si5 0.938341 0.274017 0.666344
Si Si6 0.519836 0.119648 0.972509
Si Si7 0.952234 0.414153 0.798146
Si Si8 0.392855 0.295616 0.454090
O O1 0.618662 0.396573 0.047574
O O2 0.537716 0.377498 0.798145
O O3 0.599067 0.581641 0.755054
O O4 0.254315 0.200918 0.124867
O O5 0.864791 0.703902 0.912967
O O6 0.554128 0.346206 0.344822
O O7 0.899659 0.519084 0.136093
O O8 0.000000 0.000000 0.500000
O O9 0.160022 0.065728 0.672784
O O10 0.866161 0.652606 0.402631
O O11 0.489747 0.394030 0.510176
O O12 0.596564 0.285943 0.723205
O O13 0.964246 0.403143 0.439704
O O14 0.714954 0.045465 0.841492
O O15 0.952284 0.329006 0.762956
O O16 0.500000 0.000000 0.000000
O O17 0.707151 0.240327 0.976490
#
# Coordination Sequence:
#
# PCOD9054635 Si02
#       8
#     2   2   2   2   2   2   2   2
#     4  11  24  40  55  87 125 153 192 241 289 350
#     4  11  21  37  62  86 112 156 200 235 285 350
#     4  11  21  39  60  84 117 155 201 242 279 339
#     4  11  23  37  60  89 120 155 188 238 304 340
#     4   9  18  36  54  84 117 144 184 248 285 334
#     4   9  20  35  57  89 118 145 195 244 281 345
#     4   9  18  33  58  85 108 144 199 236 282 336
#     4  11  22  38  61  85 116 158 198 236 280 349
#
# _framework density 20.708310000000001
#
# number of rings (size 3 to 8) (size 9 to 14) (size 15 to 20)
#    0.000    1.750    3.750    1.875    3.500    1.500 
#    0.000    2.500    0.000    1.500    0.000    0.000 
#    0.000    0.000    0.000    0.000    0.000    0.000 
#
# Total GULP energy -89318.713093 kJ/mol
# GULP energy per Si atom -5582.419568 kJ/mol
# Density = 2.066118 g / cm^3
# Si number density = 20.708310 Si / 1000 Ang^3
#
#
#
# Elastic Constant Matrix: (Units=GPa)
#
#
# Indices 1 2 3 4 5 6 
#
# 1 30.7031 36.2857 16.5597 -4.1909 -0.1789 24.7411
# 2 36.2857 109.1841 59.6898 -2.9880 -15.6057 49.0031
# 3 16.5597 59.6898 85.7868 -15.7577 -26.2456 23.7863
# 4 -4.1909 -2.9880 -15.7577 42.6591 7.0319 -3.0212
# 5 -0.1789 -15.6057 -26.2456 7.0319 29.0105 -1.4569
# 6 24.7411 49.0031 23.7863 -3.0212 -1.4569 39.4181
#
#
#
# Elastic Compliance Matrix: (Units=1/GPa)
#
#
# Indices 1 2 3 4 5 6 
#
# 1 0.071064 -0.011366 0.001807 0.005788 -0.007020 -0.031381
# 2 -0.011366 0.031350 -0.011943 -0.006120 0.006224 -0.024871
# 3 0.001807 -0.011943 0.025613 0.006245 0.015209 -0.000702
# 4 0.005788 -0.006120 0.006245 0.026692 -0.003970 0.002105
# 5 -0.007020 0.006224 0.015209 -0.003970 0.051950 -0.010893
# 6 -0.031381 -0.024871 -0.000702 0.002105 -0.010893 0.076167
#
#
# Mechanical properties :
#
#
# Convention : Reuss Voigt Hill
#
# Bulk Modulus (GPa) = 11.76150 50.08271 30.92211
# Shear Modulus (GPa) = 14.11710 29.76010 21.93860
#
# Velocity S-wave (km/s) = 2.61379 3.79504 3.25839
# Velocity P-wave (km/s) = 3.84723 6.59093 5.39637
#
# Compressibility (1/GPa) = 0.08502316
#
# Stress axis : x y z
#
# Youngs Moduli (GPa) = 14.07175 31.89823 39.04316
#
# Poissons Ratio (x) = 0.36255 -0.07055
# Poissons Ratio (y) = 0.15994 0.46628
# Poissons Ratio (z) = -0.02543 0.38095
#
# Static dielectric constant tensor:
#      x y z
#    x 1.802830 0.008940 -0.017550 
#    y 0.008940 1.767700 -0.011810 
#    z -0.017550 -0.011810 1.743630 
# 
# From -- ./inp_files/279074.got.cif
#   From: 2010.05.17/outbox.cif.g08.bks.cpg/sg2_140_cif.got.tgz:279074.got - 2010.06.03 11:33:40.
