data_PCOD9054133
_publ_section_title
;
Structure prediction by ZEFSAII (Michael W. Deem and Ramdas Pophale) SiO2 
 PCOD9054133
Probable space group: P -1
;
_chemical_formula_sum "Si O2"
_cell_formula_units_Z 16
_cell_length_a 23.332596
_cell_length_b 9.018362
_cell_length_c 10.368008
_cell_angle_alpha 59.761052
_cell_angle_beta 155.707428
_cell_angle_gamma 120.952894
_cell_volume 765.951740
_symmetry_space_group_name_H-M "P -1"
_symmetry_group_IT_number 2
_symmetry_cell_setting 'triclinic'
loop_
_space_group_symop_operation_xyz
x,y,z
-x,-y,-z
loop_
_atom_site_type_symbol
_atom_site_label
_atom_site_fract_x
_atom_site_fract_y
_atom_site_fract_z
Si Si1 0.769182 0.290134 0.411875
Si Si2 0.612231 0.546222 0.096089
Si Si3 0.040787 0.582492 0.802575
Si Si4 0.597878 0.919884 0.837037
Si Si5 0.389575 0.033816 0.866173
Si Si6 0.930031 0.087833 0.437133
Si Si7 0.795645 0.675799 0.644079
Si Si8 0.060380 0.843629 0.975606
O O1 0.637859 0.388329 0.129745
O O2 0.728208 0.138757 0.291661
O O3 0.898677 0.441009 0.576172
O O4 0.799650 0.186092 0.650291
O O5 0.751869 0.600170 0.445408
O O6 0.500000 0.500000 0.000000
O O7 0.588010 0.712459 0.891658
O O8 0.052232 0.709328 0.648263
O O9 0.044292 0.707151 0.882442
O O10 0.173367 0.478585 0.133499
O O11 0.500000 0.000000 0.500000
O O12 0.549052 0.937382 0.877077
O O13 0.764095 0.004660 0.136804
O O14 0.314651 0.198428 0.602872
O O15 0.500000 0.000000 0.000000
O O16 0.000000 0.000000 0.500000
O O17 0.023110 0.026669 0.770498
O O18 0.944691 0.790625 0.871961
#
# Coordination Sequence:
#
# PCOD9054133 Si02
#       8
#     2   2   2   2   2   2   2   2
#     4  11  20  37  62  91 126 158 217 274 319 368
#     4  11  20  34  63  92 119 170 226 262 304 384
#     4  10  19  32  63  94 125 162 212 268 314 385
#     4  11  25  46  67  91 134 178 217 266 332 394
#     4  11  25  43  64  94 132 172 219 269 326 388
#     4  10  20  36  62  97 131 162 216 265 321 387
#     4  10  18  37  58  86 124 161 220 257 310 372
#     4  10  17  35  63  92 125 162 206 273 318 376
#
# _framework density 20.889044999999999
#
# number of rings (size 3 to 8) (size 9 to 14) (size 15 to 20)
#    0.000    1.500    5.000    3.000    1.750    4.000 
#    0.000    1.250    0.000    0.000    0.000    0.000 
#    0.000    0.000    0.000    0.000    0.000    0.000 
#
# Total GULP energy -89225.885817 kJ/mol
# GULP energy per Si atom -5576.617864 kJ/mol
# Density = 2.084150 g / cm^3
# Si number density = 20.889045 Si / 1000 Ang^3
#
#
#
# Elastic Constant Matrix: (Units=GPa)
#
#
# Indices 1 2 3 4 5 6 
#
# 1 61.0200 27.5376 38.5315 -21.1645 9.8364 9.5758
# 2 27.5376 124.7140 65.2534 -42.3458 -14.5736 13.6197
# 3 38.5315 65.2534 92.5066 -37.4922 -7.7351 12.9458
# 4 -21.1645 -42.3458 -37.4922 43.3416 9.4217 -11.1341
# 5 9.8364 -14.5736 -7.7351 9.4217 31.4238 -8.6446
# 6 9.5758 13.6197 12.9458 -11.1341 -8.6446 36.6963
#
#
#
# Elastic Compliance Matrix: (Units=1/GPa)
#
#
# Indices 1 2 3 4 5 6 
#
# 1 0.027949 0.000026 -0.009030 0.007713 -0.014714 -0.005243
# 2 0.000026 0.014567 -0.006968 0.007621 0.002749 0.000005
# 3 -0.009030 -0.006968 0.022990 0.008039 0.002826 -0.000063
# 4 0.007713 0.007621 0.008039 0.044144 -0.009158 0.003559
# 5 -0.014714 0.002749 0.002826 -0.009158 0.043715 0.009342
# 6 -0.005243 0.000005 -0.000063 0.003559 0.009342 0.031920
#
#
# Mechanical properties :
#
#
# Convention : Reuss Voigt Hill
#
# Bulk Modulus (GPa) = 29.79725 60.09840 44.94783
# Shear Modulus (GPa) = 21.88991 32.08689 26.98840
#
# Velocity S-wave (km/s) = 3.24066 3.92352 3.59832
# Velocity P-wave (km/s) = 5.31959 7.02553 6.23121
#
# Compressibility (1/GPa) = 0.03356014
#
# Stress axis : x y z
#
# Youngs Moduli (GPa) = 35.78007 68.64883 43.49753
#
# Poissons Ratio (x) = -0.00175 0.39277
# Poissons Ratio (y) = -0.00091 0.30310
# Poissons Ratio (z) = 0.32309 0.47836
#
# Static dielectric constant tensor:
#      x y z
#    x 1.805560 0.040950 0.083610 
#    y 0.040950 1.806930 0.041980 
#    z 0.083610 0.041980 1.892970 
# 
# From -- ./inp_files/342686.got.cif
#   From: 2010.05.17/outbox.cif.g08.bks.cpg/sg2_172_cif.got.tgz:342686.got - 2010.06.03 11:33:40.
