data_PCOD9054137
_publ_section_title
;
Structure prediction by ZEFSAII (Michael W. Deem and Ramdas Pophale) SiO2 
 PCOD9054137
Probable space group: P -1
;
_chemical_formula_sum "Si O2"
_cell_formula_units_Z 16
_cell_length_a 12.758946
_cell_length_b 13.924915
_cell_length_c 11.740356
_cell_angle_alpha 150.875567
_cell_angle_beta 131.549364
_cell_angle_gamma 58.895101
_cell_volume 748.392540
_symmetry_space_group_name_H-M "P -1"
_symmetry_group_IT_number 2
_symmetry_cell_setting 'triclinic'
loop_
_space_group_symop_operation_xyz
x,y,z
-x,-y,-z
loop_
_atom_site_type_symbol
_atom_site_label
_atom_site_fract_x
_atom_site_fract_y
_atom_site_fract_z
Si Si1 0.817542 0.790039 0.259268
Si Si2 0.277604 0.425418 0.260743
Si Si3 0.509987 0.200270 0.292228
Si Si4 0.380433 0.165033 0.644105
Si Si5 0.910325 0.037379 0.083797
Si Si6 0.006214 0.573583 0.313196
Si Si7 0.878946 0.148710 0.811632
Si Si8 0.416571 0.081274 0.345537
O O1 0.698312 0.719630 0.199301
O O2 0.950859 0.691366 0.290601
O O3 0.854658 0.030045 0.551288
O O4 0.764649 0.720302 0.026844
O O5 0.375545 0.312344 0.292353
O O6 0.361784 0.634825 0.489596
O O7 0.141963 0.480437 0.281184
O O8 0.512806 0.153615 0.380159
O O9 0.500000 0.000000 0.000000
O O10 0.414215 0.232160 0.608181
O O11 0.255256 0.967710 0.335176
O O12 0.513879 0.096363 0.730979
O O13 0.954763 0.266279 0.393073
O O14 0.976105 0.908020 0.092284
O O15 0.742996 0.982621 0.883378
O O16 0.000000 0.000000 0.000000
O O17 0.887866 0.383122 0.060172
#
# Coordination Sequence:
#
# PCOD9054137 Si02
#       8
#     2   2   2   2   2   2   2   2
#     4   9  21  41  62  89 138 159 210 282 315 378
#     4  11  24  41  61 101 126 169 234 262 310 407
#     4  11  25  42  65  89 136 178 213 270 331 377
#     4   9  21  41  65  97 125 165 220 263 322 401
#     4  11  21  41  63  92 134 166 211 273 320 388
#     4  11  22  37  66  94 128 171 217 265 332 380
#     4   9  21  40  62  94 128 166 212 263 329 386
#     4  11  20  40  71  88 126 176 208 264 333 378
#
# _framework density 21.379155000000001
#
# number of rings (size 3 to 8) (size 9 to 14) (size 15 to 20)
#    0.750    1.000    1.250    2.625    1.750    3.000 
#    0.000    1.875    5.500    0.000    0.000    0.000 
#    0.000    0.000    0.000    0.000    0.000    0.000 
#
# Total GULP energy -89239.403159 kJ/mol
# GULP energy per Si atom -5577.462697 kJ/mol
# Density = 2.133050 g / cm^3
# Si number density = 21.379155 Si / 1000 Ang^3
#
#
#
# Elastic Constant Matrix: (Units=GPa)
#
#
# Indices 1 2 3 4 5 6 
#
# 1 82.0362 24.0121 16.3456 3.7523 -12.5204 -1.0856
# 2 24.0121 60.4490 34.6588 -4.0647 2.2407 -1.4675
# 3 16.3456 34.6588 66.4071 -6.0889 -18.5357 12.9420
# 4 3.7523 -4.0647 -6.0889 24.5681 -6.5736 1.8814
# 5 -12.5204 2.2407 -18.5357 -6.5736 32.2824 -12.4357
# 6 -1.0856 -1.4675 12.9420 1.8814 -12.4357 35.4583
#
#
#
# Elastic Compliance Matrix: (Units=1/GPa)
#
#
# Indices 1 2 3 4 5 6 
#
# 1 0.015352 -0.007482 0.001854 -0.001102 0.008252 0.002436
# 2 -0.007482 0.031324 -0.019804 -0.003076 -0.015973 0.002857
# 3 0.001854 -0.019804 0.032901 0.010629 0.020825 -0.006032
# 4 -0.001102 -0.003076 0.010629 0.047105 0.014986 -0.001284
# 5 0.008252 -0.015973 0.020825 0.014986 0.054229 0.010214
# 6 0.002436 0.002857 -0.006032 -0.001284 0.010214 0.034247
#
#
# Mechanical properties :
#
#
# Convention : Reuss Voigt Hill
#
# Bulk Modulus (GPa) = 34.82745 39.88058 37.35402
# Shear Modulus (GPa) = 18.14252 27.38680 22.76466
#
# Velocity S-wave (km/s) = 2.91625 3.58300 3.26668
# Velocity P-wave (km/s) = 5.25976 5.98428 5.63368
#
# Compressibility (1/GPa) = 0.02871298
#
# Stress axis : x y z
#
# Youngs Moduli (GPa) = 65.13604 31.92405 30.39390
#
# Poissons Ratio (x) = 0.23886 -0.05634
# Poissons Ratio (y) = 0.48735 0.60192
# Poissons Ratio (z) = -0.12073 0.63223
#
# Static dielectric constant tensor:
#      x y z
#    x 1.828150 0.019620 0.011170 
#    y 0.019620 1.778300 -0.000610 
#    z 0.011170 -0.000610 1.769160 
# 
# From -- ./inp_files/433576.got.cif
#   From: 2010.05.17/outbox.cif.g08.bks.cpg/sg2_217_cif.got.tgz:433576.got - 2010.06.03 11:33:40.
