data_PCOD9054036
_publ_section_title
;
Structure prediction by ZEFSAII (Michael W. Deem and Ramdas Pophale) SiO2 
 PCOD9054036
Probable space group: P -1
;
_chemical_formula_sum "Si O2"
_cell_formula_units_Z 16
_cell_length_a 6.256742
_cell_length_b 26.055061
_cell_length_c 6.850490
_cell_angle_alpha 37.740598
_cell_angle_beta 75.353962
_cell_angle_gamma 60.124963
_cell_volume 571.407538
_symmetry_space_group_name_H-M "P -1"
_symmetry_group_IT_number 2
_symmetry_cell_setting 'triclinic'
loop_
_space_group_symop_operation_xyz
x,y,z
-x,-y,-z
loop_
_atom_site_type_symbol
_atom_site_label
_atom_site_fract_x
_atom_site_fract_y
_atom_site_fract_z
Si Si1 0.738593 0.147722 0.589592
Si Si2 0.567352 0.239328 0.733296
Si Si3 0.031852 0.715962 0.396912
Si Si4 0.760757 0.692160 0.894810
Si Si5 0.858327 0.552375 0.632429
Si Si6 0.598814 0.474175 0.333563
Si Si7 0.736758 0.062245 0.483180
Si Si8 0.209049 0.149871 0.312676
O O1 0.626840 0.158816 0.796276
O O2 0.538287 0.258439 0.232300
O O3 0.013401 0.127750 0.530151
O O4 0.733467 0.065823 0.706317
O O5 0.318283 0.343103 0.526923
O O6 0.787685 0.263939 0.566423
O O7 0.651153 0.172343 0.105706
O O8 0.886006 0.686056 0.674696
O O9 0.223030 0.635792 0.442282
O O10 0.863127 0.804737 0.024380
O O11 0.796990 0.767874 0.790279
O O12 0.862405 0.595979 0.286184
O O13 0.157703 0.501232 0.800018
O O14 0.666952 0.505268 0.791826
O O15 0.500000 0.500000 0.500000
O O16 0.488359 0.056692 0.510835
O O17 0.000000 0.000000 0.500000
#
# Coordination Sequence:
#
# PCOD9054036 Si02
#       8
#     2   2   2   2   2   2   2   2
#     4  11  21  37  63  88 119 160 209 262 313 374
#     4  11  21  39  64  92 118 164 217 260 315 378
#     4  11  21  39  67  91 121 163 210 261 313 377
#     4  11  21  35  65  96 114 159 216 262 307 368
#     4  11  22  41  66  93 131 169 216 268 311 379
#     4  11  23  41  64  95 135 172 207 262 325 379
#     4  11  24  40  58  87 125 162 203 260 321 380
#     4  11  20  40  62  88 120 154 209 258 311 372
#
# _framework density 28.001028000000002
#
# number of rings (size 3 to 8) (size 9 to 14) (size 15 to 20)
#    0.000    1.000    6.250    2.625    0.000    1.000 
#    0.000    1.875    0.000    0.000    0.000    0.000 
#    0.000    0.000    0.000    0.000    0.000    0.000 
#
# Total GULP energy -89192.575381 kJ/mol
# GULP energy per Si atom -5574.535961 kJ/mol
# Density = 2.793730 g / cm^3
# Si number density = 28.001028 Si / 1000 Ang^3
#
#
#
# Elastic Constant Matrix: (Units=GPa)
#
#
# Indices 1 2 3 4 5 6 
#
# 1 192.2915 69.7785 41.7897 8.6451 5.9132 -34.9589
# 2 69.7785 184.7640 46.8958 37.6298 12.0349 -31.4615
# 3 41.7897 46.8958 95.4324 9.9867 1.2130 -20.3751
# 4 8.6451 37.6298 9.9867 38.6426 -7.3472 -1.3441
# 5 5.9132 12.0349 1.2130 -7.3472 37.0941 6.6262
# 6 -34.9589 -31.4615 -20.3751 -1.3441 6.6262 67.9100
#
#
#
# Elastic Compliance Matrix: (Units=1/GPa)
#
#
# Indices 1 2 3 4 5 6 
#
# 1 0.006585 -0.001802 -0.001597 0.000641 -0.000671 0.002154
# 2 -0.001802 0.009297 -0.002130 -0.008940 -0.004975 0.003049
# 3 -0.001597 -0.002130 0.012732 -0.000786 0.000017 0.001994
# 4 0.000641 -0.008940 -0.000786 0.036554 0.010847 -0.004382
# 5 -0.000671 -0.004975 0.000017 0.010847 0.031816 -0.005535
# 6 0.002154 0.003049 0.001994 -0.004382 -0.005535 0.018298
#
#
# Mechanical properties :
#
#
# Convention : Reuss Voigt Hill
#
# Bulk Modulus (GPa) = 56.95562 87.71287 72.33425
# Shear Modulus (GPa) = 37.82383 49.66428 43.74405
#
# Velocity S-wave (km/s) = 3.67931 4.21605 3.95679
# Velocity P-wave (km/s) = 6.19956 7.42247 6.83840
#
# Compressibility (1/GPa) = 0.01755753
#
# Stress axis : x y z
#
# Youngs Moduli (GPa) = 151.86887 107.55697 78.53997
#
# Poissons Ratio (x) = 0.19378 0.12541
# Poissons Ratio (y) = 0.27361 0.16729
# Poissons Ratio (z) = 0.24250 0.22910
#
# Static dielectric constant tensor:
#      x y z
#    x 2.555050 0.074290 0.090160 
#    y 0.074290 2.151300 0.017550 
#    z 0.090160 0.017550 2.192570 
# 
# From -- ./inp_files/56290.got.cif
#   From: 2010.05.17/outbox.cif.g08.bks.cpg/sg2_29_cif.got.tgz:56290.got - 2010.06.03 11:33:40.
