data_PCOD9054651
_publ_section_title
;
Structure prediction by ZEFSAII (Michael W. Deem and Ramdas Pophale) SiO2 
 PCOD9054651
Probable space group: P -1
;
_chemical_formula_sum "Si O2"
_cell_formula_units_Z 14
_cell_length_a 16.591921
_cell_length_b 23.246842
_cell_length_c 14.629953
_cell_angle_alpha 20.545713
_cell_angle_beta 26.109121
_cell_angle_gamma 17.607428
_cell_volume 598.275025
_symmetry_space_group_name_H-M "P -1"
_symmetry_group_IT_number 2
_symmetry_cell_setting 'triclinic'
loop_
_space_group_symop_operation_xyz
x,y,z
-x,-y,-z
loop_
_atom_site_type_symbol
_atom_site_label
_atom_site_fract_x
_atom_site_fract_y
_atom_site_fract_z
Si Si1 0.264222 0.053591 0.284932
Si Si2 0.831439 0.647118 0.541143
Si Si3 0.553023 0.310070 0.850005
Si Si4 0.220728 0.073450 0.679279
Si Si5 0.213095 0.845983 0.356289
Si Si6 0.184743 0.211942 0.930481
Si Si7 0.738106 0.835459 0.680735
O O1 0.580551 0.823980 0.292998
O O2 0.175924 0.203561 0.244324
O O3 0.090460 0.003482 0.536919
O O4 0.191491 0.199963 0.049869
O O5 0.924790 0.745118 0.357840
O O6 0.000000 0.500000 0.500000
O O7 0.896430 0.455815 0.827185
O O8 0.530639 0.877819 0.475234
O O9 0.400469 0.581476 0.600758
O O10 0.736593 0.185876 0.756567
O O11 0.346411 0.294709 0.062467
O O12 0.700278 0.156372 0.021872
O O13 0.095642 0.193676 0.528981
O O14 0.500000 0.000000 0.500000
O O15 0.265697 0.985996 0.139901
#
# Coordination Sequence:
#
# PCOD9054651 Si02
#       7
#     2   2   2   2   2   2   2
#     4  11  24  39  61  93 125 162 212 255 305 370
#     4  10  17  35  67  86 119 168 202 251 312 361
#     4   9  19  39  62  91 121 167 202 250 317 373
#     4   8  18  34  64  90 115 165 214 240 308 373
#     4  11  22  39  63  90 132 160 200 257 318 370
#     4  11  23  42  60  91 128 164 206 256 313 371
#     4  10  20  41  64  92 122 163 215 253 305 371
#
# _framework density 23.40061
#
# number of rings (size 3 to 8) (size 9 to 14) (size 15 to 20)
#    0.000    2.286    2.857    1.286    6.000    0.571 
#    0.000    1.429    0.000    0.000    0.000    0.000 
#    0.000    0.000    0.000    0.000    0.000    0.000 
#
# Total GULP energy -78138.918410 kJ/mol
# GULP energy per Si atom -5581.351315 kJ/mol
# Density = 2.334735 g / cm^3
# Si number density = 23.400610 Si / 1000 Ang^3
#
#
#
# Elastic Constant Matrix: (Units=GPa)
#
#
# Indices 1 2 3 4 5 6 
#
# 1 82.6448 20.4592 16.0867 -0.3572 28.0288 19.2472
# 2 20.4592 87.9006 36.7864 4.2262 -2.4801 6.8736
# 3 16.0867 36.7864 109.6581 -11.7857 20.8423 -5.3033
# 4 -0.3572 4.2262 -11.7857 44.4550 4.7335 -1.1480
# 5 28.0288 -2.4801 20.8423 4.7335 33.9386 8.0232
# 6 19.2472 6.8736 -5.3033 -1.1480 8.0232 25.1451
#
#
#
# Elastic Compliance Matrix: (Units=1/GPa)
#
#
# Indices 1 2 3 4 5 6 
#
# 1 0.020998 -0.005730 0.002067 0.002904 -0.017457 -0.008368
# 2 -0.005730 0.017473 -0.008546 -0.005601 0.013647 -0.006803
# 3 0.002067 -0.008546 0.015741 0.006851 -0.015133 0.009215
# 4 0.002904 -0.005601 0.006851 0.026300 -0.012055 0.005800
# 5 -0.017457 0.013647 -0.015133 -0.012055 0.058905 -0.012905
# 6 -0.008368 -0.006803 0.009215 0.005800 -0.012905 0.054360
#
#
# Mechanical properties :
#
#
# Convention : Reuss Voigt Hill
#
# Bulk Modulus (GPa) = 33.56338 47.42978 40.49658
# Shear Modulus (GPa) = 21.91775 34.49916 28.20846
#
# Velocity S-wave (km/s) = 3.06376 3.84381 3.47574
# Velocity P-wave (km/s) = 5.18552 6.32554 5.78369
#
# Compressibility (1/GPa) = 0.02979438
#
# Stress axis : x y z
#
# Youngs Moduli (GPa) = 47.62377 57.23132 63.52840
#
# Poissons Ratio (x) = 0.32796 -0.13134
# Poissons Ratio (y) = 0.27290 0.54290
# Poissons Ratio (z) = -0.09846 0.48908
#
# Static dielectric constant tensor:
#      x y z
#    x 2.005360 -0.031900 0.061030 
#    y -0.031900 1.948430 0.003550 
#    z 0.061030 0.003550 1.904860 
# 
# From -- ./inp_files/539262.got.cif
#   From: 2010.05.17/outbox.cif.g08.bks.cpg/sg2_270_cif.got.tgz:539262.got - 2010.06.03 11:33:40.
