data_PCOD9054172
_publ_section_title
;
Structure prediction by ZEFSAII (Michael W. Deem and Ramdas Pophale) SiO2 
 PCOD9054172
Probable space group: P -1
;
_chemical_formula_sum "Si O2"
_cell_formula_units_Z 16
_cell_length_a 8.399024
_cell_length_b 9.634692
_cell_length_c 28.678836
_cell_angle_alpha 44.504837
_cell_angle_beta 31.564971
_cell_angle_gamma 46.812089
_cell_volume 832.737642
_symmetry_space_group_name_H-M "P -1"
_symmetry_group_IT_number 2
_symmetry_cell_setting 'triclinic'
loop_
_space_group_symop_operation_xyz
x,y,z
-x,-y,-z
loop_
_atom_site_type_symbol
_atom_site_label
_atom_site_fract_x
_atom_site_fract_y
_atom_site_fract_z
Si Si1 0.340956 0.488013 0.592130
Si Si2 0.377861 0.504593 0.230520
Si Si3 0.661023 0.485283 0.266029
Si Si4 0.372284 0.492942 0.085157
Si Si5 0.748977 0.140789 0.403369
Si Si6 0.594419 0.173777 0.681971
Si Si7 0.369313 0.234837 0.969155
Si Si8 0.668421 0.192556 0.155459
O O1 0.500000 0.500000 0.500000
O O2 0.303559 0.698482 0.579551
O O3 0.542069 0.310241 0.616075
O O4 0.993699 0.446833 0.684231
O O5 0.533303 0.462746 0.252019
O O6 0.507427 0.680040 0.129254
O O7 0.478955 0.311922 0.217279
O O8 0.702313 0.281761 0.335213
O O9 0.438034 0.667095 0.305776
O O10 0.000925 0.538596 0.166514
O O11 0.508426 0.644367 0.048381
O O12 0.491732 0.275998 0.132124
O O13 0.500000 0.500000 0.000000
O O14 0.500000 0.000000 0.500000
O O15 0.086023 0.991685 0.357164
O O16 0.325265 0.043606 0.784175
O O17 0.998970 0.256716 0.056569
O O18 0.500000 0.000000 0.000000
#
# Coordination Sequence:
#
# PCOD9054172 Si02
#       8
#     2   2   2   2   2   2   2   2
#     4  11  26  44  67  97 129 168 215 265 317 381
#     4  11  23  43  62  96 131 166 217 265 314 381
#     4  11  24  42  65  96 131 165 213 266 317 381
#     4  11  21  39  62  93 130 167 212 259 315 377
#     4  11  25  45  68  94 126 170 212 263 327 376
#     4  11  23  45  68  90 133 168 209 268 318 379
#     4  11  22  38  63  93 128 169 218 257 316 383
#     4  11  20  41  65  91 127 174 209 260 322 373
#
# _framework density 19.213736000000001
#
# number of rings (size 3 to 8) (size 9 to 14) (size 15 to 20)
#    0.000    1.000    2.500    6.750    3.500    3.500 
#    2.250    2.500    0.000    0.000    0.000    0.000 
#    0.000    0.000    0.000    0.000    0.000    0.000 
#
# Total GULP energy -89439.361802 kJ/mol
# GULP energy per Si atom -5589.960113 kJ/mol
# Density = 1.917000 g / cm^3
# Si number density = 19.213736 Si / 1000 Ang^3
#
#
#
# Elastic Constant Matrix: (Units=GPa)
#
#
# Indices 1 2 3 4 5 6 
#
# 1 134.8300 54.2930 75.1110 6.6142 22.9617 -4.9468
# 2 54.2930 112.5645 62.0795 -8.6751 16.3884 -20.5534
# 3 75.1110 62.0795 148.3399 1.0603 12.0382 2.1112
# 4 6.6142 -8.6751 1.0603 27.3099 4.8766 -6.2742
# 5 22.9617 16.3884 12.0382 4.8766 47.6242 0.2757
# 6 -4.9468 -20.5534 2.1112 -6.2742 0.2757 15.4669
#
#
#
# Elastic Compliance Matrix: (Units=1/GPa)
#
#
# Indices 1 2 3 4 5 6 
#
# 1 0.011820 -0.003578 -0.004190 -0.003725 -0.003016 -0.001860
# 2 -0.003578 0.026711 -0.009543 0.021262 -0.007489 0.044411
# 3 -0.004190 -0.009543 0.012942 -0.007361 0.002895 -0.018825
# 4 -0.003725 0.021262 -0.007361 0.058248 -0.009925 0.051873
# 5 -0.003016 -0.007489 0.002895 -0.009925 0.025405 -0.015790
# 6 -0.001860 0.044411 -0.018825 0.051873 -0.015790 0.146970
#
#
# Mechanical properties :
#
#
# Convention : Reuss Voigt Hill
#
# Bulk Modulus (GPa) = 59.34260 86.52237 72.93248
# Shear Modulus (GPa) = 15.51191 31.69692 23.60441
#
# Velocity S-wave (km/s) = 2.84445 4.06606 3.50882
# Velocity P-wave (km/s) = 6.46068 8.19592 7.37948
#
# Compressibility (1/GPa) = 0.01685130
#
# Stress axis : x y z
#
# Youngs Moduli (GPa) = 84.60524 37.43841 77.26849
#
# Poissons Ratio (x) = 0.13395 0.32372
# Poissons Ratio (y) = 0.30271 0.73737
# Poissons Ratio (z) = 0.35446 0.35727
#
# Static dielectric constant tensor:
#      x y z
#    x 1.652650 -0.025140 -0.033100 
#    y -0.025140 1.668380 -0.006040 
#    z -0.033100 -0.006040 1.669590 
# 
# From -- ./inp_files/530017.got.cif
#   From: 2010.05.17/outbox.cif.g08.bks.cpg/sg2_266_cif.got.tgz:530017.got - 2010.06.03 11:33:40.
