data_PCOD9054209
_publ_section_title
;
Structure prediction by ZEFSAII (Michael W. Deem and Ramdas Pophale) SiO2 
 PCOD9054209
Probable space group: P -1
;
_chemical_formula_sum "Si O2"
_cell_formula_units_Z 16
_cell_length_a 22.162496
_cell_length_b 8.671733
_cell_length_c 12.934735
_cell_angle_alpha 69.605791
_cell_angle_beta 20.181143
_cell_angle_gamma 65.839757
_cell_volume 777.438629
_symmetry_space_group_name_H-M "P -1"
_symmetry_group_IT_number 2
_symmetry_cell_setting 'triclinic'
loop_
_space_group_symop_operation_xyz
x,y,z
-x,-y,-z
loop_
_atom_site_type_symbol
_atom_site_label
_atom_site_fract_x
_atom_site_fract_y
_atom_site_fract_z
Si Si1 0.805491 0.103461 0.254106
Si Si2 0.222053 0.311193 0.152114
Si Si3 0.670865 0.745122 0.236906
Si Si4 0.558719 0.467425 0.616112
Si Si5 0.510559 0.013965 0.103602
Si Si6 0.726200 0.052806 0.169089
Si Si7 0.431725 0.638359 0.988108
Si Si8 0.890874 0.188890 0.675552
O O1 0.714013 0.292281 0.399340
O O2 0.817617 0.106660 0.109703
O O3 0.666491 0.003502 0.546830
O O4 0.000000 0.000000 0.000000
O O5 0.013666 0.303342 0.504636
O O6 0.227114 0.304171 0.021573
O O7 0.360555 0.428623 0.928939
O O8 0.328176 0.136718 0.077270
O O9 0.608510 0.589997 0.422189
O O10 0.484580 0.883051 0.477316
O O11 0.771702 0.850136 0.124507
O O12 0.552148 0.561838 0.713337
O O13 0.541202 0.191220 0.046323
O O14 0.500000 0.000000 0.000000
O O15 0.767406 0.140333 0.976761
O O16 0.229891 0.700745 0.247166
O O17 0.500000 0.500000 0.000000
O O18 0.000000 0.000000 0.500000
#
# Coordination Sequence:
#
# PCOD9054209 Si02
#       8
#     2   2   2   2   2   2   2   2
#     4  11  26  45  65  99 134 182 235 280 347 417
#     4  11  23  42  69  99 137 176 233 281 347 409
#     4  11  20  41  69  96 128 174 228 282 344 404
#     4  11  24  43  69  99 136 180 224 293 348 408
#     4  11  23  45  71  95 137 190 228 274 348 422
#     4  11  22  40  71  95 131 182 228 278 341 416
#     4  12  25  45  68 100 142 182 227 281 356 407
#     4  12  24  43  70 106 134 180 236 289 332 417
#
# _framework density 20.580404000000001
#
# number of rings (size 3 to 8) (size 9 to 14) (size 15 to 20)
#    0.000    0.750    6.250    2.625    1.750    1.500 
#    2.250    1.250    0.000    0.000    0.000    0.000 
#    0.000    0.000    0.000    0.000    0.000    0.000 
#
# Total GULP energy -89198.299694 kJ/mol
# GULP energy per Si atom -5574.893731 kJ/mol
# Density = 2.053356 g / cm^3
# Si number density = 20.580404 Si / 1000 Ang^3
#
#
#
# Elastic Constant Matrix: (Units=GPa)
#
#
# Indices 1 2 3 4 5 6 
#
# 1 101.3203 40.0489 25.1105 9.4894 1.4538 -4.9869
# 2 40.0489 94.6810 22.3929 -17.7120 -11.8393 -3.1916
# 3 25.1105 22.3929 67.0758 -1.2927 -4.7115 -8.4512
# 4 9.4894 -17.7120 -1.2927 35.8226 -4.7792 0.1148
# 5 1.4538 -11.8393 -4.7115 -4.7792 33.0800 4.9529
# 6 -4.9869 -3.1916 -8.4512 0.1148 4.9529 39.7394
#
#
#
# Elastic Compliance Matrix: (Units=1/GPa)
#
#
# Indices 1 2 3 4 5 6 
#
# 1 0.014618 -0.007593 -0.003317 -0.008448 -0.005232 0.001196
# 2 -0.007593 0.017484 -0.002338 0.011657 0.008105 -0.001090
# 3 -0.003317 -0.002338 0.017409 0.000532 0.001429 0.002919
# 4 -0.008448 0.011657 0.000532 0.037303 0.010217 -0.001392
# 5 -0.005232 0.008105 0.001429 0.010217 0.035665 -0.004176
# 6 0.001196 -0.001090 0.002919 -0.001392 -0.004176 0.026372
#
#
# Mechanical properties :
#
#
# Convention : Reuss Voigt Hill
#
# Bulk Modulus (GPa) = 43.44955 48.68685 46.06820
# Shear Modulus (GPa) = 27.31943 33.43006 30.37475
#
# Velocity S-wave (km/s) = 3.64737 4.03471 3.84592
# Velocity P-wave (km/s) = 6.23664 6.73895 6.49265
#
# Compressibility (1/GPa) = 0.02301520
#
# Stress axis : x y z
#
# Youngs Moduli (GPa) = 68.40713 57.19551 57.44122
#
# Poissons Ratio (x) = 0.43430 0.19055
# Poissons Ratio (y) = 0.51943 0.13428
# Poissons Ratio (z) = 0.22693 0.13370
#
# Static dielectric constant tensor:
#      x y z
#    x 1.776730 0.034390 -0.004440 
#    y 0.034390 1.804160 -0.049170 
#    z -0.004440 -0.049170 2.020050 
# 
# From -- ./inp_files/390098.got.cif
#   From: 2010.05.17/outbox.cif.g08.bks.cpg/sg2_196_cif.got.tgz:390098.got - 2010.06.03 11:33:40.
