data_PCOD9054406
_publ_section_title
;
Structure prediction by ZEFSAII (Michael W. Deem and Ramdas Pophale) SiO2 
 PCOD9054406
Probable space group: P -1
;
_chemical_formula_sum "Si O2"
_cell_formula_units_Z 16
_cell_length_a 18.603476
_cell_length_b 6.695550
_cell_length_c 16.146021
_cell_angle_alpha 112.769718
_cell_angle_beta 22.879699
_cell_angle_gamma 110.075269
_cell_volume 720.496852
_symmetry_space_group_name_H-M "P -1"
_symmetry_group_IT_number 2
_symmetry_cell_setting 'triclinic'
loop_
_space_group_symop_operation_xyz
x,y,z
-x,-y,-z
loop_
_atom_site_type_symbol
_atom_site_label
_atom_site_fract_x
_atom_site_fract_y
_atom_site_fract_z
Si Si1 0.662041 0.654229 0.378185
Si Si2 0.218394 0.006015 0.085200
Si Si3 0.118283 0.497769 0.291046
Si Si4 0.690052 0.097776 0.838057
Si Si5 0.437565 0.081084 0.712041
Si Si6 0.110691 0.216264 0.549622
Si Si7 0.285430 0.533626 0.525775
Si Si8 0.923207 0.801383 0.996181
O O1 0.500000 0.500000 0.500000
O O2 0.711383 0.582656 0.407093
O O3 0.832710 0.637932 0.131337
O O4 0.579138 0.900148 0.495132
O O5 0.269539 0.962431 0.119385
O O6 0.036933 0.867962 0.240803
O O7 0.168725 0.258593 0.171803
O O8 0.381760 0.973094 0.841379
O O9 0.293227 0.645321 0.144931
O O10 0.000000 0.500000 0.500000
O O11 0.997337 0.615949 0.368238
O O12 0.830475 0.983695 0.604645
O O13 0.500000 0.000000 0.000000
O O14 0.544221 0.306408 0.640252
O O15 0.245180 0.120032 0.872773
O O16 0.273413 0.343293 0.440239
O O17 0.095556 0.682285 0.747695
O O18 0.000000 0.000000 0.000000
#
# Coordination Sequence:
#
# PCOD9054406 Si02
#       8
#     2   2   2   2   2   2   2   2
#     4  12  26  48  77  99 143 184 230 287 350 419
#     4  11  25  44  69  98 136 181 228 284 342 400
#     4  11  20  44  69  89 128 183 230 276 335 398
#     4  11  25  42  65  99 137 180 229 278 337 409
#     4  12  28  47  69 110 145 177 235 292 342 420
#     4  11  25  43  68 100 135 178 235 278 339 410
#     4  12  28  46  71 109 142 182 232 290 347 417
#     4  12  25  50  76 102 140 186 232 283 354 417
#
# _framework density 22.206899
#
# number of rings (size 3 to 8) (size 9 to 14) (size 15 to 20)
#    0.000    0.500    5.000    3.000    7.000    3.500 
#    0.000    0.000    0.000    0.000    0.000    0.000 
#    0.000    0.000    0.000    0.000    0.000    0.000 
#
# Total GULP energy -89510.865019 kJ/mol
# GULP energy per Si atom -5594.429064 kJ/mol
# Density = 2.215635 g / cm^3
# Si number density = 22.206899 Si / 1000 Ang^3
#
#
#
# Elastic Constant Matrix: (Units=GPa)
#
#
# Indices 1 2 3 4 5 6 
#
# 1 83.6832 25.2801 21.8213 -19.0544 -8.9030 14.3667
# 2 25.2801 99.3385 9.2709 -25.2985 -12.2159 9.1884
# 3 21.8213 9.2709 87.7245 -21.6844 -1.0149 -1.0466
# 4 -19.0544 -25.2985 -21.6844 48.3081 2.5627 -5.0036
# 5 -8.9030 -12.2159 -1.0149 2.5627 39.2952 -6.4737
# 6 14.3667 9.1884 -1.0466 -5.0036 -6.4737 34.2775
#
#
#
# Elastic Compliance Matrix: (Units=1/GPa)
#
#
# Indices 1 2 3 4 5 6 
#
# 1 0.015052 -0.002149 -0.002836 0.002925 0.001641 -0.005082
# 2 -0.002149 0.012454 0.000649 0.005706 0.002857 -0.001045
# 3 -0.002836 0.000649 0.013415 0.005477 -0.000088 0.002207
# 4 0.002925 0.005706 0.005477 0.027412 0.001056 0.001612
# 5 0.001641 0.002857 -0.000088 0.001056 0.027271 0.003848
# 6 -0.005082 -0.001045 0.002207 0.001612 0.003848 0.032614
#
#
# Mechanical properties :
#
#
# Convention : Reuss Voigt Hill
#
# Bulk Modulus (GPa) = 31.00705 42.61008 36.80856
# Shear Modulus (GPa) = 33.86672 38.66775 36.26724
#
# Velocity S-wave (km/s) = 3.90943 4.17736 4.04561
# Velocity P-wave (km/s) = 5.86270 6.51893 6.19951
#
# Compressibility (1/GPa) = 0.03225073
#
# Stress axis : x y z
#
# Youngs Moduli (GPa) = 66.43836 80.29505 74.54292
#
# Poissons Ratio (x) = 0.17255 0.21137
# Poissons Ratio (y) = 0.14277 -0.04841
# Poissons Ratio (z) = 0.18839 -0.05215
#
# Static dielectric constant tensor:
#      x y z
#    x 1.842590 0.022030 0.019110 
#    y 0.022030 1.797300 0.014880 
#    z 0.019110 0.014880 1.869910 
# 
# From -- ./inp_files/53240.got.cif
#   From: 2010.05.17/outbox.cif.g08.bks.cpg/sg2_27_cif.got.tgz:53240.got - 2010.06.03 11:33:40.
