data_PCOD9054395
_publ_section_title
;
Structure prediction by ZEFSAII (Michael W. Deem and Ramdas Pophale) SiO2 
 PCOD9054395
Probable space group: P -1
;
_chemical_formula_sum "Si O2"
_cell_formula_units_Z 10
_cell_length_a 16.457013
_cell_length_b 7.014610
_cell_length_c 7.840718
_cell_angle_alpha 99.560377
_cell_angle_beta 36.799487
_cell_angle_gamma 117.558406
_cell_volume 443.648363
_symmetry_space_group_name_H-M "P -1"
_symmetry_group_IT_number 2
_symmetry_cell_setting 'triclinic'
loop_
_space_group_symop_operation_xyz
x,y,z
-x,-y,-z
loop_
_atom_site_type_symbol
_atom_site_label
_atom_site_fract_x
_atom_site_fract_y
_atom_site_fract_z
Si Si1 0.406907 0.227972 0.094117
Si Si2 0.814883 0.827447 0.846975
Si Si3 0.845200 0.003096 0.205486
Si Si4 0.593282 0.369270 0.294733
Si Si5 0.648214 0.168785 0.500464
O O1 0.299964 0.147189 0.087905
O O2 0.286477 0.125890 0.441208
O O3 0.500000 0.500000 0.000000
O O4 0.551477 0.189814 0.820395
O O5 0.811189 0.901459 0.056853
O O6 0.738876 0.550373 0.949686
O O7 0.000000 0.000000 0.500000
O O8 0.825212 0.218905 0.249141
O O9 0.000000 0.000000 0.000000
O O10 0.500000 0.500000 0.500000
O O11 0.659262 0.335670 0.356412
O O12 0.472355 0.104745 0.393487
#
# Coordination Sequence:
#
# PCOD9054395 Si02
#       5
#     2   2   2   2   2
#     4  12  25  46  80 110 145 201 258 312 369 451
#     4  12  24  46  75 105 155 200 235 314 390 430
#     4  12  25  45  72 106 156 194 244 316 369 446
#     4  11  20  43  81 106 144 199 251 312 369 454
#     4  11  23  44  78 113 143 198 262 301 380 449
#
# _framework density 22.540374
#
# number of rings (size 3 to 8) (size 9 to 14) (size 15 to 20)
#    0.000    0.400    6.000    4.200    0.000    0.000 
#    0.000    8.000    0.000    0.000    0.000    0.000 
#    0.000    0.000    0.000    0.000    0.000    0.000 
#
# Total GULP energy -55790.621025 kJ/mol
# GULP energy per Si atom -5579.062103 kJ/mol
# Density = 2.248907 g / cm^3
# Si number density = 22.540374 Si / 1000 Ang^3
#
#
#
# Elastic Constant Matrix: (Units=GPa)
#
#
# Indices 1 2 3 4 5 6 
#
# 1 148.3124 20.7358 57.0686 19.4292 6.7733 -22.2137
# 2 20.7358 101.6680 45.3269 11.9455 -4.6180 -23.0495
# 3 57.0686 45.3269 132.3571 12.9715 -3.5325 -14.7263
# 4 19.4292 11.9455 12.9715 48.9312 -10.8115 4.9806
# 5 6.7733 -4.6180 -3.5325 -10.8115 48.3696 7.1332
# 6 -22.2137 -23.0495 -14.7263 4.9806 7.1332 45.1710
#
#
#
# Elastic Compliance Matrix: (Units=1/GPa)
#
#
# Indices 1 2 3 4 5 6 
#
# 1 0.009411 0.001171 -0.003562 -0.004291 -0.003168 0.005038
# 2 0.001171 0.013233 -0.003987 -0.003516 -0.000946 0.006566
# 3 -0.003562 -0.003987 0.010436 -0.000121 0.000930 -0.000518
# 4 -0.004291 -0.003516 -0.000121 0.025399 0.007093 -0.007864
# 5 -0.003168 -0.000946 0.000930 0.007093 0.023602 -0.006247
# 6 0.005038 0.006566 -0.000518 -0.007864 -0.006247 0.029651
#
#
# Mechanical properties :
#
#
# Convention : Reuss Voigt Hill
#
# Bulk Modulus (GPa) = 49.20368 69.84447 59.52407
# Shear Modulus (GPa) = 38.09167 45.77478 41.93322
#
# Velocity S-wave (km/s) = 4.11534 4.51132 4.31787
# Velocity P-wave (km/s) = 6.66767 7.62821 7.16406
#
# Compressibility (1/GPa) = 0.02032369
#
# Stress axis : x y z
#
# Youngs Moduli (GPa) = 106.26002 75.56698 95.82512
#
# Poissons Ratio (x) = -0.08850 0.34136
# Poissons Ratio (y) = -0.12445 0.38205
# Poissons Ratio (z) = 0.37853 0.30128
#
# Static dielectric constant tensor:
#      x y z
#    x 1.918050 -0.048700 -0.055040 
#    y -0.048700 1.870530 -0.025300 
#    z -0.055040 -0.025300 1.894410 
# 
# From -- ./inp_files/17773.got.cif
#   From: 2010.05.17/outbox.cif.g08.bks.cpg/sg2_9_cif.got.tgz:17773.got - 2010.06.03 11:33:40.
