data_PCOD9054110
_publ_section_title
;
Structure prediction by ZEFSAII (Michael W. Deem and Ramdas Pophale) SiO2 
 PCOD9054110
Probable space group: P -1
;
_chemical_formula_sum "Si O2"
_cell_formula_units_Z 16
_cell_length_a 12.303758
_cell_length_b 10.532216
_cell_length_c 11.795721
_cell_angle_alpha 135.215900
_cell_angle_beta 69.556396
_cell_angle_gamma 74.963418
_cell_volume 645.426281
_symmetry_space_group_name_H-M "P -1"
_symmetry_group_IT_number 2
_symmetry_cell_setting 'triclinic'
loop_
_space_group_symop_operation_xyz
x,y,z
-x,-y,-z
loop_
_atom_site_type_symbol
_atom_site_label
_atom_site_fract_x
_atom_site_fract_y
_atom_site_fract_z
Si Si1 0.889559 0.605249 0.989482
Si Si2 0.350408 0.542948 0.668935
Si Si3 0.630196 0.674548 0.247387
Si Si4 0.983583 0.856048 0.753204
Si Si5 0.660323 0.771044 0.703718
Si Si6 0.352509 0.726274 0.286063
Si Si7 0.732226 0.189754 0.399581
Si Si8 0.144249 0.155868 0.440021
O O1 0.988841 0.467431 0.746048
O O2 0.777102 0.556693 0.026027
O O3 0.000000 0.500000 0.000000
O O4 0.785593 0.917675 0.217402
O O5 0.292932 0.483319 0.760723
O O6 0.375424 0.360214 0.446738
O O7 0.542400 0.408848 0.542258
O O8 0.199582 0.883565 0.942960
O O9 0.482881 0.704482 0.291304
O O10 0.500000 0.000000 0.500000
O O11 0.135745 0.518252 0.506071
O O12 0.100037 0.896425 0.760967
O O13 0.913040 0.901362 0.679657
O O14 0.691396 0.913776 0.707370
O O15 0.500000 0.000000 0.000000
O O16 0.285604 0.692533 0.394804
O O17 0.195177 0.989901 0.431794
O O18 0.500000 0.500000 0.000000
#
# Coordination Sequence:
#
# PCOD9054110 Si02
#       8
#     2   2   2   2   2   2   2   2
#     4  12  22  41  70 109 151 192 238 291 368 447
#     4  11  25  50  78 104 150 193 246 307 367 440
#     4  11  20  40  69 109 145 190 238 288 362 449
#     4  12  29  50  73 108 152 191 253 304 367 435
#     4  12  30  52  79 103 139 198 259 311 364 427
#     4  11  24  40  68 105 149 183 236 287 368 445
#     4  11  25  45  74 113 144 196 237 291 384 445
#     4  12  27  46  74 107 151 189 243 310 365 433
#
# _framework density 24.789818
#
# number of rings (size 3 to 8) (size 9 to 14) (size 15 to 20)
#    0.000    0.500    3.750    5.250    7.000    1.000 
#    2.250    0.000    0.000    0.000    0.000    0.000 
#    0.000    0.000    0.000    0.000    0.000    0.000 
#
# Total GULP energy -89210.593746 kJ/mol
# GULP energy per Si atom -5575.662109 kJ/mol
# Density = 2.473339 g / cm^3
# Si number density = 24.789818 Si / 1000 Ang^3
#
#
#
# Elastic Constant Matrix: (Units=GPa)
#
#
# Indices 1 2 3 4 5 6 
#
# 1 91.7112 22.6427 35.7707 -19.4147 -10.2889 -18.1191
# 2 22.6427 83.9236 28.0338 -2.7620 4.3605 -26.0560
# 3 35.7707 28.0338 183.4195 -20.6138 -2.4024 -21.0191
# 4 -19.4147 -2.7620 -20.6138 44.4670 -11.7029 -0.1378
# 5 -10.2889 4.3605 -2.4024 -11.7029 37.7478 -9.3508
# 6 -18.1191 -26.0560 -21.0191 -0.1378 -9.3508 40.6475
#
#
#
# Elastic Compliance Matrix: (Units=1/GPa)
#
#
# Indices 1 2 3 4 5 6 
#
# 1 0.016176 -0.001862 -0.000847 0.009022 0.009286 0.007746
# 2 -0.001862 0.015388 -0.001084 -0.000444 -0.000417 0.008376
# 3 -0.000847 -0.001084 0.006467 0.003079 0.001936 0.002727
# 4 0.009022 -0.000444 0.003079 0.031732 0.014730 0.008826
# 5 0.009286 -0.000417 0.001936 0.014730 0.037094 0.013457
# 6 0.007746 0.008376 0.002727 0.008826 0.013457 0.037960
#
#
# Mechanical properties :
#
#
# Convention : Reuss Voigt Hill
#
# Bulk Modulus (GPa) = 32.84698 59.10543 45.97620
# Shear Modulus (GPa) = 30.75976 42.74627 36.75302
#
# Velocity S-wave (km/s) = 3.52635 4.15703 3.85461
# Velocity P-wave (km/s) = 5.46435 6.85096 6.19656
#
# Compressibility (1/GPa) = 0.03044420
#
# Stress axis : x y z
#
# Youngs Moduli (GPa) = 61.82033 64.98711 154.63730
#
# Poissons Ratio (x) = 0.12101 0.13095
# Poissons Ratio (y) = 0.11512 0.16765
# Poissons Ratio (z) = 0.05235 0.07046
#
# Static dielectric constant tensor:
#      x y z
#    x 1.917080 0.081970 0.006240 
#    y 0.081970 2.030490 -0.053630 
#    z 0.006240 -0.053630 1.895560 
# 
# From -- ./inp_files/429066.got.cif
#   From: 2010.05.17/outbox.cif.g08.bks.cpg/sg2_215_cif.got.tgz:429066.got - 2010.06.03 11:33:40.
