data_PCOD9054372
_publ_section_title
;
Structure prediction by ZEFSAII (Michael W. Deem and Ramdas Pophale) SiO2 
 PCOD9054372
Probable space group: P -1
;
_chemical_formula_sum "Si O2"
_cell_formula_units_Z 16
_cell_length_a 9.873449
_cell_length_b 15.987078
_cell_length_c 21.025693
_cell_angle_alpha 161.180205
_cell_angle_beta 44.454545
_cell_angle_gamma 135.115331
_cell_volume 741.829311
_symmetry_space_group_name_H-M "P -1"
_symmetry_group_IT_number 2
_symmetry_cell_setting 'triclinic'
loop_
_space_group_symop_operation_xyz
x,y,z
-x,-y,-z
loop_
_atom_site_type_symbol
_atom_site_label
_atom_site_fract_x
_atom_site_fract_y
_atom_site_fract_z
Si Si1 0.752047 0.273705 0.643547
Si Si2 0.386240 0.724426 0.988275
Si Si3 0.768641 0.932839 0.816712
Si Si4 0.288182 0.291713 0.803039
Si Si5 0.696327 0.041697 0.203306
Si Si6 0.040138 0.491576 0.381884
Si Si7 0.412279 0.504516 0.355461
Si Si8 0.893194 0.694541 0.987431
O O1 0.521089 0.293460 0.737981
O O2 0.847798 0.448659 0.678657
O O3 0.856422 0.400208 0.762268
O O4 0.776964 0.976367 0.406188
O O5 0.290854 0.938850 0.135673
O O6 0.574777 0.877263 0.070975
O O7 0.263772 0.547491 0.954632
O O8 0.443994 0.522649 0.770324
O O9 0.597894 0.750989 0.780556
O O10 0.920914 0.731835 0.606532
O O11 0.884607 0.163534 0.986460
O O12 0.181823 0.288999 0.903966
O O13 0.565891 0.236175 0.422519
O O14 0.884883 0.228729 0.246988
O O15 0.767922 0.856619 0.099917
O O16 0.200117 0.489746 0.382112
#
# Coordination Sequence:
#
# PCOD9054372 Si02
#       8
#     2   2   2   2   2   2   2   2
#     4  11  23  39  68  97 121 169 218 268 308 370
#     4  12  27  42  63  98 134 171 204 264 329 378
#     4  11  24  43  64  97 137 163 206 270 325 369
#     4  11  24  41  64  93 133 163 217 269 308 369
#     4  11  23  39  71  96 125 167 216 261 319 375
#     4  11  20  43  70  96 129 161 218 269 309 375
#     4  11  21  42  66  95 129 168 211 263 312 381
#     4  12  22  41  68  97 122 172 220 259 307 385
#
# _framework density 21.568304000000001
#
# number of rings (size 3 to 8) (size 9 to 14) (size 15 to 20)
#    0.000    0.750    6.250    1.500    3.500    3.500 
#    2.250    0.625    0.000    0.000    0.000    0.000 
#    0.000    0.000    0.000    0.000    0.000    0.000 
#
# Total GULP energy -89520.598271 kJ/mol
# GULP energy per Si atom -5595.037392 kJ/mol
# Density = 2.151921 g / cm^3
# Si number density = 21.568304 Si / 1000 Ang^3
#
#
#
# Elastic Constant Matrix: (Units=GPa)
#
#
# Indices 1 2 3 4 5 6 
#
# 1 66.5468 -0.6983 25.7803 20.1640 -6.0900 -14.1435
# 2 -0.6983 65.5445 3.9808 14.4777 3.1022 -7.3632
# 3 25.7803 3.9808 64.7231 19.4194 16.3016 -0.2240
# 4 20.1640 14.4777 19.4194 35.1112 -5.3555 -6.0707
# 5 -6.0900 3.1022 16.3016 -5.3555 45.5421 10.0862
# 6 -14.1435 -7.3632 -0.2240 -6.0707 10.0862 20.2290
#
#
#
# Elastic Compliance Matrix: (Units=1/GPa)
#
#
# Indices 1 2 3 4 5 6 
#
# 1 0.023830 0.004206 -0.007461 -0.008520 0.001264 0.014923
# 2 0.004206 0.018616 0.001265 -0.009907 -0.004294 0.008898
# 3 -0.007461 0.001265 0.024616 -0.011956 -0.010694 -0.002740
# 4 -0.008520 -0.009907 -0.011956 0.045367 0.009310 -0.000723
# 5 0.001264 -0.004294 -0.010694 0.009310 0.030239 -0.013081
# 6 0.014923 0.008898 -0.002740 -0.000723 -0.013081 0.069381
#
#
# Mechanical properties :
#
#
# Convention : Reuss Voigt Hill
#
# Bulk Modulus (GPa) = 15.85262 28.32664 22.08963
# Shear Modulus (GPa) = 21.09190 31.35991 26.22590
#
# Velocity S-wave (km/s) = 3.13055 3.81725 3.49083
# Velocity P-wave (km/s) = 4.52029 5.70881 5.14896
#
# Compressibility (1/GPa) = 0.06308105
#
# Stress axis : x y z
#
# Youngs Moduli (GPa) = 41.96308 53.71703 40.62422
#
# Poissons Ratio (x) = -0.22591 0.30310
# Poissons Ratio (y) = -0.17648 -0.05138
# Poissons Ratio (z) = 0.31309 -0.06794
#
# Static dielectric constant tensor:
#      x y z
#    x 1.766140 0.017430 -0.004180 
#    y 0.017430 1.800690 -0.020020 
#    z -0.004180 -0.020020 1.812850 
# 
# From -- ./inp_files/188910.got.cif
#   From: 2010.05.17/outbox.cif.g08.bks.cpg/sg2_95_cif.got.tgz:188910.got - 2010.06.03 11:33:40.
