data_PCOD9054947
_publ_section_title
;
Structure prediction by ZEFSAII (Michael W. Deem and Ramdas Pophale) SiO2 
 PCOD9054947
Probable space group: P -1
;
_chemical_formula_sum "Si O2"
_cell_formula_units_Z 12
_cell_length_a 20.666308
_cell_length_b 10.474933
_cell_length_c 9.635416
_cell_angle_alpha 28.332297
_cell_angle_beta 142.587249
_cell_angle_gamma 139.588446
_cell_volume 587.230630
_symmetry_space_group_name_H-M "P -1"
_symmetry_group_IT_number 2
_symmetry_cell_setting 'triclinic'
loop_
_space_group_symop_operation_xyz
x,y,z
-x,-y,-z
loop_
_atom_site_type_symbol
_atom_site_label
_atom_site_fract_x
_atom_site_fract_y
_atom_site_fract_z
Si Si1 0.304678 0.391077 0.041504
Si Si2 0.296292 0.397469 0.706178
Si Si3 0.944393 0.504677 0.749200
Si Si4 0.427542 0.949252 0.790802
Si Si5 0.412931 0.945154 0.280611
Si Si6 0.057792 0.055563 0.894207
O O1 0.375453 0.201197 0.415633
O O2 0.342026 0.455104 0.884915
O O3 0.180056 0.226819 0.973892
O O4 0.329618 0.681498 0.883566
O O5 0.174317 0.439988 0.467856
O O6 0.364317 0.620199 0.504860
O O7 0.313281 0.095152 0.991833
O O8 0.991874 0.750961 0.484016
O O9 0.000000 0.500000 0.000000
O O10 0.937603 0.222491 0.919031
O O11 0.517572 0.923237 0.855696
O O12 0.500000 0.000000 0.000000
O O13 0.500000 0.000000 0.500000
O O14 0.000000 0.000000 0.000000
#
# Coordination Sequence:
#
# PCOD9054947 Si02
#       6
#     2   2   2   2   2   2
#     4  11  21  42  66  87 128 172 214 259 322 393
#     4  11  21  39  67  94 120 170 217 256 320 386
#     4  11  24  45  70 100 139 167 216 293 342 377
#     4  12  25  40  59  93 134 166 208 268 329 369
#     4  12  21  38  65  92 122 163 222 259 300 401
#     4  11  24  45  73  97 129 181 230 266 330 415
#
# _framework density 20.434901
#
# number of rings (size 3 to 8) (size 9 to 14) (size 15 to 20)
#    0.000    0.667    3.333    7.000    0.000    0.000 
#    9.000    0.000    0.000    0.000    0.000    0.000 
#    0.000    0.000    0.000    0.000    0.000    0.000 
#
# Total GULP energy -66976.769774 kJ/mol
# GULP energy per Si atom -5581.397481 kJ/mol
# Density = 2.038839 g / cm^3
# Si number density = 20.434901 Si / 1000 Ang^3
#
#
#
# Elastic Constant Matrix: (Units=GPa)
#
#
# Indices 1 2 3 4 5 6 
#
# 1 102.6570 44.6615 36.2178 8.7504 -14.8979 -5.9593
# 2 44.6615 17.7615 46.2402 18.2656 -80.4078 -12.8265
# 3 36.2178 46.2402 150.0935 11.5149 -15.9902 -8.4978
# 4 8.7504 18.2656 11.5149 41.3875 3.6044 -9.7096
# 5 -14.8979 -80.4078 -15.9902 3.6044 -29.4240 1.0989
# 6 -5.9593 -12.8265 -8.4978 -9.7096 1.0989 25.3719
#
#
#
# Elastic Compliance Matrix: (Units=1/GPa)
#
#
# Indices 1 2 3 4 5 6 
#
# 1 0.012805 -0.004126 -0.001180 -0.001044 0.005302 -0.000103
# 2 -0.004126 0.006826 -0.002603 0.000462 -0.015001 0.002436
# 3 -0.001180 -0.002603 0.008198 -0.001010 0.003155 0.000630
# 4 -0.001044 0.000462 -0.001010 0.026418 0.003409 0.009612
# 5 0.005302 -0.015001 0.003155 0.003409 0.002874 -0.004102
# 6 -0.000103 0.002436 0.000630 0.009612 -0.004102 0.044688
#
#
# Mechanical properties :
#
#
# Convention : Reuss Voigt Hill
#
# Bulk Modulus (GPa) = 83.25337 58.30568 70.77953
# Shear Modulus (GPa) = 41.10831 17.02658 29.06744
#
# Velocity S-wave (km/s) = 4.49003 2.88967 3.77562
# Velocity P-wave (km/s) = 8.22859 6.30301 7.32931
#
# Compressibility (1/GPa) = 0.01201153
#
# Stress axis : x y z
#
# Youngs Moduli (GPa) = 78.09511 146.50743 121.97785
#
# Poissons Ratio (x) = 0.60452 0.14388
# Poissons Ratio (y) = 0.32224 0.31749
# Poissons Ratio (z) = 0.09212 0.38133
#
# Static dielectric constant tensor:
#      x y z
#    x 1.850830 -0.050300 -0.015450 
#    y -0.050300 1.714920 -0.028560 
#    z -0.015450 -0.028560 1.753970 
# 
# From -- ./inp_files/196025.got.cif
#   From: 2010.05.17/outbox.cif.g08.bks.cpg/sg2_99_cif.got.tgz:196025.got - 2010.06.03 11:33:40.
