data_PCOD9054590
_publ_section_title
;
Structure prediction by ZEFSAII (Michael W. Deem and Ramdas Pophale) SiO2 
 PCOD9054590
Probable space group: P -1
;
_chemical_formula_sum "Si O2"
_cell_formula_units_Z 16
_cell_length_a 9.504783
_cell_length_b 16.069489
_cell_length_c 18.455192
_cell_angle_alpha 21.336640
_cell_angle_beta 132.202488
_cell_angle_gamma 121.861911
_cell_volume 707.925774
_symmetry_space_group_name_H-M "P -1"
_symmetry_group_IT_number 2
_symmetry_cell_setting 'triclinic'
loop_
_space_group_symop_operation_xyz
x,y,z
-x,-y,-z
loop_
_atom_site_type_symbol
_atom_site_label
_atom_site_fract_x
_atom_site_fract_y
_atom_site_fract_z
Si Si1 0.456822 0.635756 0.499198
Si Si2 0.803663 0.867717 0.589075
Si Si3 0.825189 0.893074 0.043741
Si Si4 0.223714 0.838098 0.794477
Si Si5 0.539860 0.313652 0.370659
Si Si6 0.129882 0.380735 0.333096
Si Si7 0.904245 0.417953 0.358134
Si Si8 0.717322 0.779973 0.252503
O O1 0.414417 0.717120 0.502582
O O2 0.700985 0.503727 0.685221
O O3 0.338225 0.462021 0.577370
O O4 0.379432 0.874863 0.229031
O O5 0.599893 0.844312 0.568676
O O6 0.888798 0.647572 0.736611
O O7 0.996073 0.842542 0.724926
O O8 0.757205 0.113377 0.324823
O O9 0.834188 0.668203 0.177697
O O10 0.833624 0.806935 0.198509
O O11 0.000000 0.000000 0.000000
O O12 0.229655 0.090234 0.622768
O O13 0.393319 0.595428 0.077854
O O14 0.744790 0.282721 0.423738
O O15 0.934520 0.481796 0.233793
O O16 0.124586 0.256779 0.598002
O O17 0.500000 0.000000 0.000000
#
# Coordination Sequence:
#
# PCOD9054590 Si02
#       8
#     2   2   2   2   2   2   2   2
#     4  11  23  42  60  88 117 165 213 240 301 360
#     4   8  19  39  67  88 120 159 203 235 304 374
#     4  12  24  41  60  81 123 163 202 254 305 352
#     4   9  18  40  68  87 121 158 200 248 294 371
#     4  11  21  36  64  91 119 157 204 246 302 358
#     4   9  21  38  61  90 120 153 202 252 293 359
#     4  12  24  40  59  93 127 157 204 257 306 349
#     4  12  27  42  63  86 121 167 209 253 296 360
#
# _framework density 22.601239
#
# number of rings (size 3 to 8) (size 9 to 14) (size 15 to 20)
#    0.750    0.750    2.500    3.000    3.500    1.000 
#    0.000    1.250    0.000    0.000    0.000    0.000 
#    0.000    0.000    0.000    0.000    0.000    0.000 
#
# Total GULP energy -89330.521814 kJ/mol
# GULP energy per Si atom -5583.157613 kJ/mol
# Density = 2.254980 g / cm^3
# Si number density = 22.601239 Si / 1000 Ang^3
#
#
#
# Elastic Constant Matrix: (Units=GPa)
#
#
# Indices 1 2 3 4 5 6 
#
# 1 113.1899 32.4450 -20.7138 -3.3192 0.0410 33.5852
# 2 32.4450 60.1966 0.6296 13.9864 2.3652 40.6215
# 3 -20.7138 0.6296 56.5683 0.3536 -13.5183 0.8374
# 4 -3.3192 13.9864 0.3536 12.1448 1.4236 0.5880
# 5 0.0410 2.3652 -13.5183 1.4236 23.1298 5.3345
# 6 33.5852 40.6215 0.8374 0.5880 5.3345 49.0703
#
#
#
# Elastic Compliance Matrix: (Units=1/GPa)
#
#
# Indices 1 2 3 4 5 6 
#
# 1 0.013703 -0.008868 0.006090 0.013416 0.004254 -0.002765
# 2 -0.008868 0.097938 0.001062 -0.113352 0.014963 -0.075292
# 3 0.006090 0.001062 0.023713 -0.001719 0.015486 -0.007115
# 4 0.013416 -0.113352 -0.001719 0.215104 -0.022169 0.084515
# 5 0.004254 0.014963 0.015486 -0.022169 0.057071 -0.021501
# 6 -0.002765 -0.075292 -0.007115 0.084515 -0.021501 0.086046
#
#
# Mechanical properties :
#
#
# Convention : Reuss Voigt Hill
#
# Bulk Modulus (GPa) = 7.58022 28.29736 17.93879
# Shear Modulus (GPa) = 9.24245 31.37526 20.30886
#
# Velocity S-wave (km/s) = 2.02441 3.72991 3.00087
# Velocity P-wave (km/s) = 2.97077 5.57648 4.46781
#
# Compressibility (1/GPa) = 0.13192229
#
# Stress axis : x y z
#
# Youngs Moduli (GPa) = 72.97418 10.21053 42.17109
#
# Poissons Ratio (x) = 0.09055 -0.25683
# Poissons Ratio (y) = 0.64713 -0.04477
# Poissons Ratio (z) = -0.44443 -0.01084
#
# Static dielectric constant tensor:
#      x y z
#    x 1.880020 0.003810 0.018450 
#    y 0.003810 1.824790 0.005140 
#    z 0.018450 0.005140 1.833940 
# 
# From -- ./inp_files/590909.got.cif
#   From: 2010.05.17/outbox.cif.g08.bks.cpg/sg2_296_cif.got.tgz:590909.got - 2010.06.03 11:33:40.
