data_PCOD9054753
_publ_section_title
;
Structure prediction by ZEFSAII (Michael W. Deem and Ramdas Pophale) SiO2 
 PCOD9054753
Probable space group: P -1
;
_chemical_formula_sum "Si O2"
_cell_formula_units_Z 15
_cell_length_a 18.460077
_cell_length_b 8.101182
_cell_length_c 12.947294
_cell_angle_alpha 58.941222
_cell_angle_beta 152.886116
_cell_angle_gamma 131.273173
_cell_volume 648.735190
_symmetry_space_group_name_H-M "P -1"
_symmetry_group_IT_number 2
_symmetry_cell_setting 'triclinic'
loop_
_space_group_symop_operation_xyz
x,y,z
-x,-y,-z
loop_
_atom_site_type_symbol
_atom_site_label
_atom_site_fract_x
_atom_site_fract_y
_atom_site_fract_z
Si Si1 0.760583 0.600476 0.810587
Si Si2 0.838655 0.922490 0.096910
Si Si3 0.858836 0.334212 0.648411
Si Si4 0.774971 0.937020 0.553942
Si Si5 0.299455 0.790402 0.290660
Si Si6 0.410064 0.557269 0.142324
Si Si7 0.000000 0.000000 0.500000
Si Si8 0.085834 0.654228 0.660508
O O1 0.774726 0.797892 0.697237
O O2 0.706252 0.387289 0.739016
O O3 0.622127 0.532016 0.752120
O O4 0.960331 0.676560 0.087644
O O5 0.876979 0.980538 0.246444
O O6 0.665368 0.667989 0.947471
O O7 0.018750 0.936300 0.269746
O O8 0.810221 0.101038 0.937423
O O9 0.776201 0.332947 0.655140
O O10 0.936723 0.542571 0.602055
O O11 0.728423 0.117871 0.482710
O O12 0.620726 0.757334 0.338787
O O13 0.500000 0.000000 0.500000
O O14 0.271886 0.651925 0.920653
O O15 0.103900 0.892591 0.599440
O O16 0.000000 0.500000 0.500000
#
# Coordination Sequence:
#
# PCOD9054753 Si02
#       8
#     2   2   2   2   2   2   1   2
#     4  11  21  38  62  98 142 180 225 284 356 424
#     4  12  24  46  69 100 142 186 239 292 362 420
#     4  11  22  40  68  99 136 184 231 287 362 421
#     4  12  22  40  70 100 137 183 230 288 358 424
#     4  12  25  41  65 103 146 184 234 303 357 424
#     4  11  23  42  69 101 134 184 236 287 349 432
#     4  12  26  46  80  96 138 202 228 298 368 416
#     4  11  23  48  73 101 141 187 237 294 358 422
#
# _framework density 23.121915000000001
#
# number of rings (size 3 to 8) (size 9 to 14) (size 15 to 20)
#    0.000    0.533    5.333    5.200    1.867    0.000 
#    0.000    4.667    0.000    0.000    0.000    0.000 
#    0.000    0.000    0.000    0.000    0.000    0.000 
#
# Total GULP energy -83679.916798 kJ/mol
# GULP energy per Si atom -5578.661120 kJ/mol
# Density = 2.306929 g / cm^3
# Si number density = 23.121915 Si / 1000 Ang^3
#
#
#
# Elastic Constant Matrix: (Units=GPa)
#
#
# Indices 1 2 3 4 5 6 
#
# 1 88.8947 16.5956 36.2064 13.4356 -37.6606 -12.4284
# 2 16.5956 59.3701 10.4435 25.1927 -11.2659 -16.0505
# 3 36.2064 10.4435 72.1287 18.6505 -17.5062 5.8093
# 4 13.4356 25.1927 18.6505 41.1788 -8.1261 -4.7885
# 5 -37.6606 -11.2659 -17.5062 -8.1261 31.5298 2.0746
# 6 -12.4284 -16.0505 5.8093 -4.7885 2.0746 42.0596
#
#
#
# Elastic Compliance Matrix: (Units=1/GPa)
#
#
# Indices 1 2 3 4 5 6 
#
# 1 0.027219 0.001129 -0.007768 0.000463 0.028181 0.008209
# 2 0.001129 0.025952 0.000253 -0.014099 0.006583 0.008272
# 3 -0.007768 0.000253 0.020231 -0.007359 0.000534 -0.005857
# 4 0.000463 -0.014099 -0.007359 0.036229 0.000775 -0.000141
# 5 0.028181 0.006583 0.000534 0.000775 0.067731 0.007513
# 6 0.008209 0.008272 -0.005857 -0.000141 0.007513 0.029781
#
#
# Mechanical properties :
#
#
# Convention : Reuss Voigt Hill
#
# Bulk Modulus (GPa) = 16.49355 38.54270 27.51813
# Shear Modulus (GPa) = 20.82259 33.43018 27.12639
#
# Velocity S-wave (km/s) = 3.00418 3.80652 3.42890
# Velocity P-wave (km/s) = 4.37976 6.00208 5.25392
#
# Compressibility (1/GPa) = 0.06062977
#
# Stress axis : x y z
#
# Youngs Moduli (GPa) = 36.73871 38.53319 49.42986
#
# Poissons Ratio (x) = -0.04349 0.38395
# Poissons Ratio (y) = -0.04146 -0.01251
# Poissons Ratio (z) = 0.28537 -0.00975
#
# Static dielectric constant tensor:
#      x y z
#    x 1.849340 0.014900 0.007790 
#    y 0.014900 1.956710 0.004830 
#    z 0.007790 0.004830 1.886780 
# 
# From -- ./inp_files/425005.got.cif
#   From: 2010.05.17/outbox.cif.g08.bks.cpg/sg2_213_cif.got.tgz:425005.got - 2010.06.03 11:33:40.
