data_PCOD9054319
_publ_section_title
;
Structure prediction by ZEFSAII (Michael W. Deem and Ramdas Pophale) SiO2 
 PCOD9054319
Probable space group: P -1
;
_chemical_formula_sum "Si O2"
_cell_formula_units_Z 12
_cell_length_a 9.574327
_cell_length_b 12.197051
_cell_length_c 10.337499
_cell_angle_alpha 58.891931
_cell_angle_beta 30.656501
_cell_angle_gamma 48.094380
_cell_volume 452.747310
_symmetry_space_group_name_H-M "P -1"
_symmetry_group_IT_number 2
_symmetry_cell_setting 'triclinic'
loop_
_space_group_symop_operation_xyz
x,y,z
-x,-y,-z
loop_
_atom_site_type_symbol
_atom_site_label
_atom_site_fract_x
_atom_site_fract_y
_atom_site_fract_z
Si Si1 0.629506 0.270422 0.181898
Si Si2 0.138748 0.108554 0.095624
Si Si3 0.703976 0.461050 0.555043
Si Si4 0.190568 0.162113 0.309112
Si Si5 0.814840 0.856739 0.392282
Si Si6 0.322222 0.358723 0.778635
O O1 0.475476 0.444661 0.234134
O O2 0.321830 0.254632 0.423424
O O3 0.853291 0.165908 0.186090
O O4 0.877550 0.210507 0.902676
O O5 0.281079 0.217957 0.888778
O O6 0.428739 0.943284 0.942004
O O7 0.062622 0.132475 0.294530
O O8 0.569396 0.355064 0.686478
O O9 0.614328 0.587823 0.441240
O O10 0.072472 0.336956 0.316430
O O11 0.116728 0.113595 0.534828
O O12 0.500000 0.000000 0.500000
O O13 0.000000 0.500000 0.000000
#
# Coordination Sequence:
#
# PCOD9054319 Si02
#       6
#     2   2   2   2   2   2
#     4  12  26  49  81 102 148 206 249 287 384 454
#     4  11  23  46  78 109 143 199 247 308 365 445
#     4  11  24  41  71 110 146 193 247 309 364 444
#     4  11  26  45  70 117 147 185 254 317 362 429
#     4  12  28  51  74 108 151 201 242 307 376 448
#     4  11  20  42  71 106 153 191 237 304 381 431
#
# _framework density 26.504853000000001
#
# number of rings (size 3 to 8) (size 9 to 14) (size 15 to 20)
#    0.000    0.667    5.000    2.500    0.000    3.333 
#    3.000    0.000    0.000    0.000    0.000    0.000 
#    0.000    0.000    0.000    0.000    0.000    0.000 
#
# Total GULP energy -67180.390455 kJ/mol
# GULP energy per Si atom -5598.365871 kJ/mol
# Density = 2.644453 g / cm^3
# Si number density = 26.504853 Si / 1000 Ang^3
#
#
#
# Elastic Constant Matrix: (Units=GPa)
#
#
# Indices 1 2 3 4 5 6 
#
# 1 136.8574 35.3653 47.0047 -4.7221 30.4348 -8.5876
# 2 35.3653 116.7302 38.1848 37.7333 11.7721 2.2761
# 3 47.0047 38.1848 139.3156 28.2422 39.7095 18.4996
# 4 -4.7221 37.7333 28.2422 59.4164 20.7077 10.1186
# 5 30.4348 11.7721 39.7095 20.7077 54.6963 -8.0823
# 6 -8.5876 2.2761 18.4996 10.1186 -8.0823 33.5972
#
#
#
# Elastic Compliance Matrix: (Units=1/GPa)
#
#
# Indices 1 2 3 4 5 6 
#
# 1 0.010642 -0.003931 -0.002319 0.006215 -0.005591 0.001047
# 2 -0.003931 0.013138 -0.002240 -0.010075 0.005341 0.003658
# 3 -0.002319 -0.002240 0.012204 -0.000069 -0.008416 -0.009165
# 4 0.006215 -0.010075 -0.000069 0.030501 -0.014312 -0.010320
# 5 -0.005591 0.005341 -0.008416 -0.014312 0.034040 0.015343
# 6 0.001047 0.003658 -0.009165 -0.010320 0.015343 0.041629
#
#
# Mechanical properties :
#
#
# Convention : Reuss Voigt Hill
#
# Bulk Modulus (GPa) = 52.62080 70.44587 61.53333
# Shear Modulus (GPa) = 30.21718 47.69856 38.95787
#
# Velocity S-wave (km/s) = 3.38014 4.24679 3.83801
# Velocity P-wave (km/s) = 5.92707 7.11921 6.55032
#
# Compressibility (1/GPa) = 0.01900389
#
# Stress axis : x y z
#
# Youngs Moduli (GPa) = 93.96307 76.11792 81.94086
#
# Poissons Ratio (x) = 0.29925 0.18998
# Poissons Ratio (y) = 0.36941 0.18355
# Poissons Ratio (z) = 0.21785 0.17051
#
# Static dielectric constant tensor:
#      x y z
#    x 2.168950 -0.063970 -0.086020 
#    y -0.063970 2.141350 0.014780 
#    z -0.086020 0.014780 2.217420 
# 
# From -- ./inp_files/432522.got.cif
#   From: 2010.05.17/outbox.cif.g08.bks.cpg/sg2_217_cif.got.tgz:432522.got - 2010.06.03 11:33:40.
