data_PCOD9054869
_publ_section_title
;
Structure prediction by ZEFSAII (Michael W. Deem and Ramdas Pophale) SiO2 
 PCOD9054869
Probable space group: P -1
;
_chemical_formula_sum "Si O2"
_cell_formula_units_Z 16
_cell_length_a 7.398163
_cell_length_b 8.922120
_cell_length_c 12.990790
_cell_angle_alpha 65.007273
_cell_angle_beta 82.284086
_cell_angle_gamma 54.782892
_cell_volume 627.979273
_symmetry_space_group_name_H-M "P -1"
_symmetry_group_IT_number 2
_symmetry_cell_setting 'triclinic'
loop_
_space_group_symop_operation_xyz
x,y,z
-x,-y,-z
loop_
_atom_site_type_symbol
_atom_site_label
_atom_site_fract_x
_atom_site_fract_y
_atom_site_fract_z
Si Si1 0.171113 0.141042 0.995642
Si Si2 0.243493 0.545993 0.575846
Si Si3 0.449523 0.869870 0.409765
Si Si4 0.721512 0.318754 0.240297
Si Si5 0.280121 0.712915 0.110417
Si Si6 0.993319 0.399828 0.757486
Si Si7 0.189875 0.235503 0.180749
Si Si8 0.816037 0.928198 0.432950
O O1 0.222881 0.237979 0.056194
O O2 0.294985 0.901587 0.067029
O O3 0.907088 0.225518 0.980975
O O4 0.197742 0.221199 0.862203
O O5 0.458296 0.355560 0.561384
O O6 0.300691 0.600493 0.664496
O O7 0.088463 0.467121 0.643794
O O8 0.073539 0.744123 0.464767
O O9 0.245495 0.980651 0.473236
O O10 0.373836 0.017543 0.276239
O O11 0.657770 0.854372 0.449965
O O12 0.515840 0.501091 0.140185
O O13 0.739834 0.112021 0.308485
O O14 0.954919 0.263770 0.198434
O O15 0.160862 0.679732 0.226054
O O16 0.844646 0.591150 0.791452
#
# Coordination Sequence:
#
# PCOD9054869 Si02
#       8
#     2   2   2   2   2   2   2   2
#     4   9  20  38  64  86 126 159 205 250 307 363
#     4  11  23  42  64  94 125 161 211 249 312 367
#     4  11  24  40  66  88 125 164 207 256 305 365
#     4  11  23  39  63  89 130 161 202 263 302 364
#     4   9  20  39  60  88 120 164 200 252 306 356
#     4   9  19  39  62  86 124 162 196 261 293 367
#     4  11  21  39  59  93 123 160 210 246 304 372
#     4  11  24  45  61  91 128 160 210 258 308 364
#
# _framework density 25.478545
#
# number of rings (size 3 to 8) (size 9 to 14) (size 15 to 20)
#    0.750    1.000    2.500    2.625    1.750    2.000 
#    2.250    6.875    0.000    0.000    0.000    0.000 
#    0.000    0.000    0.000    0.000    0.000    0.000 
#
# Total GULP energy -89517.317308 kJ/mol
# GULP energy per Si atom -5594.832332 kJ/mol
# Density = 2.542055 g / cm^3
# Si number density = 25.478545 Si / 1000 Ang^3
#
#
#
# Elastic Constant Matrix: (Units=GPa)
#
#
# Indices 1 2 3 4 5 6 
#
# 1 53.3527 22.7494 21.7165 -10.0165 9.1917 -6.5266
# 2 22.7494 105.6190 44.4022 -17.3597 1.0241 -0.8946
# 3 21.7165 44.4022 102.6363 -33.8902 7.5570 -1.1094
# 4 -10.0165 -17.3597 -33.8902 34.0360 9.8268 -6.2948
# 5 9.1917 1.0241 7.5570 9.8268 32.5946 -13.0369
# 6 -6.5266 -0.8946 -1.1094 -6.2948 -13.0369 20.9138
#
#
#
# Elastic Compliance Matrix: (Units=1/GPa)
#
#
# Indices 1 2 3 4 5 6 
#
# 1 0.023661 -0.003564 -0.000385 0.007673 -0.006630 0.005388
# 2 -0.003564 0.012175 -0.004598 0.000127 0.001774 0.000309
# 3 -0.000385 -0.004598 0.018893 0.019248 -0.009777 0.000384
# 4 0.007673 0.000127 0.019248 0.058413 -0.021102 0.007848
# 5 -0.006630 0.001774 -0.009777 -0.021102 0.050058 0.022341
# 6 0.005388 0.000309 0.000384 0.007848 0.022341 0.065819
#
#
# Mechanical properties :
#
#
# Convention : Reuss Voigt Hill
#
# Bulk Modulus (GPa) = 26.56996 48.81601 37.69298
# Shear Modulus (GPa) = 19.33047 29.02487 24.17767
#
# Velocity S-wave (km/s) = 2.75743 3.37885 3.08383
# Velocity P-wave (km/s) = 4.53750 5.86715 5.24463
#
# Compressibility (1/GPa) = 0.03763650
#
# Stress axis : x y z
#
# Youngs Moduli (GPa) = 42.26341 82.13530 52.92861
#
# Poissons Ratio (x) = 0.29269 0.02036
# Poissons Ratio (y) = 0.15061 0.24338
# Poissons Ratio (z) = 0.01626 0.37768
#
# Static dielectric constant tensor:
#      x y z
#    x 2.018120 0.006090 -0.032540 
#    y 0.006090 2.025000 0.021270 
#    z -0.032540 0.021270 2.010020 
# 
# From -- ./inp_files/557002.got.cif
#   From: 2010.05.17/outbox.cif.g08.bks.cpg/sg2_279_cif.got.tgz:557002.got - 2010.06.03 11:33:40.
