data_PCOD9054047
_publ_section_title
;
Structure prediction by ZEFSAII (Michael W. Deem and Ramdas Pophale) SiO2 
 PCOD9054047
Probable space group: P -1
;
_chemical_formula_sum "Si O2"
_cell_formula_units_Z 16
_cell_length_a 11.090727
_cell_length_b 8.219798
_cell_length_c 18.660558
_cell_angle_alpha 126.719419
_cell_angle_beta 149.600137
_cell_angle_gamma 64.786730
_cell_volume 672.941495
_symmetry_space_group_name_H-M "P -1"
_symmetry_group_IT_number 2
_symmetry_cell_setting 'triclinic'
loop_
_space_group_symop_operation_xyz
x,y,z
-x,-y,-z
loop_
_atom_site_type_symbol
_atom_site_label
_atom_site_fract_x
_atom_site_fract_y
_atom_site_fract_z
Si Si1 0.768579 0.286781 0.558537
Si Si2 0.516436 0.524477 0.118171
Si Si3 0.414010 0.502782 0.214194
Si Si4 0.235598 0.180214 0.800307
Si Si5 0.094985 0.803714 0.148703
Si Si6 0.862073 0.206978 0.003553
Si Si7 0.411060 0.855633 0.720022
Si Si8 0.231681 0.260530 0.326552
O O1 0.707994 0.146893 0.419659
O O2 0.519374 0.278561 0.472082
O O3 0.838169 0.526523 0.629265
O O4 0.963064 0.201201 0.683026
O O5 0.574226 0.567728 0.242274
O O6 0.703811 0.669154 0.199371
O O7 0.441691 0.286540 0.991063
O O8 0.266872 0.604148 0.998108
O O9 0.308321 0.683339 0.246150
O O10 0.546777 0.368844 0.297397
O O11 0.169732 0.345111 0.015676
O O12 0.265230 0.955773 0.731051
O O13 0.121962 0.040079 0.250113
O O14 0.124031 0.815043 0.079791
O O15 0.119438 0.243690 0.183892
O O16 0.676012 0.012249 0.891717
#
# Coordination Sequence:
#
# PCOD9054047 Si02
#       8
#     2   2   2   2   2   2   2   2
#     4  11  23  36  59  94 120 150 200 244 298 342
#     4   9  20  37  62  89 111 151 202 258 275 345
#     4  10  21  35  59  93 121 149 200 237 306 344
#     4  10  21  40  62  84 116 156 206 245 287 335
#     4  10  19  34  59  90 123 152 187 252 288 349
#     4  10  17  35  63  88 115 149 210 240 286 337
#     4  11  21  37  62  89 118 159 195 245 286 357
#     4  11  20  35  61  90 120 151 193 252 286 348
#
# _framework density 23.776211
#
# number of rings (size 3 to 8) (size 9 to 14) (size 15 to 20)
#    0.000    1.750    3.750    1.500    0.000    0.500 
#    0.000    1.250    0.000    0.000    0.000    0.000 
#    0.000    0.000    0.000    0.000    0.000    0.000 
#
# Total GULP energy -89378.632368 kJ/mol
# GULP energy per Si atom -5586.164523 kJ/mol
# Density = 2.372210 g / cm^3
# Si number density = 23.776211 Si / 1000 Ang^3
#
#
#
# Elastic Constant Matrix: (Units=GPa)
#
#
# Indices 1 2 3 4 5 6 
#
# 1 33.2184 -3.9481 -10.0346 -4.1342 3.2711 -1.4053
# 2 -3.9481 97.3206 13.2960 3.0716 0.4858 -14.0989
# 3 -10.0346 13.2960 42.1605 -4.5794 -0.1366 -4.5281
# 4 -4.1342 3.0716 -4.5794 31.8469 -5.8769 -3.8049
# 5 3.2711 0.4858 -0.1366 -5.8769 21.5771 1.0617
# 6 -1.4053 -14.0989 -4.5281 -3.8049 1.0617 33.5160
#
#
#
# Elastic Compliance Matrix: (Units=1/GPa)
#
#
# Indices 1 2 3 4 5 6 
#
# 1 0.034050 0.000536 0.008891 0.005368 -0.003832 0.003585
# 2 0.000536 0.011386 -0.003128 -0.001127 -0.000876 0.004289
# 3 0.008891 -0.003128 0.027842 0.005939 0.000345 0.003482
# 4 0.005368 -0.001127 0.005939 0.035160 0.008615 0.004272
# 5 -0.003832 -0.000876 0.000345 0.008615 0.049347 -0.001068
# 6 0.003585 0.004289 0.003482 0.004272 -0.001068 0.032780
#
#
# Mechanical properties :
#
#
# Convention : Reuss Voigt Hill
#
# Bulk Modulus (GPa) = 11.64470 19.03623 15.34046
# Shear Modulus (GPa) = 24.20221 28.94709 26.57465
#
# Velocity S-wave (km/s) = 3.19394 3.49303 3.34683
# Velocity P-wave (km/s) = 4.30232 4.92870 4.62613
#
# Compressibility (1/GPa) = 0.08587599
#
# Stress axis : x y z
#
# Youngs Moduli (GPa) = 29.36816 87.82948 35.91745
#
# Poissons Ratio (x) = -0.04705 -0.31935
# Poissons Ratio (y) = -0.01573 0.11234
# Poissons Ratio (z) = -0.26112 0.27471
#
# Static dielectric constant tensor:
#      x y z
#    x 1.912880 -0.020600 0.011200 
#    y -0.020600 1.964430 0.051140 
#    z 0.011200 0.051140 1.922780 
# 
# From -- ./inp_files/199502.got.cif
#   From: 2010.05.17/outbox.cif.g08.bks.cpg/sg2_100_cif.got.tgz:199502.got - 2010.06.03 11:33:40.
