data_PCOD9054863
_publ_section_title
;
Structure prediction by ZEFSAII (Michael W. Deem and Ramdas Pophale) SiO2 
 PCOD9054863
Probable space group: P -1
;
_chemical_formula_sum "Si O2"
_cell_formula_units_Z 12
_cell_length_a 6.004883
_cell_length_b 13.085178
_cell_length_c 8.398791
_cell_angle_alpha 61.708549
_cell_angle_beta 100.074618
_cell_angle_gamma 68.951930
_cell_volume 492.180611
_symmetry_space_group_name_H-M "P -1"
_symmetry_group_IT_number 2
_symmetry_cell_setting 'triclinic'
loop_
_space_group_symop_operation_xyz
x,y,z
-x,-y,-z
loop_
_atom_site_type_symbol
_atom_site_label
_atom_site_fract_x
_atom_site_fract_y
_atom_site_fract_z
Si Si1 0.775492 0.989582 0.093562
Si Si2 0.314409 0.628224 0.063355
Si Si3 0.229225 0.713671 0.344740
Si Si4 0.639159 0.657949 0.669894
Si Si5 0.145042 0.514208 0.661441
Si Si6 0.767272 0.138480 0.293511
O O1 0.708142 0.092314 0.152729
O O2 0.963915 0.837044 0.286517
O O3 0.500000 0.000000 0.000000
O O4 0.000000 0.000000 0.000000
O O5 0.192897 0.689928 0.175196
O O6 0.335590 0.483092 0.154582
O O7 0.608364 0.607729 0.130805
O O8 0.164675 0.745380 0.828881
O O9 0.480372 0.718263 0.435704
O O10 0.284847 0.583804 0.543212
O O11 0.934625 0.605191 0.697219
O O12 0.478837 0.781130 0.678375
O O13 0.000000 0.500000 0.500000
O O14 0.000000 0.000000 0.500000
#
# Coordination Sequence:
#
# PCOD9054863 Si02
#       6
#     2   2   2   2   2   2
#     4  12  29  52  81 110 155 216 269 319 390 482
#     4  11  23  43  74 109 149 199 258 314 390 469
#     4  11  22  42  75 110 144 198 262 316 381 472
#     4  11  23  45  73 111 154 192 254 325 398 457
#     4  11  21  38  74 108 145 193 255 321 384 465
#     4  12  27  49  74 110 159 207 257 328 396 459
#
# _framework density 24.381294
#
# number of rings (size 3 to 8) (size 9 to 14) (size 15 to 20)
#    0.000    0.667    6.667    1.500    4.667    0.667 
#    6.000    1.667    0.000    0.000    0.000    0.000 
#    0.000    0.000    0.000    0.000    0.000    0.000 
#
# Total GULP energy -66856.875218 kJ/mol
# GULP energy per Si atom -5571.406268 kJ/mol
# Density = 2.432580 g / cm^3
# Si number density = 24.381294 Si / 1000 Ang^3
#
#
#
# Elastic Constant Matrix: (Units=GPa)
#
#
# Indices 1 2 3 4 5 6 
#
# 1 89.3119 42.9001 33.3665 6.2191 8.7730 -11.9678
# 2 42.9001 200.3933 34.9048 6.7980 4.6106 -23.8525
# 3 33.3665 34.9048 105.1254 -11.9192 2.9489 -2.2504
# 4 6.2191 6.7980 -11.9192 41.1252 -12.3480 6.6797
# 5 8.7730 4.6106 2.9489 -12.3480 19.5655 8.5929
# 6 -11.9678 -23.8525 -2.2504 6.6797 8.5929 37.9697
#
#
#
# Elastic Compliance Matrix: (Units=1/GPa)
#
#
# Indices 1 2 3 4 5 6 
#
# 1 0.018167 -0.000534 -0.006178 -0.012380 -0.020059 0.011742
# 2 -0.000534 0.006517 -0.002200 -0.004580 -0.006524 0.006077
# 3 -0.006178 -0.002200 0.012812 0.009003 0.009843 -0.006382
# 4 -0.012380 -0.004580 0.009003 0.047524 0.046281 -0.025080
# 5 -0.020059 -0.006524 0.009843 0.046281 0.107997 -0.042420
# 6 0.011742 0.006077 -0.006382 -0.025080 -0.042420 0.047489
#
#
# Mechanical properties :
#
#
# Convention : Reuss Voigt Hill
#
# Bulk Modulus (GPa) = 50.83828 68.57481 59.70654
# Shear Modulus (GPa) = 18.87588 38.64271 28.75930
#
# Velocity S-wave (km/s) = 2.78545 3.98544 3.43820
# Velocity P-wave (km/s) = 5.58942 7.02605 6.34850
#
# Compressibility (1/GPa) = 0.01967022
#
# Stress axis : x y z
#
# Youngs Moduli (GPa) = 55.04415 153.45394 78.05092
#
# Poissons Ratio (x) = 0.08194 0.48224
# Poissons Ratio (y) = 0.02939 0.17174
# Poissons Ratio (z) = 0.34009 0.33766
#
# Static dielectric constant tensor:
#      x y z
#    x 1.318720 -0.449200 -0.146230 
#    y -0.449200 1.587180 -0.131550 
#    z -0.146230 -0.131550 2.092230 
# 
# From -- ./inp_files/133947.got.cif
#   From: 2010.05.17/outbox.cif.g08.bks.cpg/sg2_67_cif.got.tgz:133947.got - 2010.06.03 11:33:40.
