data_PCOD9054054
_publ_section_title
;
Structure prediction by ZEFSAII (Michael W. Deem and Ramdas Pophale) SiO2 
 PCOD9054054
Probable space group: P -1
;
_chemical_formula_sum "Si O2"
_cell_formula_units_Z 12
_cell_length_a 9.162055
_cell_length_b 9.445992
_cell_length_c 14.919835
_cell_angle_alpha 40.430279
_cell_angle_beta 60.645658
_cell_angle_gamma 50.673048
_cell_volume 647.680466
_symmetry_space_group_name_H-M "P -1"
_symmetry_group_IT_number 2
_symmetry_cell_setting 'triclinic'
loop_
_space_group_symop_operation_xyz
x,y,z
-x,-y,-z
loop_
_atom_site_type_symbol
_atom_site_label
_atom_site_fract_x
_atom_site_fract_y
_atom_site_fract_z
Si Si1 0.616751 0.206512 0.600459
Si Si2 0.410437 0.502062 0.165061
Si Si3 0.379689 0.856339 0.582018
Si Si4 0.989101 0.339484 0.716808
Si Si5 0.040368 0.788066 0.413143
Si Si6 0.393199 0.910736 0.848106
O O1 0.500000 0.500000 0.500000
O O2 0.639828 0.148068 0.516137
O O3 0.813231 0.132701 0.626474
O O4 0.504509 0.071185 0.741195
O O5 0.509792 0.406826 0.276762
O O6 0.520474 0.276365 0.171806
O O7 0.191336 0.565332 0.210212
O O8 0.419621 0.738410 0.008382
O O9 0.500000 0.000000 0.500000
O O10 0.173111 0.002482 0.615136
O O11 0.049447 0.553053 0.577221
O O12 0.922662 0.287383 0.665397
O O13 0.172796 0.097495 0.809726
#
# Coordination Sequence:
#
# PCOD9054054 Si02
#       6
#     2   2   2   2   2   2
#     4  12  23  39  63  95 127 159 209 262 308 363
#     4  11  23  39  67  91 125 165 210 254 305 376
#     4  12  21  41  64  93 123 167 210 252 308 370
#     4  11  20  40  65  94 120 165 210 254 310 367
#     4  11  22  36  65  95 124 157 212 263 302 366
#     4  11  23  42  63  92 127 165 208 253 312 370
#
# _framework density 18.527654999999999
#
# number of rings (size 3 to 8) (size 9 to 14) (size 15 to 20)
#    0.000    0.667    6.667    2.000    0.000    0.000 
#    0.000    4.167    0.000    0.000    0.000    0.000 
#    0.000    0.000    0.000    0.000    0.000    0.000 
#
# Total GULP energy -67069.969748 kJ/mol
# GULP energy per Si atom -5589.164146 kJ/mol
# Density = 1.848548 g / cm^3
# Si number density = 18.527655 Si / 1000 Ang^3
#
#
#
# Elastic Constant Matrix: (Units=GPa)
#
#
# Indices 1 2 3 4 5 6 
#
# 1 111.0628 20.2403 38.4781 -6.5014 0.6202 -14.6191
# 2 20.2403 69.6516 9.5692 -9.5463 4.3217 -28.4306
# 3 38.4781 9.5692 127.8883 -17.4493 7.3319 -11.0967
# 4 -6.5014 -9.5463 -17.4493 25.7809 0.6982 4.7206
# 5 0.6202 4.3217 7.3319 0.6982 16.7486 -6.0368
# 6 -14.6191 -28.4306 -11.0967 4.7206 -6.0368 38.1765
#
#
#
# Elastic Compliance Matrix: (Units=1/GPa)
#
#
# Indices 1 2 3 4 5 6 
#
# 1 0.010675 -0.002043 -0.003089 -0.000601 0.002266 0.002101
# 2 -0.002043 0.021680 0.001089 0.005553 -0.000873 0.014855
# 3 -0.003089 0.001089 0.009856 0.006225 -0.004369 0.001033
# 4 -0.000601 0.005553 0.006225 0.045239 -0.006339 -0.000881
# 5 0.002266 -0.000873 -0.004369 -0.006339 0.065671 0.010116
# 6 0.002101 0.014855 0.001033 -0.000881 0.010116 0.040071
#
#
# Mechanical properties :
#
#
# Convention : Reuss Voigt Hill
#
# Bulk Modulus (GPa) = 29.30253 49.46422 39.38337
# Shear Modulus (GPa) = 23.51253 32.16221 27.83737
#
# Velocity S-wave (km/s) = 3.56624 4.17094 3.88038
# Velocity P-wave (km/s) = 5.72777 7.06761 6.43267
#
# Compressibility (1/GPa) = 0.03412675
#
# Stress axis : x y z
#
# Youngs Moduli (GPa) = 93.67639 46.12526 101.45600
#
# Poissons Ratio (x) = 0.09424 0.31335
# Poissons Ratio (y) = 0.19138 -0.11050
# Poissons Ratio (z) = 0.28933 -0.05024
#
# Static dielectric constant tensor:
#      x y z
#    x 1.630740 0.005250 0.020600 
#    y 0.005250 1.669690 0.005470 
#    z 0.020600 0.005470 1.642360 
# 
# From -- ./inp_files/147277.got.cif
#   From: 2010.05.17/outbox.cif.g08.bks.cpg/sg2_74_cif.got.tgz:147277.got - 2010.06.03 11:33:40.
