data_PCOD9054858
_publ_section_title
;
Structure prediction by ZEFSAII (Michael W. Deem and Ramdas Pophale) SiO2 
 PCOD9054858
Probable space group: P -1
;
_chemical_formula_sum "Si O2"
_cell_formula_units_Z 16
_cell_length_a 8.090314
_cell_length_b 12.181748
_cell_length_c 20.430442
_cell_angle_alpha 156.576886
_cell_angle_beta 104.962539
_cell_angle_gamma 75.254687
_cell_volume 772.453374
_symmetry_space_group_name_H-M "P -1"
_symmetry_group_IT_number 2
_symmetry_cell_setting 'triclinic'
loop_
_space_group_symop_operation_xyz
x,y,z
-x,-y,-z
loop_
_atom_site_type_symbol
_atom_site_label
_atom_site_fract_x
_atom_site_fract_y
_atom_site_fract_z
Si Si1 0.896513 0.431415 0.230154
Si Si2 0.022118 0.238899 0.995826
Si Si3 0.906493 0.802226 0.650903
Si Si4 0.298919 0.975077 0.460890
Si Si5 0.203450 0.746387 0.459356
Si Si6 0.344620 0.912678 0.890059
Si Si7 0.453350 0.441279 0.538337
Si Si8 0.030364 0.817580 0.254163
O O1 0.784400 0.242984 0.160645
O O2 0.074911 0.500542 0.321176
O O3 0.791387 0.723686 0.372972
O O4 0.941289 0.315790 0.099954
O O5 0.223973 0.159231 0.982441
O O6 0.998984 0.495548 0.083325
O O7 0.931524 0.973383 0.812970
O O8 0.711948 0.743959 0.581007
O O9 0.000000 0.500000 0.500000
O O10 0.987641 0.001156 0.713905
O O11 0.239860 0.773415 0.401313
O O12 0.222206 0.862747 0.324739
O O13 0.500000 0.000000 0.500000
O O14 0.379681 0.704999 0.492391
O O15 0.100429 0.023804 0.622834
O O16 0.407340 0.708323 0.725763
O O17 0.500000 0.000000 0.000000
O O18 0.500000 0.500000 0.500000
#
# Coordination Sequence:
#
# PCOD9054858 Si02
#       8
#     2   2   2   2   2   2   2   2
#     4  11  23  44  70 106 138 186 240 296 358 423
#     4  12  25  45  73 103 144 189 237 298 365 428
#     4  12  26  48  70 101 142 196 241 290 367 438
#     4  11  21  38  72 102 141 179 233 296 360 424
#     4  11  21  43  73  99 139 182 240 289 365 425
#     4  12  28  45  71 107 144 184 246 304 356 418
#     4  12  27  46  71 104 141 194 245 291 355 444
#     4  11  23  45  70 104 138 186 239 295 360 429
#
# _framework density 20.713225000000001
#
# number of rings (size 3 to 8) (size 9 to 14) (size 15 to 20)
#    0.000    0.500    3.750    6.000    5.250    0.000 
#    0.000    0.625    0.000    0.000    0.000    0.000 
#    0.000    0.000    0.000    0.000    0.000    0.000 
#
# Total GULP energy -89471.387909 kJ/mol
# GULP energy per Si atom -5591.961744 kJ/mol
# Density = 2.066608 g / cm^3
# Si number density = 20.713225 Si / 1000 Ang^3
#
#
#
# Elastic Constant Matrix: (Units=GPa)
#
#
# Indices 1 2 3 4 5 6 
#
# 1 109.6825 28.8658 45.7408 3.2263 10.9518 -12.0047
# 2 28.8658 98.1366 43.1034 14.0423 3.8933 -0.1700
# 3 45.7408 43.1034 145.0088 -6.0517 3.0741 -3.2652
# 4 3.2263 14.0423 -6.0517 35.8652 2.4057 6.2022
# 5 10.9518 3.8933 3.0741 2.4057 24.2116 -0.8760
# 6 -12.0047 -0.1700 -3.2652 6.2022 -0.8760 43.7144
#
#
#
# Elastic Compliance Matrix: (Units=1/GPa)
#
#
# Indices 1 2 3 4 5 6 
#
# 1 0.011648 -0.001755 -0.003037 -0.001104 -0.004381 0.003034
# 2 -0.001755 0.013075 -0.003557 -0.005556 -0.000302 0.000085
# 3 -0.003037 -0.003557 0.009024 0.003267 0.000453 -0.000628
# 4 -0.001104 -0.005556 0.003267 0.031664 -0.002335 -0.004620
# 5 -0.004381 -0.000302 0.000453 -0.002335 0.043509 0.000033
# 6 0.003034 0.000085 -0.000628 -0.004620 0.000033 0.024318
#
#
# Mechanical properties :
#
#
# Convention : Reuss Voigt Hill
#
# Bulk Modulus (GPa) = 58.65330 65.36087 62.00709
# Shear Modulus (GPa) = 32.12981 36.43278 34.28130
#
# Velocity S-wave (km/s) = 3.94277 4.19849 4.07264
# Velocity P-wave (km/s) = 7.00753 7.42474 7.21915
#
# Compressibility (1/GPa) = 0.01704934
#
# Stress axis : x y z
#
# Youngs Moduli (GPa) = 85.85361 76.47975 110.81599
#
# Poissons Ratio (x) = 0.13422 0.33658
# Poissons Ratio (y) = 0.15067 0.39413
# Poissons Ratio (z) = 0.26076 0.27201
#
# Static dielectric constant tensor:
#      x y z
#    x 1.715170 0.005640 0.003830 
#    y 0.005640 1.792330 -0.003490 
#    z 0.003830 -0.003490 1.759250 
# 
# From -- ./inp_files/589790.got.cif
#   From: 2010.05.17/outbox.cif.g08.bks.cpg/sg2_295_cif.got.tgz:589790.got - 2010.06.03 11:33:40.
