data_PCOD9054302
_publ_section_title
;
Structure prediction by ZEFSAII (Michael W. Deem and Ramdas Pophale) SiO2 
 PCOD9054302
Probable space group: P -1
;
_chemical_formula_sum "Si O2"
_cell_formula_units_Z 16
_cell_length_a 10.721177
_cell_length_b 8.382140
_cell_length_c 9.931505
_cell_angle_alpha 49.930592
_cell_angle_beta 118.664371
_cell_angle_gamma 111.450614
_cell_volume 597.142488
_symmetry_space_group_name_H-M "P -1"
_symmetry_group_IT_number 2
_symmetry_cell_setting 'triclinic'
loop_
_space_group_symop_operation_xyz
x,y,z
-x,-y,-z
loop_
_atom_site_type_symbol
_atom_site_label
_atom_site_fract_x
_atom_site_fract_y
_atom_site_fract_z
Si Si1 0.171220 0.279791 0.503853
Si Si2 0.289705 0.619904 0.159747
Si Si3 0.455635 0.266167 0.402275
Si Si4 0.164136 0.568634 0.575636
Si Si5 0.180209 0.052963 0.258776
Si Si6 0.082908 0.816384 0.771867
Si Si7 0.613363 0.007818 0.831700
Si Si8 0.596557 0.315253 0.174801
O O1 0.236034 0.463701 0.337067
O O2 0.223843 0.387261 0.613882
O O3 0.010324 0.255387 0.369108
O O4 0.179541 0.028888 0.663998
O O5 0.429516 0.509411 0.251000
O O6 0.312116 0.859398 0.084061
O O7 0.174077 0.633248 0.974304
O O8 0.297350 0.150583 0.372430
O O9 0.544785 0.192565 0.611266
O O10 0.538036 0.210703 0.341459
O O11 0.247069 0.594994 0.746082
O O12 0.000000 0.500000 0.500000
O O13 0.171949 0.803511 0.394451
O O14 0.030473 0.126323 0.198740
O O15 0.262603 0.097541 0.133598
O O16 0.472519 0.855554 0.872551
O O17 0.500000 0.500000 0.000000
#
# Coordination Sequence:
#
# PCOD9054302 Si02
#       8
#     2   2   2   2   2   2   2   2
#     4  11  24  44  67  98 147 189 228 292 353 414
#     4  12  25  44  70 105 140 187 240 285 348 427
#     4  11  22  45  71  94 140 188 229 278 350 419
#     4  12  23  42  72 103 135 185 235 287 355 427
#     4  11  20  42  70 100 133 178 235 285 343 421
#     4  11  26  44  66 106 145 185 237 291 351 417
#     4  11  23  44  73  99 135 189 232 285 353 416
#     4  11  25  45  69 106 144 174 233 299 352 416
#
# _framework density 26.794274000000001
#
# number of rings (size 3 to 8) (size 9 to 14) (size 15 to 20)
#    0.000    0.750    6.250    1.500    1.750    1.500 
#    4.500    0.625    0.000    0.000    0.000    0.000 
#    0.000    0.000    0.000    0.000    0.000    0.000 
#
# Total GULP energy -89204.865787 kJ/mol
# GULP energy per Si atom -5575.304112 kJ/mol
# Density = 2.673329 g / cm^3
# Si number density = 26.794274 Si / 1000 Ang^3
#
#
#
# Elastic Constant Matrix: (Units=GPa)
#
#
# Indices 1 2 3 4 5 6 
#
# 1 97.1661 49.5071 43.0140 8.4513 11.7903 9.4219
# 2 49.5071 156.3621 0.3178 3.5367 -5.8232 27.9286
# 3 43.0140 0.3178 82.9633 -10.1593 2.6520 12.0117
# 4 8.4513 3.5367 -10.1593 30.3668 -2.7869 4.8139
# 5 11.7903 -5.8232 2.6520 -2.7869 36.4238 -1.6085
# 6 9.4219 27.9286 12.0117 4.8139 -1.6085 34.8183
#
#
#
# Elastic Compliance Matrix: (Units=1/GPa)
#
#
# Indices 1 2 3 4 5 6 
#
# 1 0.021438 -0.007917 -0.013103 -0.011137 -0.007827 0.006247
# 2 -0.007917 0.010485 0.005776 0.004646 0.003788 -0.008728
# 3 -0.013103 0.005776 0.021641 0.012181 0.004077 -0.010049
# 4 -0.011137 0.004646 0.012181 0.041783 0.006198 -0.010406
# 5 -0.007827 0.003788 0.004077 0.006198 0.030693 -0.001766
# 6 0.006247 -0.008728 -0.010049 -0.010406 -0.001766 0.038855
#
#
# Mechanical properties :
#
#
# Convention : Reuss Voigt Hill
#
# Bulk Modulus (GPa) = 43.33267 58.01879 50.67573
# Shear Modulus (GPa) = 24.62143 36.56530 30.59337
#
# Velocity S-wave (km/s) = 3.03464 3.69815 3.38270
# Velocity P-wave (km/s) = 5.33724 6.31946 5.84900
#
# Compressibility (1/GPa) = 0.02307728
#
# Stress axis : x y z
#
# Youngs Moduli (GPa) = 46.64530 95.37272 46.20849
#
# Poissons Ratio (x) = 0.75503 0.60546
# Poissons Ratio (y) = 0.36927 -0.26689
# Poissons Ratio (z) = 0.61119 -0.55086
#
# Static dielectric constant tensor:
#      x y z
#    x 2.427210 -0.048330 0.062430 
#    y -0.048330 2.230650 0.038890 
#    z 0.062430 0.038890 2.065200 
# 
# From -- ./inp_files/419007.got.cif
#   From: 2010.05.17/outbox.cif.g08.bks.cpg/sg2_210_cif.got.tgz:419007.got - 2010.06.03 11:33:40.
