data_PCOD9054747
_publ_section_title
;
Structure prediction by ZEFSAII (Michael W. Deem and Ramdas Pophale) SiO2 
 PCOD9054747
Probable space group: P -1
;
_chemical_formula_sum "Si O2"
_cell_formula_units_Z 16
_cell_length_a 8.794345
_cell_length_b 16.385294
_cell_length_c 19.154633
_cell_angle_alpha 157.411873
_cell_angle_beta 46.719562
_cell_angle_gamma 133.662263
_cell_volume 755.368672
_symmetry_space_group_name_H-M "P -1"
_symmetry_group_IT_number 2
_symmetry_cell_setting 'triclinic'
loop_
_space_group_symop_operation_xyz
x,y,z
-x,-y,-z
loop_
_atom_site_type_symbol
_atom_site_label
_atom_site_fract_x
_atom_site_fract_y
_atom_site_fract_z
Si Si1 0.453564 0.097519 0.313267
Si Si2 0.029795 0.743552 0.032490
Si Si3 0.207993 0.180926 0.060696
Si Si4 0.136838 0.565648 0.285014
Si Si5 0.420980 0.376486 0.855559
Si Si6 0.799516 0.780477 0.640632
Si Si7 0.220663 0.666353 0.048687
Si Si8 0.751032 0.521339 0.589033
O O1 0.369134 0.190881 0.343172
O O2 0.583473 0.295049 0.473179
O O3 0.258564 0.914908 0.261239
O O4 0.621003 0.948036 0.124138
O O5 0.813146 0.757305 0.155263
O O6 0.207212 0.695075 0.992366
O O7 0.971607 0.552025 0.843751
O O8 0.115812 0.982966 0.164647
O O9 0.157430 0.362692 0.167563
O O10 0.284821 0.307660 0.207283
O O11 0.000000 0.000000 0.000000
O O12 0.371724 0.705281 0.301879
O O13 0.990748 0.703467 0.478967
O O14 0.500000 0.500000 0.000000
O O15 0.382280 0.545539 0.941755
O O16 0.720340 0.610868 0.592438
O O17 0.000000 0.500000 0.000000
O O18 0.000000 0.500000 0.500000
#
# Coordination Sequence:
#
# PCOD9054747 Si02
#       8
#     2   2   2   2   2   2   2   2
#     4  11  24  41  65  91 130 170 206 263 322 376
#     4   9  21  37  65  87 126 169 204 260 321 368
#     4  12  23  39  65  92 123 168 216 259 316 378
#     4  11  21  38  62  90 125 161 216 262 308 374
#     4   9  18  35  63  93 120 165 208 262 309 371
#     4  11  24  41  59  92 129 164 208 261 312 383
#     4   9  18  38  64  93 125 164 211 251 315 380
#     4  12  24  40  64  94 128 164 213 267 317 368
#
# _framework density 21.181709000000001
#
# number of rings (size 3 to 8) (size 9 to 14) (size 15 to 20)
#    0.000    1.500    3.750    1.125    0.000    3.000 
#    0.000    0.000    2.750   15.000    0.000    0.000 
#    0.000    0.000    0.000    0.000    0.000    0.000 
#
# Total GULP energy -89228.025459 kJ/mol
# GULP energy per Si atom -5576.751591 kJ/mol
# Density = 2.113350 g / cm^3
# Si number density = 21.181709 Si / 1000 Ang^3
#
#
#
# Elastic Constant Matrix: (Units=GPa)
#
#
# Indices 1 2 3 4 5 6 
#
# 1 82.0287 9.5088 20.6198 9.7170 -0.6384 5.3213
# 2 9.5088 63.7514 16.3552 23.0138 13.2459 10.1462
# 3 20.6198 16.3552 79.9509 9.7364 16.1855 4.5650
# 4 9.7170 23.0138 9.7364 32.0043 3.3228 12.9861
# 5 -0.6384 13.2459 16.1855 3.3228 32.9412 12.8396
# 6 5.3213 10.1462 4.5650 12.9861 12.8396 24.5904
#
#
#
# Elastic Compliance Matrix: (Units=1/GPa)
#
#
# Indices 1 2 3 4 5 6 
#
# 1 0.013642 -0.000803 -0.003755 -0.001568 0.003788 -0.003074
# 2 -0.000803 0.023398 -0.000926 -0.017171 -0.008969 0.004442
# 3 -0.003755 -0.000926 0.015698 -0.004130 -0.009010 0.005166
# 4 -0.001568 -0.017171 -0.004130 0.055448 0.014478 -0.028650
# 5 0.003788 -0.008969 -0.009010 0.014478 0.047972 -0.028140
# 6 -0.003074 0.004442 0.005166 -0.028650 -0.028140 0.068363
#
#
# Mechanical properties :
#
#
# Convention : Reuss Voigt Hill
#
# Bulk Modulus (GPa) = 23.94064 35.41095 29.67579
# Shear Modulus (GPa) = 20.04709 29.85699 24.95204
#
# Velocity S-wave (km/s) = 3.07975 3.75849 3.43592
# Velocity P-wave (km/s) = 4.89628 5.96565 5.45722
#
# Compressibility (1/GPa) = 0.04176998
#
# Stress axis : x y z
#
# Youngs Moduli (GPa) = 73.30072 42.73779 63.70421
#
# Poissons Ratio (x) = 0.03434 0.23918
# Poissons Ratio (y) = 0.05889 0.05900
# Poissons Ratio (z) = 0.27521 0.03958
#
# Static dielectric constant tensor:
#      x y z
#    x 1.806890 0.078880 0.006470 
#    y 0.078880 1.921310 0.022950 
#    z 0.006470 0.022950 1.739450 
# 
# From -- ./inp_files/591262.got.cif
#   From: 2010.05.17/outbox.cif.g08.bks.cpg/sg2_296_cif.got.tgz:591262.got - 2010.06.03 11:33:40.
