data_PCOD9054320
_publ_section_title
;
Structure prediction by ZEFSAII (Michael W. Deem and Ramdas Pophale) SiO2 
 PCOD9054320
Probable space group: P -1
;
_chemical_formula_sum "Si O2"
_cell_formula_units_Z 16
_cell_length_a 5.665062
_cell_length_b 16.504163
_cell_length_c 9.320379
_cell_angle_alpha 68.144838
_cell_angle_beta 114.673284
_cell_angle_gamma 114.983606
_cell_volume 697.166111
_symmetry_space_group_name_H-M "P -1"
_symmetry_group_IT_number 2
_symmetry_cell_setting 'triclinic'
loop_
_space_group_symop_operation_xyz
x,y,z
-x,-y,-z
loop_
_atom_site_type_symbol
_atom_site_label
_atom_site_fract_x
_atom_site_fract_y
_atom_site_fract_z
Si Si1 0.430606 0.892531 0.511028
Si Si2 0.560252 0.637799 0.664387
Si Si3 0.814398 0.048908 0.089604
Si Si4 0.599269 0.682145 0.304458
Si Si5 0.972185 0.878802 0.206222
Si Si6 0.027445 0.174807 0.316894
Si Si7 0.007384 0.416296 0.457177
Si Si8 0.247638 0.518824 0.160655
O O1 0.707616 0.863846 0.586616
O O2 0.263958 0.871965 0.333607
O O3 0.185955 0.842958 0.594054
O O4 0.500000 0.000000 0.500000
O O5 0.532067 0.654508 0.473235
O O6 0.827438 0.716055 0.732201
O O7 0.276387 0.648954 0.634128
O O8 0.547603 0.538324 0.792131
O O9 0.849696 0.122713 0.173497
O O10 0.928583 0.966269 0.216928
O O11 0.997850 0.098572 0.968934
O O12 0.500000 0.000000 0.000000
O O13 0.718926 0.789810 0.237943
O O14 0.376555 0.624113 0.173135
O O15 0.852371 0.642937 0.375442
O O16 0.000000 0.500000 0.500000
O O17 0.166600 0.464985 0.326186
O O18 0.000000 0.500000 0.000000
#
# Coordination Sequence:
#
# PCOD9054320 Si02
#       8
#     2   2   2   2   2   2   2   2
#     4  12  24  45  73 103 136 180 239 296 342 412
#     4  11  23  43  69  99 132 181 229 285 341 411
#     4  11  27  47  66  98 145 187 222 294 360 421
#     4  11  22  43  68  98 130 177 234 278 342 414
#     4  11  25  44  70  99 136 186 232 288 359 418
#     4  12  27  44  73 105 138 182 238 292 349 416
#     4  11  20  42  71  90 133 178 224 280 340 404
#     4  11  25  42  63 100 140 174 221 284 345 413
#
# _framework density 22.950054999999999
#
# number of rings (size 3 to 8) (size 9 to 14) (size 15 to 20)
#    0.000    0.750    5.000    2.625    5.250    3.500 
#    2.250    0.000    0.000    0.000    0.000    0.000 
#    0.000    0.000    0.000    0.000    0.000    0.000 
#
# Total GULP energy -89294.098681 kJ/mol
# GULP energy per Si atom -5580.881168 kJ/mol
# Density = 2.289782 g / cm^3
# Si number density = 22.950055 Si / 1000 Ang^3
#
#
#
# Elastic Constant Matrix: (Units=GPa)
#
#
# Indices 1 2 3 4 5 6 
#
# 1 55.8367 -5.9449 -2.5014 -1.2221 7.6183 4.8366
# 2 -5.9449 113.2795 30.0491 17.3849 -7.2553 17.4477
# 3 -2.5014 30.0491 67.7616 20.1969 11.5111 1.3357
# 4 -1.2221 17.3849 20.1969 32.8025 13.1303 1.6554
# 5 7.6183 -7.2553 11.5111 13.1303 22.4019 7.6397
# 6 4.8366 17.4477 1.3357 1.6554 7.6397 36.0115
#
#
#
# Elastic Compliance Matrix: (Units=1/GPa)
#
#
# Indices 1 2 3 4 5 6 
#
# 1 0.019367 -0.000497 0.001385 0.004012 -0.009621 -0.000555
# 2 -0.000497 0.014813 -0.006246 -0.010678 0.017909 -0.010187
# 3 0.001385 -0.006246 0.021018 -0.005019 -0.012002 0.004838
# 4 0.004012 -0.010678 -0.005019 0.053783 -0.037264 0.010254
# 5 -0.009621 0.017909 -0.012002 -0.037264 0.090015 -0.024323
# 6 -0.000555 -0.010187 0.004838 0.010254 -0.024323 0.037288
#
#
# Mechanical properties :
#
#
# Convention : Reuss Voigt Hill
#
# Bulk Modulus (GPa) = 22.48121 31.12038 26.80080
# Shear Modulus (GPa) = 19.09637 32.59483 25.84560
#
# Velocity S-wave (km/s) = 2.88772 3.77271 3.35948
# Velocity P-wave (km/s) = 4.57553 5.70677 5.17217
#
# Compressibility (1/GPa) = 0.04448159
#
# Stress axis : x y z
#
# Youngs Moduli (GPa) = 51.63415 67.50625 47.57790
#
# Poissons Ratio (x) = 0.03358 -0.06591
# Poissons Ratio (y) = 0.02569 0.29718
# Poissons Ratio (z) = -0.07153 0.42166
#
# Static dielectric constant tensor:
#      x y z
#    x 2.429390 -0.583430 0.038440 
#    y -0.583430 2.618400 -0.048630 
#    z 0.038440 -0.048630 1.855830 
# 
# From -- ./inp_files/39507.got.cif
#   From: 2010.05.17/outbox.cif.g08.bks.cpg/sg2_20_cif.got.tgz:39507.got - 2010.06.03 11:33:40.
