data_PCOD9054121
_publ_section_title
;
Structure prediction by ZEFSAII (Michael W. Deem and Ramdas Pophale) SiO2 
 PCOD9054121
Probable space group: P -1
;
_chemical_formula_sum "Si O2"
_cell_formula_units_Z 16
_cell_length_a 9.011332
_cell_length_b 10.345272
_cell_length_c 13.231949
_cell_angle_alpha 145.849556
_cell_angle_beta 77.917424
_cell_angle_gamma 91.450501
_cell_volume 652.086058
_symmetry_space_group_name_H-M "P -1"
_symmetry_group_IT_number 2
_symmetry_cell_setting 'triclinic'
loop_
_space_group_symop_operation_xyz
x,y,z
-x,-y,-z
loop_
_atom_site_type_symbol
_atom_site_label
_atom_site_fract_x
_atom_site_fract_y
_atom_site_fract_z
Si Si1 0.710890 0.979432 0.707980
Si Si2 0.848553 0.605871 0.298270
Si Si3 0.841226 0.588264 0.954368
Si Si4 0.010497 0.241341 0.209756
Si Si5 0.365917 0.217139 0.207131
Si Si6 0.066224 0.940055 0.700372
Si Si7 0.326677 0.618924 0.327841
Si Si8 0.367879 0.501080 0.893527
O O1 0.737920 0.853707 0.514530
O O2 0.643582 0.824572 0.698516
O O3 0.886826 0.993804 0.723247
O O4 0.607304 0.250775 0.908554
O O5 0.932800 0.463863 0.293168
O O6 0.743353 0.458527 0.163041
O O7 0.991375 0.615103 0.208667
O O8 0.746854 0.541637 0.840387
O O9 0.732637 0.584274 0.062657
O O10 0.892411 0.832050 0.109184
O O11 0.921299 0.253927 0.337492
O O12 0.192196 0.215045 0.191886
O O13 0.000000 0.000000 0.000000
O O14 0.393629 0.458221 0.312716
O O15 0.500000 0.000000 0.000000
O O16 0.188478 0.837071 0.527856
O O17 0.468243 0.670020 0.277415
#
# Coordination Sequence:
#
# PCOD9054121 Si02
#       8
#     2   2   2   2   2   2   2   2
#     4  11  23  42  71 100 132 171 216 272 333 390
#     4  12  23  43  68 101 131 173 223 271 325 395
#     4  12  25  45  70  94 131 181 227 265 323 391
#     4  11  20  40  69  99 131 170 213 270 334 395
#     4  11  21  40  69  99 132 168 213 273 337 391
#     4  11  23  42  73  98 129 176 219 266 331 399
#     4  12  25  46  67  98 135 174 216 275 336 384
#     4  12  28  44  65  99 137 172 226 278 314 383
#
# _framework density 24.536639999999998
#
# number of rings (size 3 to 8) (size 9 to 14) (size 15 to 20)
#    0.000    0.500    6.250    2.250    0.000    5.000 
#    2.250    1.250    0.000    0.000    0.000    0.000 
#    0.000    0.000    0.000    0.000    0.000    0.000 
#
# Total GULP energy -89605.763622 kJ/mol
# GULP energy per Si atom -5600.360226 kJ/mol
# Density = 2.448079 g / cm^3
# Si number density = 24.536640 Si / 1000 Ang^3
#
#
#
# Elastic Constant Matrix: (Units=GPa)
#
#
# Indices 1 2 3 4 5 6 
#
# 1 52.1597 31.4920 51.2650 -18.3808 -16.3755 8.0300
# 2 31.4920 89.9528 27.3131 -25.2862 -12.5161 17.1967
# 3 51.2650 27.3131 125.1877 -31.9486 -22.3175 19.2714
# 4 -18.3808 -25.2862 -31.9486 38.8718 14.2672 -16.6663
# 5 -16.3755 -12.5161 -22.3175 14.2672 42.4084 -3.2532
# 6 8.0300 17.1967 19.2714 -16.6663 -3.2532 20.2379
#
#
#
# Elastic Compliance Matrix: (Units=1/GPa)
#
#
# Indices 1 2 3 4 5 6 
#
# 1 0.040250 -0.010044 -0.014058 0.003180 0.004827 0.009345
# 2 -0.010044 0.016838 0.003148 0.004534 0.000493 -0.009507
# 3 -0.014058 0.003148 0.015702 0.004044 0.001756 -0.008436
# 4 0.003180 0.004534 0.004044 0.050403 -0.009888 0.030953
# 5 0.004827 0.000493 0.001756 -0.009888 0.029269 -0.007444
# 6 0.009345 -0.009507 -0.008436 0.030953 -0.007444 0.086110
#
#
# Mechanical properties :
#
#
# Convention : Reuss Voigt Hill
#
# Bulk Modulus (GPa) = 32.38117 54.16004 43.27060
# Shear Modulus (GPa) = 17.19555 30.78563 23.99059
#
# Velocity S-wave (km/s) = 2.65016 3.54599 3.13028
# Velocity P-wave (km/s) = 4.75291 6.23590 5.54421
#
# Compressibility (1/GPa) = 0.03088215
#
# Stress axis : x y z
#
# Youngs Moduli (GPa) = 24.84482 59.38923 63.68724
#
# Poissons Ratio (x) = 0.59650 0.89530
# Poissons Ratio (y) = 0.24954 -0.20048
# Poissons Ratio (z) = 0.34926 -0.18695
#
# Static dielectric constant tensor:
#      x y z
#    x 1.907910 -0.013690 -0.012660 
#    y -0.013690 1.989790 -0.011460 
#    z -0.012660 -0.011460 1.936990 
# 
# From -- ./inp_files/188024.got.cif
#   From: 2010.05.17/outbox.cif.g08.bks.cpg/sg2_95_cif.got.tgz:188024.got - 2010.06.03 11:33:40.
