data_PCOD9054107
_publ_section_title
;
Structure prediction by ZEFSAII (Michael W. Deem and Ramdas Pophale) SiO2 
 PCOD9054107
Probable space group: P -1
;
_chemical_formula_sum "Si O2"
_cell_formula_units_Z 16
_cell_length_a 9.404836
_cell_length_b 14.562261
_cell_length_c 9.504613
_cell_angle_alpha 92.006292
_cell_angle_beta 102.675258
_cell_angle_gamma 39.387446
_cell_volume 786.613791
_symmetry_space_group_name_H-M "P -1"
_symmetry_group_IT_number 2
_symmetry_cell_setting 'triclinic'
loop_
_space_group_symop_operation_xyz
x,y,z
-x,-y,-z
loop_
_atom_site_type_symbol
_atom_site_label
_atom_site_fract_x
_atom_site_fract_y
_atom_site_fract_z
Si Si1 0.031867 0.732045 0.387061
Si Si2 0.417417 0.294366 0.701942
Si Si3 0.989181 0.770724 0.886747
Si Si4 0.515547 0.953497 0.343166
Si Si5 0.014827 0.541342 0.853437
Si Si6 0.325152 0.634109 0.711454
Si Si7 0.250787 0.719352 0.191728
Si Si8 0.320821 0.412861 0.374429
O O1 0.754179 0.877591 0.328527
O O2 0.139278 0.682818 0.563864
O O3 0.157944 0.749900 0.329925
O O4 0.122567 0.591078 0.334083
O O5 0.445396 0.175006 0.661647
O O6 0.221337 0.406553 0.785232
O O7 0.653619 0.226075 0.805540
O O8 0.359527 0.373508 0.545422
O O9 0.045560 0.634382 0.888533
O O10 0.170957 0.731518 0.819055
O O11 0.723136 0.910044 0.784756
O O12 0.046134 0.785964 0.049722
O O13 0.500000 0.000000 0.500000
O O14 0.777702 0.628833 0.724799
O O15 0.000000 0.500000 0.000000
O O16 0.525115 0.460391 0.784585
O O17 0.459952 0.650890 0.664501
#
# Coordination Sequence:
#
# PCOD9054107 Si02
#       8
#     2   2   2   2   2   2   2   2
#     4  11  20  42  67  99 130 176 225 274 333 401
#     4  12  24  43  70  99 133 178 230 278 328 397
#     4  12  26  44  67  99 143 179 215 276 346 399
#     4  12  27  45  67  97 141 183 222 270 342 413
#     4  12  25  42  67 106 135 172 228 280 331 396
#     4  11  20  40  69 104 128 173 223 285 332 385
#     4  11  23  41  70  99 132 174 227 280 336 389
#     4  11  21  39  70 102 130 169 231 284 328 380
#
# _framework density 20.340349
#
# number of rings (size 3 to 8) (size 9 to 14) (size 15 to 20)
#    0.000    0.500    6.250    3.750    1.750    1.000 
#    0.000    3.750    0.000    0.000    0.000    0.000 
#    0.000    0.000    0.000    0.000    0.000    0.000 
#
# Total GULP energy -89399.451435 kJ/mol
# GULP energy per Si atom -5587.465715 kJ/mol
# Density = 2.029405 g / cm^3
# Si number density = 20.340349 Si / 1000 Ang^3
#
#
#
# Elastic Constant Matrix: (Units=GPa)
#
#
# Indices 1 2 3 4 5 6 
#
# 1 100.6913 32.5364 16.8152 5.3496 4.8290 0.1661
# 2 32.5364 65.3674 12.9370 -4.3551 -7.7369 -16.1167
# 3 16.8152 12.9370 87.7810 -7.2055 7.6590 -2.0641
# 4 5.3496 -4.3551 -7.2055 20.3287 -3.8964 13.1106
# 5 4.8290 -7.7369 7.6590 -3.8964 41.4875 2.6271
# 6 0.1661 -16.1167 -2.0641 13.1106 2.6271 27.6996
#
#
#
# Elastic Compliance Matrix: (Units=1/GPa)
#
#
# Indices 1 2 3 4 5 6 
#
# 1 0.012943 -0.007243 -0.001604 -0.004918 -0.002908 -0.001808
# 2 -0.007243 0.023174 -0.002261 -0.002023 0.004513 0.013888
# 3 -0.001604 -0.002261 0.012613 0.006029 -0.001804 -0.003049
# 4 -0.004918 -0.002023 0.006029 0.079033 0.008972 -0.038957
# 5 -0.002908 0.004513 -0.001804 0.008972 0.026730 -0.004273
# 6 -0.001808 0.013888 -0.003049 -0.038957 -0.004273 0.062810
#
#
# Mechanical properties :
#
#
# Convention : Reuss Voigt Hill
#
# Bulk Modulus (GPa) = 37.71552 42.04631 39.88092
# Shear Modulus (GPa) = 20.13221 30.67322 25.40272
#
# Velocity S-wave (km/s) = 3.14947 3.88751 3.53779
# Velocity P-wave (km/s) = 5.63986 6.39270 6.02804
#
# Compressibility (1/GPa) = 0.02651429
#
# Stress axis : x y z
#
# Youngs Moduli (GPa) = 77.25989 43.15159 79.28201
#
# Poissons Ratio (x) = 0.31253 0.12720
# Poissons Ratio (y) = 0.55956 0.17927
# Poissons Ratio (z) = 0.12396 0.09757
#
# Static dielectric constant tensor:
#      x y z
#    x 1.730540 0.001740 0.003190 
#    y 0.001740 1.713560 -0.011220 
#    z 0.003190 -0.011220 1.722080 
# 
# From -- ./inp_files/184415.got.cif
#   From: 2010.05.17/outbox.cif.g08.bks.cpg/sg2_93_cif.got.tgz:184415.got - 2010.06.03 11:33:40.
