data_PCOD9054099
_publ_section_title
;
Structure prediction by ZEFSAII (Michael W. Deem and Ramdas Pophale) SiO2 
 PCOD9054099
Probable space group: P -1
;
_chemical_formula_sum "Si O2"
_cell_formula_units_Z 15
_cell_length_a 7.985552
_cell_length_b 14.313695
_cell_length_c 10.579924
_cell_angle_alpha 149.048233
_cell_angle_beta 105.263320
_cell_angle_gamma 87.188002
_cell_volume 560.687676
_symmetry_space_group_name_H-M "P -1"
_symmetry_group_IT_number 2
_symmetry_cell_setting 'triclinic'
loop_
_space_group_symop_operation_xyz
x,y,z
-x,-y,-z
loop_
_atom_site_type_symbol
_atom_site_label
_atom_site_fract_x
_atom_site_fract_y
_atom_site_fract_z
Si Si1 0.364156 0.597451 0.389461
Si Si2 0.500000 0.000000 0.500000
Si Si3 0.784162 0.151128 0.533534
Si Si4 0.445395 0.340087 0.912469
Si Si5 0.943015 0.268101 0.200636
Si Si6 0.744436 0.888278 0.833085
Si Si7 0.882758 0.789449 0.478864
Si Si8 0.946616 0.386601 0.079191
O O1 0.304117 0.713241 0.400864
O O2 0.535242 0.761166 0.681370
O O3 0.166234 0.473584 0.263905
O O4 0.444737 0.444966 0.164364
O O5 0.617159 0.986182 0.377736
O O6 0.586881 0.231422 0.784975
O O7 0.908351 0.088156 0.383545
O O8 0.927459 0.276259 0.814118
O O9 0.245598 0.207748 0.662272
O O10 0.500000 0.500000 0.000000
O O11 0.116026 0.194458 0.162955
O O12 0.861527 0.242515 0.012995
O O13 0.000000 0.500000 0.500000
O O14 0.803542 0.122846 0.107765
O O15 0.785790 0.846040 0.645449
O O16 0.893822 0.578979 0.272188
#
# Coordination Sequence:
#
# PCOD9054099 Si02
#       8
#     2   1   2   2   2   2   2   2
#     4  11  22  43  67 103 143 175 221 287 340 407
#     4  12  26  34  58  96 144 186 226 252 324 420
#     4  11  23  39  65 109 139 180 220 268 350 414
#     4  12  21  39  60  96 142 176 210 273 337 405
#     4  11  26  48  71  95 129 184 239 286 336 402
#     4  11  25  45  74  98 132 180 234 287 342 390
#     4  11  20  40  68  98 139 176 216 277 336 409
#     4  11  22  41  74  99 138 187 224 271 348 413
#
# _framework density 26.752863000000001
#
# number of rings (size 3 to 8) (size 9 to 14) (size 15 to 20)
#    0.000    0.800    6.667    0.800    3.733    2.133 
#    0.000    0.667    0.000    0.000    0.000    0.000 
#    0.000    0.000    0.000    0.000    0.000    0.000 
#
# Total GULP energy -83646.699322 kJ/mol
# GULP energy per Si atom -5576.446621 kJ/mol
# Density = 2.669197 g / cm^3
# Si number density = 26.752863 Si / 1000 Ang^3
#
#
#
# Elastic Constant Matrix: (Units=GPa)
#
#
# Indices 1 2 3 4 5 6 
#
# 1 70.5094 6.0565 7.7527 -11.3195 4.6124 3.3400
# 2 6.0565 121.3616 4.4649 6.8613 -1.7602 -25.6957
# 3 7.7527 4.4649 96.6043 17.9778 -9.2897 -19.5637
# 4 -11.3195 6.8613 17.9778 28.3715 -3.8528 4.5330
# 5 4.6124 -1.7602 -9.2897 -3.8528 38.0983 -4.5629
# 6 3.3400 -25.6957 -19.5637 4.5330 -4.5629 37.3598
#
#
#
# Elastic Compliance Matrix: (Units=1/GPa)
#
#
# Indices 1 2 3 4 5 6 
#
# 1 0.017718 -0.003276 -0.005679 0.012384 -0.003475 -0.008738
# 2 -0.003276 0.011082 0.003658 -0.007754 0.002341 0.011057
# 3 -0.005679 0.003658 0.016928 -0.015479 0.005143 0.014394
# 4 0.012384 -0.007754 -0.015479 0.054951 -0.002654 -0.021537
# 5 -0.003475 0.002341 0.005143 -0.002654 0.028774 0.008450
# 6 -0.008738 0.011057 0.014394 -0.021537 0.008450 0.046336
#
#
# Mechanical properties :
#
#
# Convention : Reuss Voigt Hill
#
# Bulk Modulus (GPa) = 28.46166 36.11373 32.28769
# Shear Modulus (GPa) = 25.24047 38.77931 32.00989
#
# Velocity S-wave (km/s) = 3.07492 3.81141 3.46280
# Velocity P-wave (km/s) = 4.82376 5.73563 5.29935
#
# Compressibility (1/GPa) = 0.03513499
#
# Stress axis : x y z
#
# Youngs Moduli (GPa) = 56.44121 90.23469 59.07271
#
# Poissons Ratio (x) = 0.29559 0.33546
# Poissons Ratio (y) = 0.18489 -0.21609
# Poissons Ratio (z) = 0.32051 -0.33008
#
# Static dielectric constant tensor:
#      x y z
#    x 3.506820 -0.008020 1.764770 
#    y -0.008020 2.229980 0.228140 
#    z 1.764770 0.228140 4.620300 
# 
# From -- ./inp_files/400147.got.cif
#   From: 2010.05.17/outbox.cif.g08.bks.cpg/sg2_201_cif.got.tgz:400147.got - 2010.06.03 11:33:40.
