data_PCOD9054322
_publ_section_title
;
Structure prediction by ZEFSAII (Michael W. Deem and Ramdas Pophale) SiO2 
 PCOD9054322
Probable space group: P -1
;
_chemical_formula_sum "Si O2"
_cell_formula_units_Z 14
_cell_length_a 18.627027
_cell_length_b 16.375745
_cell_length_c 8.033099
_cell_angle_alpha 123.949997
_cell_angle_beta 136.985691
_cell_angle_gamma 23.107579
_cell_volume 593.523603
_symmetry_space_group_name_H-M "P -1"
_symmetry_group_IT_number 2
_symmetry_cell_setting 'triclinic'
loop_
_space_group_symop_operation_xyz
x,y,z
-x,-y,-z
loop_
_atom_site_type_symbol
_atom_site_label
_atom_site_fract_x
_atom_site_fract_y
_atom_site_fract_z
Si Si1 0.411266 0.919916 0.967285
Si Si2 0.047800 0.620303 0.138257
Si Si3 0.797633 0.713541 0.526008
Si Si4 0.555508 0.099703 0.368406
Si Si5 0.550850 0.338253 0.323760
Si Si6 0.795253 0.091342 0.793153
Si Si7 0.096931 0.786860 0.224759
O O1 0.522729 0.853714 0.901414
O O2 0.398981 0.812349 0.829717
O O3 0.585127 0.810998 0.285940
O O4 0.149877 0.195265 0.843482
O O5 0.318427 0.353112 0.335683
O O6 0.064366 0.715526 0.193022
O O7 0.924609 0.647733 0.831518
O O8 0.000000 0.500000 0.500000
O O9 0.654481 0.924870 0.437679
O O10 0.777631 0.990451 0.605467
O O11 0.591750 0.298415 0.550167
O O12 0.266050 0.610074 0.149512
O O13 0.744068 0.254672 0.486966
O O14 0.000000 0.000000 0.000000
O O15 0.834416 0.048419 0.009766
#
# Coordination Sequence:
#
# PCOD9054322 Si02
#       7
#     2   2   2   2   2   2   2
#     4  11  24  42  61  95 126 162 209 255 310 365
#     4  12  24  41  64  93 127 162 207 257 312 367
#     4  12  24  45  68  88 125 165 208 256 311 370
#     4  11  23  44  63  90 125 165 203 258 310 366
#     4   9  19  36  60  89 122 159 206 249 303 362
#     4   9  17  32  61  89 114 157 204 243 301 363
#     4  10  17  35  64  88 120 163 199 252 306 361
#
# _framework density 23.587942999999999
#
# number of rings (size 3 to 8) (size 9 to 14) (size 15 to 20)
#    0.000    1.429    5.714    0.857    0.000    1.143 
#    2.571    0.000    0.000    4.286    0.000    0.000 
#    0.000    0.000    0.000    0.000    0.000    0.000 
#
# Total GULP energy -77977.025588 kJ/mol
# GULP energy per Si atom -5569.787542 kJ/mol
# Density = 2.353426 g / cm^3
# Si number density = 23.587943 Si / 1000 Ang^3
#
#
#
# Elastic Constant Matrix: (Units=GPa)
#
#
# Indices 1 2 3 4 5 6 
#
# 1 30.0337 30.3248 25.4375 3.6943 5.1116 13.9679
# 2 30.3248 135.6693 29.5084 -2.7815 6.4798 8.1745
# 3 25.4375 29.5084 120.5677 -3.6194 22.9952 17.8567
# 4 3.6943 -2.7815 -3.6194 31.9398 8.6906 4.7954
# 5 5.1116 6.4798 22.9952 8.6906 23.9139 1.0367
# 6 13.9679 8.1745 17.8567 4.7954 1.0367 39.7143
#
#
#
# Elastic Compliance Matrix: (Units=1/GPa)
#
#
# Indices 1 2 3 4 5 6 
#
# 1 0.057728 -0.010532 -0.008014 -0.006788 0.001284 -0.013746
# 2 -0.010532 0.009755 -0.000112 0.002134 -0.001126 0.001518
# 3 -0.008014 -0.000112 0.013262 0.006558 -0.013238 -0.003568
# 4 -0.006788 0.002134 0.006558 0.039087 -0.019412 -0.005213
# 5 0.001284 -0.001126 -0.013238 -0.019412 0.061351 0.006475
# 6 -0.013746 0.001518 -0.003568 -0.005213 0.006475 0.031766
#
#
# Mechanical properties :
#
#
# Convention : Reuss Voigt Hill
#
# Bulk Modulus (GPa) = 23.02629 50.75690 36.89160
# Shear Modulus (GPa) = 18.88625 32.51361 25.69993
#
# Velocity S-wave (km/s) = 2.83269 3.71671 3.30439
# Velocity P-wave (km/s) = 4.52569 6.32324 5.49842
#
# Compressibility (1/GPa) = 0.04342861
#
# Stress axis : x y z
#
# Youngs Moduli (GPa) = 17.32272 102.50774 75.40127
#
# Poissons Ratio (x) = 1.07965 0.60430
# Poissons Ratio (y) = 0.18245 0.00841
# Poissons Ratio (z) = 0.13883 0.01143
#
# Static dielectric constant tensor:
#      x y z
#    x 1.936200 0.005400 -0.001570 
#    y 0.005400 1.904560 -0.053780 
#    z -0.001570 -0.053780 1.996490 
# 
# From -- ./inp_files/348620.got.cif
#   From: 2010.05.17/outbox.cif.g08.bks.cpg/sg2_175_cif.got.tgz:348620.got - 2010.06.03 11:33:40.
