data_PCOD9054029
_publ_section_title
;
Structure prediction by ZEFSAII (Michael W. Deem and Ramdas Pophale) SiO2 
 PCOD9054029
Probable space group: P -1
;
_chemical_formula_sum "Si O2"
_cell_formula_units_Z 15
_cell_length_a 14.612020
_cell_length_b 10.377578
_cell_length_c 7.566258
_cell_angle_alpha 122.553320
_cell_angle_beta 78.033666
_cell_angle_gamma 140.573983
_cell_volume 565.762010
_symmetry_space_group_name_H-M "P -1"
_symmetry_group_IT_number 2
_symmetry_cell_setting 'triclinic'
loop_
_space_group_symop_operation_xyz
x,y,z
-x,-y,-z
loop_
_atom_site_type_symbol
_atom_site_label
_atom_site_fract_x
_atom_site_fract_y
_atom_site_fract_z
Si Si1 0.819863 0.437749 0.311200
Si Si2 0.257847 0.737312 0.413453
Si Si3 0.060613 0.698438 0.977164
Si Si4 0.592893 0.191322 0.935744
Si Si5 0.165907 0.967957 0.669560
Si Si6 0.000000 0.000000 0.000000
Si Si7 0.562821 0.483696 0.213595
Si Si8 0.268141 0.256486 0.303726
O O1 0.723249 0.321138 0.447896
O O2 0.825373 0.260784 0.149780
O O3 0.758047 0.426873 0.145763
O O4 0.999053 0.719719 0.462341
O O5 0.235123 0.886342 0.572444
O O6 0.091673 0.458278 0.193250
O O7 0.623711 0.139978 0.704917
O O8 0.000000 0.500000 0.000000
O O9 0.163775 0.974801 0.204483
O O10 0.536212 0.286563 0.986559
O O11 0.500000 0.000000 0.000000
O O12 0.863783 0.801345 0.755832
O O13 0.108743 0.998073 0.879118
O O14 0.626654 0.538829 0.427916
O O15 0.403394 0.370100 0.203963
O O16 0.702220 0.756782 0.269129
#
# Coordination Sequence:
#
# PCOD9054029 Si02
#       8
#     2   2   2   2   2   1   2   2
#     4  11  23  44  73 110 148 200 262 316 377 464
#     4  11  25  46  76 111 151 202 261 319 384 455
#     4  11  20  39  76 105 140 197 253 313 373 453
#     4  12  28  47  75 109 155 206 260 316 392 470
#     4  11  26  46  76 113 151 200 256 320 387 461
#     4  12  26  46  74 106 150 190 260 308 372 458
#     4  11  28  46  75 111 156 200 248 322 397 452
#     4  11  25  47  74 107 152 196 250 313 387 457
#
# _framework density 26.512915
#
# number of rings (size 3 to 8) (size 9 to 14) (size 15 to 20)
#    0.000    0.800    1.333    6.400    7.467    2.133 
#    0.000    0.000    0.000    0.000    0.000    0.000 
#    0.000    0.000    0.000    0.000    0.000    0.000 
#
# Total GULP energy -83647.183941 kJ/mol
# GULP energy per Si atom -5576.478929 kJ/mol
# Density = 2.645257 g / cm^3
# Si number density = 26.512915 Si / 1000 Ang^3
#
#
#
# Elastic Constant Matrix: (Units=GPa)
#
#
# Indices 1 2 3 4 5 6 
#
# 1 151.2495 73.2785 70.4170 -2.6563 -20.3864 35.6719
# 2 73.2785 152.3944 23.8236 -14.8486 -21.3202 17.7777
# 3 70.4170 23.8236 97.6985 -17.1088 4.6271 10.7772
# 4 -2.6563 -14.8486 -17.1088 50.7807 2.2168 -7.3536
# 5 -20.3864 -21.3202 4.6271 2.2168 72.3167 -0.3632
# 6 35.6719 17.7777 10.7772 -7.3536 -0.3632 21.7703
#
#
#
# Elastic Compliance Matrix: (Units=1/GPa)
#
#
# Indices 1 2 3 4 5 6 
#
# 1 0.024311 -0.005884 -0.014738 -0.010185 0.006218 -0.031071
# 2 -0.005884 0.009230 0.002319 0.003446 0.000819 0.002133
# 3 -0.014738 0.002319 0.020472 0.009216 -0.004987 0.015151
# 4 -0.010185 0.003446 0.009216 0.026024 -0.003152 0.018051
# 5 0.006218 0.000819 -0.004987 -0.003152 0.016192 -0.009183
# 6 -0.031071 0.002133 0.015151 0.018051 -0.009183 0.093547
#
#
# Mechanical properties :
#
#
# Convention : Reuss Voigt Hill
#
# Bulk Modulus (GPa) = 57.44736 81.82007 69.63371
# Shear Modulus (GPa) = 21.53461 44.56175 33.04818
#
# Velocity S-wave (km/s) = 2.85306 4.10415 3.53440
# Velocity P-wave (km/s) = 5.70684 7.30659 6.55569
#
# Compressibility (1/GPa) = 0.01740724
#
# Stress axis : x y z
#
# Youngs Moduli (GPa) = 41.13318 108.34149 48.84811
#
# Poissons Ratio (x) = 0.63747 0.71994
# Poissons Ratio (y) = 0.24202 -0.11330
# Poissons Ratio (z) = 0.60624 -0.25129
#
# Static dielectric constant tensor:
#      x y z
#    x 2.117990 0.022750 -0.011340 
#    y 0.022750 2.040720 0.077570 
#    z -0.011340 0.077570 1.936490 
# 
# From -- ./inp_files/310807.got.cif
#   From: 2010.05.17/outbox.cif.g08.bks.cpg/sg2_156_cif.got.tgz:310807.got - 2010.06.03 11:33:40.
