data_PCOD9054023
_publ_section_title
;
Structure prediction by ZEFSAII (Michael W. Deem and Ramdas Pophale) SiO2 
 PCOD9054023
Probable space group: P -1
;
_chemical_formula_sum "Si O2"
_cell_formula_units_Z 14
_cell_length_a 9.483843
_cell_length_b 7.030503
_cell_length_c 12.696727
_cell_angle_alpha 107.464867
_cell_angle_beta 113.394470
_cell_angle_gamma 106.897983
_cell_volume 654.933774
_symmetry_space_group_name_H-M "P -1"
_symmetry_group_IT_number 2
_symmetry_cell_setting 'triclinic'
loop_
_space_group_symop_operation_xyz
x,y,z
-x,-y,-z
loop_
_atom_site_type_symbol
_atom_site_label
_atom_site_fract_x
_atom_site_fract_y
_atom_site_fract_z
Si Si1 0.529253 0.322191 0.222595
Si Si2 0.828540 0.772180 0.898789
Si Si3 0.762520 0.322075 0.691325
Si Si4 0.429553 0.177532 0.710107
Si Si5 0.071794 0.401306 0.912961
Si Si6 0.814293 0.308101 0.456763
Si Si7 0.431285 0.687009 0.999768
O O1 0.332403 0.198450 0.184559
O O2 0.573752 0.585670 0.265827
O O3 0.668894 0.319621 0.341823
O O4 0.516062 0.218249 0.085886
O O5 0.831970 0.579362 0.795278
O O6 0.814696 0.687840 0.001491
O O7 0.000000 0.000000 0.000000
O O8 0.572358 0.187019 0.667505
O O9 0.777668 0.334601 0.572638
O O10 0.902592 0.249780 0.768766
O O11 0.502719 0.177810 0.849131
O O12 0.241448 0.959775 0.609935
O O13 0.222218 0.585250 0.917730
O O14 0.000000 0.500000 0.000000
O O15 0.000000 0.500000 0.500000
O O16 0.500000 0.500000 0.000000
#
# Coordination Sequence:
#
# PCOD9054023 Si02
#       7
#     2   2   2   2   2   2   2
#     4  10  23  42  65  92 131 161 209 268 317 384
#     4  10  21  36  62 100 122 155 208 266 327 372
#     4  10  22  42  60  91 128 166 212 256 314 390
#     4  10  22  42  66  90 121 172 213 257 327 372
#     4  10  17  35  63  87 124 153 207 260 308 375
#     4  12  27  43  59  92 129 172 218 257 313 388
#     4  10  17  37  63  92 122 159 208 262 322 376
#
# _framework density 21.376207000000001
#
# number of rings (size 3 to 8) (size 9 to 14) (size 15 to 20)
#    0.000    1.714    5.714    1.286    2.000    4.571 
#    2.571    0.000    0.000    0.000    0.000    0.000 
#    0.000    0.000    0.000    0.000    0.000    0.000 
#
# Total GULP energy -77967.604519 kJ/mol
# GULP energy per Si atom -5569.114608 kJ/mol
# Density = 2.132755 g / cm^3
# Si number density = 21.376207 Si / 1000 Ang^3
#
#
#
# Elastic Constant Matrix: (Units=GPa)
#
#
# Indices 1 2 3 4 5 6 
#
# 1 85.2787 26.2796 44.8975 1.5179 8.4599 19.1344
# 2 26.2796 74.0920 43.9676 20.2696 -5.6008 15.5349
# 3 44.8975 43.9676 130.9473 -16.7105 -0.4609 11.4077
# 4 1.5179 20.2696 -16.7105 49.1038 8.0405 7.7675
# 5 8.4599 -5.6008 -0.4609 8.0405 37.4681 -7.1842
# 6 19.1344 15.5349 11.4077 7.7675 -7.1842 22.9740
#
#
#
# Elastic Compliance Matrix: (Units=1/GPa)
#
#
# Indices 1 2 3 4 5 6 
#
# 1 0.018843 -0.002532 -0.003896 0.002976 -0.008321 -0.015655
# 2 -0.002532 0.024502 -0.008746 -0.013484 0.006334 -0.003577
# 3 -0.003896 -0.008746 0.013106 0.008737 -0.002340 -0.001035
# 4 0.002976 -0.013484 0.008737 0.032762 -0.012014 -0.012533
# 5 -0.008321 0.006334 -0.002340 -0.012014 0.035715 0.019039
# 6 -0.015655 -0.003577 -0.001035 -0.012533 0.019039 0.069690
#
#
# Mechanical properties :
#
#
# Convention : Reuss Voigt Hill
#
# Bulk Modulus (GPa) = 38.30900 57.84527 48.07713
# Shear Modulus (GPa) = 21.39793 33.58740 27.49266
#
# Velocity S-wave (km/s) = 3.16732 3.96820 3.59016
# Velocity P-wave (km/s) = 5.59786 6.93649 6.30281
#
# Compressibility (1/GPa) = 0.02610353
#
# Stress axis : x y z
#
# Youngs Moduli (GPa) = 53.07026 40.81262 76.30138
#
# Poissons Ratio (x) = 0.10334 0.29728
# Poissons Ratio (y) = 0.13437 0.66730
# Poissons Ratio (z) = 0.20677 0.35693
#
# Static dielectric constant tensor:
#      x y z
#    x 2.226870 0.421190 -0.022870 
#    y 0.421190 2.500310 -0.031480 
#    z -0.022870 -0.031480 1.769720 
# 
# From -- ./inp_files/277897.got.cif
#   From: 2010.05.17/outbox.cif.g08.bks.cpg/sg2_139_cif.got.tgz:277897.got - 2010.06.03 11:33:40.
