data_PCOD9054048
_publ_section_title
;
Structure prediction by ZEFSAII (Michael W. Deem and Ramdas Pophale) SiO2 
 PCOD9054048
Probable space group: P -1
;
_chemical_formula_sum "Si O2"
_cell_formula_units_Z 16
_cell_length_a 14.204558
_cell_length_b 12.236804
_cell_length_c 8.578141
_cell_angle_alpha 68.447855
_cell_angle_beta 33.317659
_cell_angle_gamma 65.075840
_cell_volume 742.376420
_symmetry_space_group_name_H-M "P -1"
_symmetry_group_IT_number 2
_symmetry_cell_setting 'triclinic'
loop_
_space_group_symop_operation_xyz
x,y,z
-x,-y,-z
loop_
_atom_site_type_symbol
_atom_site_label
_atom_site_fract_x
_atom_site_fract_y
_atom_site_fract_z
Si Si1 0.374637 0.783036 0.390498
Si Si2 0.818723 0.996639 0.662222
Si Si3 0.797448 0.733153 0.774117
Si Si4 0.004860 0.654902 0.228373
Si Si5 0.150852 0.892966 0.915874
Si Si6 0.164002 0.317605 0.897906
Si Si7 0.672333 0.963950 0.183189
Si Si8 0.302619 0.535606 0.701578
O O1 0.252490 0.883851 0.399707
O O2 0.326678 0.845255 0.593467
O O3 0.295476 0.663193 0.559186
O O4 0.584406 0.749612 0.082686
O O5 0.832343 0.867778 0.628650
O O6 0.000000 0.000000 0.500000
O O7 0.661081 0.993949 0.002882
O O8 0.874922 0.655505 0.554019
O O9 0.890438 0.688563 0.837489
O O10 0.936899 0.654512 0.142848
O O11 0.072140 0.776506 0.096158
O O12 0.181880 0.552331 0.015558
O O13 0.203454 0.953111 0.965489
O O14 0.000000 0.000000 0.000000
O O15 0.255363 0.177882 0.822360
O O16 0.262861 0.427030 0.712694
O O17 0.500000 0.000000 0.500000
O O18 0.500000 0.500000 0.500000
#
# Coordination Sequence:
#
# PCOD9054048 Si02
#       8
#     2   2   2   2   2   2   2   2
#     4  11  24  43  71  96 143 185 223 294 350 407
#     4  11  24  40  66 105 141 174 222 291 350 413
#     4  11  24  44  69 107 137 178 235 288 358 414
#     4  11  25  42  75  98 136 187 233 287 347 422
#     4  11  20  40  65 102 136 177 225 277 353 411
#     4  11  24  46  71  99 143 184 234 286 347 415
#     4  11  24  38  68 104 135 177 225 282 349 416
#     4  11  25  49  72  96 138 189 235 286 350 410
#
# _framework density 21.552408
#
# number of rings (size 3 to 8) (size 9 to 14) (size 15 to 20)
#    0.000    1.000    2.500    4.500    8.750    0.500 
#    0.000    0.625    2.750    0.000    0.000    0.000 
#    0.000    0.000    0.000    0.000    0.000    0.000 
#
# Total GULP energy -89120.151403 kJ/mol
# GULP energy per Si atom -5570.009463 kJ/mol
# Density = 2.150335 g / cm^3
# Si number density = 21.552408 Si / 1000 Ang^3
#
#
#
# Elastic Constant Matrix: (Units=GPa)
#
#
# Indices 1 2 3 4 5 6 
#
# 1 98.2362 41.0907 58.8874 8.1973 14.4361 12.1471
# 2 41.0907 110.5625 38.6220 -19.3583 -2.9547 27.5589
# 3 58.8874 38.6220 148.1977 21.4759 8.9104 13.5830
# 4 8.1973 -19.3583 21.4759 40.7307 8.7385 3.0746
# 5 14.4361 -2.9547 8.9104 8.7385 18.6572 -12.0173
# 6 12.1471 27.5589 13.5830 3.0746 -12.0173 39.6846
#
#
#
# Elastic Compliance Matrix: (Units=1/GPa)
#
#
# Indices 1 2 3 4 5 6 
#
# 1 0.017607 -0.003484 -0.004674 0.001369 -0.016815 -0.006569
# 2 -0.003484 0.016651 -0.003225 0.012816 -0.007230 -0.012576
# 3 -0.004674 -0.003225 0.010131 -0.006510 0.002201 0.001374
# 4 0.001369 0.012816 -0.006510 0.040983 -0.026993 -0.018440
# 5 -0.016815 -0.007230 0.002201 -0.026993 0.104934 0.043282
# 6 -0.006569 -0.012576 0.001374 -0.018440 0.043282 0.050007
#
#
# Mechanical properties :
#
#
# Convention : Reuss Voigt Hill
#
# Bulk Modulus (GPa) = 46.24497 70.46629 58.35563
# Shear Modulus (GPa) = 18.49888 34.37427 26.43658
#
# Velocity S-wave (km/s) = 2.93289 3.99797 3.50611
# Velocity P-wave (km/s) = 5.74219 7.35378 6.59737
#
# Compressibility (1/GPa) = 0.02162398
#
# Stress axis : x y z
#
# Youngs Moduli (GPa) = 56.79399 60.05535 98.71177
#
# Poissons Ratio (x) = 0.20921 0.46136
# Poissons Ratio (y) = 0.19785 0.31836
# Poissons Ratio (z) = 0.26545 0.19369
#
# Static dielectric constant tensor:
#      x y z
#    x 1.733150 -0.125670 0.000770 
#    y -0.125670 1.734960 0.030830 
#    z 0.000770 0.030830 1.850870 
# 
# From -- ./inp_files/306875.got.cif
#   From: 2010.05.17/outbox.cif.g08.bks.cpg/sg2_154_cif.got.tgz:306875.got - 2010.06.03 11:33:40.
