data_PCOD9054892
_publ_section_title
;
Structure prediction by ZEFSAII (Michael W. Deem and Ramdas Pophale) SiO2 
 PCOD9054892
Probable space group: P -1
;
_chemical_formula_sum "Si O2"
_cell_formula_units_Z 16
_cell_length_a 9.251612
_cell_length_b 15.237226
_cell_length_c 15.409402
_cell_angle_alpha 28.870433
_cell_angle_beta 67.070346
_cell_angle_gamma 87.328954
_cell_volume 723.602425
_symmetry_space_group_name_H-M "P -1"
_symmetry_group_IT_number 2
_symmetry_cell_setting 'triclinic'
loop_
_space_group_symop_operation_xyz
x,y,z
-x,-y,-z
loop_
_atom_site_type_symbol
_atom_site_label
_atom_site_fract_x
_atom_site_fract_y
_atom_site_fract_z
Si Si1 0.156018 0.923813 0.977086
Si Si2 0.143861 0.537428 0.355057
Si Si3 0.285677 0.262867 0.791070
Si Si4 0.576967 0.718588 0.077145
Si Si5 0.660867 0.790863 0.484052
Si Si6 0.962159 0.746864 0.719338
Si Si7 0.006195 0.174459 0.548346
Si Si8 0.341254 0.778864 0.662906
O O1 0.250760 0.040246 0.948109
O O2 0.259430 0.127926 0.703479
O O3 0.183704 0.737910 0.109029
O O4 0.910301 0.775607 0.165005
O O5 0.377946 0.659049 0.221598
O O6 0.000000 0.500000 0.500000
O O7 0.043225 0.309391 0.513534
O O8 0.500000 0.500000 0.500000
O O9 0.293926 0.275996 0.880345
O O10 0.472623 0.496127 0.230067
O O11 0.756175 0.970474 0.771624
O O12 0.501028 0.826797 0.511540
O O13 0.864101 0.914430 0.389839
O O14 0.913135 0.680974 0.685483
O O15 0.171150 0.795228 0.655685
O O16 0.781181 0.494419 0.032834
O O17 0.000000 0.000000 0.500000
O O18 0.500000 0.000000 0.500000
#
# Coordination Sequence:
#
# PCOD9054892 Si02
#       8
#     2   2   2   2   2   2   2   2
#     4  11  24  38  63  93 133 168 231 279 325 398
#     4  11  26  42  61  98 139 178 227 281 333 398
#     4  11  21  39  63  90 126 181 222 275 333 387
#     4  11  23  42  65  94 133 179 227 271 341 399
#     4  11  24  43  66 101 131 174 224 282 336 409
#     4  11  26  50  75 109 141 180 231 287 355 423
#     4  11  25  44  69  97 138 180 223 278 344 410
#     4  11  27  47  77 106 141 178 229 289 354 424
#
# _framework density 22.11159
#
# number of rings (size 3 to 8) (size 9 to 14) (size 15 to 20)
#    0.000    1.000    2.500    3.000    7.000    8.000 
#    0.000    0.000    0.000    0.000    0.000    0.000 
#    0.000    0.000    0.000    0.000    0.000    0.000 
#
# Total GULP energy -89207.671832 kJ/mol
# GULP energy per Si atom -5575.479490 kJ/mol
# Density = 2.206126 g / cm^3
# Si number density = 22.111590 Si / 1000 Ang^3
#
#
#
# Elastic Constant Matrix: (Units=GPa)
#
#
# Indices 1 2 3 4 5 6 
#
# 1 97.5714 34.2789 46.0037 -0.4111 -15.2152 -13.1851
# 2 34.2789 64.6972 23.5400 11.0182 -11.7158 -7.7075
# 3 46.0037 23.5400 103.8176 -3.3803 -11.9992 -5.9350
# 4 -0.4111 11.0182 -3.3803 32.2541 1.7151 5.4441
# 5 -15.2152 -11.7158 -11.9992 1.7151 41.7876 0.9204
# 6 -13.1851 -7.7075 -5.9350 5.4441 0.9204 30.1413
#
#
#
# Elastic Compliance Matrix: (Units=1/GPa)
#
#
# Indices 1 2 3 4 5 6 
#
# 1 0.015560 -0.005566 -0.005079 0.000728 0.002525 0.004175
# 2 -0.005566 0.021816 -0.002089 -0.008647 0.003753 0.004180
# 3 -0.005079 -0.002089 0.012509 0.002019 0.001089 -0.000691
# 4 0.000728 -0.008647 0.002019 0.035656 -0.002870 -0.007848
# 5 0.002525 0.003753 0.001089 -0.002870 0.026289 0.001994
# 6 0.004175 0.004180 -0.000691 -0.007848 0.001994 0.037292
#
#
# Mechanical properties :
#
#
# Convention : Reuss Voigt Hill
#
# Bulk Modulus (GPa) = 40.95506 52.63684 46.79595
# Shear Modulus (GPa) = 27.36319 31.65419 29.50869
#
# Velocity S-wave (km/s) = 3.52163 3.78771 3.65709
# Velocity P-wave (km/s) = 5.92436 6.55635 6.24835
#
# Compressibility (1/GPa) = 0.02441701
#
# Stress axis : x y z
#
# Youngs Moduli (GPa) = 64.26863 45.83815 79.94517
#
# Poissons Ratio (x) = 0.25512 0.40601
# Poissons Ratio (y) = 0.35770 0.16702
# Poissons Ratio (z) = 0.32640 0.09576
#
# Static dielectric constant tensor:
#      x y z
#    x 1.831610 -0.057790 0.050780 
#    y -0.057790 1.857910 -0.046770 
#    z 0.050780 -0.046770 1.968020 
# 
# From -- ./inp_files/282974.got.cif
#   From: 2010.05.17/outbox.cif.g08.bks.cpg/sg2_142_cif.got.tgz:282974.got - 2010.06.03 11:33:40.
