data_PCOD9054525
_publ_section_title
;
Structure prediction by ZEFSAII (Michael W. Deem and Ramdas Pophale) SiO2 
 PCOD9054525
Probable space group: P -1
;
_chemical_formula_sum "Si O2"
_cell_formula_units_Z 16
_cell_length_a 8.875456
_cell_length_b 9.126787
_cell_length_c 14.848987
_cell_angle_alpha 108.053617
_cell_angle_beta 139.244725
_cell_angle_gamma 81.457601
_cell_volume 739.347719
_symmetry_space_group_name_H-M "P -1"
_symmetry_group_IT_number 2
_symmetry_cell_setting 'triclinic'
loop_
_space_group_symop_operation_xyz
x,y,z
-x,-y,-z
loop_
_atom_site_type_symbol
_atom_site_label
_atom_site_fract_x
_atom_site_fract_y
_atom_site_fract_z
Si Si1 0.209269 0.531997 0.342216
Si Si2 0.442891 0.609696 0.632089
Si Si3 0.627082 0.494421 0.226302
Si Si4 0.526834 0.802759 0.144836
Si Si5 0.917956 0.606160 0.063637
Si Si6 0.177895 0.086308 0.878655
Si Si7 0.895021 0.264095 0.192515
Si Si8 0.280797 0.063543 0.120112
O O1 0.268957 0.634893 0.476590
O O2 0.421697 0.527466 0.370264
O O3 0.998947 0.561254 0.189584
O O4 0.149783 0.351647 0.307853
O O5 0.322413 0.534563 0.652391
O O6 0.621236 0.765556 0.765556
O O7 0.629301 0.667713 0.220628
O O8 0.783044 0.386326 0.225142
O O9 0.358844 0.421221 0.074435
O O10 0.692143 0.851794 0.142172
O O11 0.456404 0.940986 0.202519
O O12 0.271738 0.749774 0.973782
O O13 0.990362 0.793513 0.136569
O O14 0.000000 0.500000 0.000000
O O15 0.089370 0.904557 0.792027
O O16 0.330046 0.079218 0.037206
O O17 0.000000 0.000000 0.000000
#
# Coordination Sequence:
#
# PCOD9054525 Si02
#       8
#     2   2   2   2   2   2   2   2
#     4  11  24  40  63  89 130 166 209 254 322 379
#     4  11  23  43  60  91 129 171 201 257 320 382
#     4  12  22  38  65  93 127 159 221 259 308 368
#     4  11  21  35  60  95 123 158 210 270 309 356
#     4  12  22  38  65  97 124 164 214 269 307 370
#     4  11  22  37  62  95 128 159 209 269 314 360
#     4  11  21  38  62  95 124 164 208 266 312 371
#     4  11  22  37  63  94 128 164 210 261 315 373
#
# _framework density 21.640698
#
# number of rings (size 3 to 8) (size 9 to 14) (size 15 to 20)
#    0.000    0.750    5.000    4.875    1.750    0.500 
#    0.000    1.250    0.000    6.750    0.000    0.000 
#    0.000    0.000    0.000    0.000    0.000    0.000 
#
# Total GULP energy -89088.628304 kJ/mol
# GULP energy per Si atom -5568.039269 kJ/mol
# Density = 2.159144 g / cm^3
# Si number density = 21.640698 Si / 1000 Ang^3
#
#
#
# Elastic Constant Matrix: (Units=GPa)
#
#
# Indices 1 2 3 4 5 6 
#
# 1 93.4780 47.3924 18.9503 -0.0234 -22.7268 -14.2577
# 2 47.3924 160.4542 19.5592 11.0430 -15.2600 -10.2804
# 3 18.9503 19.5592 59.4675 7.6361 -24.6125 9.5565
# 4 -0.0234 11.0430 7.6361 14.1092 3.8239 2.9555
# 5 -22.7268 -15.2600 -24.6125 3.8239 26.0814 0.0315
# 6 -14.2577 -10.2804 9.5565 2.9555 0.0315 28.8117
#
#
#
# Elastic Compliance Matrix: (Units=1/GPa)
#
#
# Indices 1 2 3 4 5 6 
#
# 1 0.016505 -0.002964 0.000657 -0.003241 0.013735 0.007210
# 2 -0.002964 0.008102 0.000645 -0.008199 0.003966 0.002047
# 3 0.000657 0.000645 0.039943 -0.031881 0.043329 -0.009470
# 4 -0.003241 -0.008199 -0.031881 0.110229 -0.053861 -0.005203
# 5 0.013735 0.003966 0.043329 -0.053861 0.101416 -0.000746
# 6 0.007210 0.002047 -0.009470 -0.005203 -0.000746 0.042682
#
#
# Mechanical properties :
#
#
# Convention : Reuss Voigt Hill
#
# Bulk Modulus (GPa) = 16.33268 53.91151 35.12209
# Shear Modulus (GPa) = 14.59389 28.96697 21.78043
#
# Velocity S-wave (km/s) = 2.59969 3.66258 3.17591
# Velocity P-wave (km/s) = 4.07121 6.54615 5.45100
#
# Compressibility (1/GPa) = 0.06122695
#
# Stress axis : x y z
#
# Youngs Moduli (GPa) = 60.58671 123.43125 25.03570
#
# Poissons Ratio (x) = 0.36584 -0.01646
# Poissons Ratio (y) = 0.17957 -0.01615
# Poissons Ratio (z) = -0.03983 -0.07961
#
# Static dielectric constant tensor:
#      x y z
#    x 1.955970 0.020470 0.014280 
#    y 0.020470 1.961130 0.001860 
#    z 0.014280 0.001860 1.828150 
# 
# From -- ./inp_files/392348.got.cif
#   From: 2010.05.17/outbox.cif.g08.bks.cpg/sg2_197_cif.got.tgz:392348.got - 2010.06.03 11:33:40.
