data_PCOD9054081
_publ_section_title
;
Structure prediction by ZEFSAII (Michael W. Deem and Ramdas Pophale) SiO2 
 PCOD9054081
Probable space group: P -1
;
_chemical_formula_sum "Si O2"
_cell_formula_units_Z 16
_cell_length_a 14.807924
_cell_length_b 9.010888
_cell_length_c 14.469200
_cell_angle_alpha 148.532160
_cell_angle_beta 137.413088
_cell_angle_gamma 47.396834
_cell_volume 675.438318
_symmetry_space_group_name_H-M "P -1"
_symmetry_group_IT_number 2
_symmetry_cell_setting 'triclinic'
loop_
_space_group_symop_operation_xyz
x,y,z
-x,-y,-z
loop_
_atom_site_type_symbol
_atom_site_label
_atom_site_fract_x
_atom_site_fract_y
_atom_site_fract_z
Si Si1 0.624489 0.623878 0.548014
Si Si2 0.812537 0.519506 0.461013
Si Si3 0.509548 0.167106 0.850199
Si Si4 0.413838 0.185615 0.114275
Si Si5 0.054803 0.873428 0.877665
Si Si6 0.995269 0.979019 0.372950
Si Si7 0.768516 0.668625 0.301594
Si Si8 0.837992 0.601775 0.862329
O O1 0.709234 0.619203 0.516529
O O2 0.511272 0.414223 0.342297
O O3 0.730172 0.545340 0.669920
O O4 0.556131 0.947771 0.687918
O O5 0.746652 0.590595 0.350020
O O6 0.940920 0.696662 0.656879
O O7 0.864160 0.184974 0.345903
O O8 0.354404 0.147129 0.743418
O O9 0.594858 0.055076 0.942453
O O10 0.500000 0.500000 0.000000
O O11 0.258895 0.354534 0.095370
O O12 0.500000 0.000000 0.000000
O O13 0.183437 0.637704 0.870785
O O14 0.099397 0.115740 0.973812
O O15 0.000000 0.000000 0.000000
O O16 0.039394 0.660597 0.196877
O O17 0.113164 0.144699 0.514088
O O18 0.000000 0.000000 0.500000
#
# Coordination Sequence:
#
# PCOD9054081 Si02
#       8
#     2   2   2   2   2   2   2   2
#     4  11  22  44  71  97 140 187 226 278 354 409
#     4  11  25  42  68  98 139 183 224 277 345 409
#     4  11  25  45  70 102 131 183 233 280 345 412
#     4  11  26  46  71 105 138 181 232 292 347 405
#     4  11  21  41  66  99 134 179 221 279 346 402
#     4  11  20  40  67  99 124 178 227 270 338 408
#     4  11  24  44  63  93 139 176 228 277 332 411
#     4  11  21  42  72 101 137 177 228 287 344 408
#
# _framework density 23.688321999999999
#
# number of rings (size 3 to 8) (size 9 to 14) (size 15 to 20)
#    0.000    1.000    2.500    6.750    3.500    0.500 
#    2.250    3.750    0.000    0.000    0.000    0.000 
#    0.000    0.000    0.000    0.000    0.000    0.000 
#
# Total GULP energy -89403.377444 kJ/mol
# GULP energy per Si atom -5587.711090 kJ/mol
# Density = 2.363441 g / cm^3
# Si number density = 23.688322 Si / 1000 Ang^3
#
#
#
# Elastic Constant Matrix: (Units=GPa)
#
#
# Indices 1 2 3 4 5 6 
#
# 1 148.9024 24.2699 52.9449 21.5523 -22.4290 -8.5660
# 2 24.2699 79.5899 30.2458 29.7871 -7.9961 -14.8493
# 3 52.9449 30.2458 136.1608 31.4686 -5.4724 -5.2553
# 4 21.5523 29.7871 31.4686 44.4527 -6.7752 -8.3773
# 5 -22.4290 -7.9961 -5.4724 -6.7752 54.3210 6.7709
# 6 -8.5660 -14.8493 -5.2553 -8.3773 6.7709 39.6633
#
#
#
# Elastic Compliance Matrix: (Units=1/GPa)
#
#
# Indices 1 2 3 4 5 6 
#
# 1 0.008430 -0.000735 -0.002716 -0.001146 0.002900 0.000449
# 2 -0.000735 0.017749 -0.001206 -0.009829 0.000441 0.004175
# 3 -0.002716 -0.001206 0.009776 -0.005051 -0.000862 -0.000663
# 4 -0.001146 -0.009829 -0.005051 0.033877 0.001510 0.002301
# 5 0.002900 0.000441 -0.000862 0.001510 0.020076 -0.002431
# 6 0.000449 0.004175 -0.000663 0.002301 -0.002431 0.027685
#
#
# Mechanical properties :
#
#
# Convention : Reuss Voigt Hill
#
# Bulk Modulus (GPa) = 37.53785 64.39714 50.96750
# Shear Modulus (GPa) = 36.82254 44.83355 40.82805
#
# Velocity S-wave (km/s) = 3.94694 4.35517 4.15607
# Velocity P-wave (km/s) = 6.05410 7.24805 6.67781
#
# Compressibility (1/GPa) = 0.02663977
#
# Stress axis : x y z
#
# Youngs Moduli (GPa) = 118.62794 56.34212 102.29616
#
# Poissons Ratio (x) = 0.04139 0.27784
# Poissons Ratio (y) = 0.08714 0.12342
# Poissons Ratio (z) = 0.32220 0.06798
#
# Static dielectric constant tensor:
#      x y z
#    x 1.931630 -0.077080 -0.001000 
#    y -0.077080 1.979700 -0.019770 
#    z -0.001000 -0.019770 1.987330 
# 
# From -- ./inp_files/285172.got.cif
#   From: 2010.05.17/outbox.cif.g08.bks.cpg/sg2_143_cif.got.tgz:285172.got - 2010.06.03 11:33:40.
