data_PCOD9054443
_publ_section_title
;
Structure prediction by ZEFSAII (Michael W. Deem and Ramdas Pophale) SiO2 
 PCOD9054443
Probable space group: P -1
;
_chemical_formula_sum "Si O2"
_cell_formula_units_Z 12
_cell_length_a 16.988893
_cell_length_b 10.968657
_cell_length_c 8.130900
_cell_angle_alpha 129.122477
_cell_angle_beta 113.243215
_cell_angle_gamma 29.356980
_cell_volume 526.026615
_symmetry_space_group_name_H-M "P -1"
_symmetry_group_IT_number 2
_symmetry_cell_setting 'triclinic'
loop_
_space_group_symop_operation_xyz
x,y,z
-x,-y,-z
loop_
_atom_site_type_symbol
_atom_site_label
_atom_site_fract_x
_atom_site_fract_y
_atom_site_fract_z
Si Si1 0.845044 0.285267 0.989913
Si Si2 0.500125 0.807498 0.337655
Si Si3 0.933685 0.895991 0.488936
Si Si4 0.612462 0.193771 0.438728
Si Si5 0.865574 0.667077 0.672638
Si Si6 0.909020 0.485878 0.036350
O O1 0.879186 0.150847 0.726866
O O2 0.672646 0.492457 0.107831
O O3 0.840360 0.477134 0.111553
O O4 0.000000 0.000000 0.000000
O O5 0.495468 0.730485 0.447611
O O6 0.500000 0.000000 0.500000
O O7 0.332192 0.006564 0.272212
O O8 0.096641 0.574289 0.457316
O O9 0.766515 0.053512 0.525004
O O10 0.995249 0.761041 0.240834
O O11 0.500000 0.500000 0.500000
O O12 0.735131 0.865957 0.169140
O O13 0.000000 0.500000 0.500000
O O14 0.939422 0.649300 0.871843
#
# Coordination Sequence:
#
# PCOD9054443 Si02
#       6
#     2   2   2   2   2   2
#     4  12  27  46  74 113 148 194 251 309 369 444
#     4  12  24  47  79 110 147 193 253 313 368 433
#     4  11  25  45  72 108 150 197 242 305 378 441
#     4  11  25  46  75 112 147 193 250 303 375 444
#     4  11  20  45  77 104 142 196 250 303 368 436
#     4  11  24  49  75 104 156 196 240 311 375 439
#
# _framework density 22.812532999999998
#
# number of rings (size 3 to 8) (size 9 to 14) (size 15 to 20)
#    0.000    0.667    5.000    4.500    2.333    3.333 
#    6.000    1.667    0.000    0.000    0.000    0.000 
#    0.000    0.000    0.000    0.000    0.000    0.000 
#
# Total GULP energy -66992.522349 kJ/mol
# GULP energy per Si atom -5582.710196 kJ/mol
# Density = 2.276061 g / cm^3
# Si number density = 22.812533 Si / 1000 Ang^3
#
#
#
# Elastic Constant Matrix: (Units=GPa)
#
#
# Indices 1 2 3 4 5 6 
#
# 1 159.3287 49.0733 58.9948 13.7840 -26.1549 15.0665
# 2 49.0733 125.2666 51.9160 27.8581 -19.3194 0.2228
# 3 58.9948 51.9160 148.6855 -0.0064 -19.9892 -6.1589
# 4 13.7840 27.8581 -0.0064 25.1637 -2.0903 -4.9216
# 5 -26.1549 -19.3194 -19.9892 -2.0903 39.7145 4.6724
# 6 15.0665 0.2228 -6.1589 -4.9216 4.6724 39.3657
#
#
#
# Elastic Compliance Matrix: (Units=1/GPa)
#
#
# Indices 1 2 3 4 5 6 
#
# 1 0.009283 -0.000457 -0.003114 -0.005219 0.004667 -0.005244
# 2 -0.000457 0.014001 -0.004311 -0.015512 0.003874 -0.002978
# 3 -0.003114 -0.004311 0.009708 0.007234 0.000701 0.003556
# 4 -0.005219 -0.015512 0.007234 0.061581 -0.005461 0.011564
# 5 0.004667 0.003874 0.000701 -0.005461 0.030915 -0.006050
# 6 -0.005244 -0.002978 0.003556 0.011564 -0.006050 0.030147
#
#
# Mechanical properties :
#
#
# Convention : Reuss Voigt Hill
#
# Bulk Modulus (GPa) = 58.03874 83.69433 70.86654
# Shear Modulus (GPa) = 28.22607 39.06855 33.64731
#
# Velocity S-wave (km/s) = 3.52135 4.14284 3.84467
# Velocity P-wave (km/s) = 6.48306 7.72345 7.13028
#
# Compressibility (1/GPa) = 0.01722987
#
# Stress axis : x y z
#
# Youngs Moduli (GPa) = 107.71887 71.42436 103.00596
#
# Poissons Ratio (x) = 0.03261 0.32077
# Poissons Ratio (y) = 0.04918 0.44402
# Poissons Ratio (z) = 0.33545 0.30788
#
# Static dielectric constant tensor:
#      x y z
#    x 1.888690 0.075790 0.033540 
#    y 0.075790 1.851970 0.002970 
#    z 0.033540 0.002970 1.928910 
# 
# From -- ./inp_files/330423.got.cif
#   From: 2010.05.17/outbox.cif.g08.bks.cpg/sg2_166_cif.got.tgz:330423.got - 2010.06.03 11:33:40.
