data_PCOD9054519
_publ_section_title
;
Structure prediction by ZEFSAII (Michael W. Deem and Ramdas Pophale) SiO2 
 PCOD9054519
Probable space group: P -1
;
_chemical_formula_sum "Si O2"
_cell_formula_units_Z 16
_cell_length_a 10.546591
_cell_length_b 11.553592
_cell_length_c 20.679564
_cell_angle_alpha 141.248327
_cell_angle_beta 153.824542
_cell_angle_gamma 38.878820
_cell_volume 666.995180
_symmetry_space_group_name_H-M "P -1"
_symmetry_group_IT_number 2
_symmetry_cell_setting 'triclinic'
loop_
_space_group_symop_operation_xyz
x,y,z
-x,-y,-z
loop_
_atom_site_type_symbol
_atom_site_label
_atom_site_fract_x
_atom_site_fract_y
_atom_site_fract_z
Si Si1 0.426768 0.990761 0.069021
Si Si2 0.443934 0.293423 0.877181
Si Si3 0.582897 0.935900 0.707833
Si Si4 0.084567 0.474525 0.338049
Si Si5 0.314086 0.771456 0.622475
Si Si6 0.322526 0.099457 0.532766
Si Si7 0.757095 0.490700 0.330070
Si Si8 0.120990 0.937620 0.788069
O O1 0.496808 0.819274 0.077685
O O2 0.440637 0.180417 0.197385
O O3 0.704602 0.951968 0.129449
O O4 0.140944 0.003251 0.899159
O O5 0.105623 0.358920 0.723199
O O6 0.629528 0.135444 0.841497
O O7 0.500000 0.500000 0.000000
O O8 0.832399 0.735088 0.746465
O O9 0.324225 0.902152 0.621699
O O10 0.508901 0.946728 0.602819
O O11 0.354413 0.552936 0.522991
O O12 0.890083 0.461589 0.306350
O O13 0.999109 0.829374 0.542664
O O14 0.443460 0.288142 0.664859
O O15 0.198907 0.047007 0.384612
O O16 0.688549 0.290290 0.225982
O O17 0.000000 0.500000 0.500000
#
# Coordination Sequence:
#
# PCOD9054519 Si02
#       8
#     2   2   2   2   2   2   2   2
#     4   9  19  31  57  86 110 154 197 233 291 349
#     4  11  23  39  61  87 121 154 190 241 306 357
#     4  11  21  35  59  92 119 151 194 243 296 351
#     4  11  22  36  60  92 116 152 196 246 297 346
#     4   9  18  34  54  85 119 151 188 238 292 349
#     4   9  17  31  58  83 116 153 194 238 292 347
#     4   9  17  33  56  81 112 153 193 237 287 344
#     4   9  17  32  54  85 110 150 203 237 278 349
#
# _framework density 23.988178000000001
#
# number of rings (size 3 to 8) (size 9 to 14) (size 15 to 20)
#    0.000    2.250    2.500    2.250    3.500    0.500 
#    0.000    2.500    0.000    0.750   19.500    0.000 
#    0.000    0.000    0.000    0.000    0.000    0.000 
#
# Total GULP energy -89246.280869 kJ/mol
# GULP energy per Si atom -5577.892554 kJ/mol
# Density = 2.393358 g / cm^3
# Si number density = 23.988178 Si / 1000 Ang^3
#
#
#
# Elastic Constant Matrix: (Units=GPa)
#
#
# Indices 1 2 3 4 5 6 
#
# 1 57.8281 38.5617 35.6909 -5.7634 -21.7302 25.3065
# 2 38.5617 110.1196 54.2238 8.6373 -17.4218 12.2171
# 3 35.6909 54.2238 155.4304 10.2433 -17.6200 7.5594
# 4 -5.7634 8.6373 10.2433 50.4494 5.3478 -12.8805
# 5 -21.7302 -17.4218 -17.6200 5.3478 34.8339 0.7292
# 6 25.3065 12.2171 7.5594 -12.8805 0.7292 45.1391
#
#
#
# Elastic Compliance Matrix: (Units=1/GPa)
#
#
# Indices 1 2 3 4 5 6 
#
# 1 0.041223 -0.006903 -0.003565 -0.001053 0.021067 -0.021286
# 2 -0.006903 0.013263 -0.002709 -0.002667 0.001368 -0.000049
# 3 -0.003565 -0.002709 0.008350 -0.001502 0.000857 0.000891
# 4 -0.001053 -0.002667 -0.001502 0.023274 -0.006498 0.008310
# 5 0.021067 0.001368 0.000857 -0.006498 0.044277 -0.014894
# 6 -0.021286 -0.000049 0.000891 0.008310 -0.014894 0.036564
#
#
# Mechanical properties :
#
#
# Convention : Reuss Voigt Hill
#
# Bulk Modulus (GPa) = 27.40983 64.48121 45.94552
# Shear Modulus (GPa) = 24.33520 39.07792 31.70656
#
# Velocity S-wave (km/s) = 3.18852 4.04053 3.63954
# Velocity P-wave (km/s) = 5.00068 6.97901 6.07097
#
# Compressibility (1/GPa) = 0.03648326
#
# Stress axis : x y z
#
# Youngs Moduli (GPa) = 24.25852 75.39737 119.75840
#
# Poissons Ratio (x) = 0.52046 0.42691
# Poissons Ratio (y) = 0.16745 0.32439
# Poissons Ratio (z) = 0.08647 0.20423
#
# Static dielectric constant tensor:
#      x y z
#    x 2.010220 -0.046290 0.007570 
#    y -0.046290 1.919390 -0.009120 
#    z 0.007570 -0.009120 2.018650 
# 
# From -- ./inp_files/611994.got.cif
#   From: 2010.05.17/outbox.cif.g08.bks.cpg/sg2_306_cif.got.tgz:611994.got - 2010.06.03 11:33:40.
