data_PCOD9054382
_publ_section_title
;
Structure prediction by ZEFSAII (Michael W. Deem and Ramdas Pophale) SiO2 
 PCOD9054382
Probable space group: P -1
;
_chemical_formula_sum "Si O2"
_cell_formula_units_Z 16
_cell_length_a 20.922067
_cell_length_b 9.478763
_cell_length_c 17.323189
_cell_angle_alpha 149.053001
_cell_angle_beta 150.495161
_cell_angle_gamma 28.341091
_cell_volume 738.919776
_symmetry_space_group_name_H-M "P -1"
_symmetry_group_IT_number 2
_symmetry_cell_setting 'triclinic'
loop_
_space_group_symop_operation_xyz
x,y,z
-x,-y,-z
loop_
_atom_site_type_symbol
_atom_site_label
_atom_site_fract_x
_atom_site_fract_y
_atom_site_fract_z
Si Si1 0.255916 0.193560 0.732960
Si Si2 0.372331 0.642727 0.097613
Si Si3 0.977726 0.328186 0.598544
Si Si4 0.540985 0.953338 0.709047
Si Si5 0.945617 0.816041 0.912768
Si Si6 0.231509 0.620729 0.210202
Si Si7 0.194285 0.260487 0.532484
Si Si8 0.497509 0.454051 0.645628
O O1 0.158579 0.355071 0.628706
O O2 0.141005 0.274522 0.720840
O O3 0.356053 0.810824 0.647072
O O4 0.364770 0.329396 0.926078
O O5 0.476175 0.585210 0.254221
O O6 0.426051 0.767945 0.142199
O O7 0.200967 0.926394 0.072927
O O8 0.906932 0.599727 0.717498
O O9 0.878537 0.464677 0.480314
O O10 0.000000 0.000000 0.500000
O O11 0.669957 0.660432 0.757375
O O12 0.531376 0.801754 0.546437
O O13 0.377637 0.093017 0.642059
O O14 0.091540 0.605490 0.021675
O O15 0.000000 0.000000 0.000000
O O16 0.350062 0.587069 0.252629
O O17 0.166240 0.975406 0.344844
#
# Coordination Sequence:
#
# PCOD9054382 Si02
#       8
#     2   2   2   2   2   2   2   2
#     4  12  24  43  65  96 134 175 209 264 334 378
#     4  12  26  40  66  99 130 172 218 265 325 376
#     4  12  28  43  68 100 126 169 220 269 325 378
#     4  11  24  41  68 101 124 174 218 266 317 379
#     4  12  22  45  67  89 128 171 215 264 317 387
#     4  11  20  43  72  92 127 177 218 258 322 386
#     4  11  22  45  68  93 138 170 212 266 322 390
#     4  11  21  42  67  93 129 172 218 266 318 386
#
# _framework density 21.653231999999999
#
# number of rings (size 3 to 8) (size 9 to 14) (size 15 to 20)
#    0.000    0.500    6.250    2.625    3.500    2.000 
#    0.000    0.000    0.000    0.000    0.000    0.000 
#    0.000    0.000    0.000    0.000    0.000    0.000 
#
# Total GULP energy -89569.742456 kJ/mol
# GULP energy per Si atom -5598.108903 kJ/mol
# Density = 2.160395 g / cm^3
# Si number density = 21.653232 Si / 1000 Ang^3
#
#
#
# Elastic Constant Matrix: (Units=GPa)
#
#
# Indices 1 2 3 4 5 6 
#
# 1 45.4427 5.8333 12.7312 6.5237 -3.9849 19.1012
# 2 5.8333 75.1917 13.3846 -13.1755 4.4178 31.8605
# 3 12.7312 13.3846 44.3793 2.2337 4.0327 18.4086
# 4 6.5237 -13.1755 2.2337 38.7131 5.7460 -3.8218
# 5 -3.9849 4.4178 4.0327 5.7460 20.4155 1.7230
# 6 19.1012 31.8605 18.4086 -3.8218 1.7230 45.5651
#
#
#
# Elastic Compliance Matrix: (Units=1/GPa)
#
#
# Indices 1 2 3 4 5 6 
#
# 1 0.030426 0.002457 -0.004313 -0.006773 0.009317 -0.013651
# 2 0.002457 0.020681 -0.000837 0.005873 -0.004260 -0.014499
# 3 -0.004313 -0.000837 0.028263 -0.001312 -0.005120 -0.008942
# 4 -0.006773 0.005873 -0.001312 0.030940 -0.011235 0.002282
# 5 0.009317 -0.004260 -0.005120 -0.011235 0.056058 -0.001921
# 6 -0.013651 -0.014499 -0.008942 0.002282 -0.001921 0.041684
#
#
# Mechanical properties :
#
#
# Convention : Reuss Voigt Hill
#
# Bulk Modulus (GPa) = 13.51615 25.43467 19.47541
# Shear Modulus (GPa) = 20.99985 29.80972 25.40478
#
# Velocity S-wave (km/s) = 3.11758 3.71440 3.42900
# Velocity P-wave (km/s) = 4.38346 5.49250 4.96902
#
# Compressibility (1/GPa) = 0.07398559
#
# Stress axis : x y z
#
# Youngs Moduli (GPa) = 32.86678 48.35433 35.38214
#
# Poissons Ratio (x) = -0.11883 0.15260
# Poissons Ratio (y) = -0.08077 0.02960
# Poissons Ratio (z) = 0.14175 0.04045
#
# Static dielectric constant tensor:
#      x y z
#    x 1.790840 0.004720 -0.008120 
#    y 0.004720 1.782140 -0.028150 
#    z -0.008120 -0.028150 1.767460 
# 
# From -- ./inp_files/206500.got.cif
#   From: 2010.05.17/outbox.cif.g08.bks.cpg/sg2_104_cif.got.tgz:206500.got - 2010.06.03 11:33:40.
