data_PCOD9054634
_publ_section_title
;
Structure prediction by ZEFSAII (Michael W. Deem and Ramdas Pophale) SiO2 
 PCOD9054634
Probable space group: P -1
;
_chemical_formula_sum "Si O2"
_cell_formula_units_Z 16
_cell_length_a 8.300326
_cell_length_b 13.756340
_cell_length_c 12.609840
_cell_angle_alpha 133.131613
_cell_angle_beta 144.364766
_cell_angle_gamma 48.274701
_cell_volume 591.389596
_symmetry_space_group_name_H-M "P -1"
_symmetry_group_IT_number 2
_symmetry_cell_setting 'triclinic'
loop_
_space_group_symop_operation_xyz
x,y,z
-x,-y,-z
loop_
_atom_site_type_symbol
_atom_site_label
_atom_site_fract_x
_atom_site_fract_y
_atom_site_fract_z
Si Si1 0.784277 0.173167 0.591042
Si Si2 0.400250 0.555301 0.192446
Si Si3 0.872782 0.952623 0.123589
Si Si4 0.762351 0.295030 0.111457
Si Si5 0.709071 0.712233 0.305789
Si Si6 0.742659 0.912074 0.659114
Si Si7 0.420124 0.804127 0.720931
Si Si8 0.918224 0.550889 0.772174
O O1 0.653644 0.337378 0.661165
O O2 0.547935 0.095129 0.444770
O O3 0.812060 0.155268 0.467194
O O4 0.041711 0.126169 0.777310
O O5 0.621430 0.407330 0.210201
O O6 0.546183 0.630386 0.236673
O O7 0.104482 0.542794 0.973303
O O8 0.713647 0.110952 0.183301
O O9 0.672689 0.882505 0.897158
O O10 0.163572 0.950308 0.216480
O O11 0.927743 0.369774 0.171688
O O12 0.000766 0.172280 0.194761
O O13 0.490631 0.259653 0.883731
O O14 0.748012 0.835014 0.491280
O O15 0.005086 0.603779 0.348747
O O16 0.602630 0.645620 0.697287
#
# Coordination Sequence:
#
# PCOD9054634 Si02
#       8
#     2   2   2   2   2   2   2   2
#     4  11  21  37  62  85 105 147 193 233 270 320
#     4   8  16  30  57  87 116 133 179 242 265 322
#     4  11  26  42  51  82 117 148 190 228 276 322
#     4   9  17  32  54  91 115 139 177 223 288 328
#     4   8  18  30  55  86 118 140 170 236 279 323
#     4  11  22  35  59  86 118 142 174 234 285 334
#     4  11  23  40  62  75 107 158 192 228 263 330
#     4   9  15  34  57  84 110 143 188 222 273 324
#
# _framework density 27.054921
#
# number of rings (size 3 to 8) (size 9 to 14) (size 15 to 20)
#    0.000    2.250    2.500    2.250    1.750    3.000 
#    0.000    0.625    0.000    1.500    0.000    0.000 
#    0.000    0.000    0.000    0.000    0.000    0.000 
#
# Total GULP energy -89564.919037 kJ/mol
# GULP energy per Si atom -5597.807440 kJ/mol
# Density = 2.699334 g / cm^3
# Si number density = 27.054921 Si / 1000 Ang^3
#
#
#
# Elastic Constant Matrix: (Units=GPa)
#
#
# Indices 1 2 3 4 5 6 
#
# 1 65.1441 20.4350 25.4549 9.9650 -3.9001 -8.6110
# 2 20.4350 82.9626 4.0144 -18.3022 -6.9352 -21.7870
# 3 25.4549 4.0144 77.3906 -20.6415 3.3573 6.5106
# 4 9.9650 -18.3022 -20.6415 39.9727 -8.3244 -3.4439
# 5 -3.9001 -6.9352 3.3573 -8.3244 39.2977 3.0431
# 6 -8.6110 -21.7870 6.5106 -3.4439 3.0431 38.8780
#
#
#
# Elastic Compliance Matrix: (Units=1/GPa)
#
#
# Indices 1 2 3 4 5 6 
#
# 1 0.026188 -0.009637 -0.012900 -0.017897 -0.001878 0.001122
# 2 -0.009637 0.020794 0.005498 0.016641 0.005019 0.009679
# 3 -0.012900 0.005498 0.021513 0.017005 0.001609 -0.001999
# 4 -0.017897 0.016641 0.017005 0.048377 0.009487 0.006057
# 5 -0.001878 0.005019 0.001609 0.009487 0.027958 0.000779
# 6 0.001122 0.009679 -0.001999 0.006057 0.000779 0.032204
#
#
# Mechanical properties :
#
#
# Convention : Reuss Voigt Hill
#
# Bulk Modulus (GPa) = 29.05569 36.14513 32.60041
# Shear Modulus (GPa) = 22.46345 35.33588 28.89967
#
# Velocity S-wave (km/s) = 2.88460 3.61789 3.27186
# Velocity P-wave (km/s) = 4.67519 5.55348 5.13315
#
# Compressibility (1/GPa) = 0.03441667
#
# Stress axis : x y z
#
# Youngs Moduli (GPa) = 38.18603 48.09104 46.48319
#
# Poissons Ratio (x) = 0.46344 0.59963
# Poissons Ratio (y) = 0.36799 -0.25554
# Poissons Ratio (z) = 0.49259 -0.26438
#
# Static dielectric constant tensor:
#      x y z
#    x 2.095640 -0.010090 0.026580 
#    y -0.010090 2.145310 0.029820 
#    z 0.026580 0.029820 2.056560 
# 
# From -- ./inp_files/280249.got.cif
#   From: 2010.05.17/outbox.cif.g08.bks.cpg/sg2_141_cif.got.tgz:280249.got - 2010.06.03 11:33:40.
