data_PCOD9054015
_publ_section_title
;
Structure prediction by ZEFSAII (Michael W. Deem and Ramdas Pophale) SiO2 
 PCOD9054015
Probable space group: P -1
;
_chemical_formula_sum "Si O2"
_cell_formula_units_Z 16
_cell_length_a 14.074972
_cell_length_b 12.790174
_cell_length_c 8.221686
_cell_angle_alpha 127.805064
_cell_angle_beta 106.173083
_cell_angle_gamma 115.216527
_cell_volume 693.715907
_symmetry_space_group_name_H-M "P -1"
_symmetry_group_IT_number 2
_symmetry_cell_setting 'triclinic'
loop_
_space_group_symop_operation_xyz
x,y,z
-x,-y,-z
loop_
_atom_site_type_symbol
_atom_site_label
_atom_site_fract_x
_atom_site_fract_y
_atom_site_fract_z
Si Si1 0.907458 0.781593 0.819638
Si Si2 0.456945 0.629824 0.778431
Si Si3 0.536080 0.102378 0.791043
Si Si4 0.565224 0.645324 0.324787
Si Si5 0.918074 0.537236 0.411594
Si Si6 0.601341 0.297845 0.529772
Si Si7 0.928133 0.704809 0.245161
Si Si8 0.122674 0.050974 0.436862
O O1 0.730061 0.593607 0.489394
O O2 0.970707 0.709838 0.721295
O O3 0.000000 0.000000 0.000000
O O4 0.941492 0.842753 0.081550
O O5 0.508134 0.531639 0.737877
O O6 0.445810 0.685069 0.648680
O O7 0.520043 0.807277 0.103425
O O8 0.500000 0.000000 0.500000
O O9 0.458597 0.915199 0.697581
O O10 0.727399 0.311165 0.104078
O O11 0.494286 0.713049 0.395844
O O12 0.749897 0.855296 0.551288
O O13 0.500000 0.500000 0.000000
O O14 0.955452 0.632584 0.339619
O O15 0.000000 0.500000 0.500000
O O16 0.786820 0.495613 0.865003
O O17 0.860931 0.777347 0.346604
O O18 0.099407 0.926443 0.457727
#
# Coordination Sequence:
#
# PCOD9054015 Si02
#       8
#     2   2   2   2   2   2   2   2
#     4  11  20  39  71  91 127 175 224 268 340 405
#     4  11  24  43  66  98 135 176 230 278 338 418
#     4  11  23  44  72  92 135 189 229 274 348 418
#     4  12  24  41  65 104 137 172 224 288 342 398
#     4  11  25  43  65 100 140 177 227 285 344 408
#     4  12  24  42  69 100 136 178 230 285 342 407
#     4  11  22  43  71 100 134 179 234 278 340 418
#     4  11  22  41  70  99 132 178 224 283 341 407
#
# _framework density 23.064197
#
# number of rings (size 3 to 8) (size 9 to 14) (size 15 to 20)
#    0.000    0.750    6.250    2.250    1.750    0.000 
#    2.250    0.625    2.750    0.000    0.000    0.000 
#    0.000    0.000    0.000    0.000    0.000    0.000 
#
# Total GULP energy -89129.387643 kJ/mol
# GULP energy per Si atom -5570.586728 kJ/mol
# Density = 2.301170 g / cm^3
# Si number density = 23.064197 Si / 1000 Ang^3
#
#
#
# Elastic Constant Matrix: (Units=GPa)
#
#
# Indices 1 2 3 4 5 6 
#
# 1 48.6069 2.1901 17.4796 17.4032 -7.2999 -8.0424
# 2 2.1901 127.3811 27.5488 27.9864 0.5063 -8.4586
# 3 17.4796 27.5488 130.5667 14.3989 -22.1616 -4.2935
# 4 17.4032 27.9864 14.3989 47.4158 -3.2465 -7.6235
# 5 -7.2999 0.5063 -22.1616 -3.2465 28.8218 3.7068
# 6 -8.0424 -8.4586 -4.2935 -7.6235 3.7068 29.8972
#
#
#
# Elastic Compliance Matrix: (Units=1/GPa)
#
#
# Indices 1 2 3 4 5 6 
#
# 1 0.025807 0.002362 -0.002253 -0.009237 0.003138 0.004542
# 2 0.002362 0.009644 -0.001989 -0.005794 -0.001991 0.001848
# 3 -0.002253 -0.001989 0.009583 -0.000566 0.006871 -0.000789
# 4 -0.009237 -0.005794 -0.000566 0.028575 0.000152 0.003062
# 5 0.003138 -0.001991 0.006871 0.000152 0.041317 -0.003816
# 6 0.004542 0.001848 -0.000789 0.003062 -0.003816 0.036333
#
#
# Mechanical properties :
#
#
# Convention : Reuss Voigt Hill
#
# Bulk Modulus (GPa) = 24.22843 44.55463 34.39153
# Shear Modulus (GPa) = 29.62517 38.51602 34.07060
#
# Velocity S-wave (km/s) = 3.58783 4.09093 3.84761
# Velocity P-wave (km/s) = 5.26222 6.45553 5.88918
#
# Compressibility (1/GPa) = 0.04127383
#
# Stress axis : x y z
#
# Youngs Moduli (GPa) = 38.74937 103.69508 104.35372
#
# Poissons Ratio (x) = -0.24493 0.23507
# Poissons Ratio (y) = -0.09153 0.20758
# Poissons Ratio (z) = 0.08729 0.20627
#
# Static dielectric constant tensor:
#      x y z
#    x 1.912820 -0.031470 0.037760 
#    y -0.031470 2.162860 -0.003950 
#    z 0.037760 -0.003950 1.946180 
# 
# From -- ./inp_files/308571.got.cif
#   From: 2010.05.17/outbox.cif.g08.bks.cpg/sg2_155_cif.got.tgz:308571.got - 2010.06.03 11:33:40.
