data_PCOD9054749
_publ_section_title
;
Structure prediction by ZEFSAII (Michael W. Deem and Ramdas Pophale) SiO2 
 PCOD9054749
Probable space group: P -1
;
_chemical_formula_sum "Si O2"
_cell_formula_units_Z 16
_cell_length_a 18.369342
_cell_length_b 6.823704
_cell_length_c 9.680637
_cell_angle_alpha 128.129736
_cell_angle_beta 117.709035
_cell_angle_gamma 51.311267
_cell_volume 738.848177
_symmetry_space_group_name_H-M "P -1"
_symmetry_group_IT_number 2
_symmetry_cell_setting 'triclinic'
loop_
_space_group_symop_operation_xyz
x,y,z
-x,-y,-z
loop_
_atom_site_type_symbol
_atom_site_label
_atom_site_fract_x
_atom_site_fract_y
_atom_site_fract_z
Si Si1 0.099490 0.761728 0.864505
Si Si2 0.719660 0.242129 0.867072
Si Si3 0.895682 0.599275 0.508493
Si Si4 0.793153 0.611891 0.693437
Si Si5 0.544155 0.222778 0.315903
Si Si6 0.936386 0.384306 0.960363
Si Si7 0.730494 0.199455 0.543133
Si Si8 0.534617 0.682037 0.023494
O O1 0.137624 0.598908 0.686379
O O2 0.174784 0.830416 0.031969
O O3 0.086082 0.557026 0.872578
O O4 0.000632 0.041416 0.868554
O O5 0.698042 0.328280 0.725107
O O6 0.645084 0.491239 0.003915
O O7 0.719284 0.945357 0.761718
O O8 0.874147 0.567304 0.634705
O O9 0.000000 0.500000 0.500000
O O10 0.828847 0.920265 0.540672
O O11 0.843368 0.516797 0.844814
O O12 0.745244 0.413621 0.550077
O O13 0.500000 0.500000 0.500000
O O14 0.654985 0.117086 0.382224
O O15 0.514434 0.276918 0.152297
O O16 0.519150 0.969215 0.211879
O O17 0.000000 0.500000 0.000000
O O18 0.500000 0.500000 0.000000
#
# Coordination Sequence:
#
# PCOD9054749 Si02
#       8
#     2   2   2   2   2   2   2   2
#     4  11  23  38  64  89 134 170 220 288 335 389
#     4  11  23  43  66  99 137 175 224 291 337 410
#     4  11  25  42  62  96 138 176 226 292 339 397
#     4  11  24  41  67  96 131 186 230 269 350 413
#     4  11  25  48  76 104 143 186 223 293 357 411
#     4  11  21  38  62  95 125 176 230 272 337 405
#     4  11  24  45  68  97 139 182 229 277 349 414
#     4  11  27  47  75 110 139 176 236 284 353 430
#
# _framework density 21.655328000000001
#
# number of rings (size 3 to 8) (size 9 to 14) (size 15 to 20)
#    0.000    1.000    3.750    2.250    5.250    6.500 
#    2.250    0.000    0.000    0.000    0.000    0.000 
#    0.000    0.000    0.000    0.000    0.000    0.000 
#
# Total GULP energy -89312.404468 kJ/mol
# GULP energy per Si atom -5582.025279 kJ/mol
# Density = 2.160604 g / cm^3
# Si number density = 21.655328 Si / 1000 Ang^3
#
#
#
# Elastic Constant Matrix: (Units=GPa)
#
#
# Indices 1 2 3 4 5 6 
#
# 1 78.5981 45.7551 30.0618 4.0419 15.1781 7.1971
# 2 45.7551 91.1150 31.4311 1.1382 -0.6762 23.4792
# 3 30.0618 31.4311 104.1313 9.1144 6.3456 6.9792
# 4 4.0419 1.1382 9.1144 29.4832 -2.6962 4.4874
# 5 15.1781 -0.6762 6.3456 -2.6962 37.1549 4.7562
# 6 7.1971 23.4792 6.9792 4.4874 4.7562 37.2020
#
#
#
# Elastic Compliance Matrix: (Units=1/GPa)
#
#
# Indices 1 2 3 4 5 6 
#
# 1 0.021913 -0.011574 -0.002279 -0.003524 -0.009689 0.005157
# 2 -0.011574 0.020867 -0.002984 0.004183 0.007435 -0.011826
# 3 -0.002279 -0.002984 0.011493 -0.003371 -0.001428 0.000757
# 4 -0.003524 0.004183 -0.003371 0.036778 0.005589 -0.006477
# 5 -0.009689 0.007435 -0.001428 0.005589 0.032603 -0.007393
# 6 0.005157 -0.011826 0.000757 -0.006477 -0.007393 0.034931
#
#
# Mechanical properties :
#
#
# Convention : Reuss Voigt Hill
#
# Bulk Modulus (GPa) = 48.54785 54.26006 51.40396
# Shear Modulus (GPa) = 25.10977 31.87443 28.49210
#
# Velocity S-wave (km/s) = 3.40887 3.84069 3.63121
# Velocity P-wave (km/s) = 6.16124 6.69168 6.43193
#
# Compressibility (1/GPa) = 0.02059823
#
# Stress axis : x y z
#
# Youngs Moduli (GPa) = 45.63599 47.92246 87.00812
#
# Poissons Ratio (x) = 0.55467 0.19831
# Poissons Ratio (y) = 0.52821 0.25961
# Poissons Ratio (z) = 0.10401 0.14299
#
# Static dielectric constant tensor:
#      x y z
#    x 2.557590 -1.501880 -0.148090 
#    y -1.501880 4.759790 0.364020 
#    z -0.148090 0.364020 1.866380 
# 
# From -- ./inp_files/324141.got.cif
#   From: 2010.05.17/outbox.cif.g08.bks.cpg/sg2_163_cif.got.tgz:324141.got - 2010.06.03 11:33:40.
