data_PCOD9054818
_publ_section_title
;
Structure prediction by ZEFSAII (Michael W. Deem and Ramdas Pophale) SiO2 
 PCOD9054818
Probable space group: P -1
;
_chemical_formula_sum "Si O2"
_cell_formula_units_Z 14
_cell_length_a 7.340733
_cell_length_b 12.757852
_cell_length_c 17.564914
_cell_angle_alpha 45.851836
_cell_angle_beta 63.371419
_cell_angle_gamma 32.522161
_cell_volume 591.904641
_symmetry_space_group_name_H-M "P -1"
_symmetry_group_IT_number 2
_symmetry_cell_setting 'triclinic'
loop_
_space_group_symop_operation_xyz
x,y,z
-x,-y,-z
loop_
_atom_site_type_symbol
_atom_site_label
_atom_site_fract_x
_atom_site_fract_y
_atom_site_fract_z
Si Si1 0.334519 0.762296 0.208592
Si Si2 0.403137 0.905898 0.396883
Si Si3 0.370553 0.175391 0.763458
Si Si4 0.164064 0.089106 0.507849
Si Si5 0.606639 0.555562 0.736035
Si Si6 0.811853 0.896300 0.042146
Si Si7 0.142490 0.642231 0.424800
O O1 0.576522 0.731283 0.229311
O O2 0.476655 0.550526 0.232662
O O3 0.139810 0.785358 0.299458
O O4 0.127509 0.991042 0.071816
O O5 0.355027 0.967967 0.284888
O O6 0.124644 0.101100 0.418517
O O7 0.537305 0.659700 0.502672
O O8 0.757460 0.792697 0.406338
O O9 0.373033 0.013289 0.884944
O O10 0.945564 0.431767 0.689872
O O11 0.286010 0.860825 0.635359
O O12 0.500000 0.000000 0.500000
O O13 0.854820 0.332562 0.497673
O O14 0.801862 0.410101 0.854910
O O15 0.500000 0.000000 0.000000
#
# Coordination Sequence:
#
# PCOD9054818 Si02
#       7
#     2   2   2   2   2   2   2
#     4  11  18  34  58  86 110 147 194 232 277 341
#     4  10  17  36  53  81 117 149 188 232 276 337
#     4   9  19  31  58  82 111 147 188 230 283 328
#     4  10  20  33  58  84 117 152 187 226 283 340
#     4  10  18  35  56  82 114 148 187 231 283 328
#     4   8  18  33  55  88 109 143 195 234 278 335
#     4  10  19  32  58  82 112 151 190 224 287 328
#
# _framework density 23.652456999999998
#
# number of rings (size 3 to 8) (size 9 to 14) (size 15 to 20)
#    0.857    1.429    2.857    2.143    0.000    0.571 
#    0.000    1.429    6.286    0.000    0.000   16.000 
#    0.000    0.000    0.000    0.000    0.000    0.000 
#
# Total GULP energy -77968.963832 kJ/mol
# GULP energy per Si atom -5569.211702 kJ/mol
# Density = 2.359862 g / cm^3
# Si number density = 23.652457 Si / 1000 Ang^3
#
#
#
# Elastic Constant Matrix: (Units=GPa)
#
#
# Indices 1 2 3 4 5 6 
#
# 1 104.6106 15.4944 27.5636 -5.0368 -2.0696 14.9211
# 2 15.4944 86.4658 34.8604 21.4645 7.1714 9.7593
# 3 27.5636 34.8604 190.6058 15.3954 -1.9434 0.5711
# 4 -5.0368 21.4645 15.3954 33.9453 -1.8405 -1.4866
# 5 -2.0696 7.1714 -1.9434 -1.8405 44.8610 1.0404
# 6 14.9211 9.7593 0.5711 -1.4866 1.0404 30.1089
#
#
#
# Elastic Compliance Matrix: (Units=1/GPa)
#
#
# Indices 1 2 3 4 5 6 
#
# 1 0.011074 -0.001721 -0.001526 0.003267 0.000965 -0.004773
# 2 -0.001721 0.015825 -0.001872 -0.009777 -0.002984 -0.004620
# 3 -0.001526 -0.001872 0.005945 -0.001667 0.000391 0.001155
# 4 0.003267 -0.009777 -0.001667 0.037195 0.003091 0.003311
# 5 0.000965 -0.002984 0.000391 0.003091 0.022960 -0.000159
# 6 -0.004773 -0.004620 0.001155 0.003311 -0.000159 0.037223
#
#
# Mechanical properties :
#
#
# Convention : Reuss Voigt Hill
#
# Bulk Modulus (GPa) = 44.24146 59.72433 51.98289
# Shear Modulus (GPa) = 33.78513 42.03396 37.90955
#
# Velocity S-wave (km/s) = 3.78352 4.22020 4.00781
# Velocity P-wave (km/s) = 6.15078 7.00374 6.59107
#
# Compressibility (1/GPa) = 0.02260323
#
# Stress axis : x y z
#
# Youngs Moduli (GPa) = 90.30545 63.19310 168.21631
#
# Poissons Ratio (x) = 0.10878 0.25674
# Poissons Ratio (y) = 0.15544 0.31493
# Poissons Ratio (z) = 0.13783 0.11831
#
# Static dielectric constant tensor:
#      x y z
#    x 2.034650 0.019900 0.023620 
#    y 0.019900 1.930590 0.008060 
#    z 0.023620 0.008060 1.953230 
# 
# From -- ./inp_files/558438.got.cif
#   From: 2010.05.17/outbox.cif.g08.bks.cpg/sg2_280_cif.got.tgz:558438.got - 2010.06.03 11:33:40.
