data_PCOD9054480
_publ_section_title
;
Structure prediction by ZEFSAII (Michael W. Deem and Ramdas Pophale) SiO2 
 PCOD9054480
Probable space group: P -1
;
_chemical_formula_sum "Si O2"
_cell_formula_units_Z 12
_cell_length_a 9.305568
_cell_length_b 8.837449
_cell_length_c 15.624069
_cell_angle_alpha 127.763602
_cell_angle_beta 41.227778
_cell_angle_gamma 123.599294
_cell_volume 658.736108
_symmetry_space_group_name_H-M "P -1"
_symmetry_group_IT_number 2
_symmetry_cell_setting 'triclinic'
loop_
_space_group_symop_operation_xyz
x,y,z
-x,-y,-z
loop_
_atom_site_type_symbol
_atom_site_label
_atom_site_fract_x
_atom_site_fract_y
_atom_site_fract_z
Si Si1 0.156927 0.064166 0.664311
Si Si2 0.018715 0.283384 0.658855
Si Si3 0.336425 0.124528 0.341145
Si Si4 0.485548 0.899855 0.335689
Si Si5 0.351124 0.508748 0.153102
Si Si6 0.657330 0.855646 0.846898
O O1 0.272462 0.938855 0.500000
O O2 0.913726 0.958818 0.762951
O O3 0.315840 0.092080 0.684161
O O4 0.130306 0.259994 0.692503
O O5 0.889578 0.458092 0.760481
O O6 0.197923 0.267116 0.500000
O O7 0.833639 0.083181 0.666362
O O8 0.410538 0.197612 0.239520
O O9 0.515311 0.067489 0.307496
O O10 0.439625 0.695866 0.237050
O O11 0.354568 0.322714 0.145430
O O12 0.500000 0.500000 0.000000
O O13 0.500000 0.000000 0.000000
#
# Coordination Sequence:
#
# PCOD9054480 Si02
#       6
#     2   2   2   2   2   2
#     4   9  18  35  58  81 106 136 171 215 265 311
#     4   8  15  30  51  73 100 134 170 208 253 307
#     4   8  15  30  51  73 100 134 170 208 253 307
#     4   9  18  35  58  81 106 136 171 215 265 311
#     4  11  21  34  52  76 106 141 181 216 255 311
#     4  11  21  34  52  76 106 141 181 216 255 311
#
# _framework density 18.216701
#
# number of rings (size 3 to 8) (size 9 to 14) (size 15 to 20)
#    0.000    2.667    0.000    6.000    0.000    2.667 
#    0.000    8.333    0.000    6.000    0.000    0.000 
#    0.000    0.000    0.000    0.000    0.000    0.000 
#
# Total GULP energy -66872.108063 kJ/mol
# GULP energy per Si atom -5572.675672 kJ/mol
# Density = 1.817524 g / cm^3
# Si number density = 18.216701 Si / 1000 Ang^3
#
#
#
# Elastic Constant Matrix: (Units=GPa)
#
#
# Indices 1 2 3 4 5 6 
#
# 1 151.0815 52.0358 77.5947 1.6281 -0.4777 -48.0696
# 2 52.0358 85.3878 74.4719 3.2055 1.5660 -48.0257
# 3 77.5947 74.4719 125.9999 3.1202 1.2608 -36.3319
# 4 1.6281 3.2055 3.1202 26.0748 -12.6426 -0.8926
# 5 -0.4777 1.5660 1.2608 -12.6426 23.2828 -0.4256
# 6 -48.0696 -48.0257 -36.3319 -0.8926 -0.4256 43.2580
#
#
#
# Elastic Compliance Matrix: (Units=1/GPa)
#
#
# Indices 1 2 3 4 5 6 
#
# 1 0.013824 0.010190 -0.009029 -0.000232 0.000310 0.019089
# 2 0.010190 0.058343 -0.024669 -0.004927 -0.004045 0.055236
# 3 -0.009029 -0.024669 0.022804 0.000267 0.000050 -0.018262
# 4 -0.000232 -0.004927 0.000267 0.052819 0.028917 -0.004129
# 5 0.000310 -0.004045 0.000050 0.028917 0.058874 -0.002928
# 6 0.019089 0.055236 -0.018262 -0.004129 -0.002928 0.090202
#
#
# Mechanical properties :
#
#
# Convention : Reuss Voigt Hill
#
# Bulk Modulus (GPa) = 20.85258 85.63044 53.24151
# Shear Modulus (GPa) = 13.89399 29.08092 21.48746
#
# Velocity S-wave (km/s) = 2.76471 3.99982 3.43818
# Velocity P-wave (km/s) = 4.65438 8.27285 6.71205
#
# Compressibility (1/GPa) = 0.04795570
#
# Stress axis : x y z
#
# Youngs Moduli (GPa) = 72.34041 17.13990 43.85112
#
# Poissons Ratio (x) = -0.17466 0.39592
# Poissons Ratio (y) = -0.73716 1.08177
# Poissons Ratio (z) = 0.65314 0.42283
#
# Static dielectric constant tensor:
#      x y z
#    x 1.680400 -0.015420 -0.003170 
#    y -0.015420 1.625280 0.000540 
#    z -0.003170 0.000540 1.612420 
# 
# From -- ./inp_files/150376.got.cif
#   From: 2010.05.17/outbox.cif.g08.bks.cpg/sg2_76_cif.got.tgz:150376.got - 2010.06.03 11:33:40.
