data_PCOD9054096
_publ_section_title
;
Structure prediction by ZEFSAII (Michael W. Deem and Ramdas Pophale) SiO2 
 PCOD9054096
Probable space group: P -1
;
_chemical_formula_sum "Si O2"
_cell_formula_units_Z 16
_cell_length_a 6.078895
_cell_length_b 9.432494
_cell_length_c 13.890416
_cell_angle_alpha 101.399787
_cell_angle_beta 107.971448
_cell_angle_gamma 103.597012
_cell_volume 704.226115
_symmetry_space_group_name_H-M "P -1"
_symmetry_group_IT_number 2
_symmetry_cell_setting 'triclinic'
loop_
_space_group_symop_operation_xyz
x,y,z
-x,-y,-z
loop_
_atom_site_type_symbol
_atom_site_label
_atom_site_fract_x
_atom_site_fract_y
_atom_site_fract_z
Si Si1 0.519958 0.626307 0.390114
Si Si2 0.563998 0.504800 0.182649
Si Si3 0.781275 0.813969 0.138010
Si Si4 0.968038 0.661810 0.989406
Si Si5 0.303849 0.026294 0.556758
Si Si6 0.887231 0.574060 0.579964
Si Si7 0.759547 0.107807 0.266912
Si Si8 0.627456 0.220786 0.079536
O O1 0.583673 0.525319 0.301914
O O2 0.684044 0.630157 0.505967
O O3 0.243768 0.554046 0.377542
O O4 0.585230 0.795408 0.383433
O O5 0.634884 0.669538 0.164468
O O6 0.294089 0.400493 0.104560
O O7 0.708228 0.400524 0.142801
O O8 0.860775 0.971364 0.228003
O O9 0.978790 0.756477 0.101865
O O10 0.600753 0.825537 0.028987
O O11 0.145920 0.778077 0.955477
O O12 0.000000 0.500000 0.000000
O O13 0.331753 0.933552 0.642624
O O14 0.500000 0.000000 0.500000
O O15 0.000000 0.000000 0.500000
O O16 0.000000 0.500000 0.500000
O O17 0.054468 0.723178 0.674909
O O18 0.585847 0.125358 0.159090
#
# Coordination Sequence:
#
# PCOD9054096 Si02
#       8
#     2   2   2   2   2   2   2   2
#     4  11  24  43  72 101 137 194 248 299 376 461
#     4  11  21  40  67  99 136 188 244 289 362 455
#     4  11  23  42  65 100 145 182 243 304 364 446
#     4  11  20  40  68  96 137 191 239 296 358 445
#     4  12  27  53  77 109 154 197 253 319 388 457
#     4  11  24  46  70 101 142 184 246 313 375 452
#     4  12  25  47  71 109 145 190 242 317 387 433
#     4  11  23  43  67 100 143 187 243 300 368 453
#
# _framework density 22.719974000000001
#
# number of rings (size 3 to 8) (size 9 to 14) (size 15 to 20)
#    0.000    0.750    5.000    3.375    0.000    1.500 
#    9.000    0.000    0.000    0.000    0.000    0.000 
#    0.000    0.000    0.000    0.000    0.000    0.000 
#
# Total GULP energy -89237.352927 kJ/mol
# GULP energy per Si atom -5577.334558 kJ/mol
# Density = 2.266826 g / cm^3
# Si number density = 22.719974 Si / 1000 Ang^3
#
#
#
# Elastic Constant Matrix: (Units=GPa)
#
#
# Indices 1 2 3 4 5 6 
#
# 1 69.2489 25.3324 33.6703 1.1750 -21.7773 14.2477
# 2 25.3324 92.5804 33.1570 5.4010 5.7462 15.6899
# 3 33.6703 33.1570 112.3559 6.0479 -20.1559 5.0435
# 4 1.1750 5.4010 6.0479 62.7617 -5.9998 -8.4098
# 5 -21.7773 5.7462 -20.1559 -5.9998 24.7518 -0.5462
# 6 14.2477 15.6899 5.0435 -8.4098 -0.5462 29.3573
#
#
#
# Elastic Compliance Matrix: (Units=1/GPa)
#
#
# Indices 1 2 3 4 5 6 
#
# 1 0.027112 -0.007179 -0.001297 0.001491 0.024645 -0.008213
# 2 -0.007179 0.016666 -0.005070 -0.003026 -0.015173 -0.005701
# 3 -0.001297 -0.005070 0.012560 0.000446 0.010406 0.001503
# 4 0.001491 -0.003026 0.000446 0.017571 0.006768 0.005976
# 5 0.024645 -0.015173 0.010406 0.006768 0.075670 -0.002292
# 6 -0.008213 -0.005701 0.001503 0.005976 -0.002292 0.042507
#
#
# Mechanical properties :
#
#
# Convention : Reuss Voigt Hill
#
# Bulk Modulus (GPa) = 34.19151 50.94495 42.56823
# Shear Modulus (GPa) = 21.84104 35.50917 28.67511
#
# Velocity S-wave (km/s) = 3.10387 3.95765 3.55647
# Velocity P-wave (km/s) = 5.28461 6.58450 5.97004
#
# Compressibility (1/GPa) = 0.02924703
#
# Stress axis : x y z
#
# Youngs Moduli (GPa) = 36.88396 60.00242 79.61568
#
# Poissons Ratio (x) = 0.43075 0.10324
# Poissons Ratio (y) = 0.26478 0.40366
# Poissons Ratio (z) = 0.04783 0.30422
#
# Static dielectric constant tensor:
#      x y z
#    x 2.143970 -0.153350 0.000600 
#    y -0.153350 1.967290 -0.025990 
#    z 0.000600 -0.025990 1.861360 
# 
# From -- ./inp_files/299872.got.cif
#   From: 2010.05.17/outbox.cif.g08.bks.cpg/sg2_150_cif.got.tgz:299872.got - 2010.06.03 11:33:40.
