data_PCOD9054457
_publ_section_title
;
Structure prediction by ZEFSAII (Michael W. Deem and Ramdas Pophale) SiO2 
 PCOD9054457
Probable space group: P -1
;
_chemical_formula_sum "Si O2"
_cell_formula_units_Z 12
_cell_length_a 14.273407
_cell_length_b 8.444947
_cell_length_c 11.534420
_cell_angle_alpha 56.582608
_cell_angle_beta 28.881609
_cell_angle_gamma 42.416277
_cell_volume 432.973685
_symmetry_space_group_name_H-M "P -1"
_symmetry_group_IT_number 2
_symmetry_cell_setting 'triclinic'
loop_
_space_group_symop_operation_xyz
x,y,z
-x,-y,-z
loop_
_atom_site_type_symbol
_atom_site_label
_atom_site_fract_x
_atom_site_fract_y
_atom_site_fract_z
Si Si1 0.741116 0.293038 0.243137
Si Si2 0.411627 0.602793 0.902851
Si Si3 0.104923 0.098816 0.593109
Si Si4 0.593112 0.005119 0.104919
Si Si5 0.902847 0.268252 0.411631
Si Si6 0.756862 0.761544 0.258885
O O1 0.500000 0.500000 0.500000
O O2 0.652446 0.349226 0.183749
O O3 0.824744 0.035132 0.303733
O O4 0.992926 0.264148 0.992926
O O5 0.413030 0.800786 0.889404
O O6 0.697366 0.355264 0.697371
O O7 0.172801 0.643016 0.198438
O O8 0.321018 0.107966 0.321014
O O9 0.110599 0.905654 0.586966
O O10 0.696269 0.792084 0.175255
O O11 0.801567 0.885491 0.827194
O O12 0.816249 0.521617 0.347556
O O13 0.500000 0.000000 0.500000
#
# Coordination Sequence:
#
# PCOD9054457 Si02
#       6
#     2   2   2   2   2   2
#     4  12  20  29  38  48  56  64  72  83  89  96
#     4  11  21  32  39  49  56  64  74  81  88  99
#     4  11  22  31  39  48  57  65  72  81  90  97
#     4  11  22  31  39  48  57  65  72  81  90  97
#     4  11  21  32  39  49  56  64  74  81  88  99
#     4  12  20  29  38  48  56  64  72  83  89  96
#
# _framework density 27.715309999999999
#
# number of rings (size 3 to 8) (size 9 to 14) (size 15 to 20)
#    0.000    0.667    6.667    4.000    0.000    0.000 
#    0.000    0.000    0.000    0.000    0.000    0.000 
#    0.000    0.000    0.000    0.000    0.000    0.000 
#
# Total GULP energy -67248.070021 kJ/mol
# GULP energy per Si atom -5604.005835 kJ/mol
# Density = 2.765223 g / cm^3
# Si number density = 27.715310 Si / 1000 Ang^3
#
#
#
# Elastic Constant Matrix: (Units=GPa)
#
#
# Indices 1 2 3 4 5 6 
#
# 1 122.0586 22.6314 66.6447 -7.2009 12.2757 1.2736
# 2 22.6314 122.2958 84.5814 1.5832 14.4127 -2.6041
# 3 66.6447 84.5814 351.7590 55.8507 -66.9168 25.7489
# 4 -7.2009 1.5832 55.8507 30.0759 52.2726 15.7160
# 5 12.2757 14.4127 -66.9168 52.2726 3.0341 -21.2945
# 6 1.2736 -2.6041 25.7489 15.7160 -21.2945 38.1951
#
#
#
# Elastic Compliance Matrix: (Units=1/GPa)
#
#
# Indices 1 2 3 4 5 6 
#
# 1 0.008456 -0.001276 -0.000719 -0.001806 0.002358 0.002173
# 2 -0.001276 0.009397 -0.001535 -0.002807 0.001654 0.003795
# 3 -0.000719 -0.001535 0.002735 0.002402 -0.002981 -0.004575
# 4 -0.001806 -0.002807 0.002402 0.004875 0.012611 0.003274
# 5 0.002358 0.001654 -0.002981 0.012611 -0.002441 -0.004506
# 6 0.002173 0.003795 -0.004575 0.003274 -0.004506 0.025592
#
#
# Mechanical properties :
#
#
# Convention : Reuss Voigt Hill
#
# Bulk Modulus (GPa) = 73.92564 104.86981 89.39772
# Shear Modulus (GPa) = 83.07987 42.41143 62.74565
#
# Velocity S-wave (km/s) = 5.48099 3.91609 4.76324
# Velocity P-wave (km/s) = 8.17228 7.63990 7.91057
#
# Compressibility (1/GPa) = 0.01352711
#
# Stress axis : x y z
#
# Youngs Moduli (GPa) = 118.26454 106.41622 365.68253
#
# Poissons Ratio (x) = 0.13574 0.26298
# Poissons Ratio (y) = 0.15085 0.56147
# Poissons Ratio (z) = 0.08505 0.16339
#
# Static dielectric constant tensor:
#      x y z
#    x 2.145160 -0.013200 0.000030 
#    y -0.013200 2.145040 0.020370 
#    z 0.000030 0.020370 2.219580 
# 
# From -- ./inp_files/577222.got.cif
#   From: 2010.05.17/outbox.cif.g08.bks.cpg/sg2_289_cif.got.tgz:577222.got - 2010.06.03 11:33:40.
