data_PCOD9054778
_publ_section_title
;
Structure prediction by ZEFSAII (Michael W. Deem and Ramdas Pophale) SiO2 
 PCOD9054778
Probable space group: P -1
;
_chemical_formula_sum "Si O2"
_cell_formula_units_Z 16
_cell_length_a 13.491023
_cell_length_b 16.827058
_cell_length_c 11.642782
_cell_angle_alpha 21.651496
_cell_angle_beta 53.333682
_cell_angle_gamma 51.846701
_cell_volume 764.443448
_symmetry_space_group_name_H-M "P -1"
_symmetry_group_IT_number 2
_symmetry_cell_setting 'triclinic'
loop_
_space_group_symop_operation_xyz
x,y,z
-x,-y,-z
loop_
_atom_site_type_symbol
_atom_site_label
_atom_site_fract_x
_atom_site_fract_y
_atom_site_fract_z
Si Si1 0.483974 0.854852 0.315523
Si Si2 0.908484 0.166899 0.681083
Si Si3 0.121664 0.334116 0.399644
Si Si4 0.803032 0.022440 0.614022
Si Si5 0.474352 0.430186 0.743524
Si Si6 0.328482 0.997362 0.839657
Si Si7 0.019862 0.813780 0.899519
Si Si8 0.191291 0.528054 0.857855
O O1 0.345379 0.963507 0.317758
O O2 0.489848 0.614776 0.578764
O O3 0.595905 0.874692 0.297819
O O4 0.500000 0.000000 0.000000
O O5 0.887801 0.376910 0.326629
O O6 0.000239 0.224636 0.636936
O O7 0.976460 0.941621 0.873894
O O8 0.772029 0.125059 0.865088
O O9 0.245589 0.169521 0.580089
O O10 0.143600 0.389802 0.176352
O O11 0.091157 0.561055 0.187619
O O12 0.801643 0.243726 0.390427
O O13 0.885794 0.048346 0.410826
O O14 0.892708 0.835118 0.879993
O O15 0.500000 0.500000 0.500000
O O16 0.329440 0.411489 0.877293
O O17 0.567168 0.201215 0.016392
#
# Coordination Sequence:
#
# PCOD9054778 Si02
#       8
#     2   2   2   2   2   2   2   2
#     4  11  21  38  64  93 119 157 208 251 299 367
#     4  11  22  41  63  87 122 162 214 251 295 367
#     4  11  25  40  60  91 126 162 203 253 311 359
#     4   8  17  35  61  91 117 150 201 259 294 354
#     4  11  21  41  65  92 121 158 201 257 305 355
#     4  12  26  40  59  94 128 160 203 252 310 369
#     4   9  19  38  61  86 120 155 199 251 305 352
#     4   9  19  40  65  92 117 155 214 251 292 373
#
# _framework density 20.930260000000001
#
# number of rings (size 3 to 8) (size 9 to 14) (size 15 to 20)
#    0.000    1.750    2.500    3.000    0.000    6.000 
#    0.000    5.625    0.000    0.000    0.000    0.000 
#    0.000    0.000    0.000    0.000    0.000    0.000 
#
# Total GULP energy -89307.279646 kJ/mol
# GULP energy per Si atom -5581.704978 kJ/mol
# Density = 2.088262 g / cm^3
# Si number density = 20.930260 Si / 1000 Ang^3
#
#
#
# Elastic Constant Matrix: (Units=GPa)
#
#
# Indices 1 2 3 4 5 6 
#
# 1 154.2514 26.9497 35.1849 -6.3231 15.3656 -15.3790
# 2 26.9497 110.3192 34.6224 -19.6428 -3.0315 -28.7357
# 3 35.1849 34.6224 90.1007 -17.8512 8.9283 -15.5537
# 4 -6.3231 -19.6428 -17.8512 40.8061 -8.9662 -2.0894
# 5 15.3656 -3.0315 8.9283 -8.9662 38.0682 -2.6425
# 6 -15.3790 -28.7357 -15.5537 -2.0894 -2.6425 37.3736
#
#
#
# Elastic Compliance Matrix: (Units=1/GPa)
#
#
# Indices 1 2 3 4 5 6 
#
# 1 0.007528 -0.001084 -0.002238 -0.000879 -0.002731 0.001090
# 2 -0.001084 0.014073 -0.002266 0.007117 0.004470 0.010145
# 3 -0.002238 -0.002266 0.014544 0.004820 -0.001305 0.003566
# 4 -0.000879 0.007117 0.004820 0.032153 0.008022 0.009481
# 5 -0.002731 0.004470 -0.001305 0.008022 0.030225 0.004356
# 6 0.001090 0.010145 0.003566 0.009481 0.004356 0.037328
#
#
# Mechanical properties :
#
#
# Convention : Reuss Voigt Hill
#
# Bulk Modulus (GPa) = 40.05169 60.90948 50.48059
# Shear Modulus (GPa) = 32.18541 40.44385 36.31463
#
# Velocity S-wave (km/s) = 3.92566 4.40058 4.16989
# Velocity P-wave (km/s) = 6.30279 7.41515 6.88148
#
# Compressibility (1/GPa) = 0.02496773
#
# Stress axis : x y z
#
# Youngs Moduli (GPa) = 132.84439 71.05649 68.75884
#
# Poissons Ratio (x) = 0.07702 0.15390
# Poissons Ratio (y) = 0.14399 0.15582
# Poissons Ratio (z) = 0.29735 0.16102
#
# Static dielectric constant tensor:
#      x y z
#    x 1.801000 -0.009610 -0.030560 
#    y -0.009610 1.730390 0.009590 
#    z -0.030560 0.009590 1.791790 
# 
# From -- ./inp_files/456589.got.cif
#   From: 2010.05.17/outbox.cif.g08.bks.cpg/sg2_229_cif.got.tgz:456589.got - 2010.06.03 11:33:40.
