data_PCOD9054088
_publ_section_title
;
Structure prediction by ZEFSAII (Michael W. Deem and Ramdas Pophale) SiO2 
 PCOD9054088
Probable space group: P -1
;
_chemical_formula_sum "Si O2"
_cell_formula_units_Z 16
_cell_length_a 11.219319
_cell_length_b 13.613931
_cell_length_c 14.279251
_cell_angle_alpha 139.994902
_cell_angle_beta 31.742287
_cell_angle_gamma 118.060920
_cell_volume 623.098908
_symmetry_space_group_name_H-M "P -1"
_symmetry_group_IT_number 2
_symmetry_cell_setting 'triclinic'
loop_
_space_group_symop_operation_xyz
x,y,z
-x,-y,-z
loop_
_atom_site_type_symbol
_atom_site_label
_atom_site_fract_x
_atom_site_fract_y
_atom_site_fract_z
Si Si1 0.735969 0.441984 0.427586
Si Si2 0.528459 0.244912 0.033583
Si Si3 0.124274 0.185433 0.139378
Si Si4 0.842499 0.728554 0.126163
Si Si5 0.286022 0.873116 0.511076
Si Si6 0.447048 0.219674 0.459704
Si Si7 0.297071 0.664011 0.190915
Si Si8 0.275227 0.122811 0.315435
O O1 0.881829 0.416471 0.212869
O O2 0.968978 0.332256 0.269733
O O3 0.994515 0.715978 0.430918
O O4 0.570155 0.343959 0.467103
O O5 0.291150 0.239026 0.133890
O O6 0.441751 0.354043 0.267934
O O7 0.608849 0.352360 0.989366
O O8 0.761350 0.036416 0.737088
O O9 0.913558 0.168186 0.331469
O O10 0.321375 0.987285 0.817073
O O11 0.582973 0.748882 0.263950
O O12 0.794395 0.711171 0.254510
O O13 0.814844 0.918508 0.262064
O O14 0.291594 0.830106 0.366593
O O15 0.371578 0.189459 0.385287
O O16 0.500000 0.500000 0.000000
O O17 0.500000 0.000000 0.000000
#
# Coordination Sequence:
#
# PCOD9054088 Si02
#       8
#     2   2   2   2   2   2   2   2
#     4  12  23  42  69 111 160 201 262 318 391 465
#     4  11  26  46  73 115 156 203 256 327 394 460
#     4  11  20  40  68 107 158 205 263 324 380 466
#     4  11  23  37  70 109 152 202 253 314 396 460
#     4  11  21  39  69 110 145 198 258 320 384 462
#     4  11  23  45  71 108 151 209 256 320 395 471
#     4  12  26  48  83 113 150 205 274 325 383 462
#     4  11  27  53  82 109 157 209 261 321 402 468
#
# _framework density 25.678107000000001
#
# number of rings (size 3 to 8) (size 9 to 14) (size 15 to 20)
#    0.000    0.750    2.500    7.125    0.000    3.000 
#    0.000    1.250    5.500    0.000    0.000    0.000 
#    0.000    0.000    0.000    0.000    0.000    0.000 
#
# Total GULP energy -89791.302817 kJ/mol
# GULP energy per Si atom -5611.956426 kJ/mol
# Density = 2.561966 g / cm^3
# Si number density = 25.678107 Si / 1000 Ang^3
#
#
#
# Elastic Constant Matrix: (Units=GPa)
#
#
# Indices 1 2 3 4 5 6 
#
# 1 87.3076 10.6672 29.8751 6.5666 10.0584 -8.7236
# 2 10.6672 86.2763 58.3764 -1.8059 -4.4816 5.9741
# 3 29.8751 58.3764 138.2026 -30.6874 25.8556 9.9247
# 4 6.5666 -1.8059 -30.6874 58.7669 -4.1472 5.1193
# 5 10.0584 -4.4816 25.8556 -4.1472 43.8189 7.2891
# 6 -8.7236 5.9741 9.9247 5.1193 7.2891 40.4101
#
#
#
# Elastic Compliance Matrix: (Units=1/GPa)
#
#
# Indices 1 2 3 4 5 6 
#
# 1 0.013826 0.000612 -0.004195 -0.004264 -0.001837 0.004796
# 2 0.000612 0.018997 -0.010502 -0.004340 0.007745 -0.000945
# 3 -0.004195 -0.010502 0.016190 0.008256 -0.008407 -0.002859
# 4 -0.004264 -0.004340 0.008256 0.021989 -0.001452 -0.004830
# 5 -0.001837 0.007745 -0.008407 -0.001452 0.029630 -0.004638
# 6 0.004796 -0.000945 -0.002859 -0.004830 -0.004638 0.028072
#
#
# Mechanical properties :
#
#
# Convention : Reuss Voigt Hill
#
# Bulk Modulus (GPa) = 47.97433 56.62487 52.29960
# Shear Modulus (GPa) = 30.52125 42.79037 36.65581
#
# Velocity S-wave (km/s) = 3.45136 4.08660 3.78234
# Velocity P-wave (km/s) = 5.88269 6.66084 6.28382
#
# Compressibility (1/GPa) = 0.02084448
#
# Stress axis : x y z
#
# Youngs Moduli (GPa) = 72.32792 52.63853 61.76788
#
# Poissons Ratio (x) = -0.03222 0.25910
# Poissons Ratio (y) = -0.04427 0.64866
# Poissons Ratio (z) = 0.30340 0.55279
#
# Static dielectric constant tensor:
#      x y z
#    x 1.997850 -0.010320 -0.003360 
#    y -0.010320 2.067300 -0.022860 
#    z -0.003360 -0.022860 2.029000 
# 
# From -- ./inp_files/426608.got.cif
#   From: 2010.05.17/outbox.cif.g08.bks.cpg/sg2_214_cif.got.tgz:426608.got - 2010.06.03 11:33:40.
