data_PCOD9054852
_publ_section_title
;
Structure prediction by ZEFSAII (Michael W. Deem and Ramdas Pophale) SiO2 
 PCOD9054852
Probable space group: P -1
;
_chemical_formula_sum "Si O2"
_cell_formula_units_Z 14
_cell_length_a 19.239727
_cell_length_b 8.594928
_cell_length_c 5.272369
_cell_angle_alpha 112.384107
_cell_angle_beta 95.828669
_cell_angle_gamma 42.672603
_cell_volume 523.812931
_symmetry_space_group_name_H-M "P -1"
_symmetry_group_IT_number 2
_symmetry_cell_setting 'triclinic'
loop_
_space_group_symop_operation_xyz
x,y,z
-x,-y,-z
loop_
_atom_site_type_symbol
_atom_site_label
_atom_site_fract_x
_atom_site_fract_y
_atom_site_fract_z
Si Si1 0.969415 0.863585 0.479947
Si Si2 0.656600 0.328725 0.075407
Si Si3 0.166105 0.403094 0.493418
Si Si4 0.770234 0.015773 0.404329
Si Si5 0.504907 0.829367 0.576247
Si Si6 0.177119 0.711438 0.968971
Si Si7 0.671436 0.736226 0.872565
O O1 0.071387 0.554814 0.348117
O O2 0.869592 0.962459 0.356923
O O3 0.000000 0.000000 0.500000
O O4 0.909852 0.992959 0.809528
O O5 0.706843 0.119560 0.181496
O O6 0.538479 0.603275 0.288642
O O7 0.720618 0.387691 0.175699
O O8 0.689859 0.219783 0.733305
O O9 0.132874 0.641242 0.749096
O O10 0.281811 0.234267 0.314018
O O11 0.176567 0.244844 0.612494
O O12 0.592543 0.729318 0.755189
O O13 0.500000 0.000000 0.500000
O O14 0.393484 0.031987 0.808626
O O15 0.226491 0.535209 0.128577
#
# Coordination Sequence:
#
# PCOD9054852 Si02
#       7
#     2   2   2   2   2   2   2
#     4  11  22  42  71 100 132 178 237 280 328 399
#     4  11  23  46  68 100 134 178 228 280 333 407
#     4  12  24  43  64 100 140 182 220 279 344 409
#     4  11  28  44  68  99 147 183 218 276 350 407
#     4  11  21  38  71 104 126 170 233 292 333 392
#     4  11  22  41  70  99 132 176 233 285 332 396
#     4  11  22  38  68 101 135 168 228 282 346 389
#
# _framework density 26.727098000000002
#
# number of rings (size 3 to 8) (size 9 to 14) (size 15 to 20)
#    0.000    0.857    4.286    3.429    4.000    1.143 
#    0.000    5.714    0.000    0.000    0.000    0.000 
#    0.000    0.000    0.000    0.000    0.000    0.000 
#
# Total GULP energy -78327.310543 kJ/mol
# GULP energy per Si atom -5594.807896 kJ/mol
# Density = 2.666627 g / cm^3
# Si number density = 26.727098 Si / 1000 Ang^3
#
#
#
# Elastic Constant Matrix: (Units=GPa)
#
#
# Indices 1 2 3 4 5 6 
#
# 1 72.8425 17.7978 3.0126 -1.6651 -17.5442 12.3175
# 2 17.7978 98.8382 10.9334 -11.2436 -13.5520 4.3790
# 3 3.0126 10.9334 64.2133 1.8930 -13.3048 -10.1207
# 4 -1.6651 -11.2436 1.8930 42.2836 0.8271 -11.6245
# 5 -17.5442 -13.5520 -13.3048 0.8271 38.0801 1.1343
# 6 12.3175 4.3790 -10.1207 -11.6245 1.1343 35.8222
#
#
#
# Elastic Compliance Matrix: (Units=1/GPa)
#
#
# Indices 1 2 3 4 5 6 
#
# 1 0.017032 -0.001981 0.000119 -0.001762 0.007412 -0.006387
# 2 -0.001981 0.011322 -0.001429 0.002877 0.002562 -0.000254
# 3 0.000119 -0.001429 0.017757 0.000096 0.005599 0.005004
# 4 -0.001762 0.002877 0.000096 0.026829 -0.000606 0.009007
# 5 0.007412 0.002562 0.005599 -0.000606 0.032632 -0.002510
# 6 -0.006387 -0.000254 0.005004 0.009007 -0.002510 0.034559
#
#
# Mechanical properties :
#
#
# Convention : Reuss Voigt Hill
#
# Bulk Modulus (GPa) = 25.29739 33.26462 29.28101
# Shear Modulus (GPa) = 31.27158 36.84719 34.05939
#
# Velocity S-wave (km/s) = 3.42429 3.71704 3.57366
# Velocity P-wave (km/s) = 5.01198 5.55832 5.29220
#
# Compressibility (1/GPa) = 0.03952977
#
# Stress axis : x y z
#
# Youngs Moduli (GPa) = 58.71131 88.32186 56.31634
#
# Poissons Ratio (x) = 0.17500 -0.00672
# Poissons Ratio (y) = 0.11633 0.08046
# Poissons Ratio (z) = -0.00700 0.12619
#
# Static dielectric constant tensor:
#      x y z
#    x 2.091360 -0.047850 0.027800 
#    y -0.047850 2.143670 0.011730 
#    z 0.027800 0.011730 2.144520 
# 
# From -- ./inp_files/37214.got.cif
#   From: 2010.05.17/outbox.cif.g08.bks.cpg/sg2_19_cif.got.tgz:37214.got - 2010.06.03 11:33:40.
