data_PCOD9054956
_publ_section_title
;
Structure prediction by ZEFSAII (Michael W. Deem and Ramdas Pophale) SiO2 
 PCOD9054956
Probable space group: P -1
;
_chemical_formula_sum "Si O2"
_cell_formula_units_Z 16
_cell_length_a 10.435206
_cell_length_b 15.733736
_cell_length_c 9.684477
_cell_angle_alpha 135.538808
_cell_angle_beta 76.082401
_cell_angle_gamma 70.390661
_cell_volume 719.723689
_symmetry_space_group_name_H-M "P -1"
_symmetry_group_IT_number 2
_symmetry_cell_setting 'triclinic'
loop_
_space_group_symop_operation_xyz
x,y,z
-x,-y,-z
loop_
_atom_site_type_symbol
_atom_site_label
_atom_site_fract_x
_atom_site_fract_y
_atom_site_fract_z
Si Si1 0.959689 0.805930 0.081907
Si Si2 0.018083 0.224446 0.439495
Si Si3 0.229892 0.834131 0.515595
Si Si4 0.408590 0.852906 0.967949
Si Si5 0.042173 0.605226 0.060430
Si Si6 0.462823 0.400960 0.605897
Si Si7 0.153429 0.505279 0.457495
Si Si8 0.261841 0.771226 0.111449
O O1 0.891039 0.755367 0.154692
O O2 0.098930 0.642263 0.747211
O O3 0.069856 0.832815 0.177223
O O4 0.809645 0.994925 0.259974
O O5 0.940587 0.138554 0.349898
O O6 0.959731 0.312302 0.707416
O O7 0.900314 0.387647 0.547516
O O8 0.261104 0.058382 0.183623
O O9 0.420134 0.677663 0.374296
O O10 0.268444 0.777166 0.279750
O O11 0.428666 0.744315 0.711367
O O12 0.630926 0.701424 0.801217
O O13 0.282831 0.883810 0.162507
O O14 0.254197 0.478171 0.783691
O O15 0.000000 0.500000 0.000000
O O16 0.430689 0.564718 0.771826
O O17 0.000000 0.500000 0.500000
#
# Coordination Sequence:
#
# PCOD9054956 Si02
#       8
#     2   2   2   2   2   2   2   2
#     4  11  22  44  68  94 139 175 220 287 343 400
#     4  12  26  43  75 104 135 180 230 287 344 406
#     4  12  23  41  68 111 135 167 231 288 350 410
#     4  12  25  44  70 104 135 184 224 285 350 400
#     4  11  24  48  67  92 135 190 230 273 337 407
#     4  11  24  40  68  98 140 182 224 279 345 410
#     4  12  28  48  67  98 142 187 233 278 335 412
#     4  11  21  39  67  99 141 172 217 278 353 406
#
# _framework density 22.230754000000001
#
# number of rings (size 3 to 8) (size 9 to 14) (size 15 to 20)
#    0.000    0.500    6.250    4.125    3.500    1.500 
#    2.250    0.625    0.000    0.000    0.000    0.000 
#    0.000    0.000    0.000    0.000    0.000    0.000 
#
# Total GULP energy -89274.887646 kJ/mol
# GULP energy per Si atom -5579.680478 kJ/mol
# Density = 2.218016 g / cm^3
# Si number density = 22.230754 Si / 1000 Ang^3
#
#
#
# Elastic Constant Matrix: (Units=GPa)
#
#
# Indices 1 2 3 4 5 6 
#
# 1 56.4711 16.9717 6.6103 4.4443 -8.1077 3.9961
# 2 16.9717 95.8353 20.3147 -5.6115 4.3793 0.2533
# 3 6.6103 20.3147 71.2384 -5.2791 -0.0898 -8.8311
# 4 4.4443 -5.6115 -5.2791 33.5723 -0.7085 5.6858
# 5 -8.1077 4.3793 -0.0898 -0.7085 8.5949 2.0127
# 6 3.9961 0.2533 -8.8311 5.6858 2.0127 37.4864
#
#
#
# Elastic Compliance Matrix: (Units=1/GPa)
#
#
# Indices 1 2 3 4 5 6 
#
# 1 0.023606 -0.005229 -0.001352 -0.003045 0.025536 -0.003709
# 2 -0.005229 0.012625 -0.002967 0.002089 -0.011239 0.000060
# 3 -0.001352 -0.002967 0.015569 0.001511 -0.000324 0.003620
# 4 -0.003045 0.002089 0.001511 0.031460 -0.000371 -0.004085
# 5 0.025536 -0.011239 -0.000324 -0.000371 0.148622 -0.010646
# 6 -0.003709 0.000060 0.003620 -0.004085 -0.010646 0.029115
#
#
# Mechanical properties :
#
#
# Convention : Reuss Voigt Hill
#
# Bulk Modulus (GPa) = 30.57768 34.59313 32.58541
# Shear Modulus (GPa) = 17.18227 27.90727 22.54477
#
# Velocity S-wave (km/s) = 2.78313 3.54693 3.18799
# Velocity P-wave (km/s) = 4.91043 5.68937 5.31419
#
# Compressibility (1/GPa) = 0.03270359
#
# Stress axis : x y z
#
# Youngs Moduli (GPa) = 42.36127 79.20624 64.22876
#
# Poissons Ratio (x) = 0.41419 0.08687
# Poissons Ratio (y) = 0.22152 0.19057
# Poissons Ratio (z) = 0.05729 0.23501
#
# Static dielectric constant tensor:
#      x y z
#    x 1.835770 -0.005780 -0.033850 
#    y -0.005780 1.893520 0.090720 
#    z -0.033850 0.090720 1.859790 
# 
# From -- ./inp_files/204102.got.cif
#   From: 2010.05.17/outbox.cif.g08.bks.cpg/sg2_103_cif.got.tgz:204102.got - 2010.06.03 11:33:40.
