data_PCOD9054707
_publ_section_title
;
Structure prediction by ZEFSAII (Michael W. Deem and Ramdas Pophale) SiO2 
 PCOD9054707
Probable space group: P -1
;
_chemical_formula_sum "Si O2"
_cell_formula_units_Z 14
_cell_length_a 21.560412
_cell_length_b 9.854898
_cell_length_c 9.045587
_cell_angle_alpha 48.943997
_cell_angle_beta 142.264032
_cell_angle_gamma 143.155131
_cell_volume 703.862907
_symmetry_space_group_name_H-M "P -1"
_symmetry_group_IT_number 2
_symmetry_cell_setting 'triclinic'
loop_
_space_group_symop_operation_xyz
x,y,z
-x,-y,-z
loop_
_atom_site_type_symbol
_atom_site_label
_atom_site_fract_x
_atom_site_fract_y
_atom_site_fract_z
Si Si1 0.296119 0.038882 0.290736
Si Si2 0.211363 0.911662 0.781145
Si Si3 0.038105 0.740800 0.847850
Si Si4 0.351105 0.816590 0.346347
Si Si5 0.223175 0.341842 0.535706
Si Si6 0.433541 0.482381 0.041926
Si Si7 0.396981 0.053331 0.788151
O O1 0.394395 0.270136 0.219368
O O2 0.344574 0.085979 0.515406
O O3 0.303775 0.839267 0.397684
O O4 0.155164 0.935193 0.035178
O O5 0.081274 0.767344 0.737915
O O6 0.228513 0.144062 0.629389
O O7 0.264638 0.875593 0.758288
O O8 0.301001 0.905850 0.071185
O O9 0.919047 0.743105 0.644034
O O10 0.000000 0.500000 0.000000
O O11 0.294734 0.558178 0.406363
O O12 0.500000 0.000000 0.500000
O O13 0.302176 0.428234 0.775514
O O14 0.521864 0.714495 0.130806
O O15 0.500000 0.500000 0.000000
O O16 0.500000 0.000000 0.000000
#
# Coordination Sequence:
#
# PCOD9054707 Si02
#       7
#     2   2   2   2   2   2   2
#     4  11  23  42  61  99 139 173 223 284 336 404
#     4  11  23  42  65  99 131 182 232 273 331 413
#     4  11  22  44  71  98 134 179 241 282 329 406
#     4  11  21  37  67  99 131 170 232 280 333 399
#     4  12  21  39  74  98 129 176 233 286 329 389
#     4  12  22  42  72 100 132 178 232 280 335 411
#     4  12  26  44  66 100 147 178 216 284 359 404
#
# _framework density 19.890236999999999
#
# number of rings (size 3 to 8) (size 9 to 14) (size 15 to 20)
#    0.000    0.571    7.143    4.286    0.000    0.000 
#    2.571    1.429    0.000    0.000    0.000    0.000 
#    0.000    0.000    0.000    0.000    0.000    0.000 
#
# Total GULP energy -77952.666685 kJ/mol
# GULP energy per Si atom -5568.047620 kJ/mol
# Density = 1.984497 g / cm^3
# Si number density = 19.890237 Si / 1000 Ang^3
#
#
#
# Elastic Constant Matrix: (Units=GPa)
#
#
# Indices 1 2 3 4 5 6 
#
# 1 121.7674 46.0907 66.4888 -6.2015 -2.5531 18.1642
# 2 46.0907 88.5147 31.1201 -12.3869 4.9308 6.0008
# 3 66.4888 31.1201 100.3593 0.7626 8.8743 5.0581
# 4 -6.2015 -12.3869 0.7626 39.6902 -7.1314 3.3272
# 5 -2.5531 4.9308 8.8743 -7.1314 35.5482 11.6983
# 6 18.1642 6.0008 5.0581 3.3272 11.6983 28.3399
#
#
#
# Elastic Compliance Matrix: (Units=1/GPa)
#
#
# Indices 1 2 3 4 5 6 
#
# 1 0.018521 -0.004763 -0.011039 0.004584 0.010148 -0.013619
# 2 -0.004763 0.014819 -0.001356 0.003621 -0.001440 0.000327
# 3 -0.011039 -0.001356 0.018095 -0.004780 -0.008824 0.008337
# 4 0.004584 0.003621 -0.004780 0.029928 0.010553 -0.010721
# 5 0.010148 -0.001440 -0.008824 0.010553 0.040859 -0.022730
# 6 -0.013619 0.000327 0.008337 -0.010721 -0.022730 0.053099
#
#
# Mechanical properties :
#
#
# Convention : Reuss Voigt Hill
#
# Bulk Modulus (GPa) = 58.41832 66.44896 62.43364
# Shear Modulus (GPa) = 23.21864 31.84511 27.53187
#
# Velocity S-wave (km/s) = 3.42034 4.00564 3.72451
# Velocity P-wave (km/s) = 6.71062 7.40769 7.06776
#
# Compressibility (1/GPa) = 0.01711792
#
# Stress axis : x y z
#
# Youngs Moduli (GPa) = 53.99327 67.47867 55.26533
#
# Poissons Ratio (x) = 0.32143 0.61007
# Poissons Ratio (y) = 0.25719 0.07495
# Poissons Ratio (z) = 0.59603 0.09151
#
# Static dielectric constant tensor:
#      x y z
#    x 1.792630 0.041850 0.032030 
#    y 0.041850 1.733390 -0.041630 
#    z 0.032030 -0.041630 1.599000 
# 
# From -- ./inp_files/342497.got.cif
#   From: 2010.05.17/outbox.cif.g08.bks.cpg/sg2_172_cif.got.tgz:342497.got - 2010.06.03 11:33:40.
