data_PCOD9054154
_publ_section_title
;
Structure prediction by ZEFSAII (Michael W. Deem and Ramdas Pophale) SiO2 
 PCOD9054154
Probable space group: P -1
;
_chemical_formula_sum "Si O2"
_cell_formula_units_Z 16
_cell_length_a 11.897007
_cell_length_b 14.696190
_cell_length_c 8.891803
_cell_angle_alpha 47.276062
_cell_angle_beta 39.825025
_cell_angle_gamma 41.468569
_cell_volume 639.605048
_symmetry_space_group_name_H-M "P -1"
_symmetry_group_IT_number 2
_symmetry_cell_setting 'triclinic'
loop_
_space_group_symop_operation_xyz
x,y,z
-x,-y,-z
loop_
_atom_site_type_symbol
_atom_site_label
_atom_site_fract_x
_atom_site_fract_y
_atom_site_fract_z
Si Si1 0.926739 0.383735 0.727771
Si Si2 0.987915 0.623696 0.770627
Si Si3 0.594826 0.505759 0.698750
Si Si4 0.416190 0.299701 0.079972
Si Si5 0.089977 0.218706 0.029197
Si Si6 0.845882 0.913546 0.337451
Si Si7 0.524502 0.802473 0.515295
Si Si8 0.168480 0.939645 0.129851
O O1 0.709550 0.443848 0.809372
O O2 0.000000 0.500000 0.500000
O O3 0.934346 0.340556 0.941193
O O4 0.073270 0.238214 0.655004
O O5 0.204188 0.555327 0.544057
O O6 0.791862 0.669117 0.816801
O O7 0.000000 0.500000 0.000000
O O8 0.942839 0.742142 0.808589
O O9 0.487363 0.677622 0.622754
O O10 0.470115 0.426837 0.873049
O O11 0.430486 0.248157 0.297989
O O12 0.604759 0.173215 0.942771
O O13 0.359752 0.969314 0.504924
O O14 0.295458 0.203050 0.762902
O O15 0.084715 0.074442 0.169694
O O16 0.834244 0.002457 0.100820
O O17 0.016162 0.880795 0.323108
#
# Coordination Sequence:
#
# PCOD9054154 Si02
#       8
#     2   2   2   2   2   2   2   2
#     4  11  20  40  75 103 136 179 241 299 350 414
#     4  12  27  47  68 100 150 195 236 292 358 436
#     4  12  25  47  73 108 139 187 242 300 364 420
#     4  11  26  46  73 106 142 185 242 305 357 426
#     4  11  24  42  68 103 143 190 236 288 364 429
#     4   9  20  38  69 103 144 174 228 305 358 413
#     4  11  23  43  70 111 136 180 241 300 357 420
#     4   9  20  43  66 101 142 182 234 296 361 423
#
# _framework density 25.015439000000001
#
# number of rings (size 3 to 8) (size 9 to 14) (size 15 to 20)
#    0.000    1.250    3.750    1.125    3.500    7.500 
#    2.250    0.625    0.000    0.000    0.000    0.000 
#    0.000    0.000    0.000    0.000    0.000    0.000 
#
# Total GULP energy -89427.541909 kJ/mol
# GULP energy per Si atom -5589.221369 kJ/mol
# Density = 2.495850 g / cm^3
# Si number density = 25.015439 Si / 1000 Ang^3
#
#
#
# Elastic Constant Matrix: (Units=GPa)
#
#
# Indices 1 2 3 4 5 6 
#
# 1 104.4302 71.8566 47.3122 13.9838 -10.5621 7.6708
# 2 71.8566 189.1659 38.5510 8.1554 -3.4834 1.2467
# 3 47.3122 38.5510 85.6323 11.3126 8.3717 2.0452
# 4 13.9838 8.1554 11.3126 31.6957 -2.3573 -1.4761
# 5 -10.5621 -3.4834 8.3717 -2.3573 25.9274 -2.6405
# 6 7.6708 1.2467 2.0452 -1.4761 -2.6405 52.1128
#
#
#
# Elastic Compliance Matrix: (Units=1/GPa)
#
#
# Indices 1 2 3 4 5 6 
#
# 1 0.018140 -0.004901 -0.008214 -0.003236 0.008899 -0.001871
# 2 -0.004901 0.007221 -0.000544 0.000468 -0.000752 0.000545
# 3 -0.008214 -0.000544 0.017826 -0.003306 -0.009481 -0.000052
# 4 -0.003236 0.000468 -0.003306 0.034349 0.003111 0.001725
# 5 0.008899 -0.000752 -0.009481 0.003111 0.045588 0.001478
# 6 -0.001871 0.000545 -0.000052 0.001725 0.001478 0.019577
#
#
# Mechanical properties :
#
#
# Convention : Reuss Voigt Hill
#
# Bulk Modulus (GPa) = 63.01680 77.18534 70.10107
# Shear Modulus (GPa) = 28.52090 36.71442 32.61766
#
# Velocity S-wave (km/s) = 3.38025 3.83517 3.61487
# Velocity P-wave (km/s) = 6.36244 7.10869 6.74589
#
# Compressibility (1/GPa) = 0.01586879
#
# Stress axis : x y z
#
# Youngs Moduli (GPa) = 55.12617 138.47688 56.09795
#
# Poissons Ratio (x) = 0.67869 0.46078
# Poissons Ratio (y) = 0.27018 0.03054
# Poissons Ratio (z) = 0.45280 0.07539
#
# Static dielectric constant tensor:
#      x y z
#    x 2.033320 0.011230 -0.040130 
#    y 0.011230 2.048050 -0.025050 
#    z -0.040130 -0.025050 2.043100 
# 
# From -- ./inp_files/335160.got.cif
#   From: 2010.05.17/outbox.cif.g08.bks.cpg/sg2_168_cif.got.tgz:335160.got - 2010.06.03 11:33:40.
