data_PCOD9054828
_publ_section_title
;
Structure prediction by ZEFSAII (Michael W. Deem and Ramdas Pophale) SiO2 
 PCOD9054828
Probable space group: P -1
;
_chemical_formula_sum "Si O2"
_cell_formula_units_Z 14
_cell_length_a 9.786287
_cell_length_b 8.993113
_cell_length_c 15.060009
_cell_angle_alpha 145.345395
_cell_angle_beta 65.202091
_cell_angle_gamma 101.904597
_cell_volume 659.005138
_symmetry_space_group_name_H-M "P -1"
_symmetry_group_IT_number 2
_symmetry_cell_setting 'triclinic'
loop_
_space_group_symop_operation_xyz
x,y,z
-x,-y,-z
loop_
_atom_site_type_symbol
_atom_site_label
_atom_site_fract_x
_atom_site_fract_y
_atom_site_fract_z
Si Si1 0.545035 0.720065 0.535474
Si Si2 0.318199 0.933737 0.544525
Si Si3 0.010665 0.158975 0.932966
Si Si4 0.222074 0.480056 0.947796
Si Si5 0.880955 0.269315 0.626306
Si Si6 0.562474 0.265217 0.775668
Si Si7 0.888864 0.366157 0.254848
O O1 0.500000 0.500000 0.500000
O O2 0.422169 0.764151 0.510143
O O3 0.727275 0.594915 0.404491
O O4 0.537927 0.020301 0.722454
O O5 0.176816 0.812359 0.493088
O O6 0.416712 0.880896 0.400075
O O7 0.251165 0.244022 0.747015
O O8 0.889438 0.245508 0.927136
O O9 0.912361 0.227328 0.083742
O O10 0.127070 0.350588 0.981376
O O11 0.106877 0.849869 0.773585
O O12 0.396454 0.488644 0.931693
O O13 0.725669 0.342633 0.767747
O O14 0.968456 0.500294 0.707212
O O15 0.000000 0.000000 0.500000
#
# Coordination Sequence:
#
# PCOD9054828 Si02
#       7
#     2   2   2   2   2   2   2
#     4  11  19  32  57  85 110 132 179 237 272 315
#     4   9  19  33  60  84 100 140 177 228 280 316
#     4  10  22  32  57  74 110 151 182 220 248 325
#     4  10  17  36  53  83 104 139 190 218 263 320
#     4  10  19  34  59  83 109 141 176 227 283 327
#     4   9  18  32  58  80 104 141 176 226 276 315
#     4  11  20  37  53  81 109 143 184 215 274 321
#
# _framework density 21.244143999999999
#
# number of rings (size 3 to 8) (size 9 to 14) (size 15 to 20)
#    0.857    1.143    1.429    6.000    0.000    0.000 
#    0.000    4.286    3.143    0.000    0.000    0.000 
#    0.000    0.000    0.000    0.000    0.000    0.000 
#
# Total GULP energy -77992.575916 kJ/mol
# GULP energy per Si atom -5570.898280 kJ/mol
# Density = 2.119579 g / cm^3
# Si number density = 21.244144 Si / 1000 Ang^3
#
#
#
# Elastic Constant Matrix: (Units=GPa)
#
#
# Indices 1 2 3 4 5 6 
#
# 1 142.9117 39.9441 24.0646 23.7290 -30.4800 7.4776
# 2 39.9441 102.4624 11.2758 26.4708 -11.4554 -4.4852
# 3 24.0646 11.2758 42.0015 5.6409 -16.1787 -13.6199
# 4 23.7290 26.4708 5.6409 36.6365 0.1126 -14.7866
# 5 -30.4800 -11.4554 -16.1787 0.1126 36.4566 6.8433
# 6 7.4776 -4.4852 -13.6199 -14.7866 6.8433 28.1193
#
#
#
# Elastic Compliance Matrix: (Units=1/GPa)
#
#
# Indices 1 2 3 4 5 6 
#
# 1 0.014562 -0.000223 -0.007519 -0.015756 0.012354 -0.018841
# 2 -0.000223 0.013272 -0.002224 -0.011526 0.004154 -0.005973
# 3 -0.007519 -0.002224 0.036924 0.010380 0.004902 0.023794
# 4 -0.015756 -0.011526 0.010380 0.062614 -0.020902 0.045392
# 5 0.012354 0.004154 0.004902 -0.020902 0.045492 -0.022311
# 6 -0.018841 -0.005973 0.023794 0.045392 -0.022311 0.080444
#
#
# Mechanical properties :
#
#
# Convention : Reuss Voigt Hill
#
# Bulk Modulus (GPa) = 22.30824 48.66051 35.48437
# Shear Modulus (GPa) = 17.35016 34.38189 25.86602
#
# Velocity S-wave (km/s) = 2.86090 4.02732 3.49314
# Velocity P-wave (km/s) = 4.62998 6.67689 5.74533
#
# Compressibility (1/GPa) = 0.04482649
#
# Stress axis : x y z
#
# Youngs Moduli (GPa) = 68.67007 75.34689 27.08290
#
# Poissons Ratio (x) = 0.01679 0.20363
# Poissons Ratio (y) = 0.01530 0.06024
# Poissons Ratio (z) = 0.51631 0.16759
#
# Static dielectric constant tensor:
#      x y z
#    x 1.837740 0.002500 0.013930 
#    y 0.002500 1.810100 -0.032210 
#    z 0.013930 -0.032210 1.813150 
# 
# From -- ./inp_files/387159.got.cif
#   From: 2010.05.17/outbox.cif.g08.bks.cpg/sg2_194_cif.got.tgz:387159.got - 2010.06.03 11:33:40.
