data_PCOD9054647
_publ_section_title
;
Structure prediction by ZEFSAII (Michael W. Deem and Ramdas Pophale) SiO2 
 PCOD9054647
Probable space group: P -1
;
_chemical_formula_sum "Si O2"
_cell_formula_units_Z 16
_cell_length_a 8.818268
_cell_length_b 16.090938
_cell_length_c 14.492759
_cell_angle_alpha 48.943438
_cell_angle_beta 141.049364
_cell_angle_gamma 98.748728
_cell_volume 637.359375
_symmetry_space_group_name_H-M "P -1"
_symmetry_group_IT_number 2
_symmetry_cell_setting 'triclinic'
loop_
_space_group_symop_operation_xyz
x,y,z
-x,-y,-z
loop_
_atom_site_type_symbol
_atom_site_label
_atom_site_fract_x
_atom_site_fract_y
_atom_site_fract_z
Si Si1 0.948345 0.618545 0.459697
Si Si2 0.103295 0.737734 0.123697
Si Si3 0.590806 0.013880 0.821220
Si Si4 0.938875 0.493190 0.734539
Si Si5 0.102700 0.153745 0.250677
Si Si6 0.852123 0.660991 0.725408
Si Si7 0.789723 0.236402 0.549405
Si Si8 0.817076 0.024223 0.236238
O O1 0.000911 0.548753 0.635819
O O2 0.000000 0.500000 0.500000
O O3 0.213350 0.630629 0.557831
O O4 0.548797 0.812806 0.113001
O O5 0.498125 0.618925 0.445090
O O6 0.929932 0.676346 0.099224
O O7 0.814487 0.918737 0.902071
O O8 0.156135 0.739014 0.039399
O O9 0.321175 0.006986 0.725339
O O10 0.365179 0.201975 0.560885
O O11 0.890963 0.909862 0.119999
O O12 0.097722 0.494050 0.901355
O O13 0.050332 0.273034 0.208228
O O14 0.004580 0.074567 0.312825
O O15 0.500000 0.000000 0.500000
O O16 0.583370 0.678601 0.645468
O O17 0.916653 0.135954 0.588167
#
# Coordination Sequence:
#
# PCOD9054647 Si02
#       8
#     2   2   2   2   2   2   2   2
#     4  11  23  40  66  97 129 159 211 269 326 370
#     4  11  23  41  65  91 126 165 218 260 315 378
#     4  11  21  37  63  96 123 161 215 271 312 366
#     4  11  23  41  65  95 123 166 214 269 312 372
#     4  12  24  43  63  95 130 177 207 260 316 382
#     4  12  24  38  66  94 132 165 215 259 318 378
#     4  11  21  37  62  97 128 163 208 269 319 370
#     4  11  22  39  64  93 130 166 210 263 322 371
#
# _framework density 25.103577999999999
#
# number of rings (size 3 to 8) (size 9 to 14) (size 15 to 20)
#    0.000    0.750    5.000    4.875    1.750    1.000 
#    0.000    0.000    0.000    2.250    0.000    0.000 
#    0.000    0.000    0.000    0.000    0.000    0.000 
#
# Total GULP energy -89639.426517 kJ/mol
# GULP energy per Si atom -5602.464157 kJ/mol
# Density = 2.504644 g / cm^3
# Si number density = 25.103578 Si / 1000 Ang^3
#
#
#
# Elastic Constant Matrix: (Units=GPa)
#
#
# Indices 1 2 3 4 5 6 
#
# 1 139.3060 60.3300 12.8333 6.0247 -14.7507 19.2394
# 2 60.3300 183.5554 10.7488 0.0759 1.8134 2.1874
# 3 12.8333 10.7488 61.9761 -9.2502 -4.8836 -4.3452
# 4 6.0247 0.0759 -9.2502 27.6727 -1.3719 -4.3349
# 5 -14.7507 1.8134 -4.8836 -1.3719 36.3369 -2.3358
# 6 19.2394 2.1874 -4.3452 -4.3349 -2.3358 60.6095
#
#
#
# Elastic Compliance Matrix: (Units=1/GPa)
#
#
# Indices 1 2 3 4 5 6 
#
# 1 0.009603 -0.003043 -0.001859 -0.003025 0.003483 -0.003154
# 2 -0.003043 0.006484 -0.000495 0.000507 -0.001563 0.000672
# 3 -0.001859 -0.000495 0.017976 0.006907 0.002106 0.002472
# 4 -0.003025 0.000507 0.006907 0.039855 0.001459 0.004344
# 5 0.003483 -0.001563 0.002106 0.001459 0.029372 0.000338
# 6 -0.003154 0.000672 0.002472 0.004344 0.000338 0.017977
#
#
# Mechanical properties :
#
#
# Convention : Reuss Voigt Hill
#
# Bulk Modulus (GPa) = 42.97390 61.40685 52.19037
# Shear Modulus (GPa) = 35.76107 44.98553 40.37330
#
# Velocity S-wave (km/s) = 3.77840 4.23779 4.01467
# Velocity P-wave (km/s) = 6.01589 6.96130 6.50579
#
# Compressibility (1/GPa) = 0.02326994
#
# Stress axis : x y z
#
# Youngs Moduli (GPa) = 104.13735 154.21951 55.62960
#
# Poissons Ratio (x) = 0.46927 0.10341
# Poissons Ratio (y) = 0.31688 0.02753
# Poissons Ratio (z) = 0.19357 0.07631
#
# Static dielectric constant tensor:
#      x y z
#    x 1.901360 0.022150 -0.010830 
#    y 0.022150 1.965460 0.064140 
#    z -0.010830 0.064140 2.069930 
# 
# From -- ./inp_files/206955.got.cif
#   From: 2010.05.17/outbox.cif.g08.bks.cpg/sg2_104_cif.got.tgz:206955.got - 2010.06.03 11:33:40.
