data_PCOD9054779
_publ_section_title
;
Structure prediction by ZEFSAII (Michael W. Deem and Ramdas Pophale) SiO2 
 PCOD9054779
Probable space group: P -1
;
_chemical_formula_sum "Si O2"
_cell_formula_units_Z 16
_cell_length_a 9.642951
_cell_length_b 11.982965
_cell_length_c 13.173410
_cell_angle_alpha 149.022653
_cell_angle_beta 93.410374
_cell_angle_gamma 96.836028
_cell_volume 738.020670
_symmetry_space_group_name_H-M "P -1"
_symmetry_group_IT_number 2
_symmetry_cell_setting 'triclinic'
loop_
_space_group_symop_operation_xyz
x,y,z
-x,-y,-z
loop_
_atom_site_type_symbol
_atom_site_label
_atom_site_fract_x
_atom_site_fract_y
_atom_site_fract_z
Si Si1 0.409495 0.238044 0.771330
Si Si2 0.175525 0.039908 0.006816
Si Si3 0.501932 0.178949 0.507995
Si Si4 0.082503 0.666425 0.992637
Si Si5 0.826184 0.433260 0.436133
Si Si6 0.799813 0.518928 0.737188
Si Si7 0.282647 0.176937 0.331345
Si Si8 0.095998 0.223683 0.741653
O O1 0.410174 0.188363 0.611802
O O2 0.242047 0.180750 0.753164
O O3 0.487377 0.073563 0.697920
O O4 0.500000 0.500000 0.000000
O O5 0.216026 0.819616 0.806741
O O6 0.205587 0.223539 0.061921
O O7 0.283793 0.150231 0.189983
O O8 0.000000 0.000000 0.000000
O O9 0.668153 0.348601 0.661935
O O10 0.428400 0.244062 0.456772
O O11 0.146558 0.464789 0.868988
O O12 0.960020 0.547885 0.809911
O O13 0.998731 0.726315 0.132153
O O14 0.188119 0.917014 0.158487
O O15 0.780425 0.440703 0.557578
O O16 0.786431 0.617113 0.506591
O O17 0.000000 0.500000 0.500000
O O18 0.000000 0.000000 0.500000
#
# Coordination Sequence:
#
# PCOD9054779 Si02
#       8
#     2   2   2   2   2   2   2   2
#     4  11  24  45  64  88 132 173 212 257 322 372
#     4  11  21  42  62  94 128 159 199 264 316 374
#     4  11  26  43  62  94 128 171 216 261 306 384
#     4  11  22  41  64  96 128 159 218 265 316 378
#     4  11  21  38  64  94 122 159 210 255 319 377
#     4  11  23  40  64  91 128 167 208 261 316 372
#     4  11  23  40  64  91 128 167 208 261 316 372
#     4  11  24  39  64  98 126 163 212 273 316 374
#
# _framework density 21.67961
#
# number of rings (size 3 to 8) (size 9 to 14) (size 15 to 20)
#    0.000    1.000    3.750    3.000    0.000   15.000 
#    0.000    1.250    0.000    0.000    0.000    0.000 
#    0.000    0.000    0.000    0.000    0.000    0.000 
#
# Total GULP energy -89335.764164 kJ/mol
# GULP energy per Si atom -5583.485260 kJ/mol
# Density = 2.163027 g / cm^3
# Si number density = 21.679610 Si / 1000 Ang^3
#
#
#
# Elastic Constant Matrix: (Units=GPa)
#
#
# Indices 1 2 3 4 5 6 
#
# 1 52.0633 3.1373 25.4344 -4.3030 -12.4094 -16.0872
# 2 3.1373 50.9664 6.5109 4.3186 -17.0415 -18.4122
# 3 25.4344 6.5109 108.2499 16.2837 -26.2185 -16.2180
# 4 -4.3030 4.3186 16.2837 34.8945 -6.1040 5.6018
# 5 -12.4094 -17.0415 -26.2185 -6.1040 32.7261 8.4912
# 6 -16.0872 -18.4122 -16.2180 5.6018 8.4912 37.7116
#
#
#
# Elastic Compliance Matrix: (Units=1/GPa)
#
#
# Indices 1 2 3 4 5 6 
#
# 1 0.025739 0.004328 -0.003777 0.004221 0.007394 0.009176
# 2 0.004328 0.030032 0.003981 -0.004793 0.015572 0.015426
# 3 -0.003777 0.003981 0.013896 -0.006680 0.009169 0.005236
# 4 0.004221 -0.004793 -0.006680 0.034822 0.002629 -0.009177
# 5 0.007394 0.015572 0.009169 0.002629 0.048421 0.003407
# 6 0.009176 0.015426 0.005236 -0.009177 0.003407 0.040811
#
#
# Mechanical properties :
#
#
# Convention : Reuss Voigt Hill
#
# Bulk Modulus (GPa) = 12.70185 31.27165 21.98675
# Shear Modulus (GPa) = 23.70784 32.81293 28.26038
#
# Velocity S-wave (km/s) = 3.31048 3.89464 3.61438
# Velocity P-wave (km/s) = 4.52592 5.88898 5.25186
#
# Compressibility (1/GPa) = 0.07872868
#
# Stress axis : x y z
#
# Youngs Moduli (GPa) = 38.85230 33.29805 71.96345
#
# Poissons Ratio (x) = -0.14411 0.27182
# Poissons Ratio (y) = -0.16815 -0.28646
# Poissons Ratio (z) = 0.14675 -0.13255
#
# Static dielectric constant tensor:
#      x y z
#    x 1.794230 0.007920 -0.018820 
#    y 0.007920 1.810150 0.024010 
#    z -0.018820 0.024010 1.844740 
# 
# From -- ./inp_files/501235.got.cif
#   From: 2010.05.17/outbox.cif.g08.bks.cpg/sg2_251_cif.got.tgz:501235.got - 2010.06.03 11:33:40.
