data_PCOD9054117
_publ_section_title
;
Structure prediction by ZEFSAII (Michael W. Deem and Ramdas Pophale) SiO2 
 PCOD9054117
Probable space group: P -1
;
_chemical_formula_sum "Si O2"
_cell_formula_units_Z 14
_cell_length_a 12.305781
_cell_length_b 9.910099
_cell_length_c 12.270711
_cell_angle_alpha 63.884549
_cell_angle_beta 34.246473
_cell_angle_gamma 87.667049
_cell_volume 581.299212
_symmetry_space_group_name_H-M "P -1"
_symmetry_group_IT_number 2
_symmetry_cell_setting 'triclinic'
loop_
_space_group_symop_operation_xyz
x,y,z
-x,-y,-z
loop_
_atom_site_type_symbol
_atom_site_label
_atom_site_fract_x
_atom_site_fract_y
_atom_site_fract_z
Si Si1 0.361010 0.533213 0.693098
Si Si2 0.408989 0.819652 0.875906
Si Si3 0.881581 0.140162 0.736736
Si Si4 0.080687 0.598953 0.581898
Si Si5 0.292246 0.165512 0.174725
Si Si6 0.370052 0.434821 0.332141
Si Si7 0.197815 0.776588 0.657970
O O1 0.500000 0.500000 0.500000
O O2 0.533125 0.607309 0.630566
O O3 0.312487 0.680159 0.645016
O O4 0.079781 0.333444 0.025168
O O5 0.544321 0.822610 0.869719
O O6 0.614478 0.990877 0.565070
O O7 0.245481 0.874934 0.040350
O O8 0.201403 0.598792 0.088042
O O9 0.903058 0.286814 0.578757
O O10 0.169727 0.247554 0.490401
O O11 0.702256 0.927505 0.907888
O O12 0.231829 0.520762 0.456076
O O13 0.172896 0.732766 0.564260
O O14 0.392470 0.381383 0.995367
O O15 0.000000 0.000000 0.500000
#
# Coordination Sequence:
#
# PCOD9054117 Si02
#       7
#     2   2   2   2   2   2   2
#     4  11  25  46  70  89 129 177 222 273 319 380
#     4  11  21  40  64  98 128 165 216 255 325 393
#     4  11  22  38  65  97 134 172 199 259 336 387
#     4  11  20  40  69  96 133 168 206 267 326 390
#     4  12  23  34  59  95 132 166 209 264 318 392
#     4  11  22  41  62  95 130 167 216 262 323 385
#     4  11  24  44  70  94 127 177 216 270 327 366
#
# _framework density 24.083981000000001
#
# number of rings (size 3 to 8) (size 9 to 14) (size 15 to 20)
#    0.000    0.857    5.714    3.000    0.000    1.714 
#    0.000    7.143    0.000    0.000    0.000    0.000 
#    0.000    0.000    0.000    0.000    0.000    0.000 
#
# Total GULP energy -78426.232546 kJ/mol
# GULP energy per Si atom -5601.873753 kJ/mol
# Density = 2.402916 g / cm^3
# Si number density = 24.083981 Si / 1000 Ang^3
#
#
#
# Elastic Constant Matrix: (Units=GPa)
#
#
# Indices 1 2 3 4 5 6 
#
# 1 128.9529 4.0805 40.2094 -11.7465 -15.2485 -13.9359
# 2 4.0805 80.5633 41.7269 2.8362 -11.2686 -7.4391
# 3 40.2094 41.7269 141.2651 -10.3056 -9.2552 -4.5538
# 4 -11.7465 2.8362 -10.3056 41.7086 5.3065 0.3360
# 5 -15.2485 -11.2686 -9.2552 5.3065 32.6357 -2.5406
# 6 -13.9359 -7.4391 -4.5538 0.3360 -2.5406 13.7144
#
#
#
# Elastic Compliance Matrix: (Units=1/GPa)
#
#
# Indices 1 2 3 4 5 6 
#
# 1 0.010810 0.003015 -0.003077 0.001213 0.006010 0.012682
# 2 0.003015 0.017206 -0.005271 -0.002639 0.007222 0.012049
# 3 -0.003077 -0.005271 0.009484 0.002005 -0.001135 -0.003096
# 4 0.001213 -0.002639 0.002005 0.025508 -0.003994 -0.000899
# 5 0.006010 0.007222 -0.001135 -0.003994 0.037571 0.016705
# 6 0.012682 0.012049 -0.003096 -0.000899 0.016705 0.094427
#
#
# Mechanical properties :
#
#
# Convention : Reuss Voigt Hill
#
# Bulk Modulus (GPa) = 37.26663 58.09057 47.67860
# Shear Modulus (GPa) = 23.29742 35.26270 29.28006
#
# Velocity S-wave (km/s) = 3.11358 3.83058 3.49054
# Velocity P-wave (km/s) = 5.33227 6.61338 6.00708
#
# Compressibility (1/GPa) = 0.02683366
#
# Stress axis : x y z
#
# Youngs Moduli (GPa) = 92.50406 58.12021 105.44374
#
# Poissons Ratio (x) = -0.17523 0.32440
# Poissons Ratio (y) = -0.27889 0.55583
# Poissons Ratio (z) = 0.28459 0.30637
#
# Static dielectric constant tensor:
#      x y z
#    x 1.859120 -0.011750 -0.025250 
#    y -0.011750 2.012830 0.101560 
#    z -0.025250 0.101560 1.993870 
# 
# From -- ./inp_files/203883.got.cif
#   From: 2010.05.17/outbox.cif.g08.bks.cpg/sg2_102_cif.got.tgz:203883.got - 2010.06.03 11:33:40.
