data_PCOD9054678
_publ_section_title
;
Structure prediction by ZEFSAII (Michael W. Deem and Ramdas Pophale) SiO2 
 PCOD9054678
Probable space group: P -1
;
_chemical_formula_sum "Si O2"
_cell_formula_units_Z 15
_cell_length_a 8.670571
_cell_length_b 18.448008
_cell_length_c 12.704901
_cell_angle_alpha 27.039557
_cell_angle_beta 50.233221
_cell_angle_gamma 53.005703
_cell_volume 707.142043
_symmetry_space_group_name_H-M "P -1"
_symmetry_group_IT_number 2
_symmetry_cell_setting 'triclinic'
loop_
_space_group_symop_operation_xyz
x,y,z
-x,-y,-z
loop_
_atom_site_type_symbol
_atom_site_label
_atom_site_fract_x
_atom_site_fract_y
_atom_site_fract_z
Si Si1 0.139220 0.728560 0.472579
Si Si2 0.746084 0.347737 0.851118
Si Si3 0.404666 0.525017 0.893738
Si Si4 0.596860 0.817993 0.126225
Si Si5 0.543202 0.861530 0.325337
Si Si6 0.884031 0.533397 0.350622
Si Si7 0.148173 0.005315 0.828437
Si Si8 0.000000 0.500000 0.000000
O O1 0.363269 0.781556 0.284777
O O2 0.087983 0.618157 0.540125
O O3 0.129044 0.621273 0.718423
O O4 0.975086 0.880727 0.348590
O O5 0.526663 0.394550 0.933344
O O6 0.785658 0.466550 0.584846
O O7 0.911588 0.389556 0.810613
O O8 0.785793 0.167680 0.024757
O O9 0.453261 0.700527 0.606844
O O10 0.170873 0.499312 0.020924
O O11 0.500000 0.500000 0.000000
O O12 0.669327 0.827661 0.204301
O O13 0.724257 0.674794 0.196702
O O14 0.604613 0.985704 0.846162
O O15 0.665625 0.917783 0.298570
O O16 0.000000 0.000000 0.000000
#
# Coordination Sequence:
#
# PCOD9054678 Si02
#       8
#     2   2   2   2   2   2   2   1
#     4  12  24  42  67  98 135 182 228 280 344 414
#     4  11  23  39  66 103 139 171 230 287 341 412
#     4  12  26  49  72  99 140 192 234 280 344 421
#     4  11  22  37  68 100 135 165 226 292 346 399
#     4  11  22  40  65  98 132 175 223 284 347 405
#     4  11  21  37  65 102 137 171 222 289 352 407
#     4  12  22  39  67 101 136 175 219 282 356 405
#     4  12  26  46  70  94 138 190 236 270 344 416
#
# _framework density 21.212147000000002
#
# number of rings (size 3 to 8) (size 9 to 14) (size 15 to 20)
#    0.000    0.533    5.333    3.600    1.867    1.067 
#    0.000    4.000    0.000    5.600    0.000    0.000 
#    0.000    0.000    0.000    0.000    0.000    0.000 
#
# Total GULP energy -83624.132979 kJ/mol
# GULP energy per Si atom -5574.942199 kJ/mol
# Density = 2.116387 g / cm^3
# Si number density = 21.212147 Si / 1000 Ang^3
#
#
#
# Elastic Constant Matrix: (Units=GPa)
#
#
# Indices 1 2 3 4 5 6 
#
# 1 110.7690 12.7393 28.7315 -8.3263 -13.7177 12.7438
# 2 12.7393 66.3826 38.7624 -36.3386 -11.9278 3.6288
# 3 28.7315 38.7624 95.4285 -16.1248 5.4657 -7.3254
# 4 -8.3263 -36.3386 -16.1248 38.0552 8.4287 2.5329
# 5 -13.7177 -11.9278 5.4657 8.4287 31.8220 -7.7775
# 6 12.7438 3.6288 -7.3254 2.5329 -7.7775 22.4702
#
#
#
# Elastic Compliance Matrix: (Units=1/GPa)
#
#
# Indices 1 2 3 4 5 6 
#
# 1 0.011758 0.004422 -0.005554 0.003939 0.004677 -0.008018
# 2 0.004422 0.046441 -0.015476 0.038136 0.007801 -0.016652
# 3 -0.005554 -0.015476 0.018367 -0.007342 -0.006946 0.010060
# 4 0.003939 0.038136 -0.007342 0.062619 -0.004035 -0.019242
# 5 0.004677 0.007801 -0.006946 -0.004035 0.040668 0.008355
# 6 -0.008018 -0.016652 0.010060 -0.019242 0.008355 0.060080
#
#
# Mechanical properties :
#
#
# Convention : Reuss Voigt Hill
#
# Bulk Modulus (GPa) = 23.06874 48.11626 35.59250
# Shear Modulus (GPa) = 17.38533 31.29262 24.33898
#
# Velocity S-wave (km/s) = 2.86596 3.84503 3.39102
# Velocity P-wave (km/s) = 4.67445 6.51498 5.66989
#
# Compressibility (1/GPa) = 0.04334870
#
# Stress axis : x y z
#
# Youngs Moduli (GPa) = 85.05170 21.53289 54.44542
#
# Poissons Ratio (x) = -0.09521 0.30237
# Poissons Ratio (y) = -0.37607 0.84261
# Poissons Ratio (z) = 0.47235 0.33325
#
# Static dielectric constant tensor:
#      x y z
#    x 1.840540 -0.009600 0.023500 
#    y -0.009600 1.778000 -0.012860 
#    z 0.023500 -0.012860 1.748920 
# 
# From -- ./inp_files/401625.got.cif
#   From: 2010.05.17/outbox.cif.g08.bks.cpg/sg2_201_cif.got.tgz:401625.got - 2010.06.03 11:33:40.
