data_PCOD9054222
_publ_section_title
;
Structure prediction by ZEFSAII (Michael W. Deem and Ramdas Pophale) SiO2 
 PCOD9054222
Probable space group: P -1
;
_chemical_formula_sum "Si O2"
_cell_formula_units_Z 15
_cell_length_a 11.521709
_cell_length_b 6.852938
_cell_length_c 12.319929
_cell_angle_alpha 49.090821
_cell_angle_beta 66.665359
_cell_angle_gamma 57.751545
_cell_volume 620.092318
_symmetry_space_group_name_H-M "P -1"
_symmetry_group_IT_number 2
_symmetry_cell_setting 'triclinic'
loop_
_space_group_symop_operation_xyz
x,y,z
-x,-y,-z
loop_
_atom_site_type_symbol
_atom_site_label
_atom_site_fract_x
_atom_site_fract_y
_atom_site_fract_z
Si Si1 0.900424 0.615632 0.364273
Si Si2 0.970082 0.122548 0.219080
Si Si3 0.550090 0.345620 0.422959
Si Si4 0.702634 0.684593 0.605676
Si Si5 0.000000 0.000000 0.500000
Si Si6 0.406443 0.329764 0.126743
Si Si7 0.659069 0.791523 0.212436
Si Si8 0.219327 0.264869 0.028093
O O1 0.834302 0.573726 0.518533
O O2 0.774910 0.704363 0.292490
O O3 0.951295 0.866867 0.258268
O O4 0.006912 0.311452 0.400762
O O5 0.124044 0.114159 0.164024
O O6 0.938222 0.096028 0.365739
O O7 0.877053 0.419227 0.090487
O O8 0.500000 0.500000 0.500000
O O9 0.418337 0.366246 0.396029
O O10 0.625623 0.531542 0.277298
O O11 0.652894 0.022331 0.509431
O O12 0.697405 0.569266 0.769918
O O13 0.324494 0.286318 0.070092
O O14 0.522299 0.026404 0.226105
O O15 0.500000 0.500000 0.000000
O O16 0.706319 0.898854 0.047719
#
# Coordination Sequence:
#
# PCOD9054222 Si02
#       8
#     2   2   2   2   1   2   2   2
#     4  12  26  47  80 112 151 198 261 332 382 446
#     4  11  27  52  76 111 149 207 259 320 379 454
#     4  11  20  41  70 111 149 192 245 301 381 448
#     4  11  24  41  72 112 149 195 249 312 382 452
#     4  12  28  52  74 108 148 198 276 320 376 440
#     4  12  26  45  71 116 157 201 249 300 385 477
#     4  12  23  46  77 110 155 199 240 316 381 460
#     4  11  26  49  77 110 160 204 253 308 388 463
#
# _framework density 24.189945000000002
#
# number of rings (size 3 to 8) (size 9 to 14) (size 15 to 20)
#    0.000    0.533    4.000    4.000    1.867    2.667 
#    2.400    0.000    0.000    0.000    0.000    0.000 
#    0.000    0.000    0.000    0.000    0.000    0.000 
#
# Total GULP energy -83776.381857 kJ/mol
# GULP energy per Si atom -5585.092124 kJ/mol
# Density = 2.413489 g / cm^3
# Si number density = 24.189945 Si / 1000 Ang^3
#
#
#
# Elastic Constant Matrix: (Units=GPa)
#
#
# Indices 1 2 3 4 5 6 
#
# 1 118.9008 26.1883 42.9549 -9.0721 -18.8307 23.6621
# 2 26.1883 85.8528 10.9793 -14.4013 -10.5099 28.2558
# 3 42.9549 10.9793 80.9667 -3.6460 -3.4983 15.5214
# 4 -9.0721 -14.4013 -3.6460 50.0971 10.1478 -6.3080
# 5 -18.8307 -10.5099 -3.4983 10.1478 47.1195 -3.1885
# 6 23.6621 28.2558 15.5214 -6.3080 -3.1885 35.8524
#
#
#
# Elastic Compliance Matrix: (Units=1/GPa)
#
#
# Indices 1 2 3 4 5 6 
#
# 1 0.012038 -0.001022 -0.005209 0.000158 0.003857 -0.004514
# 2 -0.001022 0.016510 0.000818 0.002712 0.001936 -0.012042
# 3 -0.005209 0.000818 0.015749 0.000132 -0.001036 -0.004094
# 4 0.000158 0.002712 0.000132 0.021721 -0.003921 0.001174
# 5 0.003857 0.001936 -0.001036 -0.003921 0.023815 -0.002195
# 6 -0.004514 -0.012042 -0.004094 0.001174 -0.002195 0.042146
#
#
# Mechanical properties :
#
#
# Convention : Reuss Voigt Hill
#
# Bulk Modulus (GPa) = 29.87621 49.55171 39.71396
# Shear Modulus (GPa) = 32.47528 40.32032 36.39780
#
# Velocity S-wave (km/s) = 3.66800 4.08710 3.88321
# Velocity P-wave (km/s) = 5.50604 6.54228 6.04640
#
# Compressibility (1/GPa) = 0.03347145
#
# Stress axis : x y z
#
# Youngs Moduli (GPa) = 83.06705 60.56854 63.49463
#
# Poissons Ratio (x) = 0.06189 0.33075
# Poissons Ratio (y) = 0.08487 -0.05191
# Poissons Ratio (z) = 0.43270 -0.04952
#
# Static dielectric constant tensor:
#      x y z
#    x 1.967230 -0.142420 -0.044780 
#    y -0.142420 2.174850 -0.048720 
#    z -0.044780 -0.048720 1.995350 
# 
# From -- ./inp_files/409809.got.cif
#   From: 2010.05.17/outbox.cif.g08.bks.cpg/sg2_205_cif.got.tgz:409809.got - 2010.06.03 11:33:40.
