data_PCOD9054650
_publ_section_title
;
Structure prediction by ZEFSAII (Michael W. Deem and Ramdas Pophale) SiO2 
 PCOD9054650
Probable space group: P -1
;
_chemical_formula_sum "Si O2"
_cell_formula_units_Z 14
_cell_length_a 9.076278
_cell_length_b 11.671539
_cell_length_c 13.549677
_cell_angle_alpha 35.968949
_cell_angle_beta 46.220176
_cell_angle_gamma 69.169383
_cell_volume 533.348762
_symmetry_space_group_name_H-M "P -1"
_symmetry_group_IT_number 2
_symmetry_cell_setting 'triclinic'
loop_
_space_group_symop_operation_xyz
x,y,z
-x,-y,-z
loop_
_atom_site_type_symbol
_atom_site_label
_atom_site_fract_x
_atom_site_fract_y
_atom_site_fract_z
Si Si1 0.291024 0.616511 0.352027
Si Si2 0.262600 0.347760 0.831497
Si Si3 0.594667 0.933456 0.720394
Si Si4 0.269741 0.676137 0.742199
Si Si5 0.416983 0.464654 0.192461
Si Si6 0.890750 0.091518 0.670187
Si Si7 0.931694 0.190846 0.916395
O O1 0.383746 0.582211 0.227563
O O2 0.239392 0.816897 0.259726
O O3 0.058319 0.387019 0.642185
O O4 0.496725 0.648156 0.311062
O O5 0.146124 0.140772 0.106503
O O6 0.343833 0.587140 0.673760
O O7 0.061913 0.302459 0.879324
O O8 0.684142 0.081157 0.477540
O O9 0.777220 0.050283 0.643205
O O10 0.544808 0.680102 0.913628
O O11 0.341515 0.905464 0.882659
O O12 0.419811 0.643100 0.780554
O O13 0.000000 0.500000 0.000000
O O14 0.157208 0.281260 0.414154
O O15 0.000000 0.000000 0.000000
#
# Coordination Sequence:
#
# PCOD9054650 Si02
#       7
#     2   2   2   2   2   2   2
#     4  11  21  37  63 100 143 184 221 261 334 412
#     4  11  23  41  65 102 139 180 234 277 330 406
#     4  12  25  44  70  97 139 176 227 285 337 405
#     4  11  26  51  74  95 130 178 235 299 349 390
#     4  11  25  45  66 105 137 180 230 276 333 415
#     4  12  22  41  68  98 147 177 220 274 337 414
#     4  12  23  37  64 103 146 185 222 263 334 415
#
# _framework density 26.249241000000001
#
# number of rings (size 3 to 8) (size 9 to 14) (size 15 to 20)
#    0.000    0.571    4.286    6.429    2.000    0.571 
#    0.000    3.571    0.000    0.000    0.000    0.000 
#    0.000    0.000    0.000    0.000    0.000    0.000 
#
# Total GULP energy -78527.612100 kJ/mol
# GULP energy per Si atom -5609.115150 kJ/mol
# Density = 2.618950 g / cm^3
# Si number density = 26.249241 Si / 1000 Ang^3
#
#
#
# Elastic Constant Matrix: (Units=GPa)
#
#
# Indices 1 2 3 4 5 6 
#
# 1 189.1181 22.9425 70.9612 -10.1135 -25.2931 -5.1446
# 2 22.9425 83.1801 32.2549 -20.2316 -1.1530 -5.5903
# 3 70.9612 32.2549 199.2719 -16.4388 -5.7039 -20.0527
# 4 -10.1135 -20.2316 -16.4388 49.3710 -8.9865 -9.4627
# 5 -25.2931 -1.1530 -5.7039 -8.9865 58.0409 -5.8179
# 6 -5.1446 -5.5903 -20.0527 -9.4627 -5.8179 23.7449
#
#
#
# Elastic Compliance Matrix: (Units=1/GPa)
#
#
# Indices 1 2 3 4 5 6 
#
# 1 0.006582 -0.000697 -0.001988 0.001065 0.002896 0.000717
# 2 -0.000697 0.014660 -0.000945 0.006908 0.001528 0.005630
# 3 -0.001988 -0.000945 0.006786 0.002856 0.000868 0.006429
# 4 0.001065 0.006908 0.002856 0.028910 0.007116 0.017533
# 5 0.002896 0.001528 0.000868 0.007116 0.020673 0.009622
# 6 0.000717 0.005630 0.006429 0.017533 0.009622 0.058369
#
#
# Mechanical properties :
#
#
# Convention : Reuss Voigt Hill
#
# Bulk Modulus (GPa) = 48.14822 80.43192 64.29007
# Shear Modulus (GPa) = 33.29705 49.25882 41.27794
#
# Velocity S-wave (km/s) = 3.56546 4.33665 3.96983
# Velocity P-wave (km/s) = 5.94412 7.46884 6.74967
#
# Compressibility (1/GPa) = 0.02076920
#
# Stress axis : x y z
#
# Youngs Moduli (GPa) = 151.92891 68.21132 147.35151
#
# Poissons Ratio (x) = 0.04755 0.29295
# Poissons Ratio (y) = 0.10591 0.13919
# Poissons Ratio (z) = 0.30205 0.06443
#
# Static dielectric constant tensor:
#      x y z
#    x 2.223840 0.048190 0.032960 
#    y 0.048190 2.089540 0.058020 
#    z 0.032960 0.058020 2.042550 
# 
# From -- ./inp_files/307505.got.cif
#   From: 2010.05.17/outbox.cif.g08.bks.cpg/sg2_154_cif.got.tgz:307505.got - 2010.06.03 11:33:40.
