data_PCOD9054249
_publ_section_title
;
Structure prediction by ZEFSAII (Michael W. Deem and Ramdas Pophale) SiO2 
 PCOD9054249
Probable space group: P -1
;
_chemical_formula_sum "Si O2"
_cell_formula_units_Z 16
_cell_length_a 15.112723
_cell_length_b 7.656762
_cell_length_c 21.873946
_cell_angle_alpha 34.668662
_cell_angle_beta 152.294402
_cell_angle_gamma 129.312987
_cell_volume 625.103329
_symmetry_space_group_name_H-M "P -1"
_symmetry_group_IT_number 2
_symmetry_cell_setting 'triclinic'
loop_
_space_group_symop_operation_xyz
x,y,z
-x,-y,-z
loop_
_atom_site_type_symbol
_atom_site_label
_atom_site_fract_x
_atom_site_fract_y
_atom_site_fract_z
Si Si1 0.189014 0.923479 0.279015
Si Si2 0.555778 0.702928 0.167098
Si Si3 0.411538 0.605333 0.318409
Si Si4 0.108024 0.466441 0.254756
Si Si5 0.221172 0.021577 0.966848
Si Si6 0.735894 0.307774 0.215328
Si Si7 0.679930 0.790948 0.831185
Si Si8 0.905024 0.141537 0.501233
O O1 0.380529 0.653090 0.505639
O O2 0.136252 0.719711 0.249278
O O3 0.983322 0.046643 0.157397
O O4 0.267489 0.176996 0.217363
O O5 0.446283 0.438113 0.164826
O O6 0.793059 0.486221 0.367258
O O7 0.500000 0.000000 0.000000
O O8 0.431763 0.871091 0.102496
O O9 0.279053 0.414493 0.322789
O O10 0.440333 0.845884 0.319522
O O11 0.282476 0.852490 0.117880
O O12 0.117836 0.135658 0.388759
O O13 0.893331 0.640926 0.039966
O O14 0.165693 0.412402 0.816063
O O15 0.782364 0.185752 0.348564
O O16 0.500000 0.500000 0.000000
O O17 0.859023 0.005011 0.334067
#
# Coordination Sequence:
#
# PCOD9054249 Si02
#       8
#     2   2   2   2   2   2   2   2
#     4  11  21  41  73 107 138 180 229 298 351 412
#     4  12  28  49  66 100 151 193 232 290 353 423
#     4  11  22  41  75 108 136 179 237 291 351 421
#     4  11  20  41  72 111 135 174 240 298 344 419
#     4  12  25  46  67 105 149 175 236 299 344 418
#     4  11  26  44  74 104 133 186 245 294 337 409
#     4  11  22  43  73 100 143 191 227 288 360 411
#     4  11  24  45  72  97 140 185 233 286 349 415
#
# _framework density 25.595766999999999
#
# number of rings (size 3 to 8) (size 9 to 14) (size 15 to 20)
#    0.000    0.750    5.000    3.750    5.250    0.500 
#    2.250    2.500    0.000    0.000    0.000    0.000 
#    0.000    0.000    0.000    0.000    0.000    0.000 
#
# Total GULP energy -89591.066070 kJ/mol
# GULP energy per Si atom -5599.441629 kJ/mol
# Density = 2.553751 g / cm^3
# Si number density = 25.595767 Si / 1000 Ang^3
#
#
#
# Elastic Constant Matrix: (Units=GPa)
#
#
# Indices 1 2 3 4 5 6 
#
# 1 126.3956 20.9171 61.0969 -16.1825 13.0814 28.0882
# 2 20.9171 66.8675 28.5783 -14.9224 10.7889 18.0409
# 3 61.0969 28.5783 180.4233 -10.2978 20.6492 11.4711
# 4 -16.1825 -14.9224 -10.2978 43.5951 9.3439 3.9652
# 5 13.0814 10.7889 20.6492 9.3439 66.2940 -9.5213
# 6 28.0882 18.0409 11.4711 3.9652 -9.5213 35.4738
#
#
#
# Elastic Compliance Matrix: (Units=1/GPa)
#
#
# Indices 1 2 3 4 5 6 
#
# 1 0.013465 0.003428 -0.003184 0.007795 -0.005284 -0.013665
# 2 0.003428 0.023539 -0.002161 0.012139 -0.008059 -0.017507
# 3 -0.003184 -0.002161 0.007002 -0.000149 -0.001022 0.001098
# 4 0.007795 0.012139 -0.000149 0.034043 -0.011003 -0.019056
# 5 -0.005284 -0.008059 -0.001022 -0.011003 0.021552 0.015628
# 6 -0.013665 -0.017507 0.001098 -0.019056 0.015628 0.053883
#
#
# Mechanical properties :
#
#
# Convention : Reuss Voigt Hill
#
# Bulk Modulus (GPa) = 24.89354 66.09677 45.49515
# Shear Modulus (GPa) = 29.28961 46.61219 37.95090
#
# Velocity S-wave (km/s) = 3.38644 4.27205 3.85476
# Velocity P-wave (km/s) = 5.00374 7.08613 6.13395
#
# Compressibility (1/GPa) = 0.04017106
#
# Stress axis : x y z
#
# Youngs Moduli (GPa) = 74.26572 42.48296 142.82136
#
# Poissons Ratio (x) = -0.14562 0.45477
# Poissons Ratio (y) = -0.25457 0.30863
# Poissons Ratio (z) = 0.23648 0.09180
#
# Static dielectric constant tensor:
#      x y z
#    x 2.083240 -0.000670 0.103890 
#    y -0.000670 2.103900 0.035830 
#    z 0.103890 0.035830 1.986810 
# 
# From -- ./inp_files/611739.got.cif
#   From: 2010.05.17/outbox.cif.g08.bks.cpg/sg2_306_cif.got.tgz:611739.got - 2010.06.03 11:33:40.
