data_PCOD9054218
_publ_section_title
;
Structure prediction by ZEFSAII (Michael W. Deem and Ramdas Pophale) SiO2 
 PCOD9054218
Probable space group: P -1
;
_chemical_formula_sum "Si O2"
_cell_formula_units_Z 16
_cell_length_a 12.388878
_cell_length_b 9.304888
_cell_length_c 9.593228
_cell_angle_alpha 62.150178
_cell_angle_beta 68.293827
_cell_angle_gamma 49.614505
_cell_volume 741.073052
_symmetry_space_group_name_H-M "P -1"
_symmetry_group_IT_number 2
_symmetry_cell_setting 'triclinic'
loop_
_space_group_symop_operation_xyz
x,y,z
-x,-y,-z
loop_
_atom_site_type_symbol
_atom_site_label
_atom_site_fract_x
_atom_site_fract_y
_atom_site_fract_z
Si Si1 0.405304 0.672194 0.359177
Si Si2 0.035996 0.605043 0.225713
Si Si3 0.774477 0.108514 0.395435
Si Si4 0.737485 0.500123 0.614022
Si Si5 0.993562 0.273331 0.402950
Si Si6 0.598226 0.821491 0.139996
Si Si7 0.704232 0.871550 0.354846
Si Si8 0.860623 0.384113 0.132140
O O1 0.500000 0.500000 0.500000
O O2 0.279466 0.834426 0.445504
O O3 0.361372 0.577186 0.307079
O O4 0.500632 0.743406 0.239245
O O5 0.149436 0.601685 0.270578
O O6 0.065378 0.390167 0.335763
O O7 0.871625 0.753671 0.282883
O O8 0.066300 0.637599 0.040075
O O9 0.780241 0.275231 0.236148
O O10 0.931334 0.913118 0.445780
O O11 0.685006 0.048637 0.377052
O O12 0.676139 0.732114 0.524689
O O13 0.829645 0.414945 0.465929
O O14 0.981330 0.266164 0.246785
O O15 0.622435 0.903148 0.234579
O O16 0.751468 0.622043 0.108654
O O17 0.500000 0.000000 0.000000
#
# Coordination Sequence:
#
# PCOD9054218 Si02
#       8
#     2   2   2   2   2   2   2   2
#     4  12  24  47  69  92 135 189 227 271 325 402
#     4  11  23  40  71 105 140 170 220 284 361 384
#     4  12  24  40  74 104 131 175 231 280 338 405
#     4  11  20  44  73  98 137 177 223 280 332 410
#     4  11  20  41  70 104 133 176 222 277 345 409
#     4  12  28  48  66  96 138 190 232 269 333 403
#     4  11  22  44  70 100 138 174 224 290 328 409
#     4  12  25  43  66 104 146 173 220 288 338 401
#
# _framework density 21.590312999999998
#
# number of rings (size 3 to 8) (size 9 to 14) (size 15 to 20)
#    0.000    0.500    8.750    1.500    1.750    2.000 
#    2.250    1.250    0.000    0.000    0.000    0.000 
#    0.000    0.000    0.000    0.000    0.000    0.000 
#
# Total GULP energy -89260.859841 kJ/mol
# GULP energy per Si atom -5578.803740 kJ/mol
# Density = 2.154117 g / cm^3
# Si number density = 21.590313 Si / 1000 Ang^3
#
#
#
# Elastic Constant Matrix: (Units=GPa)
#
#
# Indices 1 2 3 4 5 6 
#
# 1 138.4508 19.4721 19.1538 -11.9303 16.2462 39.4138
# 2 19.4721 53.6389 11.7936 -14.5466 2.8747 16.8299
# 3 19.1538 11.7936 89.8768 -13.2067 11.3256 5.5178
# 4 -11.9303 -14.5466 -13.2067 28.0619 -4.6698 5.6084
# 5 16.2462 2.8747 11.3256 -4.6698 37.3425 4.1648
# 6 39.4138 16.8299 5.5178 5.6084 4.1648 27.8754
#
#
#
# Elastic Compliance Matrix: (Units=1/GPa)
#
#
# Indices 1 2 3 4 5 6 
#
# 1 0.017318 0.009408 0.000162 0.018665 -0.002224 -0.033621
# 2 0.009408 0.037132 0.000235 0.032140 0.001736 -0.042493
# 3 0.000162 0.000235 0.012571 0.006410 -0.002682 -0.003748
# 4 0.018665 0.032140 0.006410 0.076530 0.004066 -0.063069
# 5 -0.002224 0.001736 -0.002682 0.004066 0.029220 -0.002557
# 6 -0.033621 -0.042493 -0.003748 -0.063069 -0.002557 0.122879
#
#
# Mechanical properties :
#
#
# Convention : Reuss Voigt Hill
#
# Bulk Modulus (GPa) = 11.54328 42.53396 27.03862
# Shear Modulus (GPa) = 16.39794 34.09244 25.24519
#
# Velocity S-wave (km/s) = 2.75890 3.97805 3.42319
# Velocity P-wave (km/s) = 3.93787 6.39086 5.30801
#
# Compressibility (1/GPa) = 0.08663051
#
# Stress axis : x y z
#
# Youngs Moduli (GPa) = 57.74473 26.93084 79.54899
#
# Poissons Ratio (x) = -0.25336 -0.01288
# Poissons Ratio (y) = -0.54324 -0.01873
# Poissons Ratio (z) = -0.00935 -0.00634
#
# Static dielectric constant tensor:
#      x y z
#    x 1.828600 0.013330 -0.002590 
#    y 0.013330 1.658980 -0.007540 
#    z -0.002590 -0.007540 1.720940 
# 
# From -- ./inp_files/189813.got.cif
#   From: 2010.05.17/outbox.cif.g08.bks.cpg/sg2_95_cif.got.tgz:189813.got - 2010.06.03 11:33:40.
