data_PCOD9054020
_publ_section_title
;
Structure prediction by ZEFSAII (Michael W. Deem and Ramdas Pophale) SiO2 
 PCOD9054020
Probable space group: P -1
;
_chemical_formula_sum "Si O2"
_cell_formula_units_Z 16
_cell_length_a 11.244446
_cell_length_b 14.111124
_cell_length_c 11.549592
_cell_angle_alpha 150.067628
_cell_angle_beta 128.303200
_cell_angle_gamma 57.521229
_cell_volume 717.586008
_symmetry_space_group_name_H-M "P -1"
_symmetry_group_IT_number 2
_symmetry_cell_setting 'triclinic'
loop_
_space_group_symop_operation_xyz
x,y,z
-x,-y,-z
loop_
_atom_site_type_symbol
_atom_site_label
_atom_site_fract_x
_atom_site_fract_y
_atom_site_fract_z
Si Si1 0.662116 0.074619 0.133874
Si Si2 0.910637 0.479803 0.544890
Si Si3 0.682514 0.777163 0.239762
Si Si4 0.846183 0.407532 0.017641
Si Si5 0.619192 0.322364 0.154662
Si Si6 0.832670 0.084426 0.486928
Si Si7 0.274194 0.901441 0.235039
Si Si8 0.051255 0.961979 0.859219
O O1 0.611991 0.241738 0.194025
O O2 0.758955 0.117536 0.352622
O O3 0.789507 0.959169 0.011526
O O4 0.500000 0.000000 0.000000
O O5 0.735218 0.497253 0.420757
O O6 0.926732 0.263781 0.370267
O O7 0.000000 0.500000 0.500000
O O8 0.997088 0.595648 0.818352
O O9 0.803048 0.622883 0.191119
O O10 0.734398 0.928912 0.334572
O O11 0.639905 0.916013 0.468147
O O12 0.544298 0.654700 0.975279
O O13 0.846709 0.283488 0.771855
O O14 0.720218 0.298369 0.904591
O O15 0.691107 0.160466 0.940593
O O16 0.000000 0.000000 0.500000
O O17 0.099568 0.968613 0.222935
O O18 0.000000 0.000000 0.000000
#
# Coordination Sequence:
#
# PCOD9054020 Si02
#       8
#     2   2   2   2   2   2   2   2
#     4  11  22  43  70 100 141 184 230 290 353 421
#     4  11  21  40  66 103 138 175 233 291 343 417
#     4  11  24  44  66 102 141 180 231 290 356 418
#     4  11  24  43  69  98 138 181 234 288 352 414
#     4  11  23  41  70 101 144 181 231 292 354 413
#     4  11  26  47  70  97 134 188 240 282 349 427
#     4  11  21  42  70 104 138 183 233 288 351 410
#     4  11  20  39  72 103 133 180 239 291 346 409
#
# _framework density 22.296977999999999
#
# number of rings (size 3 to 8) (size 9 to 14) (size 15 to 20)
#    0.000    1.000    6.250    1.875    1.750    1.000 
#    0.000    5.625    0.000    0.000    0.000    0.000 
#    0.000    0.000    0.000    0.000    0.000    0.000 
#
# Total GULP energy -89179.381752 kJ/mol
# GULP energy per Si atom -5573.711359 kJ/mol
# Density = 2.224623 g / cm^3
# Si number density = 22.296978 Si / 1000 Ang^3
#
#
#
# Elastic Constant Matrix: (Units=GPa)
#
#
# Indices 1 2 3 4 5 6 
#
# 1 102.3819 13.8972 31.5729 -17.1535 5.8456 4.4480
# 2 13.8972 71.2736 46.5442 -19.7810 -5.1785 3.5033
# 3 31.5729 46.5442 141.3837 -28.4405 -1.6890 9.4875
# 4 -17.1535 -19.7810 -28.4405 55.1457 -2.5095 3.3856
# 5 5.8456 -5.1785 -1.6890 -2.5095 32.8962 -10.4980
# 6 4.4480 3.5033 9.4875 3.3856 -10.4980 34.6615
#
#
#
# Elastic Compliance Matrix: (Units=1/GPa)
#
#
# Indices 1 2 3 4 5 6 
#
# 1 0.010985 -0.000444 -0.001735 0.002364 -0.002533 -0.001888
# 2 -0.000444 0.018914 -0.005284 0.004055 0.003141 0.000147
# 3 -0.001735 -0.005284 0.009918 0.002802 -0.000568 -0.002404
# 4 0.002364 0.004055 0.002802 0.022018 0.000978 -0.003335
# 5 -0.002533 0.003141 -0.000568 0.000978 0.034771 0.010599
# 6 -0.001888 0.000147 -0.002404 -0.003335 0.010599 0.033272
#
#
# Mechanical properties :
#
#
# Convention : Reuss Voigt Hill
#
# Bulk Modulus (GPa) = 40.17521 55.45198 47.81359
# Shear Modulus (GPa) = 32.65806 39.40900 36.03353
#
# Velocity S-wave (km/s) = 3.83127 4.20868 4.02440
# Velocity P-wave (km/s) = 6.13424 6.96714 6.56391
#
# Compressibility (1/GPa) = 0.02489097
#
# Stress axis : x y z
#
# Youngs Moduli (GPa) = 91.03008 52.87034 100.82628
#
# Poissons Ratio (x) = 0.02349 0.17494
# Poissons Ratio (y) = 0.04044 0.53277
# Poissons Ratio (z) = 0.15794 0.27937
#
# Static dielectric constant tensor:
#      x y z
#    x 1.926270 -0.015290 0.047810 
#    y -0.015290 1.847630 -0.040730 
#    z 0.047810 -0.040730 1.880950 
# 
# From -- ./inp_files/433584.got.cif
#   From: 2010.05.17/outbox.cif.g08.bks.cpg/sg2_217_cif.got.tgz:433584.got - 2010.06.03 11:33:40.
