data_PCOD9054648
_publ_section_title
;
Structure prediction by ZEFSAII (Michael W. Deem and Ramdas Pophale) SiO2 
 PCOD9054648
Probable space group: P -1
;
_chemical_formula_sum "Si O2"
_cell_formula_units_Z 16
_cell_length_a 12.137723
_cell_length_b 11.816146
_cell_length_c 8.534767
_cell_angle_alpha 54.019815
_cell_angle_beta 129.560159
_cell_angle_gamma 120.367437
_cell_volume 746.540038
_symmetry_space_group_name_H-M "P -1"
_symmetry_group_IT_number 2
_symmetry_cell_setting 'triclinic'
loop_
_space_group_symop_operation_xyz
x,y,z
-x,-y,-z
loop_
_atom_site_type_symbol
_atom_site_label
_atom_site_fract_x
_atom_site_fract_y
_atom_site_fract_z
Si Si1 0.172383 0.684907 0.575709
Si Si2 0.829369 0.634250 0.231278
Si Si3 0.238663 0.941706 0.629938
Si Si4 0.194685 0.915588 0.941972
Si Si5 0.382676 0.226796 0.910995
Si Si6 0.084423 0.113037 0.109071
Si Si7 0.458014 0.826182 0.587711
Si Si8 0.491099 0.822657 0.271846
O O1 0.201576 0.526567 0.727244
O O2 0.215238 0.778088 0.693346
O O3 0.281506 0.777165 0.472936
O O4 0.000459 0.672993 0.402406
O O5 0.720814 0.660029 0.249265
O O6 0.817372 0.750337 0.993884
O O7 0.151987 0.953420 0.698692
O O8 0.177559 0.029099 0.369148
O O9 0.406192 0.017318 0.754596
O O10 0.048175 0.842588 0.954112
O O11 0.276652 0.068805 0.960241
O O12 0.321144 0.827129 0.107104
O O13 0.454075 0.238394 0.790860
O O14 0.486571 0.236310 0.151067
O O15 0.000000 0.000000 0.000000
O O16 0.508608 0.772853 0.509333
O O17 0.500000 0.000000 0.500000
#
# Coordination Sequence:
#
# PCOD9054648 Si02
#       8
#     2   2   2   2   2   2   2   2
#     4  11  23  43  62  96 130 175 217 260 339 389
#     4  11  25  40  64  91 138 175 209 273 324 392
#     4  11  21  38  64  96 127 166 215 274 325 386
#     4  11  21  37  62  97 131 161 215 280 322 377
#     4  11  22  41  60 100 132 167 216 273 326 385
#     4  12  22  38  64  97 122 165 228 265 319 385
#     4  12  22  38  71  98 129 169 220 268 327 390
#     4  11  23  37  65 102 130 164 216 275 327 382
#
# _framework density 21.432206000000001
#
# number of rings (size 3 to 8) (size 9 to 14) (size 15 to 20)
#    0.000    0.750    5.000    4.125    0.000    1.500 
#    0.000    1.250    0.000    7.500    0.000    0.875 
#    0.000    0.000    0.000    0.000    0.000    0.000 
#
# Total GULP energy -89297.993419 kJ/mol
# GULP energy per Si atom -5581.124589 kJ/mol
# Density = 2.138343 g / cm^3
# Si number density = 21.432206 Si / 1000 Ang^3
#
#
#
# Elastic Constant Matrix: (Units=GPa)
#
#
# Indices 1 2 3 4 5 6 
#
# 1 147.9211 34.0054 54.6744 9.9183 6.3198 -14.9520
# 2 34.0054 81.7553 43.8118 1.9644 10.7513 -7.5923
# 3 54.6744 43.8118 98.5332 12.8151 -8.3390 -21.9009
# 4 9.9183 1.9644 12.8151 20.2719 -4.6510 2.1960
# 5 6.3198 10.7513 -8.3390 -4.6510 35.7958 1.1384
# 6 -14.9520 -7.5923 -21.9009 2.1960 1.1384 27.0911
#
#
#
# Elastic Compliance Matrix: (Units=1/GPa)
#
#
# Indices 1 2 3 4 5 6 
#
# 1 0.008929 -0.000997 -0.004025 -0.002508 -0.002595 0.001707
# 2 -0.000997 0.018101 -0.009126 0.003231 -0.006877 -0.002828
# 3 -0.004025 -0.009126 0.021243 -0.010458 0.006629 0.012963
# 4 -0.002508 0.003231 -0.010458 0.059567 0.005220 -0.013981
# 5 -0.002595 -0.006877 0.006629 0.005220 0.032676 0.000204
# 6 0.001707 -0.002828 0.012963 -0.013981 0.000204 0.048666
#
#
# Mechanical properties :
#
#
# Convention : Reuss Voigt Hill
#
# Bulk Modulus (GPa) = 50.06008 65.91032 57.98520
# Shear Modulus (GPa) = 22.30781 29.67961 25.99371
#
# Velocity S-wave (km/s) = 3.22973 3.72535 3.48635
# Velocity P-wave (km/s) = 6.10871 7.02310 6.58180
#
# Compressibility (1/GPa) = 0.01997600
#
# Stress axis : x y z
#
# Youngs Moduli (GPa) = 111.99610 55.24587 47.07454
#
# Poissons Ratio (x) = 0.05506 0.18950
# Poissons Ratio (y) = 0.11163 0.42961
# Poissons Ratio (z) = 0.45083 0.50418
#
# Static dielectric constant tensor:
#      x y z
#    x 1.865780 -0.014190 -0.000040 
#    y -0.014190 1.726170 0.009780 
#    z -0.000040 0.009780 1.861710 
# 
# From -- ./inp_files/257214.got.cif
#   From: 2010.05.17/outbox.cif.g08.bks.cpg/sg2_129_cif.got.tgz:257214.got - 2010.06.03 11:33:40.
