data_PCOD9054582
_publ_section_title
;
Structure prediction by ZEFSAII (Michael W. Deem and Ramdas Pophale) SiO2 
 PCOD9054582
Probable space group: P -1
;
_chemical_formula_sum "Si O2"
_cell_formula_units_Z 16
_cell_length_a 10.438390
_cell_length_b 25.442854
_cell_length_c 9.695199
_cell_angle_alpha 44.566160
_cell_angle_beta 28.434049
_cell_angle_gamma 43.215860
_cell_volume 819.034580
_symmetry_space_group_name_H-M "P -1"
_symmetry_group_IT_number 2
_symmetry_cell_setting 'triclinic'
loop_
_space_group_symop_operation_xyz
x,y,z
-x,-y,-z
loop_
_atom_site_type_symbol
_atom_site_label
_atom_site_fract_x
_atom_site_fract_y
_atom_site_fract_z
Si Si1 0.984953 0.052816 0.284584
Si Si2 0.125500 0.937677 0.116536
Si Si3 0.703630 0.853473 0.614523
Si Si4 0.758877 0.476307 0.690656
Si Si5 0.367140 0.144091 0.644317
Si Si6 0.725630 0.534460 0.294008
Si Si7 0.399145 0.310975 0.029703
Si Si8 0.045842 0.685373 0.336908
O O1 0.694351 0.123920 0.409467
O O2 0.015004 0.988770 0.257762
O O3 0.236365 0.090339 0.961308
O O4 0.000000 0.000000 0.500000
O O5 0.999148 0.865053 0.354843
O O6 0.460527 0.908094 0.837911
O O7 0.000000 0.000000 0.000000
O O8 0.650269 0.878581 0.457728
O O9 0.662827 0.767793 0.814941
O O10 0.732503 0.514744 0.488275
O O11 0.000000 0.500000 0.500000
O O12 0.833897 0.383379 0.758424
O O13 0.500000 0.500000 0.000000
O O14 0.168320 0.234206 0.671055
O O15 0.500000 0.500000 0.500000
O O16 0.625928 0.627744 0.183742
O O17 0.000000 0.500000 0.000000
O O18 0.696736 0.297310 0.854520
O O19 0.148683 0.344704 0.315428
#
# Coordination Sequence:
#
# PCOD9054582 Si02
#       8
#     2   2   2   2   2   2   2   2
#     4  12  25  40  60  90 125 167 210 252 314 389
#     4  12  21  38  61  90 122 154 206 261 320 363
#     4  11  21  36  63  95 119 157 208 271 318 362
#     4  12  25  42  65 101 136 175 220 269 333 398
#     4  11  21  40  63  90 120 162 216 258 312 384
#     4  12  22  42  68  97 130 171 224 271 326 386
#     4  11  21  39  65  97 126 161 220 274 320 377
#     4  11  22  40  67  93 126 168 215 269 320 391
#
# _framework density 19.535195000000002
#
# number of rings (size 3 to 8) (size 9 to 14) (size 15 to 20)
#    0.000    0.500    5.000    6.000    0.000    0.000 
#    0.000    3.750    0.000    0.000    0.000    0.000 
#    0.000    0.000    0.000    0.000    0.000    0.000 
#
# Total GULP energy -89313.497541 kJ/mol
# GULP energy per Si atom -5582.093596 kJ/mol
# Density = 1.949073 g / cm^3
# Si number density = 19.535195 Si / 1000 Ang^3
#
#
#
# Elastic Constant Matrix: (Units=GPa)
#
#
# Indices 1 2 3 4 5 6 
#
# 1 69.2478 17.5036 21.6859 14.7481 47.0541 20.5898
# 2 17.5036 96.5114 19.2460 11.6960 30.7477 19.1305
# 3 21.6859 19.2460 112.2835 16.1983 18.6342 9.2045
# 4 14.7481 11.6960 16.1983 35.7746 -13.6685 -4.6159
# 5 47.0541 30.7477 18.6342 -13.6685 22.7323 -16.0675
# 6 20.5898 19.1305 9.2045 -4.6159 -16.0675 14.4042
#
#
#
# Elastic Compliance Matrix: (Units=1/GPa)
#
#
# Indices 1 2 3 4 5 6 
#
# 1 0.006837 -0.006150 -0.003364 0.005374 0.008301 0.011525
# 2 -0.006150 0.009617 -0.001730 0.002202 0.004388 0.002723
# 3 -0.003364 -0.001730 0.009841 -0.001922 0.001057 0.001381
# 4 0.005374 0.002202 -0.001922 0.020872 -0.008875 -0.012589
# 5 0.008301 0.004388 0.001057 -0.008875 -0.001526 -0.022915
# 6 0.011525 0.002723 0.001381 -0.012589 -0.022915 0.018854
#
#
# Mechanical properties :
#
#
# Convention : Reuss Voigt Hill
#
# Bulk Modulus (GPa) = 262.59689 43.87930 153.23810
# Shear Modulus (GPa) = 56.65638 29.22270 42.93954
#
# Velocity S-wave (km/s) = 5.39121 3.87188 4.69343
# Velocity P-wave (km/s) = 13.17072 6.51913 10.39151
#
# Compressibility (1/GPa) = 0.00380812
#
# Stress axis : x y z
#
# Youngs Moduli (GPa) = 146.26436 103.98160 101.61707
#
# Poissons Ratio (x) = 0.63944 0.34184
# Poissons Ratio (y) = 0.89945 0.17578
# Poissons Ratio (z) = 0.49204 0.17987
#
# Static dielectric constant tensor:
#      x y z
#    x 1.646420 -0.018260 0.002270 
#    y -0.018260 1.724850 0.016860 
#    z 0.002270 0.016860 1.726360 
# 
# From -- ./inp_files/226053.got.cif
#   From: 2010.05.17/outbox.cif.g08.bks.cpg/sg2_114_cif.got.tgz:226053.got - 2010.06.03 11:33:40.
