data_PCOD9054182
_publ_section_title
;
Structure prediction by ZEFSAII (Michael W. Deem and Ramdas Pophale) SiO2 
 PCOD9054182
Probable space group: P -1
;
_chemical_formula_sum "Si O2"
_cell_formula_units_Z 15
_cell_length_a 7.214556
_cell_length_b 9.421257
_cell_length_c 11.816108
_cell_angle_alpha 81.341845
_cell_angle_beta 89.425837
_cell_angle_gamma 131.628808
_cell_volume 586.864111
_symmetry_space_group_name_H-M "P -1"
_symmetry_group_IT_number 2
_symmetry_cell_setting 'triclinic'
loop_
_space_group_symop_operation_xyz
x,y,z
-x,-y,-z
loop_
_atom_site_type_symbol
_atom_site_label
_atom_site_fract_x
_atom_site_fract_y
_atom_site_fract_z
Si Si1 0.507918 0.389257 0.382064
Si Si2 0.056319 0.255144 0.543422
Si Si3 0.269792 0.096901 0.241120
Si Si4 0.066122 0.518692 0.228030
Si Si5 0.891219 0.141154 0.180354
Si Si6 0.000000 0.500000 0.500000
Si Si7 0.933092 0.175885 0.912336
Si Si8 0.404554 0.274077 0.796145
O O1 0.243466 0.260758 0.464828
O O2 0.751593 0.507549 0.448703
O O3 0.488672 0.257904 0.304723
O O4 0.551723 0.568510 0.306009
O O5 0.859099 0.263996 0.497533
O O6 0.933830 0.096593 0.659207
O O7 0.147141 0.185725 0.197769
O O8 0.288800 0.010554 0.139609
O O9 0.990250 0.631277 0.163131
O O10 0.336024 0.622014 0.157452
O O11 0.901777 0.295846 0.224613
O O12 0.112521 0.560692 0.355733
O O13 0.679641 0.915890 0.242045
O O14 0.868655 0.154372 0.045314
O O15 0.174256 0.198820 0.887411
#
# Coordination Sequence:
#
# PCOD9054182 Si02
#       8
#     2   2   2   2   2   1   2   2
#     4  11  21  38  66  97 130 177 229 270 339 412
#     4  11  22  39  65  95 137 176 225 277 338 410
#     4  11  20  41  66  96 132 177 225 277 342 397
#     4  12  25  47  69 102 143 178 227 291 351 406
#     4  11  24  46  70 100 140 181 233 290 339 406
#     4  12  22  46  66 100 144 172 218 300 336 412
#     4  11  25  47  68 103 142 179 236 290 334 416
#     4  11  22  45  69  98 135 183 231 278 345 411
#
# _framework density 25.559581999999999
#
# number of rings (size 3 to 8) (size 9 to 14) (size 15 to 20)
#    0.000    0.800    6.667    2.400    0.000    1.067 
#    7.200    1.333    0.000    0.000    0.000    0.000 
#    0.000    0.000    0.000    0.000    0.000    0.000 
#
# Total GULP energy -83731.857179 kJ/mol
# GULP energy per Si atom -5582.123812 kJ/mol
# Density = 2.550141 g / cm^3
# Si number density = 25.559582 Si / 1000 Ang^3
#
#
#
# Elastic Constant Matrix: (Units=GPa)
#
#
# Indices 1 2 3 4 5 6 
#
# 1 88.1495 47.8798 31.0306 7.8093 -10.3614 -29.8974
# 2 47.8798 154.8337 52.9393 19.2198 9.6783 -19.9372
# 3 31.0306 52.9393 128.5958 14.3672 12.0619 -4.7246
# 4 7.8093 19.2198 14.3672 38.8870 -7.1518 1.7426
# 5 -10.3614 9.6783 12.0619 -7.1518 29.0369 -4.6473
# 6 -29.8974 -19.9372 -4.7246 1.7426 -4.6473 33.1863
#
#
#
# Elastic Compliance Matrix: (Units=1/GPa)
#
#
# Indices 1 2 3 4 5 6 
#
# 1 0.024087 -0.004222 -0.004890 0.000998 0.015576 0.020596
# 2 -0.004222 0.009339 -0.001909 -0.003963 -0.004627 0.001095
# 3 -0.004890 -0.001909 0.010563 -0.003051 -0.007028 -0.004872
# 4 0.000998 -0.003963 -0.003051 0.030559 0.010135 -0.002102
# 5 0.015576 -0.004627 -0.007028 0.010135 0.049622 0.016668
# 6 0.020596 0.001095 -0.004872 -0.002102 0.016668 0.051097
#
#
# Mechanical properties :
#
#
# Convention : Reuss Voigt Hill
#
# Bulk Modulus (GPa) = 45.56316 70.58646 58.07481
# Shear Modulus (GPa) = 24.43503 36.20401 30.31952
#
# Velocity S-wave (km/s) = 3.09528 3.76767 3.44790
# Velocity P-wave (km/s) = 5.53528 6.82667 6.21461
#
# Compressibility (1/GPa) = 0.02194756
#
# Stress axis : x y z
#
# Youngs Moduli (GPa) = 41.51655 107.07868 94.66861
#
# Poissons Ratio (x) = 0.45208 0.46292
# Poissons Ratio (y) = 0.17528 0.18071
# Poissons Ratio (z) = 0.20301 0.20439
#
# Static dielectric constant tensor:
#      x y z
#    x 2.279060 0.039030 0.106850 
#    y 0.039030 2.060590 0.042280 
#    z 0.106850 0.042280 2.061440 
# 
# From -- ./inp_files/296940.got.cif
#   From: 2010.05.17/outbox.cif.g08.bks.cpg/sg2_149_cif.got.tgz:296940.got - 2010.06.03 11:33:40.
