data_PCOD9054976
_publ_section_title
;
Structure prediction by ZEFSAII (Michael W. Deem and Ramdas Pophale) SiO2 
 PCOD9054976
Probable space group: P -1
;
_chemical_formula_sum "Si O2"
_cell_formula_units_Z 16
_cell_length_a 23.265817
_cell_length_b 9.553711
_cell_length_c 20.438829
_cell_angle_alpha 28.797083
_cell_angle_beta 161.028345
_cell_angle_gamma 148.527798
_cell_volume 702.935853
_symmetry_space_group_name_H-M "P -1"
_symmetry_group_IT_number 2
_symmetry_cell_setting 'triclinic'
loop_
_space_group_symop_operation_xyz
x,y,z
-x,-y,-z
loop_
_atom_site_type_symbol
_atom_site_label
_atom_site_fract_x
_atom_site_fract_y
_atom_site_fract_z
Si Si1 0.056297 0.725241 0.634156
Si Si2 0.178501 0.807609 0.450291
Si Si3 0.215408 0.760934 0.003361
Si Si4 0.556195 0.065470 0.701099
Si Si5 0.333140 0.298833 0.137531
Si Si6 0.543010 0.561159 0.375949
Si Si7 0.116852 0.952525 0.469025
Si Si8 0.021909 0.863797 0.008215
O O1 0.873813 0.508250 0.509900
O O2 0.159017 0.816752 0.639204
O O3 0.187960 0.522929 0.892966
O O4 0.000000 0.000000 0.500000
O O5 0.380723 0.961441 0.597475
O O6 0.125722 0.786729 0.477923
O O7 0.064278 0.002744 0.202895
O O8 0.390734 0.763328 0.146834
O O9 0.078980 0.464394 0.963966
O O10 0.284987 0.787184 0.141925
O O11 0.087871 0.002221 0.759042
O O12 0.598319 0.771634 0.831104
O O13 0.516324 0.310770 0.505857
O O14 0.487663 0.414902 0.306627
O O15 0.231889 0.970723 0.180867
O O16 0.739382 0.750609 0.508278
O O17 0.000000 0.000000 0.000000
#
# Coordination Sequence:
#
# PCOD9054976 Si02
#       8
#     2   2   2   2   2   2   2   2
#     4  11  27  50  73  98 136 189 247 296 346 413
#     4  11  24  45  70 100 144 183 234 293 345 418
#     4  12  23  43  70 105 145 184 228 279 357 424
#     4  12  24  44  69 110 144 180 228 291 357 427
#     4  11  25  44  69 103 138 187 236 289 357 414
#     4  12  24  44  72 109 148 176 230 290 355 430
#     4  12  27  46  73 103 144 192 237 291 348 412
#     4  11  21  39  69 101 143 182 226 283 356 421
#
# _framework density 22.761679000000001
#
# number of rings (size 3 to 8) (size 9 to 14) (size 15 to 20)
#    0.000    0.500    3.750    4.875    3.500    2.000 
#    2.250    1.250    0.000    0.000    0.000    0.000 
#    0.000    0.000    0.000    0.000    0.000    0.000 
#
# Total GULP energy -89388.275875 kJ/mol
# GULP energy per Si atom -5586.767242 kJ/mol
# Density = 2.270987 g / cm^3
# Si number density = 22.761679 Si / 1000 Ang^3
#
#
#
# Elastic Constant Matrix: (Units=GPa)
#
#
# Indices 1 2 3 4 5 6 
#
# 1 90.9484 8.4631 22.7884 0.5987 -6.0897 -11.3774
# 2 8.4631 81.9902 24.2149 10.8415 -9.6138 -23.4156
# 3 22.7884 24.2149 85.0637 7.1891 10.8621 -12.2070
# 4 0.5987 10.8415 7.1891 23.7420 0.1348 -9.8357
# 5 -6.0897 -9.6138 10.8621 0.1348 33.8652 8.8654
# 6 -11.3774 -23.4156 -12.2070 -9.8357 8.8654 46.9360
#
#
#
# Elastic Compliance Matrix: (Units=1/GPa)
#
#
# Indices 1 2 3 4 5 6 
#
# 1 0.012308 0.000565 -0.003667 0.001365 0.003013 0.002028
# 2 0.000565 0.015943 -0.004186 -0.003845 0.004591 0.005329
# 3 -0.003667 -0.004186 0.015295 -0.001755 -0.007272 0.002006
# 4 0.001365 -0.003845 -0.001755 0.047912 -0.002701 0.008507
# 5 0.003013 0.004591 -0.007272 -0.002701 0.035316 -0.006107
# 6 0.002028 0.005329 0.002006 0.008507 -0.006107 0.027914
#
#
# Mechanical properties :
#
#
# Convention : Reuss Voigt Hill
#
# Bulk Modulus (GPa) = 34.51999 40.99277 37.75638
# Shear Modulus (GPa) = 27.94527 34.41104 31.17815
#
# Velocity S-wave (km/s) = 3.50770 3.89240 3.70505
# Velocity P-wave (km/s) = 5.62175 6.18463 5.90990
#
# Compressibility (1/GPa) = 0.02896872
#
# Stress axis : x y z
#
# Youngs Moduli (GPa) = 81.24742 62.72212 65.38179
#
# Poissons Ratio (x) = -0.03542 0.23976
# Poissons Ratio (y) = -0.04588 0.27371
# Poissons Ratio (z) = 0.29795 0.26257
#
# Static dielectric constant tensor:
#      x y z
#    x 3.713100 -0.419040 -1.039480 
#    y -0.419040 1.937150 0.204640 
#    z -1.039480 0.204640 2.549770 
# 
# From -- ./inp_files/455650.got.cif
#   From: 2010.05.17/outbox.cif.g08.bks.cpg/sg2_228_cif.got.tgz:455650.got - 2010.06.03 11:33:40.
