data_PCOD9054721
_publ_section_title
;
Structure prediction by ZEFSAII (Michael W. Deem and Ramdas Pophale) SiO2 
 PCOD9054721
Probable space group: P -1
;
_chemical_formula_sum "Si O2"
_cell_formula_units_Z 14
_cell_length_a 5.475683
_cell_length_b 18.288797
_cell_length_c 12.732222
_cell_angle_alpha 151.409536
_cell_angle_beta 104.382865
_cell_angle_gamma 79.156244
_cell_volume 589.808659
_symmetry_space_group_name_H-M "P -1"
_symmetry_group_IT_number 2
_symmetry_cell_setting 'triclinic'
loop_
_space_group_symop_operation_xyz
x,y,z
-x,-y,-z
loop_
_atom_site_type_symbol
_atom_site_label
_atom_site_fract_x
_atom_site_fract_y
_atom_site_fract_z
Si Si1 0.796780 0.121934 0.151692
Si Si2 0.296670 0.512977 0.588047
Si Si3 0.351757 0.847790 0.067793
Si Si4 0.223670 0.319316 0.527373
Si Si5 0.368471 0.898280 0.663354
Si Si6 0.782519 0.960535 0.514573
Si Si7 0.078114 0.346391 0.761589
O O1 0.662627 0.061007 0.166883
O O2 0.941048 0.276858 0.405436
O O3 0.708699 0.155937 0.068448
O O4 0.000000 0.000000 0.000000
O O5 0.500000 0.500000 0.500000
O O6 0.349069 0.382592 0.514611
O O7 0.000000 0.500000 0.500000
O O8 0.345972 0.667721 0.857667
O O9 0.610695 0.955116 0.224646
O O10 0.182262 0.935224 0.242998
O O11 0.359087 0.171522 0.395155
O O12 0.216363 0.407862 0.747023
O O13 0.166325 0.765885 0.438723
O O14 0.776502 0.778576 0.313592
O O15 0.500000 0.000000 0.500000
O O16 0.000000 0.000000 0.500000
O O17 0.000000 0.500000 0.000000
#
# Coordination Sequence:
#
# PCOD9054721 Si02
#       7
#     2   2   2   2   2   2   2
#     4  11  21  37  72 107 143 185 248 307 385 462
#     4  12  29  46  71 114 160 203 253 315 392 468
#     4  12  24  47  74 104 155 202 249 321 388 469
#     4  11  24  45  70 111 149 195 260 310 389 475
#     4  11  23  44  74 110 144 196 258 315 391 474
#     4  12  29  53  77 114 152 207 271 327 395 466
#     4  11  27  50  81 109 154 203 270 335 391 462
#
# _framework density 23.736509999999999
#
# number of rings (size 3 to 8) (size 9 to 14) (size 15 to 20)
#    0.000    0.571    4.286    3.000    6.000    4.000 
#    0.000    0.000    0.000    0.000    0.000    0.000 
#    0.000    0.000    0.000    0.000    0.000    0.000 
#
# Total GULP energy -78008.845917 kJ/mol
# GULP energy per Si atom -5572.060423 kJ/mol
# Density = 2.368248 g / cm^3
# Si number density = 23.736510 Si / 1000 Ang^3
#
#
#
# Elastic Constant Matrix: (Units=GPa)
#
#
# Indices 1 2 3 4 5 6 
#
# 1 112.3444 47.9544 36.4255 -19.5933 -19.1411 11.9976
# 2 47.9544 116.7364 27.4685 -9.8697 -6.3081 13.6124
# 3 36.4255 27.4685 123.2423 -6.7996 -27.8956 4.4176
# 4 -19.5933 -9.8697 -6.7996 37.4986 14.1468 -8.7434
# 5 -19.1411 -6.3081 -27.8956 14.1468 42.6220 -11.9280
# 6 11.9976 13.6124 4.4176 -8.7434 -11.9280 52.3258
#
#
#
# Elastic Compliance Matrix: (Units=1/GPa)
#
#
# Indices 1 2 3 4 5 6 
#
# 1 0.012455 -0.004122 -0.002029 0.004140 0.002161 -0.000428
# 2 -0.004122 0.010816 -0.001551 0.000711 -0.002087 -0.002095
# 3 -0.002029 -0.001551 0.010412 -0.001793 0.006604 0.001195
# 4 0.004140 0.000711 -0.001793 0.032801 -0.009440 0.002346
# 5 0.002161 -0.002087 0.006604 -0.009440 0.033107 0.005460
# 6 -0.000428 -0.002095 0.001195 0.002346 0.005460 0.021290
#
#
# Mechanical properties :
#
#
# Convention : Reuss Voigt Hill
#
# Bulk Modulus (GPa) = 54.70768 64.00222 59.35495
# Shear Modulus (GPa) = 35.11791 42.52094 38.81942
#
# Velocity S-wave (km/s) = 3.85059 4.23705 4.04843
# Velocity P-wave (km/s) = 6.54731 7.13856 6.84932
#
# Compressibility (1/GPa) = 0.01827897
#
# Stress axis : x y z
#
# Youngs Moduli (GPa) = 80.29183 92.45525 96.03889
#
# Poissons Ratio (x) = 0.38111 0.19490
# Poissons Ratio (y) = 0.33097 0.14891
# Poissons Ratio (z) = 0.16295 0.14336
#
# Static dielectric constant tensor:
#      x y z
#    x 2.233900 0.255030 0.033760 
#    y 0.255030 2.174580 -0.064440 
#    z 0.033760 -0.064440 2.011160 
# 
# From -- ./inp_files/369598.got.cif
#   From: 2010.05.17/outbox.cif.g08.bks.cpg/sg2_185_cif.got.tgz:369598.got - 2010.06.03 11:33:40.
