data_PCOD9054441
_publ_section_title
;
Structure prediction by ZEFSAII (Michael W. Deem and Ramdas Pophale) SiO2 
 PCOD9054441
Probable space group: P -1
;
_chemical_formula_sum "Si O2"
_cell_formula_units_Z 16
_cell_length_a 22.261629
_cell_length_b 18.615984
_cell_length_c 11.849885
_cell_angle_alpha 151.523245
_cell_angle_beta 36.482780
_cell_angle_gamma 162.498560
_cell_volume 683.735338
_symmetry_space_group_name_H-M "P -1"
_symmetry_group_IT_number 2
_symmetry_cell_setting 'triclinic'
loop_
_space_group_symop_operation_xyz
x,y,z
-x,-y,-z
loop_
_atom_site_type_symbol
_atom_site_label
_atom_site_fract_x
_atom_site_fract_y
_atom_site_fract_z
Si Si1 0.785392 0.107348 0.468344
Si Si2 0.758047 0.428224 0.005464
Si Si3 0.187115 0.258912 0.833807
Si Si4 0.722985 0.177070 0.058288
Si Si5 0.527274 0.260133 0.747537
Si Si6 0.350186 0.167549 0.472110
Si Si7 0.227192 0.719318 0.625489
Si Si8 0.796363 0.596142 0.415758
O O1 0.004595 0.374659 0.444496
O O2 0.591914 0.817550 0.281493
O O3 0.763792 0.984895 0.445844
O O4 0.775556 0.272701 0.743763
O O5 0.801802 0.577125 0.031688
O O6 0.870137 0.647828 0.248363
O O7 0.521114 0.149165 0.006899
O O8 0.333387 0.311291 0.643308
O O9 0.282677 0.417049 0.030024
O O10 0.960241 0.900025 0.661697
O O11 0.814270 0.272716 0.175868
O O12 0.761069 0.390512 0.245053
O O13 0.771769 0.109872 0.803908
O O14 0.618357 0.220129 0.511733
O O15 0.348180 0.990696 0.737472
O O16 0.582106 0.409949 0.475060
#
# Coordination Sequence:
#
# PCOD9054441 Si02
#       8
#     2   2   2   2   2   2   2   2
#     4  12  23  43  76 101 125 188 237 276 327 409
#     4  11  21  44  69  99 139 174 228 285 331 396
#     4  12  27  42  65 103 145 180 216 283 350 401
#     4  11  20  45  74  99 137 179 226 286 337 395
#     4  11  24  47  61  99 146 175 229 283 331 403
#     4  11  25  43  70 104 140 173 228 281 342 410
#     4  11  23  41  75  98 129 183 237 282 329 394
#     4  11  23  42  68 101 141 180 216 279 347 402
#
# _framework density 23.400867999999999
#
# number of rings (size 3 to 8) (size 9 to 14) (size 15 to 20)
#    0.000    0.750    5.000    3.000    1.750    5.500 
#    0.000    4.375    0.000    0.000    0.000    0.000 
#    0.000    0.000    0.000    0.000    0.000    0.000 
#
# Total GULP energy -89495.256031 kJ/mol
# GULP energy per Si atom -5593.453502 kJ/mol
# Density = 2.334761 g / cm^3
# Si number density = 23.400868 Si / 1000 Ang^3
#
#
#
# Elastic Constant Matrix: (Units=GPa)
#
#
# Indices 1 2 3 4 5 6 
#
# 1 137.0846 105.0462 34.2723 -15.9940 10.7135 8.9158
# 2 105.0462 167.6104 22.3196 -20.0903 2.0238 32.3531
# 3 34.2723 22.3196 77.9246 23.9280 19.4519 -5.6960
# 4 -15.9940 -20.0903 23.9280 22.0816 20.3143 11.2659
# 5 10.7135 2.0238 19.4519 20.3143 35.0055 3.8973
# 6 8.9158 32.3531 -5.6960 11.2659 3.8973 26.5944
#
#
#
# Elastic Compliance Matrix: (Units=1/GPa)
#
#
# Indices 1 2 3 4 5 6 
#
# 1 0.016220 -0.013719 0.000367 -0.006352 -0.002287 0.014357
# 2 -0.013719 0.008558 0.009185 -0.028569 0.014496 0.006133
# 3 0.000367 0.009185 0.001644 0.039029 -0.021498 -0.024327
# 4 -0.006352 -0.028569 0.039029 -0.094573 0.027745 0.081241
# 5 -0.002287 0.014496 -0.021498 0.027745 0.028437 -0.037394
# 6 0.014357 0.006133 -0.024327 0.081241 -0.037394 -0.008818
#
#
# Mechanical properties :
#
#
# Convention : Reuss Voigt Hill
#
# Bulk Modulus (GPa) = 55.28875 78.43285 66.86080
# Shear Modulus (GPa) = -146.34121 31.46839 -57.43641
#
# Velocity S-wave (km/s) = -7.91659 3.67107 -4.95962
# Velocity P-wave (km/s) = 7.73855 7.18045 2.04038
#
# Compressibility (1/GPa) = 0.01808686
#
# Stress axis : x y z
#
# Youngs Moduli (GPa) = 61.65270 116.84683 608.08908
#
# Poissons Ratio (x) = 1.60306 -0.22295
# Poissons Ratio (y) = 0.84583 -5.58517
# Poissons Ratio (z) = -0.02260 -1.07321
#
# Static dielectric constant tensor:
#      x y z
#    x 0.710800 -0.699720 -0.426630 
#    y -0.699720 1.436330 -0.310760 
#    z -0.426630 -0.310760 1.704550 
# 
# From -- ./inp_files/333329.got.cif
#   From: 2010.05.17/outbox.cif.g08.bks.cpg/sg2_167_cif.got.tgz:333329.got - 2010.06.03 11:33:40.
