data_PCOD9054920
_publ_section_title
;
Structure prediction by ZEFSAII (Michael W. Deem and Ramdas Pophale) SiO2 
 PCOD9054920
Probable space group: P -1
;
_chemical_formula_sum "Si O2"
_cell_formula_units_Z 16
_cell_length_a 16.402818
_cell_length_b 11.767672
_cell_length_c 10.613103
_cell_angle_alpha 106.509210
_cell_angle_beta 134.888808
_cell_angle_gamma 39.398061
_cell_volume 749.863534
_symmetry_space_group_name_H-M "P -1"
_symmetry_group_IT_number 2
_symmetry_cell_setting 'triclinic'
loop_
_space_group_symop_operation_xyz
x,y,z
-x,-y,-z
loop_
_atom_site_type_symbol
_atom_site_label
_atom_site_fract_x
_atom_site_fract_y
_atom_site_fract_z
Si Si1 0.714937 0.683669 0.738222
Si Si2 0.689963 0.989448 0.765155
Si Si3 0.581129 0.071500 0.951632
Si Si4 0.380627 0.470263 0.993081
Si Si5 0.176405 0.318291 0.532238
Si Si6 0.058701 0.625596 0.332409
Si Si7 0.796717 0.261673 0.370314
Si Si8 0.924205 0.366760 0.085669
O O1 0.697892 0.839235 0.747404
O O2 0.904795 0.466373 0.790719
O O3 0.499127 0.821370 0.481217
O O4 0.774397 0.586525 0.911097
O O5 0.912444 0.836148 0.897781
O O6 0.639970 0.076633 0.879327
O O7 0.472759 0.263744 0.981668
O O8 0.419233 0.100043 0.775664
O O9 0.815206 0.831879 0.177817
O O10 0.253769 0.636882 0.789279
O O11 0.225170 0.585320 0.977231
O O12 0.584883 0.374785 0.213723
O O13 0.000000 0.500000 0.500000
O O14 0.194005 0.423948 0.506050
O O15 0.082088 0.301328 0.332040
O O16 0.143809 0.683876 0.453705
O O17 0.000000 0.000000 0.500000
#
# Coordination Sequence:
#
# PCOD9054920 Si02
#       8
#     2   2   2   2   2   2   2   2
#     4  11  22  40  64  93 131 178 215 256 315 392
#     4  11  21  39  65  92 130 182 213 249 316 397
#     4  12  22  40  64  94 127 172 211 255 325 381
#     4  11  25  44  66  99 130 165 216 276 325 375
#     4  12  23  39  59  95 136 166 206 263 321 381
#     4  12  22  41  67  94 126 170 223 260 320 383
#     4  11  23  44  72  91 123 172 225 268 323 382
#     4  12  23  41  63  98 139 166 208 268 322 387
#
# _framework density 21.337215
#
# number of rings (size 3 to 8) (size 9 to 14) (size 15 to 20)
#    0.000    0.500    7.500    1.875    0.000    1.500 
#    4.500    0.625    0.000    7.500    0.000    0.000 
#    0.000    0.000    0.000    0.000    0.000    0.000 
#
# Total GULP energy -89426.965983 kJ/mol
# GULP energy per Si atom -5589.185374 kJ/mol
# Density = 2.128865 g / cm^3
# Si number density = 21.337215 Si / 1000 Ang^3
#
#
#
# Elastic Constant Matrix: (Units=GPa)
#
#
# Indices 1 2 3 4 5 6 
#
# 1 99.9388 0.2608 7.7392 -8.0480 20.3207 -21.0585
# 2 0.2608 27.6888 -8.7870 -12.6692 6.6543 -5.0023
# 3 7.7392 -8.7870 83.6161 -17.4585 14.7387 4.9515
# 4 -8.0480 -12.6692 -17.4585 36.4546 -4.9570 4.4725
# 5 20.3207 6.6543 14.7387 -4.9570 23.1267 -2.9808
# 6 -21.0585 -5.0023 4.9515 4.4725 -2.9808 34.6730
#
#
#
# Elastic Compliance Matrix: (Units=1/GPa)
#
#
# Indices 1 2 3 4 5 6 
#
# 1 0.014804 0.007441 0.002386 0.004013 -0.014786 0.007935
# 2 0.007441 0.060319 0.015560 0.025649 -0.027628 0.005316
# 3 0.002386 0.015560 0.019098 0.013138 -0.016203 -0.002121
# 4 0.004013 0.025649 0.013138 0.042357 -0.010471 -0.002103
# 5 -0.014786 -0.027628 -0.016203 -0.010471 0.071860 -0.003124
# 6 0.007935 0.005316 -0.002121 -0.002103 -0.003124 0.034733
#
#
# Mechanical properties :
#
#
# Convention : Reuss Voigt Hill
#
# Bulk Modulus (GPa) = 6.89675 23.29664 15.09670
# Shear Modulus (GPa) = 20.77024 32.98624 26.87824
#
# Velocity S-wave (km/s) = 3.12337 3.93612 3.55306
# Velocity P-wave (km/s) = 4.03069 5.62134 4.89111
#
# Compressibility (1/GPa) = 0.14499580
#
# Stress axis : x y z
#
# Youngs Moduli (GPa) = 67.55133 16.57842 52.36025
#
# Poissons Ratio (x) = -0.12336 -0.12493
# Poissons Ratio (y) = -0.50263 -0.81475
# Poissons Ratio (z) = -0.16118 -0.25797
#
# Static dielectric constant tensor:
#      x y z
#    x 1.780100 -0.028730 -0.046700 
#    y -0.028730 1.777030 0.000280 
#    z -0.046700 0.000280 1.875930 
# 
# From -- ./inp_files/465108.got.cif
#   From: 2010.05.17/outbox.cif.g08.bks.cpg/sg2_233_cif.got.tgz:465108.got - 2010.06.03 11:33:40.
