data_PCOD9054149
_publ_section_title
;
Structure prediction by ZEFSAII (Michael W. Deem and Ramdas Pophale) SiO2 
 PCOD9054149
Probable space group: P -1
;
_chemical_formula_sum "Si O2"
_cell_formula_units_Z 14
_cell_length_a 19.967285
_cell_length_b 9.638645
_cell_length_c 11.845289
_cell_angle_alpha 37.717999
_cell_angle_beta 155.518353
_cell_angle_gamma 141.750889
_cell_volume 558.385562
_symmetry_space_group_name_H-M "P -1"
_symmetry_group_IT_number 2
_symmetry_cell_setting 'triclinic'
loop_
_space_group_symop_operation_xyz
x,y,z
-x,-y,-z
loop_
_atom_site_type_symbol
_atom_site_label
_atom_site_fract_x
_atom_site_fract_y
_atom_site_fract_z
Si Si1 0.112134 0.046828 0.254597
Si Si2 0.335716 0.566530 0.252684
Si Si3 0.150399 0.928726 0.996482
Si Si4 0.344043 0.714931 0.769296
Si Si5 0.761348 0.488057 0.496699
Si Si6 0.542455 0.680879 0.712947
Si Si7 0.273663 0.024374 0.869103
O O1 0.201554 0.321881 0.216273
O O2 0.247507 0.898029 0.547478
O O3 0.998547 0.984817 0.231207
O O4 0.000000 0.000000 0.000000
O O5 0.500000 0.500000 0.500000
O O6 0.408746 0.673066 0.416427
O O7 0.258526 0.770523 0.952403
O O8 0.132198 0.663035 0.179580
O O9 0.317406 0.080206 0.219047
O O10 0.191855 0.975615 0.899302
O O11 0.239734 0.556413 0.610294
O O12 0.526303 0.858350 0.911512
O O13 0.373094 0.535537 0.025100
O O14 0.568271 0.374434 0.309068
O O15 0.799738 0.757435 0.422157
#
# Coordination Sequence:
#
# PCOD9054149 Si02
#       7
#     2   2   2   2   2   2   2
#     4  12  27  44  68  99 142 184 223 283 350 410
#     4  12  25  45  69 100 137 183 231 282 341 402
#     4  12  22  41  73 102 141 181 220 279 351 403
#     4  11  21  43  72 105 137 176 237 277 327 415
#     4  11  20  40  73 107 132 175 236 279 327 414
#     4  11  22  40  75 103 132 180 233 284 332 398
#     4  11  22  43  72 102 132 177 237 283 329 404
#
# _framework density 25.072281
#
# number of rings (size 3 to 8) (size 9 to 14) (size 15 to 20)
#    0.000    0.571    7.143    3.000    0.000    1.714 
#    0.000    0.714    0.000    0.000    0.000    0.000 
#    0.000    0.000    0.000    0.000    0.000    0.000 
#
# Total GULP energy -78354.967392 kJ/mol
# GULP energy per Si atom -5596.783385 kJ/mol
# Density = 2.501522 g / cm^3
# Si number density = 25.072281 Si / 1000 Ang^3
#
#
#
# Elastic Constant Matrix: (Units=GPa)
#
#
# Indices 1 2 3 4 5 6 
#
# 1 93.1842 25.1798 35.8985 -2.3390 35.6132 6.5138
# 2 25.1798 135.4689 48.6102 -17.6067 12.9809 -12.1914
# 3 35.8985 48.6102 95.4842 -31.5868 23.0612 8.8622
# 4 -2.3390 -17.6067 -31.5868 57.6851 -6.6889 3.3987
# 5 35.6132 12.9809 23.0612 -6.6889 45.0743 -1.4187
# 6 6.5138 -12.1914 8.8622 3.3987 -1.4187 25.0878
#
#
#
# Elastic Compliance Matrix: (Units=1/GPa)
#
#
# Indices 1 2 3 4 5 6 
#
# 1 0.017274 -0.001653 -0.003217 -0.002702 -0.012068 -0.004468
# 2 -0.001653 0.010259 -0.005795 -0.000383 0.001499 0.007598
# 3 -0.003217 -0.005795 0.019749 0.008963 -0.004892 -0.010448
# 4 -0.002702 -0.000383 0.008963 0.022444 0.000812 -0.005645
# 5 -0.012068 0.001499 -0.004892 0.000812 0.034145 0.007411
# 6 -0.004468 0.007598 -0.010448 -0.005645 0.007411 0.049587
#
#
# Mechanical properties :
#
#
# Convention : Reuss Voigt Hill
#
# Bulk Modulus (GPa) = 38.53442 60.39046 49.46244
# Shear Modulus (GPa) = 27.25687 39.86602 33.56145
#
# Velocity S-wave (km/s) = 3.30075 3.99186 3.66264
# Velocity P-wave (km/s) = 5.47076 6.73687 6.13656
#
# Compressibility (1/GPa) = 0.02595082
#
# Stress axis : x y z
#
# Youngs Moduli (GPa) = 57.88977 97.47620 50.63545
#
# Poissons Ratio (x) = 0.16115 0.16291
# Poissons Ratio (y) = 0.09571 0.29344
# Poissons Ratio (z) = 0.18625 0.56488
#
# Static dielectric constant tensor:
#      x y z
#    x 2.020000 -0.028450 -0.036310 
#    y -0.028450 1.965540 -0.033660 
#    z -0.036310 -0.033660 2.038980 
# 
# From -- ./inp_files/261141.got.cif
#   From: 2010.05.17/outbox.cif.g08.bks.cpg/sg2_131_cif.got.tgz:261141.got - 2010.06.03 11:33:40.
