data_PCOD9054437
_publ_section_title
;
Structure prediction by ZEFSAII (Michael W. Deem and Ramdas Pophale) SiO2 
 PCOD9054437
Probable space group: P -1
;
_chemical_formula_sum "Si O2"
_cell_formula_units_Z 16
_cell_length_a 12.214300
_cell_length_b 8.969955
_cell_length_c 9.792226
_cell_angle_alpha 120.700985
_cell_angle_beta 128.449922
_cell_angle_gamma 78.894263
_cell_volume 709.918774
_symmetry_space_group_name_H-M "P -1"
_symmetry_group_IT_number 2
_symmetry_cell_setting 'triclinic'
loop_
_space_group_symop_operation_xyz
x,y,z
-x,-y,-z
loop_
_atom_site_type_symbol
_atom_site_label
_atom_site_fract_x
_atom_site_fract_y
_atom_site_fract_z
Si Si1 0.847455 0.540934 0.783779
Si Si2 0.234397 0.816287 0.355711
Si Si3 0.156678 0.959281 0.628470
Si Si4 0.381466 0.510757 0.659369
Si Si5 0.143165 0.648111 0.674674
Si Si6 0.335181 0.229795 0.103715
Si Si7 0.915954 0.160387 0.013787
Si Si8 0.461911 0.166648 0.464514
O O1 0.880420 0.357331 0.777477
O O2 0.724833 0.498095 0.554793
O O3 0.779304 0.646957 0.895689
O O4 0.974923 0.667177 0.868377
O O5 0.200504 0.886517 0.215895
O O6 0.381720 0.749906 0.430834
O O7 0.231569 0.954127 0.537885
O O8 0.137195 0.767830 0.593118
O O9 0.258083 0.086738 0.869767
O O10 0.000000 0.000000 0.500000
O O11 0.286718 0.565886 0.735415
O O12 0.522793 0.653164 0.798251
O O13 0.413753 0.312270 0.593971
O O14 0.000000 0.500000 0.500000
O O15 0.143788 0.781961 0.864140
O O16 0.370649 0.150561 0.243800
O O17 0.000000 0.000000 0.000000
O O18 0.500000 0.000000 0.500000
#
# Coordination Sequence:
#
# PCOD9054437 Si02
#       8
#     2   2   2   2   2   2   2   2
#     4  11  20  45  72 100 137 195 243 292 358 450
#     4  12  24  46  68 103 141 193 251 288 363 449
#     4  12  27  47  72 110 146 191 252 309 357 441
#     4  11  22  47  74 102 143 195 244 302 371 449
#     4  12  25  47  74 106 151 194 240 309 377 429
#     4  11  23  46  78 102 144 193 248 297 371 434
#     4  12  27  43  72 110 148 194 240 307 378 426
#     4  11  25  43  72 108 145 186 241 309 372 443
#
# _framework density 22.537789
#
# number of rings (size 3 to 8) (size 9 to 14) (size 15 to 20)
#    0.000    0.500    5.000    3.375    5.250    4.000 
#    0.000    0.625    0.000    0.000    0.000    0.000 
#    0.000    0.000    0.000    0.000    0.000    0.000 
#
# Total GULP energy -89420.964799 kJ/mol
# GULP energy per Si atom -5588.810300 kJ/mol
# Density = 2.248649 g / cm^3
# Si number density = 22.537789 Si / 1000 Ang^3
#
#
#
# Elastic Constant Matrix: (Units=GPa)
#
#
# Indices 1 2 3 4 5 6 
#
# 1 132.5600 30.4943 47.5811 6.5315 -21.3662 -24.1687
# 2 30.4943 115.0598 56.0397 3.3513 -10.4948 -20.0759
# 3 47.5811 56.0397 131.3936 -0.8369 -16.8665 -9.4534
# 4 6.5315 3.3513 -0.8369 30.0596 -1.5278 2.3974
# 5 -21.3662 -10.4948 -16.8665 -1.5278 49.5763 11.5044
# 6 -24.1687 -20.0759 -9.4534 2.3974 11.5044 40.4223
#
#
#
# Elastic Compliance Matrix: (Units=1/GPa)
#
#
# Indices 1 2 3 4 5 6 
#
# 1 0.009961 -0.000098 -0.002972 -0.002511 0.002077 0.004770
# 2 -0.000098 0.011916 -0.004746 -0.001852 -0.000342 0.004957
# 3 -0.002972 -0.004746 0.010812 0.001757 0.001974 -0.002271
# 4 -0.002511 -0.001852 0.001757 0.034480 0.001207 -0.004399
# 5 0.002077 -0.000342 0.001974 0.001207 0.022874 -0.005048
# 6 0.004770 0.004957 -0.002271 -0.004399 -0.005048 0.031219
#
#
# Mechanical properties :
#
#
# Convention : Reuss Voigt Hill
#
# Bulk Modulus (GPa) = 58.62060 71.91595 65.26828
# Shear Modulus (GPa) = 35.06805 40.33819 37.70312
#
# Velocity S-wave (km/s) = 3.94885 4.23520 4.09453
# Velocity P-wave (km/s) = 6.84526 7.47624 7.16770
#
# Compressibility (1/GPa) = 0.01705885
#
# Stress axis : x y z
#
# Youngs Moduli (GPa) = 100.39060 83.91925 92.48823
#
# Poissons Ratio (x) = 0.00820 0.27484
# Poissons Ratio (y) = 0.00981 0.43894
# Poissons Ratio (z) = 0.29833 0.39827
#
# Static dielectric constant tensor:
#      x y z
#    x 1.905810 0.026650 0.003950 
#    y 0.026650 1.867280 0.031510 
#    z 0.003950 0.031510 1.871320 
# 
# From -- ./inp_files/245676.got.cif
#   From: 2010.05.17/outbox.cif.g08.bks.cpg/sg2_123_cif.got.tgz:245676.got - 2010.06.03 11:33:40.
