data_PCOD9054996
_publ_section_title
;
Structure prediction by ZEFSAII (Michael W. Deem and Ramdas Pophale) SiO2 
 PCOD9054996
Probable space group: P -1
;
_chemical_formula_sum "Si O2"
_cell_formula_units_Z 12
_cell_length_a 12.508509
_cell_length_b 17.235068
_cell_length_c 11.135381
_cell_angle_alpha 28.225687
_cell_angle_beta 35.891912
_cell_angle_gamma 25.079912
_cell_volume 480.382090
_symmetry_space_group_name_H-M "P -1"
_symmetry_group_IT_number 2
_symmetry_cell_setting 'triclinic'
loop_
_space_group_symop_operation_xyz
x,y,z
-x,-y,-z
loop_
_atom_site_type_symbol
_atom_site_label
_atom_site_fract_x
_atom_site_fract_y
_atom_site_fract_z
Si Si1 0.883177 0.637663 0.129687
Si Si2 0.120852 0.584731 0.208528
Si Si3 0.648179 0.306908 0.966325
Si Si4 0.939590 0.875876 0.573446
Si Si5 0.769795 0.893511 0.440802
Si Si6 0.402512 0.734477 0.447926
O O1 0.602895 0.747858 0.213182
O O2 0.924743 0.732289 0.076435
O O3 0.042891 0.376301 0.373410
O O4 0.979425 0.677320 0.874200
O O5 0.176519 0.692888 0.105734
O O6 0.000000 0.500000 0.500000
O O7 0.395665 0.406544 0.134969
O O8 0.551416 0.484889 0.705747
O O9 0.778655 0.061106 0.136764
O O10 0.810886 0.924157 0.498790
O O11 0.209205 0.797288 0.436295
O O12 0.756414 0.096317 0.524988
O O13 0.500000 0.000000 0.500000
#
# Coordination Sequence:
#
# PCOD9054996 Si02
#       6
#     2   2   2   2   2   2
#     4  12  25  44  70 105 137 180 231 278 348 409
#     4  11  21  39  70 102 136 177 231 281 323 409
#     4  11  23  43  68 100 142 178 226 279 342 400
#     4  11  25  47  69  97 143 179 229 284 340 408
#     4  12  26  45  71 102 142 185 220 286 355 402
#     4  11  24  45  74 102 131 183 233 283 335 406
#
# _framework density 24.980115000000001
#
# number of rings (size 3 to 8) (size 9 to 14) (size 15 to 20)
#    0.000    0.667    5.000    3.000    2.333    1.333 
#    0.000    0.000    0.000    0.000    0.000    0.000 
#    0.000    0.000    0.000    0.000    0.000    0.000 
#
# Total GULP energy -67157.261562 kJ/mol
# GULP energy per Si atom -5596.438463 kJ/mol
# Density = 2.492326 g / cm^3
# Si number density = 24.980115 Si / 1000 Ang^3
#
#
#
# Elastic Constant Matrix: (Units=GPa)
#
#
# Indices 1 2 3 4 5 6 
#
# 1 174.1283 48.1920 18.0088 15.1079 -26.8281 -50.4129
# 2 48.1920 77.4060 51.7860 11.4773 -15.7862 -39.1211
# 3 18.0088 51.7860 99.4615 -5.9148 -46.1122 -16.8343
# 4 15.1079 11.4773 -5.9148 57.8418 -13.5997 -16.7063
# 5 -26.8281 -15.7862 -46.1122 -13.5997 40.3290 14.0286
# 6 -50.4129 -39.1211 -16.8343 -16.7063 14.0286 43.2625
#
#
#
# Elastic Compliance Matrix: (Units=1/GPa)
#
#
# Indices 1 2 3 4 5 6 
#
# 1 0.011161 -0.010855 0.014030 0.006723 0.019807 0.004822
# 2 -0.010855 0.075844 -0.068292 -0.024780 -0.079869 0.045690
# 3 0.014030 -0.068292 0.090260 0.035506 0.108865 -0.031875
# 4 0.006723 -0.024780 0.035506 0.034509 0.048056 -0.003014
# 5 0.019807 -0.079869 0.108865 0.048056 0.161513 -0.040597
# 6 0.004822 0.045690 -0.031875 -0.003014 -0.040597 0.069647
#
#
# Mechanical properties :
#
#
# Convention : Reuss Voigt Hill
#
# Bulk Modulus (GPa) = 21.26363 65.21882 43.24123
# Shear Modulus (GPa) = 8.49121 43.82058 26.15590
#
# Velocity S-wave (km/s) = 1.84569 4.19288 3.23935
# Velocity P-wave (km/s) = 3.61563 7.04311 5.59813
#
# Compressibility (1/GPa) = 0.04702866
#
# Stress axis : x y z
#
# Youngs Moduli (GPa) = 89.60151 13.18504 11.07913
#
# Poissons Ratio (x) = 0.14312 -0.15544
# Poissons Ratio (y) = 0.97262 0.75662
# Poissons Ratio (z) = -1.25709 0.90044
#
# Static dielectric constant tensor:
#      x y z
#    x 1.960290 -0.029840 0.006400 
#    y -0.029840 2.083670 -0.031310 
#    z 0.006400 -0.031310 2.004620 
# 
# From -- ./inp_files/437189.got.cif
#   From: 2010.05.17/outbox.cif.g08.bks.cpg/sg2_219_cif.got.tgz:437189.got - 2010.06.03 11:33:40.
