data_PCOD9054596
_publ_section_title
;
Structure prediction by ZEFSAII (Michael W. Deem and Ramdas Pophale) SiO2 
 PCOD9054596
Probable space group: P -1
;
_chemical_formula_sum "Si O2"
_cell_formula_units_Z 16
_cell_length_a 15.752708
_cell_length_b 17.772779
_cell_length_c 9.877662
_cell_angle_alpha 146.661881
_cell_angle_beta 49.035749
_cell_angle_gamma 148.150042
_cell_volume 787.949448
_symmetry_space_group_name_H-M "P -1"
_symmetry_group_IT_number 2
_symmetry_cell_setting 'triclinic'
loop_
_space_group_symop_operation_xyz
x,y,z
-x,-y,-z
loop_
_atom_site_type_symbol
_atom_site_label
_atom_site_fract_x
_atom_site_fract_y
_atom_site_fract_z
Si Si1 0.932194 0.292585 0.296798
Si Si2 0.533476 0.343164 0.832412
Si Si3 0.075435 0.220514 0.271578
Si Si4 0.409442 0.050237 0.733638
Si Si5 0.539584 0.413106 0.634744
Si Si6 0.400055 0.272825 0.287179
Si Si7 0.055772 0.112836 0.408066
Si Si8 0.113828 0.281823 0.896215
O O1 0.749692 0.144723 0.318194
O O2 0.000000 0.500000 0.500000
O O3 0.013388 0.273696 0.304711
O O4 0.963215 0.235938 0.041448
O O5 0.524239 0.312651 0.636484
O O6 0.398835 0.138713 0.746826
O O7 0.511773 0.480798 0.106329
O O8 0.721776 0.487882 0.899498
O O9 0.271414 0.403685 0.330098
O O10 0.032123 0.200140 0.444353
O O11 0.000000 0.000000 0.000000
O O12 0.500000 0.000000 0.500000
O O13 0.469880 0.214583 0.030612
O O14 0.430096 0.266466 0.403732
O O15 0.500000 0.500000 0.500000
O O16 0.213454 0.154597 0.273220
O O17 0.097100 0.223849 0.671991
O O18 0.902183 0.875120 0.237674
#
# Coordination Sequence:
#
# PCOD9054596 Si02
#       8
#     2   2   2   2   2   2   2   2
#     4  12  26  46  69  93 137 184 222 271 342 412
#     4  11  21  39  62 100 133 172 218 272 339 396
#     4  12  21  40  66 101 132 172 229 282 330 394
#     4  12  26  45  69  92 133 185 229 267 341 419
#     4  11  22  34  67 101 137 166 221 285 337 386
#     4  12  20  40  66 104 136 172 221 288 338 391
#     4  11  21  36  66 102 133 167 220 281 342 388
#     4  11  21  39  65  99 135 172 217 278 339 401
#
# _framework density 20.305869999999999
#
# number of rings (size 3 to 8) (size 9 to 14) (size 15 to 20)
#    0.000    0.500    7.500    1.500    0.000    1.000 
#    0.000    1.250    0.000    0.000    0.000    0.000 
#    0.000    0.000    0.000    0.000    0.000    0.000 
#
# Total GULP energy -89212.502383 kJ/mol
# GULP energy per Si atom -5575.781399 kJ/mol
# Density = 2.025965 g / cm^3
# Si number density = 20.305870 Si / 1000 Ang^3
#
#
#
# Elastic Constant Matrix: (Units=GPa)
#
#
# Indices 1 2 3 4 5 6 
#
# 1 45.0688 8.8327 36.7084 -7.8247 4.5834 -16.3125
# 2 8.8327 99.9576 34.9272 -4.8569 -3.0149 -21.2584
# 3 36.7084 34.9272 94.3200 -18.1753 -8.6600 -13.2751
# 4 -7.8247 -4.8569 -18.1753 48.5847 -3.6270 0.8782
# 5 4.5834 -3.0149 -8.6600 -3.6270 23.1819 -10.5057
# 6 -16.3125 -21.2584 -13.2751 0.8782 -10.5057 44.4402
#
#
#
# Elastic Compliance Matrix: (Units=1/GPa)
#
#
# Indices 1 2 3 4 5 6 
#
# 1 0.038719 0.003854 -0.016094 -0.000242 -0.009077 0.009107
# 2 0.003854 0.012918 -0.005193 -0.000005 0.001922 0.006497
# 3 -0.016094 -0.005193 0.020980 0.005582 0.011429 0.000466
# 4 -0.000242 -0.000005 0.005582 0.023104 0.007005 0.002776
# 5 -0.009077 0.001922 0.011429 0.007005 0.057050 0.014350
# 6 0.009107 0.006497 0.000466 0.002776 0.014350 0.032430
#
#
# Mechanical properties :
#
#
# Convention : Reuss Voigt Hill
#
# Bulk Modulus (GPa) = 26.49114 44.47590 35.48352
# Shear Modulus (GPa) = 21.49129 33.83321 27.66225
#
# Velocity S-wave (km/s) = 3.25680 4.08631 3.69491
# Velocity P-wave (km/s) = 5.21696 6.64940 5.97625
#
# Compressibility (1/GPa) = 0.03774847
#
# Stress axis : x y z
#
# Youngs Moduli (GPa) = 25.82687 77.41217 47.66494
#
# Poissons Ratio (x) = -0.29832 0.76714
# Poissons Ratio (y) = -0.09953 0.24754
# Poissons Ratio (z) = 0.41567 0.40203
#
# Static dielectric constant tensor:
#      x y z
#    x 1.827550 0.037620 0.040670 
#    y 0.037620 1.804720 0.040200 
#    z 0.040670 0.040200 1.793610 
# 
# From -- ./inp_files/314221.got.cif
#   From: 2010.05.17/outbox.cif.g08.bks.cpg/sg2_158_cif.got.tgz:314221.got - 2010.06.03 11:33:40.
