data_PCOD9054843
_publ_section_title
;
Structure prediction by ZEFSAII (Michael W. Deem and Ramdas Pophale) SiO2 
 PCOD9054843
Probable space group: P -1
;
_chemical_formula_sum "Si O2"
_cell_formula_units_Z 14
_cell_length_a 19.209940
_cell_length_b 12.501269
_cell_length_c 9.375767
_cell_angle_alpha 37.647116
_cell_angle_beta 137.050211
_cell_angle_gamma 154.230205
_cell_volume 596.383577
_symmetry_space_group_name_H-M "P -1"
_symmetry_group_IT_number 2
_symmetry_cell_setting 'triclinic'
loop_
_space_group_symop_operation_xyz
x,y,z
-x,-y,-z
loop_
_atom_site_type_symbol
_atom_site_label
_atom_site_fract_x
_atom_site_fract_y
_atom_site_fract_z
Si Si1 0.624200 0.868154 0.490616
Si Si2 0.573281 0.269639 0.397746
Si Si3 0.101288 0.650300 0.789242
Si Si4 0.183886 0.253266 0.547806
Si Si5 0.566468 0.391768 0.962654
Si Si6 0.335915 0.634943 0.138029
Si Si7 0.795536 0.100239 0.017279
O O1 0.566972 0.845494 0.586720
O O2 0.579596 0.603990 0.694319
O O3 0.518262 0.858789 0.238329
O O4 0.806878 0.136967 0.428945
O O5 0.731495 0.481386 0.513048
O O6 0.500000 0.000000 0.500000
O O7 0.619662 0.453514 0.140121
O O8 0.121554 0.785415 0.823261
O O9 0.204049 0.606579 0.009843
O O10 0.913020 0.354284 0.816456
O O11 0.268499 0.375082 0.393022
O O12 0.223613 0.125246 0.820576
O O13 0.000000 0.000000 0.500000
O O14 0.659381 0.387729 0.999241
O O15 0.384274 0.080417 0.027630
#
# Coordination Sequence:
#
# PCOD9054843 Si02
#       7
#     2   2   2   2   2   2   2
#     4  11  22  40  65  98 134 182 235 276 339 409
#     4  11  26  42  70 102 136 180 231 284 344 406
#     4  11  23  37  63 105 135 177 229 292 325 400
#     4  11  23  45  71  99 138 181 228 282 343 410
#     4  12  23  42  68  99 134 181 225 287 338 412
#     4  11  21  38  69  99 131 182 236 280 322 409
#     4  11  23  38  66  98 141 170 228 274 354 385
#
# _framework density 23.474824999999999
#
# number of rings (size 3 to 8) (size 9 to 14) (size 15 to 20)
#    0.000    0.857    5.714    3.000    4.000    0.000 
#    0.000    1.429    0.000    0.000    0.000    0.000 
#    0.000    0.000    0.000    0.000    0.000    0.000 
#
# Total GULP energy -78094.213868 kJ/mol
# GULP energy per Si atom -5578.158133 kJ/mol
# Density = 2.342140 g / cm^3
# Si number density = 23.474825 Si / 1000 Ang^3
#
#
#
# Elastic Constant Matrix: (Units=GPa)
#
#
# Indices 1 2 3 4 5 6 
#
# 1 127.9170 46.1807 28.5061 -13.7765 -16.9226 -7.9748
# 2 46.1807 114.4131 20.7848 -27.8564 -15.2583 5.4005
# 3 28.5061 20.7848 86.4573 -10.8200 -11.6226 -1.4818
# 4 -13.7765 -27.8564 -10.8200 34.4268 -1.0709 -9.3934
# 5 -16.9226 -15.2583 -11.6226 -1.0709 44.5782 -8.3061
# 6 -7.9748 5.4005 -1.4818 -9.3934 -8.3061 35.3511
#
#
#
# Elastic Compliance Matrix: (Units=1/GPa)
#
#
# Indices 1 2 3 4 5 6 
#
# 1 0.010237 -0.003004 -0.001871 0.002279 0.003178 0.004042
# 2 -0.003004 0.012704 -0.000439 0.009215 0.003430 0.000618
# 3 -0.001871 -0.000439 0.013182 0.003644 0.003013 0.001874
# 4 0.002279 0.009215 0.003644 0.042209 0.008299 0.012425
# 5 0.003178 0.003430 0.003013 0.008299 0.027471 0.008979
# 6 0.004042 0.000618 0.001874 0.012425 0.008979 0.034595
#
#
# Mechanical properties :
#
#
# Convention : Reuss Voigt Hill
#
# Bulk Modulus (GPa) = 39.22311 57.74786 48.48549
# Shear Modulus (GPa) = 31.34304 38.42559 34.88432
#
# Velocity S-wave (km/s) = 3.65797 4.05023 3.85909
# Velocity P-wave (km/s) = 5.88097 6.82098 6.36835
#
# Compressibility (1/GPa) = 0.02549517
#
# Stress axis : x y z
#
# Youngs Moduli (GPa) = 97.68447 78.71309 75.86047
#
# Poissons Ratio (x) = 0.23646 0.14196
# Poissons Ratio (y) = 0.29345 0.03329
# Poissons Ratio (z) = 0.18280 0.03454
#
# Static dielectric constant tensor:
#      x y z
#    x 1.863970 -0.010000 0.049490 
#    y -0.010000 1.966200 -0.001400 
#    z 0.049490 -0.001400 2.010770 
# 
# From -- ./inp_files/332761.got.cif
#   From: 2010.05.17/outbox.cif.g08.bks.cpg/sg2_167_cif.got.tgz:332761.got - 2010.06.03 11:33:40.
