data_PCOD9054692
_publ_section_title
;
Structure prediction by ZEFSAII (Michael W. Deem and Ramdas Pophale) SiO2 
 PCOD9054692
Probable space group: P -1
;
_chemical_formula_sum "Si O2"
_cell_formula_units_Z 16
_cell_length_a 16.036455
_cell_length_b 18.133805
_cell_length_c 24.944327
_cell_angle_alpha 160.144992
_cell_angle_beta 21.464183
_cell_angle_gamma 147.252790
_cell_volume 866.590709
_symmetry_space_group_name_H-M "P -1"
_symmetry_group_IT_number 2
_symmetry_cell_setting 'triclinic'
loop_
_space_group_symop_operation_xyz
x,y,z
-x,-y,-z
loop_
_atom_site_type_symbol
_atom_site_label
_atom_site_fract_x
_atom_site_fract_y
_atom_site_fract_z
Si Si1 0.737142 0.054729 0.216774
Si Si2 0.994346 0.145637 0.759232
Si Si3 0.460168 0.367555 0.986525
Si Si4 0.792512 0.938923 0.224674
Si Si5 0.232863 0.520492 0.691546
Si Si6 0.300410 0.445918 0.725134
Si Si7 0.991742 0.141769 0.547830
Si Si8 0.299343 0.815412 0.441935
O O1 0.568447 0.290169 0.457380
O O2 0.636616 0.843972 0.115762
O O3 0.744089 0.068586 0.286318
O O4 0.000000 0.000000 0.000000
O O5 0.157117 0.288995 0.732657
O O6 0.931166 0.006031 0.652627
O O7 0.769320 0.322002 0.041233
O O8 0.148909 0.983151 0.601242
O O9 0.716919 0.271863 0.793277
O O10 0.500000 0.500000 0.000000
O O11 0.300063 0.560955 0.252737
O O12 0.572747 0.827567 0.285598
O O13 0.790612 0.094668 0.384037
O O14 0.041413 0.748167 0.943016
O O15 0.500000 0.500000 0.500000
O O16 0.217571 0.504992 0.754484
O O17 0.148545 0.313379 0.577397
O O18 0.000000 0.000000 0.500000
#
# Coordination Sequence:
#
# PCOD9054692 Si02
#       8
#     2   2   2   2   2   2   2   2
#     4  12  24  42  63  92 129 165 198 247 311 373
#     4  11  21  38  65  91 125 153 208 264 301 350
#     4  12  20  39  63  92 120 157 214 252 292 358
#     4  11  22  38  62  94 116 164 206 248 305 358
#     4  12  24  40  59  91 129 161 199 248 308 373
#     4  11  22  40  61  91 125 164 198 253 313 358
#     4  12  22  37  61  94 119 158 209 254 297 356
#     4  11  21  37  66  93 121 152 214 265 292 350
#
# _framework density 18.463156999999999
#
# number of rings (size 3 to 8) (size 9 to 14) (size 15 to 20)
#    0.000    0.500    8.750    0.750    0.000    1.000 
#    0.000    2.500    0.000    0.000    0.000    0.000 
#    0.000    0.000    0.000    0.000    0.000    0.000 
#
# Total GULP energy -89388.684516 kJ/mol
# GULP energy per Si atom -5586.792782 kJ/mol
# Density = 1.842113 g / cm^3
# Si number density = 18.463157 Si / 1000 Ang^3
#
#
#
# Elastic Constant Matrix: (Units=GPa)
#
#
# Indices 1 2 3 4 5 6 
#
# 1 110.1708 27.5250 24.0115 19.1397 10.7348 13.4773
# 2 27.5250 61.4359 35.4411 -1.1723 3.0056 17.5836
# 3 24.0115 35.4411 110.4149 12.6632 5.7726 22.7349
# 4 19.1397 -1.1723 12.6632 30.2372 5.9001 0.6085
# 5 10.7348 3.0056 5.7726 5.9001 47.5941 8.7256
# 6 13.4773 17.5836 22.7349 0.6085 8.7256 17.5966
#
#
#
# Elastic Compliance Matrix: (Units=1/GPa)
#
#
# Indices 1 2 3 4 5 6 
#
# 1 0.012113 -0.004530 0.000854 -0.007979 -0.000592 -0.005284
# 2 -0.004530 0.026079 -0.004366 0.005572 0.002592 -0.018427
# 3 0.000854 -0.004366 0.014071 -0.006686 0.001997 -0.015230
# 4 -0.007979 0.005572 -0.006686 0.041869 -0.004784 0.010106
# 5 -0.000592 0.002592 0.001997 -0.004784 0.024383 -0.016643
# 6 -0.005284 -0.018427 -0.015230 0.010106 -0.016643 0.106870
#
#
# Mechanical properties :
#
#
# Convention : Reuss Voigt Hill
#
# Bulk Modulus (GPa) = 27.64134 50.66408 39.15271
# Shear Modulus (GPa) = 19.72171 32.08853 25.90512
#
# Velocity S-wave (km/s) = 3.27183 4.17343 3.74982
# Velocity P-wave (km/s) = 5.41080 7.12205 6.32456
#
# Compressibility (1/GPa) = 0.03617770
#
# Stress axis : x y z
#
# Youngs Moduli (GPa) = 82.55758 38.34497 71.06945
#
# Poissons Ratio (x) = 0.17372 -0.06070
# Poissons Ratio (y) = 0.37402 0.31030
# Poissons Ratio (z) = -0.07052 0.16742
#
# Static dielectric constant tensor:
#      x y z
#    x 1.620210 0.009110 0.017470 
#    y 0.009110 1.610720 0.008650 
#    z 0.017470 0.008650 1.664540 
# 
# From -- ./inp_files/218920.got.cif
#   From: 2010.05.17/outbox.cif.g08.bks.cpg/sg2_110_cif.got.tgz:218920.got - 2010.06.03 11:33:40.
