data_PCOD9054079
_publ_section_title
;
Structure prediction by ZEFSAII (Michael W. Deem and Ramdas Pophale) SiO2 
 PCOD9054079
Probable space group: P -1
;
_chemical_formula_sum "Si O2"
_cell_formula_units_Z 16
_cell_length_a 9.463298
_cell_length_b 11.969526
_cell_length_c 13.980314
_cell_angle_alpha 32.049011
_cell_angle_beta 70.690056
_cell_angle_gamma 54.331936
_cell_volume 631.643894
_symmetry_space_group_name_H-M "P -1"
_symmetry_group_IT_number 2
_symmetry_cell_setting 'triclinic'
loop_
_space_group_symop_operation_xyz
x,y,z
-x,-y,-z
loop_
_atom_site_type_symbol
_atom_site_label
_atom_site_fract_x
_atom_site_fract_y
_atom_site_fract_z
Si Si1 0.375475 0.887575 0.939104
Si Si2 0.601634 0.074576 0.492361
Si Si3 0.905478 0.630306 0.239002
Si Si4 0.789270 0.413946 0.263380
Si Si5 0.316690 0.801654 0.813044
Si Si6 0.140045 0.110824 0.291607
Si Si7 0.096880 0.996479 0.183520
Si Si8 0.239670 0.586823 0.287895
O O1 0.580915 0.667521 0.097518
O O2 0.246789 0.792069 0.068775
O O3 0.360037 0.922769 0.803282
O O4 0.279583 0.171234 0.801337
O O5 0.694388 0.128962 0.345759
O O6 0.739046 0.837948 0.706396
O O7 0.442804 0.320609 0.413223
O O8 0.500000 0.000000 0.500000
O O9 0.877117 0.447549 0.314587
O O10 0.087750 0.536976 0.328860
O O11 0.910396 0.809631 0.029756
O O12 0.805311 0.154089 0.474026
O O13 0.925830 0.345093 0.193337
O O14 0.111956 0.887166 0.822119
O O15 0.500000 0.500000 0.000000
O O16 0.192120 0.018262 0.239545
O O17 0.195141 0.718826 0.307110
#
# Coordination Sequence:
#
# PCOD9054079 Si02
#       8
#     2   2   2   2   2   2   2   2
#     4  11  20  40  67  97 129 169 220 267 325 381
#     4  12  26  44  66  95 130 173 220 269 320 387
#     4  11  22  41  66 100 133 162 219 280 316 374
#     4  11  23  41  65  94 136 172 212 270 324 377
#     4  12  20  39  69  94 123 173 219 260 323 385
#     4  11  24  44  61  90 136 176 211 257 333 394
#     4  11  23  40  69  95 130 175 213 261 332 386
#     4  11  21  44  66  96 134 168 215 274 323 376
#
# _framework density 25.330729000000002
#
# number of rings (size 3 to 8) (size 9 to 14) (size 15 to 20)
#    0.000    0.750    5.000    4.125    0.000    2.000 
#    2.250    1.250    0.000    0.000    0.000    0.000 
#    0.000    0.000    0.000    0.000    0.000    0.000 
#
# Total GULP energy -89467.099525 kJ/mol
# GULP energy per Si atom -5591.693720 kJ/mol
# Density = 2.527307 g / cm^3
# Si number density = 25.330729 Si / 1000 Ang^3
#
#
#
# Elastic Constant Matrix: (Units=GPa)
#
#
# Indices 1 2 3 4 5 6 
#
# 1 105.0183 51.5620 12.6792 4.8566 29.9054 16.2068
# 2 51.5620 196.8882 32.5263 -3.8236 25.9820 15.4638
# 3 12.6792 32.5263 47.1004 -0.9562 17.8867 -2.7705
# 4 4.8566 -3.8236 -0.9562 23.0345 1.1124 9.0641
# 5 29.9054 25.9820 17.8867 1.1124 32.5737 3.9477
# 6 16.2068 15.4638 -2.7705 9.0641 3.9477 39.8849
#
#
#
# Elastic Compliance Matrix: (Units=1/GPa)
#
#
# Indices 1 2 3 4 5 6 
#
# 1 0.014418 -0.002291 0.002071 -0.001452 -0.012098 -0.003299
# 2 -0.002291 0.006649 -0.003697 0.002407 -0.000967 -0.002355
# 3 0.002071 -0.003697 0.029388 -0.000792 -0.015591 0.004356
# 4 -0.001452 0.002407 -0.000792 0.048592 -0.000430 -0.011398
# 5 -0.012098 -0.000967 -0.015591 -0.000430 0.051246 -0.000767
# 6 -0.003299 -0.002355 0.004356 -0.011398 -0.000767 0.030295
#
#
# Mechanical properties :
#
#
# Convention : Reuss Voigt Hill
#
# Bulk Modulus (GPa) = 23.46249 60.28242 41.87246
# Shear Modulus (GPa) = 24.67565 35.91456 30.29511
#
# Velocity S-wave (km/s) = 3.12451 3.76949 3.46205
# Velocity P-wave (km/s) = 4.72221 6.54180 5.70502
#
# Compressibility (1/GPa) = 0.04262123
#
# Stress axis : x y z
#
# Youngs Moduli (GPa) = 69.35749 150.39734 34.02769
#
# Poissons Ratio (x) = 0.34450 -0.07048
# Poissons Ratio (y) = 0.15887 0.12582
# Poissons Ratio (z) = -0.14366 0.55609
#
# Static dielectric constant tensor:
#      x y z
#    x 1.500950 -0.520780 -0.818130 
#    y -0.520780 1.734340 -0.366060 
#    z -0.818130 -0.366060 1.505800 
# 
# From -- ./inp_files/499868.got.cif
#   From: 2010.05.17/outbox.cif.g08.bks.cpg/sg2_250_cif.got.tgz:499868.got - 2010.06.03 11:33:40.
