data_PCOD9054985
_publ_section_title
;
Structure prediction by ZEFSAII (Michael W. Deem and Ramdas Pophale) SiO2 
 PCOD9054985
Probable space group: P -1
;
_chemical_formula_sum "Si O2"
_cell_formula_units_Z 16
_cell_length_a 12.016791
_cell_length_b 17.731945
_cell_length_c 9.399910
_cell_angle_alpha 51.380294
_cell_angle_beta 133.577993
_cell_angle_gamma 148.634058
_cell_volume 751.887925
_symmetry_space_group_name_H-M "P -1"
_symmetry_group_IT_number 2
_symmetry_cell_setting 'triclinic'
loop_
_space_group_symop_operation_xyz
x,y,z
-x,-y,-z
loop_
_atom_site_type_symbol
_atom_site_label
_atom_site_fract_x
_atom_site_fract_y
_atom_site_fract_z
Si Si1 0.250599 0.866067 0.084972
Si Si2 0.387656 0.143541 0.872100
Si Si3 0.749197 0.339945 0.217591
Si Si4 0.597327 0.396877 0.259650
Si Si5 0.509111 0.094769 0.498762
Si Si6 0.164638 0.288138 0.883474
Si Si7 0.994634 0.064604 0.781596
Si Si8 0.756931 0.355157 0.725212
O O1 0.465489 0.931745 0.290005
O O2 0.185051 0.733491 0.108818
O O3 0.058824 0.800451 0.112069
O O4 0.320229 0.003596 0.923791
O O5 0.156500 0.092439 0.773123
O O6 0.543473 0.269094 0.744366
O O7 0.556226 0.221782 0.069025
O O8 0.688871 0.408903 0.170084
O O9 0.719836 0.251392 0.426230
O O10 0.009081 0.475918 0.231455
O O11 0.710234 0.551627 0.217000
O O12 0.670763 0.354303 0.495800
O O13 0.329413 0.294643 0.113387
O O14 0.500000 0.000000 0.500000
O O15 0.274753 0.045194 0.353125
O O16 0.102741 0.213782 0.764219
O O17 0.000000 0.000000 0.000000
#
# Coordination Sequence:
#
# PCOD9054985 Si02
#       8
#     2   2   2   2   2   2   2   2
#     4  12  23  41  67  98 128 172 218 275 321 383
#     4  12  26  44  64  95 138 176 210 267 332 391
#     4  12  21  41  70  93 125 172 219 266 313 382
#     4  11  23  39  68  97 129 167 221 270 321 384
#     4  12  21  36  71 102 121 158 231 278 308 369
#     4  11  21  39  69  97 125 164 225 273 317 378
#     4  12  21  40  68  94 130 171 220 265 321 381
#     4  12  27  43  63  99 137 172 212 266 337 388
#
# _framework density 21.279767
#
# number of rings (size 3 to 8) (size 9 to 14) (size 15 to 20)
#    0.000    0.250    8.750    1.875    0.000    0.000 
#    0.000    4.375    0.000    0.000    0.000    0.000 
#    0.000    0.000    0.000    0.000    0.000    0.000 
#
# Total GULP energy -89263.564676 kJ/mol
# GULP energy per Si atom -5578.972792 kJ/mol
# Density = 2.123133 g / cm^3
# Si number density = 21.279767 Si / 1000 Ang^3
#
#
#
# Elastic Constant Matrix: (Units=GPa)
#
#
# Indices 1 2 3 4 5 6 
#
# 1 84.0869 39.4549 18.8434 -19.6425 9.5948 19.1273
# 2 39.4549 93.0201 13.8581 -20.1809 10.0953 7.1532
# 3 18.8434 13.8581 37.8082 -3.9299 6.2806 18.2054
# 4 -19.6425 -20.1809 -3.9299 27.5854 2.7805 6.1203
# 5 9.5948 10.0953 6.2806 2.7805 30.4100 0.6442
# 6 19.1273 7.1532 18.2054 6.1203 0.6442 49.9066
#
#
#
# Elastic Compliance Matrix: (Units=1/GPa)
#
#
# Indices 1 2 3 4 5 6 
#
# 1 0.019698 -0.004003 -0.002438 0.012984 -0.005409 -0.007609
# 2 -0.004003 0.015079 -0.001387 0.008660 -0.004224 -0.001129
# 3 -0.002438 -0.001387 0.035915 0.005811 -0.006452 -0.012597
# 4 0.012984 0.008660 0.005811 0.057352 -0.013093 -0.015202
# 5 -0.005409 -0.004224 -0.006452 -0.013093 0.038392 0.006142
# 6 -0.007609 -0.001129 -0.012597 -0.015202 0.006142 0.029496
#
#
# Mechanical properties :
#
#
# Convention : Reuss Voigt Hill
#
# Bulk Modulus (GPa) = 18.17000 39.91424 29.04212
# Shear Modulus (GPa) = 21.74554 31.09763 26.42159
#
# Velocity S-wave (km/s) = 3.20017 3.82694 3.52750
# Velocity P-wave (km/s) = 4.71295 6.19071 5.50167
#
# Compressibility (1/GPa) = 0.05503578
#
# Stress axis : x y z
#
# Youngs Moduli (GPa) = 50.76677 66.31848 27.84385
#
# Poissons Ratio (x) = 0.26546 0.06789
# Poissons Ratio (y) = 0.20321 0.03861
# Poissons Ratio (z) = 0.12379 0.09195
#
# Static dielectric constant tensor:
#      x y z
#    x 1.817150 -0.061340 0.044480 
#    y -0.061340 1.853980 0.014720 
#    z 0.044480 0.014720 1.787240 
# 
# From -- ./inp_files/260305.got.cif
#   From: 2010.05.17/outbox.cif.g08.bks.cpg/sg2_131_cif.got.tgz:260305.got - 2010.06.03 11:33:40.
