data_PCOD9054746
_publ_section_title
;
Structure prediction by ZEFSAII (Michael W. Deem and Ramdas Pophale) SiO2 
 PCOD9054746
Probable space group: P -1
;
_chemical_formula_sum "Si O2"
_cell_formula_units_Z 14
_cell_length_a 11.995363
_cell_length_b 12.410385
_cell_length_c 9.145186
_cell_angle_alpha 78.396406
_cell_angle_beta 123.134053
_cell_angle_gamma 56.168328
_cell_volume 650.599790
_symmetry_space_group_name_H-M "P -1"
_symmetry_group_IT_number 2
_symmetry_cell_setting 'triclinic'
loop_
_space_group_symop_operation_xyz
x,y,z
-x,-y,-z
loop_
_atom_site_type_symbol
_atom_site_label
_atom_site_fract_x
_atom_site_fract_y
_atom_site_fract_z
Si Si1 0.813596 0.854939 0.895201
Si Si2 0.502619 0.121916 0.329115
Si Si3 0.637815 0.295998 0.654742
Si Si4 0.684086 0.027856 0.185807
Si Si5 0.230231 0.409119 0.306307
Si Si6 0.046037 0.033008 0.831294
Si Si7 0.795602 0.698111 0.387926
O O1 0.614442 0.911775 0.805889
O O2 0.701517 0.963331 0.631231
O O3 0.881600 0.911153 0.029422
O O4 0.034775 0.631140 0.095948
O O5 0.603358 0.115880 0.265313
O O6 0.300318 0.312335 0.226708
O O7 0.500000 0.500000 0.500000
O O8 0.459040 0.319005 0.540873
O O9 0.782187 0.190612 0.637104
O O10 0.817992 0.161899 0.951970
O O11 0.864001 0.990552 0.253872
O O12 0.793671 0.831410 0.327717
O O13 0.450451 0.177950 0.882631
O O14 0.178262 0.355325 0.409279
O O15 0.000000 0.500000 0.500000
#
# Coordination Sequence:
#
# PCOD9054746 Si02
#       7
#     2   2   2   2   2   2   2
#     4  11  21  38  62  90 123 162 202 244 299 370
#     4  11  23  37  59  91 133 162 191 238 316 379
#     4  11  23  40  67  89 112 160 215 259 293 347
#     4  11  22  38  58  92 126 156 196 254 309 362
#     4  12  22  41  62  93 123 163 205 248 298 367
#     4  11  22  41  66  90 116 156 213 258 296 349
#     4  11  22  36  62  91 124 158 202 254 304 353
#
# _framework density 21.518605999999998
#
# number of rings (size 3 to 8) (size 9 to 14) (size 15 to 20)
#    0.000    0.857    4.286    5.571    0.000    1.143 
#    0.000    0.714    0.000    1.714    0.000    0.000 
#    0.000    0.000    0.000    0.000    0.000    0.000 
#
# Total GULP energy -78295.331932 kJ/mol
# GULP energy per Si atom -5592.523709 kJ/mol
# Density = 2.146963 g / cm^3
# Si number density = 21.518606 Si / 1000 Ang^3
#
#
#
# Elastic Constant Matrix: (Units=GPa)
#
#
# Indices 1 2 3 4 5 6 
#
# 1 111.2136 32.1360 15.3660 -7.4648 -22.3692 -40.1504
# 2 32.1360 106.3046 42.6134 -26.7977 -24.1485 -23.7857
# 3 15.3660 42.6134 80.0219 -29.5207 -8.7423 -10.8969
# 4 -7.4648 -26.7977 -29.5207 39.9426 0.9834 -3.7618
# 5 -22.3692 -24.1485 -8.7423 0.9834 31.6972 3.8263
# 6 -40.1504 -23.7857 -10.8969 -3.7618 3.8263 44.9333
#
#
#
# Elastic Compliance Matrix: (Units=1/GPa)
#
#
# Indices 1 2 3 4 5 6 
#
# 1 0.016870 0.002463 0.001686 0.007297 0.012044 0.016372
# 2 0.002463 0.018049 -0.003166 0.010927 0.012973 0.010798
# 3 0.001686 -0.003166 0.019865 0.013312 0.003181 0.005492
# 4 0.007297 0.010927 0.013312 0.044944 0.013562 0.018141
# 5 0.012044 0.012973 0.003181 0.013562 0.048529 0.015404
# 6 0.016372 0.010798 0.005492 0.018141 0.015404 0.044139
#
#
# Mechanical properties :
#
#
# Convention : Reuss Voigt Hill
#
# Bulk Modulus (GPa) = 17.62087 53.08565 35.35326
# Shear Modulus (GPa) = 23.88391 37.14295 30.51343
#
# Velocity S-wave (km/s) = 3.33516 4.15913 3.76972
# Velocity P-wave (km/s) = 4.79974 6.91286 5.95085
#
# Compressibility (1/GPa) = 0.05675090
#
# Stress axis : x y z
#
# Youngs Moduli (GPa) = 59.27644 55.40502 50.34041
#
# Poissons Ratio (x) = -0.13646 -0.08488
# Poissons Ratio (y) = -0.14600 0.15936
# Poissons Ratio (z) = -0.09995 0.17539
#
# Static dielectric constant tensor:
#      x y z
#    x 1.831250 0.008830 0.018380 
#    y 0.008830 1.833700 0.014230 
#    z 0.018380 0.014230 1.799460 
# 
# From -- ./inp_files/269955.got.cif
#   From: 2010.05.17/outbox.cif.g08.bks.cpg/sg2_135_cif.got.tgz:269955.got - 2010.06.03 11:33:40.
