data_PCOD9054607
_publ_section_title
;
Structure prediction by ZEFSAII (Michael W. Deem and Ramdas Pophale) SiO2 
 PCOD9054607
Probable space group: P -1
;
_chemical_formula_sum "Si O2"
_cell_formula_units_Z 14
_cell_length_a 12.194263
_cell_length_b 24.105688
_cell_length_c 23.277907
_cell_angle_alpha 15.859231
_cell_angle_beta 153.643864
_cell_angle_gamma 162.339455
_cell_volume 549.583717
_symmetry_space_group_name_H-M "P -1"
_symmetry_group_IT_number 2
_symmetry_cell_setting 'triclinic'
loop_
_space_group_symop_operation_xyz
x,y,z
-x,-y,-z
loop_
_atom_site_type_symbol
_atom_site_label
_atom_site_fract_x
_atom_site_fract_y
_atom_site_fract_z
Si Si1 0.132471 0.561332 0.391571
Si Si2 0.266497 0.732259 0.074318
Si Si3 0.724120 0.680752 0.119473
Si Si4 0.170132 0.694458 0.610880
Si Si5 0.552624 0.264458 0.962135
Si Si6 0.763423 0.927748 0.406571
Si Si7 0.358087 0.379600 0.141747
O O1 0.384823 0.618876 0.503162
O O2 0.805012 0.488220 0.342666
O O3 0.974404 0.325765 0.500638
O O4 0.392318 0.899607 0.145153
O O5 0.206553 0.559993 0.273868
O O6 0.224837 0.575391 0.152521
O O7 0.904834 0.651975 0.989897
O O8 0.586813 0.661813 0.011630
O O9 0.442667 0.588469 0.127365
O O10 0.125831 0.011563 0.993526
O O11 0.367575 0.606650 0.771943
O O12 0.500000 0.000000 0.500000
O O13 0.654114 0.097923 0.194722
O O14 0.000000 0.000000 0.500000
O O15 0.063872 0.092644 0.332105
#
# Coordination Sequence:
#
# PCOD9054607 Si02
#       7
#     2   2   2   2   2   2   2
#     4   8  18  36  63  87 117 157 200 238 292 365
#     4   9  18  34  59  84 113 159 197 233 294 361
#     4   8  14  31  55  84 118 136 193 253 285 340
#     4  11  21  37  57  86 122 152 198 256 297 342
#     4   8  16  31  56  88 115 146 195 244 289 358
#     4   9  18  35  56  85 117 156 190 240 302 356
#     4   9  19  35  55  81 113 156 200 238 293 360
#
# _framework density 25.473824
#
# number of rings (size 3 to 8) (size 9 to 14) (size 15 to 20)
#    0.000    3.714    0.000    0.857    0.000    2.286 
#    5.143    9.286    3.143    0.000    0.000    0.000 
#    0.000    0.000    0.000    0.000    0.000    0.000 
#
# Total GULP energy -77965.859346 kJ/mol
# GULP energy per Si atom -5568.989953 kJ/mol
# Density = 2.541584 g / cm^3
# Si number density = 25.473824 Si / 1000 Ang^3
#
#
#
# Elastic Constant Matrix: (Units=GPa)
#
#
# Indices 1 2 3 4 5 6 
#
# 1 175.8045 32.5930 44.1566 4.7183 9.8215 -22.8690
# 2 32.5930 135.4821 25.5916 -0.4289 15.6632 -20.6360
# 3 44.1566 25.5916 53.3962 -12.7085 8.7384 -14.8366
# 4 4.7183 -0.4289 -12.7085 22.6806 -9.1600 3.6291
# 5 9.8215 15.6632 8.7384 -9.1600 17.6865 -2.0548
# 6 -22.8690 -20.6360 -14.8366 3.6291 -2.0548 51.1501
#
#
#
# Elastic Compliance Matrix: (Units=1/GPa)
#
#
# Indices 1 2 3 4 5 6 
#
# 1 0.008331 0.000333 -0.007633 -0.008470 -0.005301 0.002033
# 2 0.000333 0.009618 -0.004034 -0.006562 -0.009767 0.002932
# 3 -0.007633 -0.004034 0.032149 0.020143 0.002704 0.002964
# 4 -0.008470 -0.006562 0.020143 0.072990 0.037871 -0.004249
# 5 -0.005301 -0.009767 0.002704 0.037871 0.085858 -0.004764
# 6 0.002033 0.002932 0.002964 -0.004249 -0.004764 0.022612
#
#
# Mechanical properties :
#
#
# Convention : Reuss Voigt Hill
#
# Bulk Modulus (GPa) = 36.45467 63.26282 49.85874
# Shear Modulus (GPa) = 18.98476 35.79289 27.38883
#
# Velocity S-wave (km/s) = 2.73292 3.75251 3.28254
# Velocity P-wave (km/s) = 4.92952 6.60784 5.82939
#
# Compressibility (1/GPa) = 0.02743133
#
# Stress axis : x y z
#
# Youngs Moduli (GPa) = 120.02656 103.97268 31.10555
#
# Poissons Ratio (x) = -0.03465 0.23743
# Poissons Ratio (y) = -0.04000 0.12547
# Poissons Ratio (z) = 0.91616 0.41939
#
# Static dielectric constant tensor:
#      x y z
#    x 2.060880 -0.081610 -0.074030 
#    y -0.081610 2.038080 -0.030420 
#    z -0.074030 -0.030420 2.270010 
# 
# From -- ./inp_files/610977.got.cif
#   From: 2010.05.17/outbox.cif.g08.bks.cpg/sg2_306_cif.got.tgz:610977.got - 2010.06.03 11:33:40.
