data_PCOD9054730
_publ_section_title
;
Structure prediction by ZEFSAII (Michael W. Deem and Ramdas Pophale) SiO2 
 PCOD9054730
Probable space group: P -1
;
_chemical_formula_sum "Si O2"
_cell_formula_units_Z 16
_cell_length_a 12.290264
_cell_length_b 18.966297
_cell_length_c 21.721222
_cell_angle_alpha 18.727819
_cell_angle_beta 149.866217
_cell_angle_gamma 141.124822
_cell_volume 789.870380
_symmetry_space_group_name_H-M "P -1"
_symmetry_group_IT_number 2
_symmetry_cell_setting 'triclinic'
loop_
_space_group_symop_operation_xyz
x,y,z
-x,-y,-z
loop_
_atom_site_type_symbol
_atom_site_label
_atom_site_fract_x
_atom_site_fract_y
_atom_site_fract_z
Si Si1 0.588011 0.802804 0.836458
Si Si2 0.784832 0.961891 0.290289
Si Si3 0.194019 0.271823 0.787520
Si Si4 0.465991 0.718153 0.260754
Si Si5 0.225365 0.732781 0.628459
Si Si6 0.984974 0.990526 0.821837
Si Si7 0.446213 0.578776 0.234554
Si Si8 0.529855 0.950462 0.300901
O O1 0.421670 0.825506 0.678401
O O2 0.800931 0.896138 0.845689
O O3 0.455344 0.930766 0.724735
O O4 0.680717 0.534584 0.115338
O O5 0.597675 0.884507 0.220062
O O6 0.707924 0.952365 0.331390
O O7 0.018304 0.792452 0.525964
O O8 0.778414 0.221090 0.053554
O O9 0.402625 0.367248 0.790556
O O10 0.000000 0.500000 0.500000
O O11 0.108597 0.117686 0.824523
O O12 0.290378 0.102162 0.031584
O O13 0.500000 0.500000 0.500000
O O14 0.552299 0.640394 0.299392
O O15 0.198692 0.809223 0.049080
O O16 0.135118 0.851564 0.422489
O O17 0.450409 0.315997 0.457578
#
# Coordination Sequence:
#
# PCOD9054730 Si02
#       8
#     2   2   2   2   2   2   2   2
#     4  11  27  45  65  94 129 174 222 271 316 383
#     4  11  22  41  66  97 128 171 214 265 328 384
#     4  11  23  37  61  95 132 172 201 261 333 392
#     4  12  20  36  63  99 126 163 207 265 324 381
#     4  11  25  46  70  90 124 176 227 271 314 375
#     4  12  22  41  65  95 128 165 214 263 321 384
#     4  11  21  38  60  93 136 163 209 262 323 389
#     4  11  24  42  61  99 134 167 213 262 332 390
#
# _framework density 20.256488000000001
#
# number of rings (size 3 to 8) (size 9 to 14) (size 15 to 20)
#    0.000    0.750    5.000    3.750    0.000    5.500 
#    0.000    0.625    0.000    0.000    0.000    0.000 
#    0.000    0.000    0.000    0.000    0.000    0.000 
#
# Total GULP energy -89246.274150 kJ/mol
# GULP energy per Si atom -5577.892134 kJ/mol
# Density = 2.021038 g / cm^3
# Si number density = 20.256488 Si / 1000 Ang^3
#
#
#
# Elastic Constant Matrix: (Units=GPa)
#
#
# Indices 1 2 3 4 5 6 
#
# 1 14.7304 11.1027 -57.9177 -5.9614 -0.2629 26.2332
# 2 11.1027 38.6935 12.0189 -11.0453 -9.0831 1.5397
# 3 -57.9177 12.0189 -27.8126 6.0716 -18.4730 54.6529
# 4 -5.9614 -11.0453 6.0716 25.2605 -1.5528 -12.6527
# 5 -0.2629 -9.0831 -18.4730 -1.5528 40.5976 1.0417
# 6 26.2332 1.5397 54.6529 -12.6527 1.0417 -2.7433
#
#
#
# Elastic Compliance Matrix: (Units=1/GPa)
#
#
# Indices 1 2 3 4 5 6 
#
# 1 0.021055 -0.001514 -0.005877 0.014137 -0.002776 0.017146
# 2 -0.001514 0.030824 0.001788 0.010278 0.008243 -0.005829
# 3 -0.005877 0.001788 0.004726 0.005547 0.002359 0.014262
# 4 0.014137 0.010278 0.005547 0.052477 0.006616 0.011951
# 5 -0.002776 0.008243 0.002359 0.006616 0.027655 0.005058
# 6 0.017146 -0.005829 0.014262 0.011951 0.005058 0.027092
#
#
# Mechanical properties :
#
#
# Convention : Reuss Voigt Hill
#
# Bulk Modulus (GPa) = 22.02725 -4.88675 8.57025
# Shear Modulus (GPa) = 26.29233 16.65011 21.47122
#
# Velocity S-wave (km/s) = 3.60664 2.87010 3.25925
# Velocity P-wave (km/s) = 5.31428 2.92671 4.28995
#
# Compressibility (1/GPa) = 0.04539831
#
# Stress axis : x y z
#
# Youngs Moduli (GPa) = 47.49363 32.44222 211.59903
#
# Poissons Ratio (x) = 0.04913 1.24364
# Poissons Ratio (y) = 0.07193 -0.37839
# Poissons Ratio (z) = 0.27914 -0.05801
#
# Static dielectric constant tensor:
#      x y z
#    x 1.749460 -0.026670 0.041010 
#    y -0.026670 1.707100 -0.037260 
#    z 0.041010 -0.037260 1.811500 
# 
# From -- ./inp_files/307018.got.cif
#   From: 2010.05.17/outbox.cif.g08.bks.cpg/sg2_154_cif.got.tgz:307018.got - 2010.06.03 11:33:40.
