data_PCOD9054203
_publ_section_title
;
Structure prediction by ZEFSAII (Michael W. Deem and Ramdas Pophale) SiO2 
 PCOD9054203
Probable space group: P -1
;
_chemical_formula_sum "Si O2"
_cell_formula_units_Z 16
_cell_length_a 18.944521
_cell_length_b 9.107331
_cell_length_c 13.403681
_cell_angle_alpha 119.770029
_cell_angle_beta 156.554548
_cell_angle_gamma 71.698640
_cell_volume 728.566119
_symmetry_space_group_name_H-M "P -1"
_symmetry_group_IT_number 2
_symmetry_cell_setting 'triclinic'
loop_
_space_group_symop_operation_xyz
x,y,z
-x,-y,-z
loop_
_atom_site_type_symbol
_atom_site_label
_atom_site_fract_x
_atom_site_fract_y
_atom_site_fract_z
Si Si1 0.712776 0.014137 0.350013
Si Si2 0.337453 0.511515 0.099618
Si Si3 0.271957 0.083698 0.465965
Si Si4 0.944539 0.172970 0.504284
Si Si5 0.658427 0.161126 0.693671
Si Si6 0.714337 0.358990 0.144295
Si Si7 0.592423 0.316557 0.275140
Si Si8 0.888077 0.632953 0.637945
O O1 0.820690 0.113580 0.424210
O O2 0.619662 0.153189 0.315937
O O3 0.834440 0.996430 0.594612
O O4 0.560779 0.812112 0.049515
O O5 0.415732 0.675517 0.337300
O O6 0.491804 0.428989 0.241340
O O7 0.275982 0.581923 0.939252
O O8 0.145804 0.348700 0.837961
O O9 0.164655 0.206557 0.327937
O O10 0.308748 0.937695 0.395339
O O11 0.487833 0.232827 0.821990
O O12 0.830561 0.236701 0.292390
O O13 0.000000 0.000000 0.500000
O O14 0.500000 0.000000 0.500000
O O15 0.883547 0.274343 0.056441
O O16 0.785128 0.539382 0.368599
O O17 0.790427 0.461694 0.530331
#
# Coordination Sequence:
#
# PCOD9054203 Si02
#       8
#     2   2   2   2   2   2   2   2
#     4  11  22  41  64 100 142 170 222 276 341 406
#     4  12  24  41  68 100 138 177 230 280 343 391
#     4  12  25  42  71 101 132 185 229 277 336 411
#     4  12  25  40  66 107 145 174 216 287 354 397
#     4  12  26  46  64 100 146 178 222 287 343 404
#     4  12  22  41  73 102 130 169 238 289 332 391
#     4  11  20  41  68  99 132 177 219 289 332 398
#     4  12  23  42  71 100 131 174 235 285 341 391
#
# _framework density 21.960943
#
# number of rings (size 3 to 8) (size 9 to 14) (size 15 to 20)
#    0.000    0.250    7.500    2.625    0.000    0.000 
#    0.000    3.125    0.000    0.000    0.000    0.000 
#    0.000    0.000    0.000    0.000    0.000    0.000 
#
# Total GULP energy -89210.542797 kJ/mol
# GULP energy per Si atom -5575.658925 kJ/mol
# Density = 2.191096 g / cm^3
# Si number density = 21.960943 Si / 1000 Ang^3
#
#
#
# Elastic Constant Matrix: (Units=GPa)
#
#
# Indices 1 2 3 4 5 6 
#
# 1 65.3227 31.8138 17.3079 10.2880 -0.2309 -25.4252
# 2 31.8138 124.2134 10.9621 16.1875 -0.8748 -38.9492
# 3 17.3079 10.9621 65.2668 19.6211 22.0435 -13.6730
# 4 10.2880 16.1875 19.6211 29.8200 -4.2923 0.7605
# 5 -0.2309 -0.8748 22.0435 -4.2923 27.0554 0.0474
# 6 -25.4252 -38.9492 -13.6730 0.7605 0.0474 33.9798
#
#
#
# Elastic Compliance Matrix: (Units=1/GPa)
#
#
# Indices 1 2 3 4 5 6 
#
# 1 0.023939 0.002033 0.003104 -0.012578 -0.004292 0.021779
# 2 0.002033 0.017999 0.013996 -0.022478 -0.014419 0.028307
# 3 0.003104 0.013996 0.054599 -0.053214 -0.052521 0.041599
# 4 -0.012578 -0.022478 -0.053214 0.094892 0.057680 -0.058794
# 5 -0.004292 -0.014419 -0.052521 0.057680 0.088475 -0.042288
# 6 0.021779 0.028307 0.041599 -0.058794 -0.042288 0.096285
#
#
# Mechanical properties :
#
#
# Convention : Reuss Voigt Hill
#
# Bulk Modulus (GPa) = 7.41834 41.66341 24.54088
# Shear Modulus (GPa) = 13.05968 31.15231 22.10599
#
# Velocity S-wave (km/s) = 2.44125 3.77043 3.17615
# Velocity P-wave (km/s) = 3.36624 6.16179 4.96483
#
# Compressibility (1/GPa) = 0.13480109
#
# Stress axis : x y z
#
# Youngs Moduli (GPa) = 41.77326 55.55949 18.31532
#
# Poissons Ratio (x) = -0.11294 -0.05685
# Poissons Ratio (y) = -0.08492 -0.25633
# Poissons Ratio (z) = -0.12966 -0.77759
#
# Static dielectric constant tensor:
#      x y z
#    x 1.852390 -0.018760 0.001500 
#    y -0.018760 1.896500 -0.037520 
#    z 0.001500 -0.037520 1.809720 
# 
# From -- ./inp_files/184254.got.cif
#   From: 2010.05.17/outbox.cif.g08.bks.cpg/sg2_93_cif.got.tgz:184254.got - 2010.06.03 11:33:40.
