data_PCOD9054507
_publ_section_title
;
Structure prediction by ZEFSAII (Michael W. Deem and Ramdas Pophale) SiO2 
 PCOD9054507
Probable space group: P -1
;
_chemical_formula_sum "Si O2"
_cell_formula_units_Z 16
_cell_length_a 13.752065
_cell_length_b 9.369250
_cell_length_c 7.349043
_cell_angle_alpha 69.952388
_cell_angle_beta 49.341865
_cell_angle_gamma 82.733501
_cell_volume 668.539950
_symmetry_space_group_name_H-M "P -1"
_symmetry_group_IT_number 2
_symmetry_cell_setting 'triclinic'
loop_
_space_group_symop_operation_xyz
x,y,z
-x,-y,-z
loop_
_atom_site_type_symbol
_atom_site_label
_atom_site_fract_x
_atom_site_fract_y
_atom_site_fract_z
Si Si1 0.190914 0.417610 0.861666
Si Si2 0.437053 0.293142 0.695427
Si Si3 0.591689 0.157920 0.279118
Si Si4 0.185913 0.877289 0.691089
Si Si5 0.596868 0.157261 0.845603
Si Si6 0.819133 0.903434 0.903438
Si Si7 0.047187 0.147683 0.615377
Si Si8 0.997461 0.595148 0.185556
O O1 0.339909 0.421142 0.738696
O O2 0.133688 0.483144 0.719550
O O3 0.159379 0.236994 0.932397
O O4 0.102194 0.476216 0.101770
O O5 0.517961 0.282087 0.418403
O O6 0.529926 0.285058 0.758798
O O7 0.335194 0.132809 0.904122
O O8 0.717805 0.138302 0.252050
O O9 0.500000 0.000000 0.500000
O O10 0.270106 0.863924 0.411457
O O11 0.122205 0.033842 0.696228
O O12 0.077030 0.733656 0.910849
O O13 0.610964 0.190664 0.028046
O O14 0.500000 0.000000 0.000000
O O15 0.876182 0.854968 0.664478
O O16 0.903411 0.059104 0.791137
O O17 0.037611 0.314200 0.634096
#
# Coordination Sequence:
#
# PCOD9054507 Si02
#       8
#     2   2   2   2   2   2   2   2
#     4   9  22  42  60  85 124 164 202 237 310 362
#     4   9  20  39  59  82 121 159 193 247 298 358
#     4  11  23  33  59  89 119 155 201 242 304 367
#     4  11  23  37  59  92 124 154 200 254 307 346
#     4  11  21  35  56  90 123 154 196 252 309 353
#     4   9  21  37  60  90 123 155 196 255 304 362
#     4  11  22  34  63  94 121 154 199 254 308 353
#     4  11  23  39  62  88 120 168 201 246 295 374
#
# _framework density 23.932751
#
# number of rings (size 3 to 8) (size 9 to 14) (size 15 to 20)
#    0.750    1.000    3.750    1.125    3.500    1.500 
#    0.000    2.500    0.000    1.500    0.000    0.000 
#    0.000    0.000    0.000    0.000    0.000    0.000 
#
# Total GULP energy -89211.902589 kJ/mol
# GULP energy per Si atom -5575.743912 kJ/mol
# Density = 2.387828 g / cm^3
# Si number density = 23.932751 Si / 1000 Ang^3
#
#
#
# Elastic Constant Matrix: (Units=GPa)
#
#
# Indices 1 2 3 4 5 6 
#
# 1 110.3445 35.1578 32.5799 34.0805 11.4491 -5.9241
# 2 35.1578 77.7600 7.8028 31.5122 2.0112 -6.1562
# 3 32.5799 7.8028 135.7293 34.5455 23.3010 1.7244
# 4 34.0805 31.5122 34.5455 47.9384 3.3061 -8.8025
# 5 11.4491 2.0112 23.3010 3.3061 35.5060 7.4758
# 6 -5.9241 -6.1562 1.7244 -8.8025 7.4758 33.8976
#
#
#
# Elastic Compliance Matrix: (Units=1/GPa)
#
#
# Indices 1 2 3 4 5 6 
#
# 1 0.012437 -0.002995 -0.000808 -0.005948 -0.002919 0.000770
# 2 -0.002995 0.018964 0.002943 -0.012452 -0.000821 -0.000282
# 3 -0.000808 0.002943 0.010662 -0.008854 -0.005834 -0.001162
# 4 -0.005948 -0.012452 -0.008854 0.040727 0.003162 0.007028
# 5 -0.002919 -0.000821 -0.005834 0.003162 0.034177 -0.007079
# 6 0.000770 -0.000282 -0.001162 0.007028 -0.007079 0.033029
#
#
# Mechanical properties :
#
#
# Convention : Reuss Voigt Hill
#
# Bulk Modulus (GPa) = 24.78813 52.76833 38.77823
# Shear Modulus (GPa) = 30.27286 40.02129 35.14707
#
# Velocity S-wave (km/s) = 3.56042 4.09374 3.83636
# Velocity P-wave (km/s) = 5.22322 6.66644 5.98846
#
# Compressibility (1/GPa) = 0.04034189
#
# Stress axis : x y z
#
# Youngs Moduli (GPa) = 80.40829 52.73081 93.78827
#
# Poissons Ratio (x) = 0.15794 0.07578
# Poissons Ratio (y) = 0.24084 -0.27597
# Poissons Ratio (z) = 0.06497 -0.15516
#
# Static dielectric constant tensor:
#      x y z
#    x 2.279770 0.107400 -0.069230 
#    y 0.107400 2.055400 -0.034360 
#    z -0.069230 -0.034360 1.942270 
# 
# From -- ./inp_files/298137.got.cif
#   From: 2010.05.17/outbox.cif.g08.bks.cpg/sg2_150_cif.got.tgz:298137.got - 2010.06.03 11:33:40.
