data_PCOD9054770
_publ_section_title
;
Structure prediction by ZEFSAII (Michael W. Deem and Ramdas Pophale) SiO2 
 PCOD9054770
Probable space group: P -1
;
_chemical_formula_sum "Si O2"
_cell_formula_units_Z 16
_cell_length_a 11.502250
_cell_length_b 9.824874
_cell_length_c 9.541439
_cell_angle_alpha 131.551546
_cell_angle_beta 83.186490
_cell_angle_gamma 98.716638
_cell_volume 797.366888
_symmetry_space_group_name_H-M "P -1"
_symmetry_group_IT_number 2
_symmetry_cell_setting 'triclinic'
loop_
_space_group_symop_operation_xyz
x,y,z
-x,-y,-z
loop_
_atom_site_type_symbol
_atom_site_label
_atom_site_fract_x
_atom_site_fract_y
_atom_site_fract_z
Si Si1 0.170355 0.005233 0.285527
Si Si2 0.289685 0.815043 0.372794
Si Si3 0.056846 0.092352 0.914083
Si Si4 0.102740 0.504247 0.287031
Si Si5 0.319962 0.992007 0.782555
Si Si6 0.849995 0.582212 0.455335
Si Si7 0.310977 0.752299 0.885661
Si Si8 0.516404 0.310253 0.942829
O O1 0.199146 0.221538 0.409933
O O2 0.209227 0.949501 0.395677
O O3 0.033671 0.957826 0.232876
O O4 0.239301 0.883608 0.083802
O O5 0.205568 0.628661 0.280518
O O6 0.399742 0.790090 0.241644
O O7 0.335581 0.887860 0.564937
O O8 0.181790 0.015469 0.826754
O O9 0.075815 0.308882 0.083715
O O10 0.000000 0.000000 0.000000
O O11 0.139861 0.471055 0.419535
O O12 0.980971 0.596830 0.380463
O O13 0.395011 0.186918 0.900158
O O14 0.354961 0.874483 0.829830
O O15 0.773750 0.419261 0.275868
O O16 0.413244 0.677984 0.912839
O O17 0.500000 0.500000 0.000000
#
# Coordination Sequence:
#
# PCOD9054770 Si02
#       8
#     2   2   2   2   2   2   2   2
#     4  11  24  41  65 105 140 174 214 274 338 400
#     4  11  26  44  66  99 139 170 223 278 337 395
#     4  12  21  39  70 101 138 171 221 271 332 397
#     4  11  21  38  64 101 137 174 216 275 325 404
#     4  12  23  44  72  93 134 182 220 277 330 390
#     4  11  21  38  69 100 135 174 225 265 331 399
#     4  11  23  46  70  98 132 176 229 272 329 401
#     4  11  27  48  67  95 131 177 228 280 335 391
#
# _framework density 20.066044000000002
#
# number of rings (size 3 to 8) (size 9 to 14) (size 15 to 20)
#    0.000    0.750    5.000    2.250    1.750    2.500 
#    0.000    0.625    0.000    0.000    0.000    0.000 
#    0.000    0.000    0.000    0.000    0.000    0.000 
#
# Total GULP energy -89498.137882 kJ/mol
# GULP energy per Si atom -5593.633618 kJ/mol
# Density = 2.002037 g / cm^3
# Si number density = 20.066044 Si / 1000 Ang^3
#
#
#
# Elastic Constant Matrix: (Units=GPa)
#
#
# Indices 1 2 3 4 5 6 
#
# 1 64.1632 46.1949 1.6866 -6.8410 3.7331 -10.6814
# 2 46.1949 115.5252 33.8847 8.2941 21.8401 -17.3672
# 3 1.6866 33.8847 73.0159 9.3932 12.4187 -8.4368
# 4 -6.8410 8.2941 9.3932 40.2931 3.8611 1.2346
# 5 3.7331 21.8401 12.4187 3.8611 19.0682 3.6859
# 6 -10.6814 -17.3672 -8.4368 1.2346 3.6859 32.9104
#
#
#
# Elastic Compliance Matrix: (Units=1/GPa)
#
#
# Indices 1 2 3 4 5 6 
#
# 1 0.024724 -0.012035 0.003677 0.005270 0.005126 0.001844
# 2 -0.012035 0.019496 -0.004436 -0.003543 -0.017792 0.007370
# 3 0.003677 -0.004436 0.017720 -0.001997 -0.007611 0.004323
# 4 0.005270 -0.003543 -0.001997 0.027037 -0.000840 -0.001591
# 5 0.005126 -0.017792 -0.007611 -0.000840 0.080554 -0.018667
# 6 0.001844 0.007370 0.004323 -0.001591 -0.018667 0.038132
#
#
# Mechanical properties :
#
#
# Convention : Reuss Voigt Hill
#
# Bulk Modulus (GPa) = 27.50821 46.24851 36.87836
# Shear Modulus (GPa) = 20.37764 29.85022 25.11393
#
# Velocity S-wave (km/s) = 3.19019 3.86112 3.54158
# Velocity P-wave (km/s) = 5.22574 6.55560 5.92808
#
# Compressibility (1/GPa) = 0.03635278
#
# Stress axis : x y z
#
# Youngs Moduli (GPa) = 40.44637 51.29368 56.43289
#
# Poissons Ratio (x) = 0.61732 -0.20753
# Poissons Ratio (y) = 0.48678 0.25033
# Poissons Ratio (z) = -0.14874 0.22753
#
# Static dielectric constant tensor:
#      x y z
#    x 1.704940 -0.012700 -0.011100 
#    y -0.012700 1.714590 0.003060 
#    z -0.011100 0.003060 1.702410 
# 
# From -- ./inp_files/186427.got.cif
#   From: 2010.05.17/outbox.cif.g08.bks.cpg/sg2_94_cif.got.tgz:186427.got - 2010.06.03 11:33:40.
