data_PCOD9054125
_publ_section_title
;
Structure prediction by ZEFSAII (Michael W. Deem and Ramdas Pophale) SiO2 
 PCOD9054125
Probable space group: P -1
;
_chemical_formula_sum "Si O2"
_cell_formula_units_Z 16
_cell_length_a 23.467111
_cell_length_b 15.573293
_cell_length_c 8.771479
_cell_angle_alpha 136.751428
_cell_angle_beta 27.303733
_cell_angle_gamma 152.824787
_cell_volume 641.377051
_symmetry_space_group_name_H-M "P -1"
_symmetry_group_IT_number 2
_symmetry_cell_setting 'triclinic'
loop_
_space_group_symop_operation_xyz
x,y,z
-x,-y,-z
loop_
_atom_site_type_symbol
_atom_site_label
_atom_site_fract_x
_atom_site_fract_y
_atom_site_fract_z
Si Si1 0.156255 0.431823 0.559141
Si Si2 0.748392 0.585713 0.348184
Si Si3 0.165989 0.889476 0.307161
Si Si4 0.318562 0.896723 0.396595
Si Si5 0.889257 0.504039 0.654602
Si Si6 0.397248 0.411122 0.794934
Si Si7 0.099421 0.961850 0.858416
Si Si8 0.600924 0.148327 0.590532
O O1 0.196655 0.430182 0.639402
O O2 0.228212 0.629555 0.607093
O O3 0.941267 0.211660 0.732717
O O4 0.293104 0.457149 0.152324
O O5 0.537949 0.479949 0.687451
O O6 0.773238 0.507790 0.044586
O O7 0.899062 0.811036 0.231564
O O8 0.087100 0.937406 0.672805
O O9 0.053934 0.686359 0.392176
O O10 0.398810 0.070118 0.015547
O O11 0.249218 0.701972 0.369089
O O12 0.187337 0.896031 0.627181
O O13 0.379200 0.973012 0.518052
O O14 0.500000 0.000000 0.000000
O O15 0.000000 0.500000 0.500000
O O16 0.500000 0.500000 0.500000
O O17 0.243652 0.181133 0.845557
O O18 0.500000 0.000000 0.500000
#
# Coordination Sequence:
#
# PCOD9054125 Si02
#       8
#     2   2   2   2   2   2   2   2
#     4  12  29  47  69 104 150 185 231 291 359 416
#     4  11  27  45  72 106 140 187 231 295 355 417
#     4  11  24  44  67 102 141 183 234 287 344 418
#     4  12  22  41  70 103 141 181 237 290 337 422
#     4  11  20  40  70 100 138 181 234 283 346 409
#     4  12  27  49  77 100 137 186 244 297 342 417
#     4  11  25  44  74 104 133 186 244 283 350 409
#     4  12  29  42  69 108 147 188 229 288 361 422
#
# _framework density 24.946323
#
# number of rings (size 3 to 8) (size 9 to 14) (size 15 to 20)
#    0.000    0.500    5.000    3.375    7.000    4.000 
#    0.000    0.000    0.000    0.000    0.000    0.000 
#    0.000    0.000    0.000    0.000    0.000    0.000 
#
# Total GULP energy -89136.920601 kJ/mol
# GULP energy per Si atom -5571.057538 kJ/mol
# Density = 2.488954 g / cm^3
# Si number density = 24.946323 Si / 1000 Ang^3
#
#
#
# Elastic Constant Matrix: (Units=GPa)
#
#
# Indices 1 2 3 4 5 6 
#
# 1 140.2726 -16.3305 -2.1096 -4.6082 -1.3852 -16.9701
# 2 -16.3305 93.1699 -4.8177 -12.8205 -5.1799 -26.1366
# 3 -2.1096 -4.8177 69.3877 -5.0229 -3.1482 -9.4104
# 4 -4.6082 -12.8205 -5.0229 28.6594 7.8348 7.4511
# 5 -1.3852 -5.1799 -3.1482 7.8348 47.1042 -14.0636
# 6 -16.9701 -26.1366 -9.4104 7.4511 -14.0636 10.8745
#
#
#
# Elastic Compliance Matrix: (Units=1/GPa)
#
#
# Indices 1 2 3 4 5 6 
#
# 1 0.004315 -0.004513 -0.002764 0.005206 -0.007212 -0.019399
# 2 -0.004513 -0.000255 -0.005145 0.012122 -0.014036 -0.038567
# 3 -0.002764 -0.005145 0.011341 0.006507 -0.007089 -0.020490
# 4 0.005206 0.012122 0.006507 0.036420 0.001985 0.020503
# 5 -0.007212 -0.014036 -0.007089 0.001985 0.004888 -0.046163
# 6 -0.019399 -0.038567 -0.020490 0.020503 -0.046163 -0.122492
#
#
# Mechanical properties :
#
#
# Convention : Reuss Voigt Hill
#
# Bulk Modulus (GPa) = -105.90118 28.47940 -38.71089
# Shear Modulus (GPa) = -113.40719 39.06682 -37.17019
#
# Velocity S-wave (km/s) = -6.74975 3.96161 -3.86425
# Velocity P-wave (km/s) = 10.16314 5.68919 5.95493
#
# Compressibility (1/GPa) = -0.00944277
#
# Stress axis : x y z
#
# Youngs Moduli (GPa) = 231.75757 -3915.19651 88.17553
#
# Poissons Ratio (x) = -17.67044 0.24368
# Poissons Ratio (y) = 1.04599 0.45364
# Poissons Ratio (z) = 0.64047 -20.14282
#
# Static dielectric constant tensor:
#      x y z
#    x 0.345930 -0.478300 -1.546550 
#    y -0.478300 1.818540 -0.180940 
#    z -1.546550 -0.180940 0.541070 
# 
# From -- ./inp_files/354573.got.cif
#   From: 2010.05.17/outbox.cif.g08.bks.cpg/sg2_178_cif.got.tgz:354573.got - 2010.06.03 11:33:40.
