data_PCOD9054313
_publ_section_title
;
Structure prediction by ZEFSAII (Michael W. Deem and Ramdas Pophale) SiO2 
 PCOD9054313
Probable space group: P -1
;
_chemical_formula_sum "Si O2"
_cell_formula_units_Z 14
_cell_length_a 8.378457
_cell_length_b 8.437621
_cell_length_c 11.915480
_cell_angle_alpha 104.860692
_cell_angle_beta 129.548992
_cell_angle_gamma 85.818915
_cell_volume 623.164135
_symmetry_space_group_name_H-M "P -1"
_symmetry_group_IT_number 2
_symmetry_cell_setting 'triclinic'
loop_
_space_group_symop_operation_xyz
x,y,z
-x,-y,-z
loop_
_atom_site_type_symbol
_atom_site_label
_atom_site_fract_x
_atom_site_fract_y
_atom_site_fract_z
Si Si1 0.306010 0.526432 0.337241
Si Si2 0.264065 0.929121 0.651503
Si Si3 0.841011 0.866090 0.157000
Si Si4 0.352159 0.267678 0.609111
Si Si5 0.684708 0.808871 0.828593
Si Si6 0.724606 0.970773 0.646987
Si Si7 0.943403 0.659570 0.341568
O O1 0.500000 0.500000 0.500000
O O2 0.419948 0.655296 0.318598
O O3 0.239792 0.361010 0.207298
O O4 0.119842 0.568006 0.343411
O O5 0.435628 0.803423 0.708100
O O6 0.067910 0.827791 0.483324
O O7 0.225215 0.986099 0.770494
O O8 0.346398 0.100521 0.653383
O O9 0.792399 0.702726 0.180160
O O10 0.755702 0.859115 0.993449
O O11 0.092018 0.889066 0.273145
O O12 0.235796 0.195804 0.431256
O O13 0.218408 0.392679 0.638446
O O14 0.746933 0.940584 0.782631
O O15 0.500000 0.000000 0.500000
#
# Coordination Sequence:
#
# PCOD9054313 Si02
#       7
#     2   2   2   2   2   2   2
#     4  12  25  41  64  95 133 177 213 264 322 397
#     4  11  20  42  70  93 123 170 219 273 318 384
#     4  11  23  40  65 101 129 160 217 280 327 372
#     4  11  21  40  70  97 120 165 233 262 313 383
#     4  12  25  40  62 100 136 164 209 273 332 380
#     4  12  20  39  69  95 124 168 216 270 320 381
#     4  11  22  42  69  93 126 174 225 263 319 391
#
# _framework density 22.465989
#
# number of rings (size 3 to 8) (size 9 to 14) (size 15 to 20)
#    0.000    0.571    7.143    2.571    0.000    1.143 
#    2.571    2.857    0.000    0.000    0.000    0.000 
#    0.000    0.000    0.000    0.000    0.000    0.000 
#
# Total GULP energy -78011.510953 kJ/mol
# GULP energy per Si atom -5572.250782 kJ/mol
# Density = 2.241486 g / cm^3
# Si number density = 22.465989 Si / 1000 Ang^3
#
#
#
# Elastic Constant Matrix: (Units=GPa)
#
#
# Indices 1 2 3 4 5 6 
#
# 1 140.6681 30.4301 21.1701 0.7225 -31.6341 -30.8907
# 2 30.4301 48.0748 4.4278 7.1592 -11.6308 -14.9645
# 3 21.1701 4.4278 85.4721 -13.0060 -46.1466 3.6969
# 4 0.7225 7.1592 -13.0060 22.4737 -1.6778 -4.5288
# 5 -31.6341 -11.6308 -46.1466 -1.6778 45.6501 5.5082
# 6 -30.8907 -14.9645 3.6969 -4.5288 5.5082 41.3796
#
#
#
# Elastic Compliance Matrix: (Units=1/GPa)
#
#
# Indices 1 2 3 4 5 6 
#
# 1 0.010672 -0.003784 0.002422 0.004038 0.008339 0.005714
# 2 -0.003784 0.026794 -0.000011 -0.007036 0.003252 0.005663
# 3 0.002422 -0.000011 0.036110 0.022933 0.039525 -0.004173
# 4 0.004038 -0.007036 0.022933 0.062190 0.026265 0.001731
# 5 0.008339 0.003252 0.039525 0.026265 0.069740 -0.002539
# 6 0.005714 0.005663 -0.004173 0.001731 -0.002539 0.031381
#
#
# Mechanical properties :
#
#
# Convention : Reuss Voigt Hill
#
# Bulk Modulus (GPa) = 14.11780 42.91901 28.51841
# Shear Modulus (GPa) = 18.99394 36.44649 27.72021
#
# Velocity S-wave (km/s) = 2.91082 4.03214 3.51647
# Velocity P-wave (km/s) = 4.19463 6.38929 5.40453
#
# Compressibility (1/GPa) = 0.07083258
#
# Stress axis : x y z
#
# Youngs Moduli (GPa) = 93.70014 37.32150 27.69297
#
# Poissons Ratio (x) = 0.14121 -0.06708
# Poissons Ratio (y) = 0.35452 0.00030
# Poissons Ratio (z) = -0.22697 0.00040
#
# Static dielectric constant tensor:
#      x y z
#    x 2.000900 0.004560 -0.016750 
#    y 0.004560 1.966030 -0.013260 
#    z -0.016750 -0.013260 1.767230 
# 
# From -- ./inp_files/174161.got.cif
#   From: 2010.05.17/outbox.cif.g08.bks.cpg/sg2_88_cif.got.tgz:174161.got - 2010.06.03 11:33:40.
