data_PCOD9054556
_publ_section_title
;
Structure prediction by ZEFSAII (Michael W. Deem and Ramdas Pophale) SiO2 
 PCOD9054556
Probable space group: P -1
;
_chemical_formula_sum "Si O2"
_cell_formula_units_Z 12
_cell_length_a 9.812532
_cell_length_b 8.630741
_cell_length_c 12.354025
_cell_angle_alpha 147.308463
_cell_angle_beta 109.603946
_cell_angle_gamma 63.229757
_cell_volume 502.470346
_symmetry_space_group_name_H-M "P -1"
_symmetry_group_IT_number 2
_symmetry_cell_setting 'triclinic'
loop_
_space_group_symop_operation_xyz
x,y,z
-x,-y,-z
loop_
_atom_site_type_symbol
_atom_site_label
_atom_site_fract_x
_atom_site_fract_y
_atom_site_fract_z
Si Si1 0.351723 0.349994 0.228299
Si Si2 0.956173 0.225991 0.278056
Si Si3 0.465809 0.988814 0.356004
Si Si4 0.596928 0.575430 0.957670
Si Si5 0.668679 0.325189 0.373767
Si Si6 0.766314 0.152315 0.001866
O O1 0.329476 0.423294 0.139245
O O2 0.536664 0.201968 0.217839
O O3 0.324213 0.628441 0.468573
O O4 0.249009 0.155709 0.128749
O O5 0.105826 0.965713 0.125321
O O6 0.000000 0.500000 0.500000
O O7 0.839131 0.138907 0.274307
O O8 0.846700 0.328765 0.204993
O O9 0.359703 0.774348 0.200749
O O10 0.500000 0.000000 0.500000
O O11 0.382085 0.326181 0.483866
O O12 0.596736 0.802085 0.191532
O O13 0.413634 0.661318 0.938960
#
# Coordination Sequence:
#
# PCOD9054556 Si02
#       6
#     2   2   2   2   2   2
#     4  11  21  36  60  95 119 147 194 257 297 332
#     4  11  21  37  55  89 122 157 191 240 290 359
#     4  11  21  37  55  89 122 157 191 240 290 359
#     4  11  22  36  60  89 121 153 195 241 298 347
#     4  11  22  36  64  91 120 154 196 243 298 344
#     4  11  22  36  60  89 121 153 195 241 298 347
#
# _framework density 23.882006000000001
#
# number of rings (size 3 to 8) (size 9 to 14) (size 15 to 20)
#    0.000    1.000    6.667    0.500    0.000    0.000 
#    0.000    0.000    0.000    1.000    0.000   11.667 
#    0.000    0.000    0.000    0.000    0.000    0.000 
#
# Total GULP energy -66826.869002 kJ/mol
# GULP energy per Si atom -5568.905750 kJ/mol
# Density = 2.382765 g / cm^3
# Si number density = 23.882006 Si / 1000 Ang^3
#
#
#
# Elastic Constant Matrix: (Units=GPa)
#
#
# Indices 1 2 3 4 5 6 
#
# 1 136.9925 10.5102 39.2225 -12.2110 -16.6778 -0.6661
# 2 10.5102 52.9303 26.6770 -16.8697 -4.8946 16.6346
# 3 39.2225 26.6770 149.2575 -30.6934 3.3313 10.0535
# 4 -12.2110 -16.8697 -30.6934 47.4836 12.7718 0.9957
# 5 -16.6778 -4.8946 3.3313 12.7718 54.5781 -11.4908
# 6 -0.6661 16.6346 10.0535 0.9957 -11.4908 38.7123
#
#
#
# Elastic Compliance Matrix: (Units=1/GPa)
#
#
# Indices 1 2 3 4 5 6 
#
# 1 0.008408 -0.001081 -0.002376 -0.000675 0.003240 0.002205
# 2 -0.001081 0.026290 -0.001750 0.008828 -0.002417 -0.011805
# 3 -0.002376 -0.001750 0.009041 0.005562 -0.003318 -0.002765
# 4 -0.000675 0.008828 0.005562 0.030113 -0.008607 -0.008579
# 5 0.003240 -0.002417 -0.003318 -0.008607 0.023222 0.009070
# 6 0.002205 -0.011805 -0.002765 -0.008579 0.009070 0.034573
#
#
# Mechanical properties :
#
#
# Convention : Reuss Voigt Hill
#
# Bulk Modulus (GPa) = 30.00746 54.66665 42.33705
# Shear Modulus (GPa) = 32.64379 45.67283 39.15831
#
# Velocity S-wave (km/s) = 3.70114 4.37789 4.05366
# Velocity P-wave (km/s) = 5.55489 6.96380 6.29886
#
# Compressibility (1/GPa) = 0.03332504
#
# Stress axis : x y z
#
# Youngs Moduli (GPa) = 118.93758 38.03755 110.60654
#
# Poissons Ratio (x) = 0.04110 0.26280
# Poissons Ratio (y) = 0.12852 0.19359
# Poissons Ratio (z) = 0.28259 0.06658
#
# Static dielectric constant tensor:
#      x y z
#    x 1.959580 0.071150 -0.002820 
#    y 0.071150 2.139670 -0.080240 
#    z -0.002820 -0.080240 2.059020 
# 
# From -- ./inp_files/517346.got.cif
#   From: 2010.05.17/outbox.cif.g08.bks.cpg/sg2_259_cif.got.tgz:517346.got - 2010.06.03 11:33:40.
