data_PCOD9054006
_publ_section_title
;
Structure prediction by ZEFSAII (Michael W. Deem and Ramdas Pophale) SiO2 
 PCOD9054006
Probable space group: P -1
;
_chemical_formula_sum "Si O2"
_cell_formula_units_Z 16
_cell_length_a 11.298675
_cell_length_b 13.961822
_cell_length_c 9.039986
_cell_angle_alpha 108.267588
_cell_angle_beta 117.142722
_cell_angle_gamma 124.478628
_cell_volume 655.438453
_symmetry_space_group_name_H-M "P -1"
_symmetry_group_IT_number 2
_symmetry_cell_setting 'triclinic'
loop_
_space_group_symop_operation_xyz
x,y,z
-x,-y,-z
loop_
_atom_site_type_symbol
_atom_site_label
_atom_site_fract_x
_atom_site_fract_y
_atom_site_fract_z
Si Si1 0.262172 0.033088 0.612985
Si Si2 0.768756 0.436485 0.993360
Si Si3 0.116021 0.170075 0.967038
Si Si4 0.065302 0.321900 0.239494
Si Si5 0.977632 0.874987 0.674919
Si Si6 0.264903 0.646691 0.408447
Si Si7 0.533223 0.009840 0.699994
Si Si8 0.444108 0.499915 0.130625
O O1 0.522265 0.256318 0.856284
O O2 0.105919 0.950500 0.334212
O O3 0.349599 0.973330 0.647410
O O4 0.099096 0.961632 0.624771
O O5 0.737766 0.373176 0.779563
O O6 0.775830 0.560616 0.032062
O O7 0.014991 0.548100 0.254368
O O8 0.099478 0.040189 0.923448
O O9 0.110826 0.251532 0.130436
O O10 0.363949 0.355301 0.112335
O O11 0.013886 0.236395 0.324891
O O12 0.260345 0.535251 0.430896
O O13 0.813613 0.211914 0.989214
O O14 0.685960 0.707615 0.428694
O O15 0.480033 0.863811 0.658609
O O16 0.500000 0.000000 0.500000
O O17 0.500000 0.500000 0.000000
#
# Coordination Sequence:
#
# PCOD9054006 Si02
#       8
#     2   2   2   2   2   2   2   2
#     4  12  22  43  71  98 131 172 225 282 329 391
#     4  11  20  39  70  97 127 165 223 284 326 374
#     4  12  23  44  72  96 130 179 231 271 327 400
#     4  12  26  45  67 100 137 179 218 277 340 394
#     4  12  29  44  63 101 143 175 222 272 336 405
#     4  11  22  40  67 101 130 163 227 280 324 391
#     4  12  22  41  73 100 127 173 227 278 330 392
#     4  12  24  41  69  98 132 175 219 276 332 389
#
# _framework density 24.411141000000001
#
# number of rings (size 3 to 8) (size 9 to 14) (size 15 to 20)
#    0.000    0.250    7.500    3.000    0.000    2.000 
#    0.000    0.625    0.000    0.000    0.000    0.000 
#    0.000    0.000    0.000    0.000    0.000    0.000 
#
# Total GULP energy -89528.427992 kJ/mol
# GULP energy per Si atom -5595.526749 kJ/mol
# Density = 2.435558 g / cm^3
# Si number density = 24.411141 Si / 1000 Ang^3
#
#
#
# Elastic Constant Matrix: (Units=GPa)
#
#
# Indices 1 2 3 4 5 6 
#
# 1 70.1964 19.9630 8.5866 4.7107 1.0325 -19.1365
# 2 19.9630 139.8687 26.7586 34.6233 -0.7721 -23.9787
# 3 8.5866 26.7586 34.0826 25.8805 2.9087 -4.8325
# 4 4.7107 34.6233 25.8805 45.2707 -8.3934 -4.9853
# 5 1.0325 -0.7721 2.9087 -8.3934 26.4800 12.2851
# 6 -19.1365 -23.9787 -4.8325 -4.9853 12.2851 49.5722
#
#
#
# Elastic Compliance Matrix: (Units=1/GPa)
#
#
# Indices 1 2 3 4 5 6 
#
# 1 0.016638 -0.000899 -0.002805 0.000691 -0.003199 0.006577
# 2 -0.000899 0.010052 -0.001309 -0.007061 -0.003923 0.004649
# 3 -0.002805 -0.001309 0.062357 -0.037685 -0.021456 0.005890
# 4 0.000691 -0.007061 -0.037685 0.052596 0.024055 -0.007494
# 5 -0.003199 -0.003923 -0.021456 0.024055 0.055431 -0.016542
# 6 0.006577 0.004649 0.005890 -0.007494 -0.016542 0.028880
#
#
# Mechanical properties :
#
#
# Convention : Reuss Voigt Hill
#
# Bulk Modulus (GPa) = 12.65513 39.41824 26.03669
# Shear Modulus (GPa) = 19.06053 36.85387 27.95720
#
# Velocity S-wave (km/s) = 2.79733 3.88972 3.38785
# Velocity P-wave (km/s) = 3.95333 6.02959 5.09827
#
# Compressibility (1/GPa) = 0.07901932
#
# Stress axis : x y z
#
# Youngs Moduli (GPa) = 60.10272 99.48547 16.03660
#
# Poissons Ratio (x) = 0.08947 0.04498
# Poissons Ratio (y) = 0.05405 0.02100
# Poissons Ratio (z) = 0.16860 0.13027
#
# Static dielectric constant tensor:
#      x y z
#    x 1.953510 -0.040840 -0.006790 
#    y -0.040840 1.983730 -0.016350 
#    z -0.006790 -0.016350 1.961050 
# 
# From -- ./inp_files/273835.got.cif
#   From: 2010.05.17/outbox.cif.g08.bks.cpg/sg2_137_cif.got.tgz:273835.got - 2010.06.03 11:33:40.
