data_PCOD9054024
_publ_section_title
;
Structure prediction by ZEFSAII (Michael W. Deem and Ramdas Pophale) SiO2 
 PCOD9054024
Probable space group: P -1
;
_chemical_formula_sum "Si O2"
_cell_formula_units_Z 16
_cell_length_a 9.479219
_cell_length_b 15.447533
_cell_length_c 9.546033
_cell_angle_alpha 143.549609
_cell_angle_beta 113.070216
_cell_angle_gamma 78.243889
_cell_volume 748.018595
_symmetry_space_group_name_H-M "P -1"
_symmetry_group_IT_number 2
_symmetry_cell_setting 'triclinic'
loop_
_space_group_symop_operation_xyz
x,y,z
-x,-y,-z
loop_
_atom_site_type_symbol
_atom_site_label
_atom_site_fract_x
_atom_site_fract_y
_atom_site_fract_z
Si Si1 0.395990 0.258773 0.645806
Si Si2 0.909460 0.848469 0.008690
Si Si3 0.907382 0.851125 0.455449
Si Si4 0.827303 0.496632 0.545181
Si Si5 0.360806 0.040607 0.085706
Si Si6 0.968662 0.585442 0.959737
Si Si7 0.714758 0.446406 0.124488
Si Si8 0.076073 0.796692 0.736536
O O1 0.273747 0.175134 0.604370
O O2 0.404876 0.153563 0.379126
O O3 0.322609 0.398781 0.746666
O O4 0.566000 0.321615 0.858709
O O5 0.891327 0.674723 0.803833
O O6 0.740940 0.886949 0.971201
O O7 0.986065 0.871591 0.914630
O O8 0.016899 0.975294 0.307239
O O9 0.938649 0.744195 0.204664
O O10 0.993958 0.798913 0.558216
O O11 0.727927 0.461873 0.319469
O O12 0.926704 0.366401 0.413285
O O13 0.808114 0.491940 0.701999
O O14 0.500000 0.000000 0.000000
O O15 0.250359 0.891217 0.909375
O O16 0.000000 0.500000 0.000000
O O17 0.126445 0.586999 0.928814
#
# Coordination Sequence:
#
# PCOD9054024 Si02
#       8
#     2   2   2   2   2   2   2   2
#     4  11  21  42  65  91 138 176 223 262 336 401
#     4  11  21  40  70  96 133 171 227 272 333 396
#     4  11  21  40  65 100 125 176 218 273 330 395
#     4  12  24  44  70 103 132 173 225 283 335 389
#     4  11  23  39  66 101 135 182 220 274 330 405
#     4  12  23  39  69 101 132 165 226 277 329 401
#     4  11  24  40  67  98 132 177 218 276 330 396
#     4  11  20  39  72  96 130 172 228 270 335 401
#
# _framework density 21.389842000000002
#
# number of rings (size 3 to 8) (size 9 to 14) (size 15 to 20)
#    0.000    0.750    6.250    3.000    3.500    0.500 
#    0.000    3.125    0.000    0.000    0.000    0.000 
#    0.000    0.000    0.000    0.000    0.000    0.000 
#
# Total GULP energy -89163.454696 kJ/mol
# GULP energy per Si atom -5572.715919 kJ/mol
# Density = 2.134116 g / cm^3
# Si number density = 21.389842 Si / 1000 Ang^3
#
#
#
# Elastic Constant Matrix: (Units=GPa)
#
#
# Indices 1 2 3 4 5 6 
#
# 1 133.4074 22.5320 68.3358 5.2587 -2.4089 -10.9282
# 2 22.5320 62.1222 5.6728 6.2833 9.5180 -1.2000
# 3 68.3358 5.6728 159.5150 -6.3748 3.1120 5.3837
# 4 5.2587 6.2833 -6.3748 45.9564 -4.1040 -9.0165
# 5 -2.4089 9.5180 3.1120 -4.1040 36.8428 0.2400
# 6 -10.9282 -1.2000 5.3837 -9.0165 0.2400 12.8521
#
#
#
# Elastic Compliance Matrix: (Units=1/GPa)
#
#
# Indices 1 2 3 4 5 6 
#
# 1 0.012028 -0.004095 -0.005442 0.001170 0.002350 0.012901
# 2 -0.004095 0.018558 0.001221 -0.003263 -0.005500 -0.004447
# 3 -0.005442 0.001221 0.008859 -0.000054 -0.001372 -0.008236
# 4 0.001170 -0.003263 -0.000054 0.026117 0.003710 0.018966
# 5 0.002350 -0.005500 -0.001372 0.003710 0.029219 0.004116
# 6 0.012901 -0.004447 -0.008236 0.018966 0.004116 0.105042
#
#
# Mechanical properties :
#
#
# Convention : Reuss Voigt Hill
#
# Bulk Modulus (GPa) = 43.83168 60.90285 52.36726
# Shear Modulus (GPa) = 22.31556 36.36386 29.33971
#
# Velocity S-wave (km/s) = 3.23349 4.12764 3.70762
# Velocity P-wave (km/s) = 5.87170 7.15899 6.54706
#
# Compressibility (1/GPa) = 0.02281455
#
# Stress axis : x y z
#
# Youngs Moduli (GPa) = 83.13933 53.88587 112.87485
#
# Poissons Ratio (x) = 0.22065 0.61423
# Poissons Ratio (y) = 0.34044 -0.13785
# Poissons Ratio (z) = 0.45242 -0.06581
#
# Static dielectric constant tensor:
#      x y z
#    x 1.766240 0.045230 0.010280 
#    y 0.045230 1.899120 -0.015940 
#    z 0.010280 -0.015940 1.837560 
# 
# From -- ./inp_files/209555.got.cif
#   From: 2010.05.17/outbox.cif.g08.bks.cpg/sg2_105_cif.got.tgz:209555.got - 2010.06.03 11:33:40.
