data_PCOD9054016
_publ_section_title
;
Structure prediction by ZEFSAII (Michael W. Deem and Ramdas Pophale) SiO2 
 PCOD9054016
Probable space group: P -1
;
_chemical_formula_sum "Si O2"
_cell_formula_units_Z 16
_cell_length_a 13.426799
_cell_length_b 6.463851
_cell_length_c 8.497110
_cell_angle_alpha 73.491688
_cell_angle_beta 78.935215
_cell_angle_gamma 65.548645
_cell_volume 641.305043
_symmetry_space_group_name_H-M "P -1"
_symmetry_group_IT_number 2
_symmetry_cell_setting 'triclinic'
loop_
_space_group_symop_operation_xyz
x,y,z
-x,-y,-z
loop_
_atom_site_type_symbol
_atom_site_label
_atom_site_fract_x
_atom_site_fract_y
_atom_site_fract_z
Si Si1 0.225548 0.139221 0.818734
Si Si2 0.002631 0.537818 0.180948
Si Si3 0.821146 0.943371 0.639499
Si Si4 0.330259 0.380512 0.976612
Si Si5 0.578452 0.906680 0.726818
Si Si6 0.274766 0.778068 0.654199
Si Si7 0.420519 0.363564 0.530431
Si Si8 0.158714 0.786589 0.120237
O O1 0.281409 0.222812 0.925334
O O2 0.123358 0.368731 0.746261
O O3 0.300767 0.989841 0.686088
O O4 0.174539 0.962706 0.948173
O O5 0.084961 0.306491 0.292155
O O6 0.048169 0.741017 0.149516
O O7 0.000000 0.500000 0.000000
O O8 0.695341 0.945258 0.679889
O O9 0.833601 0.043475 0.442116
O O10 0.827695 0.111191 0.740299
O O11 0.326839 0.584064 0.816934
O O12 0.432056 0.215422 0.081221
O O13 0.248917 0.532811 0.105022
O O14 0.577683 0.744190 0.616416
O O15 0.477205 0.149858 0.679106
O O16 0.307882 0.576085 0.553102
O O17 0.500000 0.500000 0.500000
#
# Coordination Sequence:
#
# PCOD9054016 Si02
#       8
#     2   2   2   2   2   2   2   2
#     4  11  24  42  64  98 142 174 220 275 334 384
#     4  12  22  39  69 102 130 178 234 273 311 391
#     4  12  24  41  71  99 130 178 225 273 325 396
#     4  11  23  43  68  97 139 176 213 279 331 390
#     4  11  23  44  74  99 125 172 228 271 328 397
#     4  11  28  42  65 100 139 175 212 281 343 387
#     4  11  25  45  75  98 129 169 226 275 328 408
#     4  11  20  39  71  97 125 181 227 270 313 394
#
# _framework density 24.949126
#
# number of rings (size 3 to 8) (size 9 to 14) (size 15 to 20)
#    0.000    0.750    6.250    1.125    1.750    1.000 
#    0.000    2.500    0.000    0.000    0.000    0.000 
#    0.000    0.000    0.000    0.000    0.000    0.000 
#
# Total GULP energy -89147.302839 kJ/mol
# GULP energy per Si atom -5571.706427 kJ/mol
# Density = 2.489234 g / cm^3
# Si number density = 24.949126 Si / 1000 Ang^3
#
#
#
# Elastic Constant Matrix: (Units=GPa)
#
#
# Indices 1 2 3 4 5 6 
#
# 1 76.7919 49.2819 37.3546 -3.1229 20.4572 15.4501
# 2 49.2819 194.5087 65.5744 7.3780 29.0594 -7.1012
# 3 37.3546 65.5744 135.6186 -33.3189 37.7308 -4.1983
# 4 -3.1229 7.3780 -33.3189 48.8747 -5.6534 17.4462
# 5 20.4572 29.0594 37.7308 -5.6534 33.9002 0.5833
# 6 15.4501 -7.1012 -4.1983 17.4462 0.5833 35.1079
#
#
#
# Elastic Compliance Matrix: (Units=1/GPa)
#
#
# Indices 1 2 3 4 5 6 
#
# 1 0.021010 -0.004765 -0.000686 0.005413 -0.006706 -0.012870
# 2 -0.004765 0.008308 -0.003784 -0.006660 -0.001259 0.006655
# 3 -0.000686 -0.003784 0.015074 0.010891 -0.011236 -0.003887
# 4 0.005413 -0.006660 0.010891 0.036105 -0.003309 -0.020313
# 5 -0.006706 -0.001259 -0.011236 -0.003309 0.046541 0.002224
# 6 -0.012870 0.006655 -0.003887 -0.020313 0.002224 0.045086
#
#
# Mechanical properties :
#
#
# Convention : Reuss Voigt Hill
#
# Bulk Modulus (GPa) = 38.57847 79.03786 58.80817
# Shear Modulus (GPa) = 25.09602 40.55712 32.82657
#
# Velocity S-wave (km/s) = 3.17501 4.03624 3.63125
# Velocity P-wave (km/s) = 5.37935 7.31232 6.41901
#
# Compressibility (1/GPa) = 0.02592119
#
# Stress axis : x y z
#
# Youngs Moduli (GPa) = 47.59641 120.36446 66.33999
#
# Poissons Ratio (x) = 0.57358 0.04548
# Poissons Ratio (y) = 0.22681 0.25106
# Poissons Ratio (z) = 0.03263 0.45552
#
# Static dielectric constant tensor:
#      x y z
#    x 2.040390 -0.017050 -0.119360 
#    y -0.017050 1.940470 0.002100 
#    z -0.119360 0.002100 2.089260 
# 
# From -- ./inp_files/53115.got.cif
#   From: 2010.05.17/outbox.cif.g08.bks.cpg/sg2_27_cif.got.tgz:53115.got - 2010.06.03 11:33:40.
