data_PCOD9054356
_publ_section_title
;
Structure prediction by ZEFSAII (Michael W. Deem and Ramdas Pophale) SiO2 
 PCOD9054356
Probable space group: P -1
;
_chemical_formula_sum "Si O2"
_cell_formula_units_Z 16
_cell_length_a 15.566808
_cell_length_b 13.817456
_cell_length_c 9.825159
_cell_angle_alpha 44.215089
_cell_angle_beta 64.527573
_cell_angle_gamma 36.430099
_cell_volume 818.503295
_symmetry_space_group_name_H-M "P -1"
_symmetry_group_IT_number 2
_symmetry_cell_setting 'triclinic'
loop_
_space_group_symop_operation_xyz
x,y,z
-x,-y,-z
loop_
_atom_site_type_symbol
_atom_site_label
_atom_site_fract_x
_atom_site_fract_y
_atom_site_fract_z
Si Si1 0.127923 0.641443 0.064708
Si Si2 0.983091 0.564011 0.133820
Si Si3 0.721730 0.456650 0.207508
Si Si4 0.965137 0.105427 0.611978
Si Si5 0.271437 0.527566 0.371310
Si Si6 0.838981 0.884051 0.662734
Si Si7 0.458009 0.599342 0.582326
Si Si8 0.334922 0.248815 0.821636
O O1 0.218808 0.573117 0.207801
O O2 0.033864 0.606127 0.178550
O O3 0.237939 0.508141 0.991904
O O4 0.020919 0.893857 0.840568
O O5 0.820507 0.667234 0.151119
O O6 0.124004 0.296962 0.270033
O O7 0.948841 0.715182 0.884517
O O8 0.857738 0.218394 0.436903
O O9 0.601364 0.474735 0.236407
O O10 0.680565 0.612029 0.196265
O O11 0.872438 0.278406 0.626295
O O12 0.097165 0.061621 0.523542
O O13 0.392438 0.510554 0.336018
O O14 0.343286 0.305010 0.609453
O O15 0.674759 0.127665 0.587917
O O16 0.500000 0.500000 0.500000
O O17 0.500000 0.000000 0.000000
#
# Coordination Sequence:
#
# PCOD9054356 Si02
#       8
#     2   2   2   2   2   2   2   2
#     4  12  24  40  67  98 136 174 214 276 334 392
#     4  11  22  38  69  98 130 175 219 266 334 385
#     4  11  21  39  67  95 124 169 230 264 322 391
#     4  11  20  43  66  94 129 174 221 276 313 394
#     4  11  26  42  62 100 137 166 224 277 332 392
#     4  11  21  41  68  99 125 169 231 275 309 396
#     4  12  23  40  69  94 129 173 222 278 332 382
#     4  11  23  43  65  96 133 173 226 275 318 399
#
# _framework density 19.547875000000001
#
# number of rings (size 3 to 8) (size 9 to 14) (size 15 to 20)
#    0.000    0.750    7.500    3.000    0.000    1.000 
#    0.000    2.500    0.000    0.000    0.000    0.000 
#    0.000    0.000    0.000    0.000    0.000    0.000 
#
# Total GULP energy -89174.904425 kJ/mol
# GULP energy per Si atom -5573.431527 kJ/mol
# Density = 1.950338 g / cm^3
# Si number density = 19.547875 Si / 1000 Ang^3
#
#
#
# Elastic Constant Matrix: (Units=GPa)
#
#
# Indices 1 2 3 4 5 6 
#
# 1 144.7437 44.2125 58.7559 -0.6237 2.5257 11.0549
# 2 44.2125 87.1967 47.8754 -18.6285 6.1627 2.2234
# 3 58.7559 47.8754 84.7922 -1.9511 1.2900 12.0751
# 4 -0.6237 -18.6285 -1.9511 32.5089 7.7257 -2.9264
# 5 2.5257 6.1627 1.2900 7.7257 27.4398 6.8268
# 6 11.0549 2.2234 12.0751 -2.9264 6.8268 23.5554
#
#
#
# Elastic Compliance Matrix: (Units=1/GPa)
#
#
# Indices 1 2 3 4 5 6 
#
# 1 0.009965 -0.002754 -0.005073 -0.002185 0.001158 -0.002423
# 2 -0.002754 0.023934 -0.012611 0.016751 -0.011996 0.011056
# 3 -0.005073 -0.012611 0.023811 -0.008780 0.007621 -0.011935
# 4 -0.002185 0.016751 -0.008780 0.045910 -0.019910 0.015419
# 5 0.001158 -0.011996 0.007621 -0.019910 0.049272 -0.020071
# 6 -0.002423 0.011056 -0.011935 0.015419 -0.020071 0.056397
#
#
# Mechanical properties :
#
#
# Convention : Reuss Voigt Hill
#
# Bulk Modulus (GPa) = 59.40851 68.71334 64.06093
# Shear Modulus (GPa) = 19.54833 27.76008 23.65420
#
# Velocity S-wave (km/s) = 3.16575 3.77252 3.48237
# Velocity P-wave (km/s) = 6.61966 7.36230 7.00083
#
# Compressibility (1/GPa) = 0.01683260
#
# Stress axis : x y z
#
# Youngs Moduli (GPa) = 100.35496 41.78215 41.99762
#
# Poissons Ratio (x) = 0.11507 0.21304
# Poissons Ratio (y) = 0.27639 0.52965
# Poissons Ratio (z) = 0.50907 0.52693
#
# Static dielectric constant tensor:
#      x y z
#    x 1.785630 0.048610 -0.110620 
#    y 0.048610 1.862630 -0.129760 
#    z -0.110620 -0.129760 1.787160 
# 
# From -- ./inp_files/306491.got.cif
#   From: 2010.05.17/outbox.cif.g08.bks.cpg/sg2_154_cif.got.tgz:306491.got - 2010.06.03 11:33:40.
