data_PCOD9054246
_publ_section_title
;
Structure prediction by ZEFSAII (Michael W. Deem and Ramdas Pophale) SiO2 
 PCOD9054246
Probable space group: P -1
;
_chemical_formula_sum "Si O2"
_cell_formula_units_Z 14
_cell_length_a 12.066066
_cell_length_b 7.863344
_cell_length_c 12.552740
_cell_angle_alpha 86.642194
_cell_angle_beta 33.758504
_cell_angle_gamma 67.981244
_cell_volume 534.385898
_symmetry_space_group_name_H-M "P -1"
_symmetry_group_IT_number 2
_symmetry_cell_setting 'triclinic'
loop_
_space_group_symop_operation_xyz
x,y,z
-x,-y,-z
loop_
_atom_site_type_symbol
_atom_site_label
_atom_site_fract_x
_atom_site_fract_y
_atom_site_fract_z
Si Si1 0.589577 0.150887 0.438457
Si Si2 0.678827 0.554580 0.552296
Si Si3 0.641049 0.485198 0.039658
Si Si4 0.017407 0.123264 0.168002
Si Si5 0.981626 0.661112 0.421099
Si Si6 0.500939 0.950756 0.123762
Si Si7 0.827175 0.429786 0.122273
O O1 0.535801 0.273486 0.362941
O O2 0.856200 0.031814 0.288033
O O3 0.424487 0.360971 0.637327
O O4 0.500000 0.000000 0.500000
O O5 0.857715 0.324194 0.366438
O O6 0.851476 0.628446 0.429275
O O7 0.576566 0.530436 0.746190
O O8 0.571492 0.718579 0.082841
O O9 0.777591 0.376611 0.823530
O O10 0.800548 0.398751 0.022916
O O11 0.965842 0.219790 0.088150
O O12 0.300238 0.022637 0.977665
O O13 0.000000 0.500000 0.500000
O O14 0.776175 0.892031 0.618397
O O15 0.500000 0.000000 0.000000
O O16 0.000000 0.500000 0.000000
#
# Coordination Sequence:
#
# PCOD9054246 Si02
#       7
#     2   2   2   2   2   2   2
#     4  11  24  43  72 115 159 200 254 315 384 466
#     4  11  23  46  76 111 151 207 258 314 389 456
#     4  12  23  47  82 105 156 204 252 321 390 446
#     4  11  21  46  75 108 158 206 249 313 388 460
#     4  12  27  52  74 110 156 201 263 323 387 461
#     4  12  26  51  79 112 150 205 261 320 386 463
#     4  11  20  41  72 104 149 203 242 308 392 449
#
# _framework density 26.198294000000001
#
# number of rings (size 3 to 8) (size 9 to 14) (size 15 to 20)
#    0.000    0.571    7.143    1.714    2.000    0.571 
#    7.714    3.571    0.000    0.000    0.000    0.000 
#    0.000    0.000    0.000    0.000    0.000    0.000 
#
# Total GULP energy -78280.793209 kJ/mol
# GULP energy per Si atom -5591.485229 kJ/mol
# Density = 2.613867 g / cm^3
# Si number density = 26.198294 Si / 1000 Ang^3
#
#
#
# Elastic Constant Matrix: (Units=GPa)
#
#
# Indices 1 2 3 4 5 6 
#
# 1 66.9022 22.8560 19.0944 3.0168 3.7236 -21.0673
# 2 22.8560 113.6315 62.4935 8.9950 19.8837 -15.1725
# 3 19.0944 62.4935 152.2747 0.1090 23.9935 -16.5650
# 4 3.0168 8.9950 0.1090 49.4857 2.9770 7.7321
# 5 3.7236 19.8837 23.9935 2.9770 45.5812 -8.6219
# 6 -21.0673 -15.1725 -16.5650 7.7321 -8.6219 45.9867
#
#
#
# Elastic Compliance Matrix: (Units=1/GPa)
#
#
# Indices 1 2 3 4 5 6 
#
# 1 0.018508 -0.002359 -0.000718 -0.002054 0.001557 0.008079
# 2 -0.002359 0.012414 -0.004240 -0.002161 -0.002591 0.001365
# 3 -0.000718 -0.004240 0.008910 0.000824 -0.002676 0.000841
# 4 -0.002054 -0.002161 0.000824 0.021661 -0.001746 -0.005326
# 5 0.001557 -0.002591 -0.002676 -0.001746 0.025205 0.003914
# 6 0.008079 0.001365 0.000841 -0.005326 0.003914 0.027829
#
#
# Mechanical properties :
#
#
# Convention : Reuss Voigt Hill
#
# Bulk Modulus (GPa) = 39.68687 60.18846 49.93767
# Shear Modulus (GPa) = 36.34745 43.43501 39.89123
#
# Velocity S-wave (km/s) = 3.72882 4.07619 3.90637
# Velocity P-wave (km/s) = 5.80692 6.72145 6.28085
#
# Compressibility (1/GPa) = 0.02519725
#
# Stress axis : x y z
#
# Youngs Moduli (GPa) = 54.03037 80.55621 112.23355
#
# Poissons Ratio (x) = 0.19005 0.08054
# Poissons Ratio (y) = 0.12747 0.47592
# Poissons Ratio (z) = 0.03877 0.34160
#
# Static dielectric constant tensor:
#      x y z
#    x 2.302520 -0.361380 -0.274620 
#    y -0.361380 2.380040 0.321840 
#    z -0.274620 0.321840 2.335610 
# 
# From -- ./inp_files/528448.got.cif
#   From: 2010.05.17/outbox.cif.g08.bks.cpg/sg2_265_cif.got.tgz:528448.got - 2010.06.03 11:33:40.
