data_PCOD9054708
_publ_section_title
;
Structure prediction by ZEFSAII (Michael W. Deem and Ramdas Pophale) SiO2 
 PCOD9054708
Probable space group: P -1
;
_chemical_formula_sum "Si O2"
_cell_formula_units_Z 16
_cell_length_a 14.669081
_cell_length_b 14.927489
_cell_length_c 9.330690
_cell_angle_alpha 145.524131
_cell_angle_beta 50.685557
_cell_angle_gamma 145.200273
_cell_volume 654.085125
_symmetry_space_group_name_H-M "P -1"
_symmetry_group_IT_number 2
_symmetry_cell_setting 'triclinic'
loop_
_space_group_symop_operation_xyz
x,y,z
-x,-y,-z
loop_
_atom_site_type_symbol
_atom_site_label
_atom_site_fract_x
_atom_site_fract_y
_atom_site_fract_z
Si Si1 0.856870 0.778585 0.765180
Si Si2 0.774573 0.872614 0.690932
Si Si3 0.483432 0.105055 0.479879
Si Si4 0.333843 0.000489 0.786751
Si Si5 0.519469 0.366610 0.528745
Si Si6 0.721830 0.315862 0.052218
Si Si7 0.011555 0.611483 0.492556
Si Si8 0.028989 0.694420 0.091209
O O1 0.862080 0.839032 0.673933
O O2 0.661867 0.616283 0.766870
O O3 0.881579 0.617445 0.573121
O O4 0.000000 0.000000 0.000000
O O5 0.631602 0.692881 0.484846
O O6 0.914155 0.092915 0.757348
O O7 0.680907 0.908188 0.937599
O O8 0.653470 0.170655 0.399424
O O9 0.465652 0.222563 0.533836
O O10 0.453824 0.133223 0.708624
O O11 0.376564 0.854462 0.204999
O O12 0.166160 0.862371 0.689660
O O13 0.605143 0.315160 0.267802
O O14 0.804699 0.235754 0.931965
O O15 0.879391 0.560191 0.171237
O O16 0.000000 0.500000 0.500000
O O17 0.035661 0.496778 0.203927
#
# Coordination Sequence:
#
# PCOD9054708 Si02
#       8
#     2   2   2   2   2   2   2   2
#     4  12  26  45  67  98 137 183 229 280 344 412
#     4  12  24  44  70 102 139 182 224 284 344 411
#     4  11  22  38  67 106 136 176 225 287 338 402
#     4  11  22  36  64 101 142 171 224 278 343 397
#     4  12  24  44  70  96 135 187 229 280 341 409
#     4  11  21  37  68 101 134 172 224 288 330 400
#     4  12  21  39  68  98 132 178 227 276 338 403
#     4  11  22  38  67 104 131 171 228 280 340 395
#
# _framework density 24.461649000000001
#
# number of rings (size 3 to 8) (size 9 to 14) (size 15 to 20)
#    0.000    0.500    7.500    2.250    0.000    0.000 
#    0.000    1.250    2.750    0.000    0.000    0.000 
#    0.000    0.000    0.000    0.000    0.000    0.000 
#
# Total GULP energy -89190.940869 kJ/mol
# GULP energy per Si atom -5574.433804 kJ/mol
# Density = 2.440597 g / cm^3
# Si number density = 24.461649 Si / 1000 Ang^3
#
#
#
# Elastic Constant Matrix: (Units=GPa)
#
#
# Indices 1 2 3 4 5 6 
#
# 1 157.5112 40.8060 24.7404 11.8358 18.8314 -22.3414
# 2 40.8060 77.3069 14.6870 14.4309 -1.8140 -31.0057
# 3 24.7404 14.6870 82.8549 5.2480 14.0864 -1.5943
# 4 11.8358 14.4309 5.2480 35.8547 4.1532 9.5871
# 5 18.8314 -1.8140 14.0864 4.1532 40.8847 9.8572
# 6 -22.3414 -31.0057 -1.5943 9.5871 9.8572 43.2730
#
#
#
# Elastic Compliance Matrix: (Units=1/GPa)
#
#
# Indices 1 2 3 4 5 6 
#
# 1 0.008391 -0.002166 -0.001151 -0.002363 -0.004350 0.004252
# 2 -0.002166 0.025390 -0.002468 -0.014519 -0.000445 0.020301
# 3 -0.001151 -0.002468 0.013505 0.000122 -0.004009 -0.000979
# 4 -0.002363 -0.014519 0.000122 0.039892 0.001356 -0.020765
# 5 -0.004350 -0.000445 -0.004009 0.001356 0.030064 -0.009861
# 6 0.004252 0.020301 -0.000979 -0.020765 -0.009861 0.046661
#
#
# Mechanical properties :
#
#
# Convention : Reuss Voigt Hill
#
# Bulk Modulus (GPa) = 27.99792 53.12664 40.56228
# Shear Modulus (GPa) = 26.68397 39.83179 33.25788
#
# Velocity S-wave (km/s) = 3.30638 4.03964 3.69127
# Velocity P-wave (km/s) = 5.10360 6.59726 5.89790
#
# Compressibility (1/GPa) = 0.03571694
#
# Stress axis : x y z
#
# Youngs Moduli (GPa) = 119.16889 39.38581 74.04471
#
# Poissons Ratio (x) = 0.08532 0.08520
# Poissons Ratio (y) = 0.25816 0.18273
# Poissons Ratio (z) = 0.13712 0.09720
#
# Static dielectric constant tensor:
#      x y z
#    x 2.067940 0.059880 -0.013940 
#    y 0.059880 1.998350 0.026380 
#    z -0.013940 0.026380 2.027350 
# 
# From -- ./inp_files/314219.got.cif
#   From: 2010.05.17/outbox.cif.g08.bks.cpg/sg2_158_cif.got.tgz:314219.got - 2010.06.03 11:33:40.
