data_PCOD9054078
_publ_section_title
;
Structure prediction by ZEFSAII (Michael W. Deem and Ramdas Pophale) SiO2 
 PCOD9054078
Probable space group: P -1
;
_chemical_formula_sum "Si O2"
_cell_formula_units_Z 13
_cell_length_a 12.944190
_cell_length_b 11.976090
_cell_length_c 10.676339
_cell_angle_alpha 48.856922
_cell_angle_beta 100.269636
_cell_angle_gamma 142.343146
_cell_volume 508.217396
_symmetry_space_group_name_H-M "P -1"
_symmetry_group_IT_number 2
_symmetry_cell_setting 'triclinic'
loop_
_space_group_symop_operation_xyz
x,y,z
-x,-y,-z
loop_
_atom_site_type_symbol
_atom_site_label
_atom_site_fract_x
_atom_site_fract_y
_atom_site_fract_z
Si Si1 0.034254 0.885966 0.021009
Si Si2 0.241676 0.711895 0.438632
Si Si3 0.396510 0.463745 0.288004
Si Si4 0.500000 0.000000 0.500000
Si Si5 0.736839 0.659564 0.938978
Si Si6 0.717285 0.979991 0.495370
Si Si7 0.854083 0.589914 0.579878
O O1 0.840891 0.512949 0.304849
O O2 0.938155 0.796284 0.928152
O O3 0.308252 0.171865 0.887749
O O4 0.000000 0.000000 0.000000
O O5 0.457606 0.055458 0.318615
O O6 0.315064 0.718318 0.325950
O O7 0.000000 0.500000 0.500000
O O8 0.329573 0.424617 0.159651
O O9 0.293152 0.162844 0.505823
O O10 0.281522 0.447220 0.357783
O O11 0.647284 0.060131 0.402989
O O12 0.509337 0.374335 0.200655
O O13 0.908101 0.030875 0.722476
O O14 0.997751 0.328512 0.355842
#
# Coordination Sequence:
#
# PCOD9054078 Si02
#       7
#     2   2   2   1   2   2   2
#     4  12  22  41  68  99 121 171 230 265 314 385
#     4  12  24  43  67  94 130 172 221 264 324 394
#     4  11  24  41  66  99 136 161 212 280 334 371
#     4  12  24  38  68  92 124 168 224 268 308 386
#     4  11  21  39  69  95 128 166 222 271 311 380
#     4  11  20  40  67  97 124 170 220 261 317 385
#     4  11  23  42  66  98 134 170 205 280 337 377
#
# _framework density 25.579604
#
# number of rings (size 3 to 8) (size 9 to 14) (size 15 to 20)
#    0.000    0.615    6.154    4.615    0.000    0.615 
#    2.769    0.769    0.000    5.538    0.000    0.000 
#    0.000    0.000    0.000    0.000    0.000    0.000 
#
# Total GULP energy -72413.043086 kJ/mol
# GULP energy per Si atom -5570.234084 kJ/mol
# Density = 2.552138 g / cm^3
# Si number density = 25.579604 Si / 1000 Ang^3
#
#
#
# Elastic Constant Matrix: (Units=GPa)
#
#
# Indices 1 2 3 4 5 6 
#
# 1 210.1909 61.9904 16.5550 12.2942 -18.4576 10.0779
# 2 61.9904 122.6291 -9.0114 -12.3465 -28.8694 15.0686
# 3 16.5550 -9.0114 16.2504 -1.3335 -6.6850 2.8790
# 4 12.2942 -12.3465 -1.3335 16.1021 7.0595 -2.1353
# 5 -18.4576 -28.8694 -6.6850 7.0595 33.5518 1.9524
# 6 10.0779 15.0686 2.8790 -2.1353 1.9524 59.6998
#
#
#
# Elastic Compliance Matrix: (Units=1/GPa)
#
#
# Indices 1 2 3 4 5 6 
#
# 1 0.008529 -0.007113 -0.014488 -0.012302 -0.001766 0.000672
# 2 -0.007113 0.019366 0.026305 0.015197 0.015080 -0.004906
# 3 -0.014488 0.026305 0.107527 0.025129 0.031353 -0.009506
# 4 -0.012302 0.015197 0.025129 0.088502 -0.007332 0.000434
# 5 -0.001766 0.015080 0.031353 -0.007332 0.050001 -0.006918
# 6 0.000672 -0.004906 -0.009506 0.000434 -0.006918 0.018575
#
#
# Mechanical properties :
#
#
# Convention : Reuss Voigt Hill
#
# Bulk Modulus (GPa) = 6.90466 54.23760 30.57113
# Shear Modulus (GPa) = 15.08898 40.50650 27.79774
#
# Velocity S-wave (km/s) = 2.43139 3.98370 3.30011
# Velocity P-wave (km/s) = 3.25382 6.51224 5.14765
#
# Compressibility (1/GPa) = 0.14482977
#
# Stress axis : x y z
#
# Youngs Moduli (GPa) = 117.25130 51.63664 9.30002
#
# Poissons Ratio (x) = 0.36728 0.13473
# Poissons Ratio (y) = 0.83398 -0.24463
# Poissons Ratio (z) = 1.69869 -1.35828
#
# Static dielectric constant tensor:
#      x y z
#    x 2.014020 0.090840 -0.004540 
#    y 0.090840 1.734490 0.304900 
#    z -0.004540 0.304900 1.934560 
# 
# From -- ./inp_files/270507.got.cif
#   From: 2010.05.17/outbox.cif.g08.bks.cpg/sg2_136_cif.got.tgz:270507.got - 2010.06.03 11:33:40.
