data_PCOD9054638
_publ_section_title
;
Structure prediction by ZEFSAII (Michael W. Deem and Ramdas Pophale) SiO2 
 PCOD9054638
Probable space group: P -1
;
_chemical_formula_sum "Si O2"
_cell_formula_units_Z 16
_cell_length_a 9.379198
_cell_length_b 14.057253
_cell_length_c 8.771238
_cell_angle_alpha 132.031345
_cell_angle_beta 96.552751
_cell_angle_gamma 113.145659
_cell_volume 658.392432
_symmetry_space_group_name_H-M "P -1"
_symmetry_group_IT_number 2
_symmetry_cell_setting 'triclinic'
loop_
_space_group_symop_operation_xyz
x,y,z
-x,-y,-z
loop_
_atom_site_type_symbol
_atom_site_label
_atom_site_fract_x
_atom_site_fract_y
_atom_site_fract_z
Si Si1 0.354810 0.219255 0.631582
Si Si2 0.956429 0.022790 0.849235
Si Si3 0.666531 0.030168 0.465233
Si Si4 0.498569 0.813787 0.909305
Si Si5 0.978131 0.355773 0.680167
Si Si6 0.195799 0.843772 0.852827
Si Si7 0.247195 0.530360 0.167685
Si Si8 0.331665 0.309508 0.055336
O O1 0.547664 0.297028 0.655808
O O2 0.198187 0.164531 0.432984
O O3 0.257465 0.037261 0.491397
O O4 0.386926 0.319636 0.894895
O O5 0.894249 0.135077 0.993419
O O6 0.139457 0.128571 0.881035
O O7 0.000000 0.000000 0.000000
O O8 0.826306 0.211216 0.622052
O O9 0.500000 0.000000 0.500000
O O10 0.571407 0.910904 0.181531
O O11 0.641225 0.961321 0.966327
O O12 0.299902 0.767371 0.809915
O O13 0.522614 0.675419 0.794338
O O14 0.946220 0.264442 0.419506
O O15 0.903611 0.458985 0.767681
O O16 0.166338 0.453104 0.905025
O O17 0.286905 0.434007 0.180098
#
# Coordination Sequence:
#
# PCOD9054638 Si02
#       8
#     2   2   2   2   2   2   2   2
#     4  11  24  41  71  99 131 177 227 282 335 392
#     4  12  25  42  71 105 134 172 226 286 346 394
#     4  10  17  35  66  98 123 163 236 280 318 378
#     4   9  20  36  65  98 127 170 218 283 332 391
#     4  10  23  41  67 100 136 181 223 281 333 401
#     4  10  21  41  68  95 137 167 224 280 341 390
#     4  11  24  43  67  97 140 183 228 269 337 410
#     4  11  24  45  66 101 139 177 228 276 332 411
#
# _framework density 24.301614000000001
#
# number of rings (size 3 to 8) (size 9 to 14) (size 15 to 20)
#    0.000    1.500    2.500    2.250    5.250    0.000 
#    2.250    3.125    0.000    0.000    0.000    0.000 
#    0.000    0.000    0.000    0.000    0.000    0.000 
#
# Total GULP energy -89336.392221 kJ/mol
# GULP energy per Si atom -5583.524514 kJ/mol
# Density = 2.424630 g / cm^3
# Si number density = 24.301614 Si / 1000 Ang^3
#
#
#
# Elastic Constant Matrix: (Units=GPa)
#
#
# Indices 1 2 3 4 5 6 
#
# 1 105.2298 29.2118 15.4909 -10.5512 7.2808 -23.0955
# 2 29.2118 60.4465 14.6007 -4.0214 6.3984 -21.5838
# 3 15.4909 14.6007 84.9227 -16.1534 16.7523 2.1451
# 4 -10.5512 -4.0214 -16.1534 15.3412 -4.6383 -7.0188
# 5 7.2808 6.3984 16.7523 -4.6383 32.4438 -5.9621
# 6 -23.0955 -21.5838 2.1451 -7.0188 -5.9621 56.4006
#
#
#
# Elastic Compliance Matrix: (Units=1/GPa)
#
#
# Indices 1 2 3 4 5 6 
#
# 1 0.012623 -0.003663 0.000095 0.010206 0.000229 0.005058
# 2 -0.003663 0.021848 -0.002476 0.003904 -0.000288 0.007411
# 3 0.000095 -0.002476 0.016090 0.014437 -0.005840 -0.000341
# 4 0.010206 0.003904 0.014437 0.098838 0.006952 0.018159
# 5 0.000229 -0.000288 -0.005840 0.006952 0.035728 0.004847
# 6 0.005058 0.007411 -0.000341 0.018159 0.004847 0.025423
#
#
# Mechanical properties :
#
#
# Convention : Reuss Voigt Hill
#
# Bulk Modulus (GPa) = 25.99038 41.02286 33.50662
# Shear Modulus (GPa) = 21.23485 33.59017 27.41251
#
# Velocity S-wave (km/s) = 2.95922 3.72186 3.36223
# Velocity P-wave (km/s) = 4.73225 5.94869 5.37499
#
# Compressibility (1/GPa) = 0.03847578
#
# Stress axis : x y z
#
# Youngs Moduli (GPa) = 79.21855 45.77069 62.14851
#
# Poissons Ratio (x) = 0.16764 -0.00593
# Poissons Ratio (y) = 0.29015 0.15387
# Poissons Ratio (z) = -0.00756 0.11332
#
# Static dielectric constant tensor:
#      x y z
#    x 2.037810 -0.151590 -0.001010 
#    y -0.151590 1.911470 -0.008680 
#    z -0.001010 -0.008680 1.985150 
# 
# From -- ./inp_files/205599.got.cif
#   From: 2010.05.17/outbox.cif.g08.bks.cpg/sg2_103_cif.got.tgz:205599.got - 2010.06.03 11:33:40.
