data_PCOD9054614
_publ_section_title
;
Structure prediction by ZEFSAII (Michael W. Deem and Ramdas Pophale) SiO2 
 PCOD9054614
Probable space group: P -1
;
_chemical_formula_sum "Si O2"
_cell_formula_units_Z 14
_cell_length_a 27.837954
_cell_length_b 8.628477
_cell_length_c 9.472621
_cell_angle_alpha 148.612174
_cell_angle_beta 46.775841
_cell_angle_gamma 142.764563
_cell_volume 716.965133
_symmetry_space_group_name_H-M "P -1"
_symmetry_group_IT_number 2
_symmetry_cell_setting 'triclinic'
loop_
_space_group_symop_operation_xyz
x,y,z
-x,-y,-z
loop_
_atom_site_type_symbol
_atom_site_label
_atom_site_fract_x
_atom_site_fract_y
_atom_site_fract_z
Si Si1 0.413603 0.286797 0.438606
Si Si2 0.996117 0.143384 0.770276
Si Si3 0.669269 0.857109 0.982574
Si Si4 0.827341 0.684677 0.715813
Si Si5 0.666977 0.528014 0.031251
Si Si6 0.412576 0.743186 0.539935
Si Si7 0.834163 0.374255 0.163638
O O1 0.500000 0.500000 0.500000
O O2 0.415597 0.509876 0.475591
O O3 0.392522 0.891931 0.144685
O O4 0.347727 0.263231 0.657650
O O5 0.079660 0.280442 0.784508
O O6 0.000000 0.000000 0.500000
O O7 0.908154 0.832802 0.757725
O O8 0.000000 0.500000 0.000000
O O9 0.613428 0.991092 0.159279
O O10 0.757183 0.221096 0.102688
O O11 0.652267 0.665288 0.020393
O O12 0.651283 0.547289 0.669297
O O13 0.751247 0.570269 0.875194
O O14 0.817311 0.434747 0.408311
O O15 0.841764 0.037420 0.885597
O O16 0.500000 0.000000 0.500000
#
# Coordination Sequence:
#
# PCOD9054614 Si02
#       7
#     2   2   2   2   2   2   2
#     4  12  25  41  58  80 108 143 183 229 278 332
#     4   8  14  24  42  72 111 142 171 214 265 312
#     4  11  21  37  59  84 111 143 181 227 276 326
#     4   9  16  28  48  78 111 143 176 219 269 316
#     4  11  21  37  59  84 111 143 181 227 276 326
#     4  12  25  41  58  80 108 143 183 229 278 332
#     4   9  16  28  48  78 111 143 176 219 269 316
#
# _framework density 19.526752999999999
#
# number of rings (size 3 to 8) (size 9 to 14) (size 15 to 20)
#    0.000    1.714    0.000    7.714    0.000    0.000 
#    0.000    0.000    0.000    0.000    0.000    6.000 
#    0.000    0.000    0.000    0.000    0.000    0.000 
#
# Total GULP energy -77946.463503 kJ/mol
# GULP energy per Si atom -5567.604536 kJ/mol
# Density = 1.948231 g / cm^3
# Si number density = 19.526753 Si / 1000 Ang^3
#
#
#
# Elastic Constant Matrix: (Units=GPa)
#
#
# Indices 1 2 3 4 5 6 
#
# 1 62.3407 35.9475 -1.4260 0.1167 -0.2245 1.5028
# 2 35.9475 57.8413 -5.8117 5.0071 7.8279 17.2653
# 3 -1.4260 -5.8117 96.4905 7.0108 -8.4785 -5.4469
# 4 0.1167 5.0071 7.0108 24.0608 -1.6625 -1.8523
# 5 -0.2245 7.8279 -8.4785 -1.6625 27.9283 1.6138
# 6 1.5028 17.2653 -5.4469 -1.8523 1.6138 41.2273
#
#
#
# Elastic Compliance Matrix: (Units=1/GPa)
#
#
# Indices 1 2 3 4 5 6 
#
# 1 0.027945 -0.020958 -0.000282 0.005310 0.005883 0.007729
# 2 -0.020958 0.036964 0.000916 -0.009674 -0.009981 -0.014639
# 3 -0.000282 0.000916 0.010936 -0.003117 0.002828 0.000821
# 4 0.005310 -0.009674 -0.003117 0.045155 0.004189 0.005311
# 5 0.005883 -0.009981 0.002828 0.004189 0.039587 0.002978
# 6 0.007729 -0.014639 0.000821 0.005311 0.002978 0.030335
#
#
# Mechanical properties :
#
#
# Convention : Reuss Voigt Hill
#
# Bulk Modulus (GPa) = 28.41218 30.45467 29.43343
# Shear Modulus (GPa) = 20.55063 31.17413 25.86238
#
# Velocity S-wave (km/s) = 3.24764 3.99994 3.64326
# Velocity P-wave (km/s) = 5.35209 6.07971 5.72747
#
# Compressibility (1/GPa) = 0.03519617
#
# Stress axis : x y z
#
# Youngs Moduli (GPa) = 35.78516 27.05350 91.44077
#
# Poissons Ratio (x) = 0.56700 0.02578
# Poissons Ratio (y) = 0.75000 -0.08378
# Poissons Ratio (z) = 0.01009 -0.02479
#
# Static dielectric constant tensor:
#      x y z
#    x 1.729150 0.098000 0.017580 
#    y 0.098000 1.771010 -0.006980 
#    z 0.017580 -0.006980 1.664570 
# 
# From -- ./inp_files/227544.got.cif
#   From: 2010.05.17/outbox.cif.g08.bks.cpg/sg2_114_cif.got.tgz:227544.got - 2010.06.03 11:33:40.
