data_PCOD9054518
_publ_section_title
;
Structure prediction by ZEFSAII (Michael W. Deem and Ramdas Pophale) SiO2 
 PCOD9054518
Probable space group: P -1
;
_chemical_formula_sum "Si O2"
_cell_formula_units_Z 16
_cell_length_a 9.177656
_cell_length_b 11.022017
_cell_length_c 20.741524
_cell_angle_alpha 141.641314
_cell_angle_beta 149.574464
_cell_angle_gamma 39.268372
_cell_volume 626.487900
_symmetry_space_group_name_H-M "P -1"
_symmetry_group_IT_number 2
_symmetry_cell_setting 'triclinic'
loop_
_space_group_symop_operation_xyz
x,y,z
-x,-y,-z
loop_
_atom_site_type_symbol
_atom_site_label
_atom_site_fract_x
_atom_site_fract_y
_atom_site_fract_z
Si Si1 0.433715 0.419599 0.872376
Si Si2 0.705019 0.315998 0.186886
Si Si3 0.253034 0.828321 0.720102
Si Si4 0.165547 0.383303 0.216475
Si Si5 0.297656 0.921361 0.538115
Si Si6 0.721637 0.711149 0.410706
Si Si7 0.808076 0.945493 0.823768
Si Si8 0.875724 0.271248 0.732949
O O1 0.503503 0.537550 0.885876
O O2 0.064035 0.476959 0.759227
O O3 0.617226 0.181351 0.845561
O O4 0.500000 0.500000 0.000000
O O5 0.610370 0.231217 0.181583
O O6 0.865722 0.480720 0.343660
O O7 0.905150 0.122640 0.141819
O O8 0.474373 0.696601 0.694763
O O9 0.938772 0.774761 0.570543
O O10 0.159107 0.072493 0.773526
O O11 0.120828 0.163496 0.125013
O O12 0.057093 0.516686 0.165627
O O13 0.331217 0.116443 0.592398
O O14 0.579844 0.836269 0.657353
O O15 0.253290 0.769691 0.403064
O O16 0.000000 0.000000 0.500000
O O17 0.397509 0.715975 0.317594
#
# Coordination Sequence:
#
# PCOD9054518 Si02
#       8
#     2   2   2   2   2   2   2   2
#     4  11  26  50  71  90 122 165 220 287 339 383
#     4  11  23  38  68  95 122 169 220 260 321 391
#     4  11  22  38  62  98 137 176 211 259 306 390
#     4  11  24  40  65  96 130 173 215 261 328 383
#     4  11  21  35  59  91 135 179 220 253 306 374
#     4  11  21  39  59  95 142 183 213 249 317 383
#     4  11  23  41  63  92 127 163 220 271 318 387
#     4  11  23  38  60  94 146 182 207 253 312 386
#
# _framework density 25.539200999999998
#
# number of rings (size 3 to 8) (size 9 to 14) (size 15 to 20)
#    0.000    1.000    2.500    6.375    3.500    2.500 
#    0.000    0.625    0.000    2.250    0.000    0.000 
#    0.000    0.000    0.000    0.000    0.000    0.000 
#
# Total GULP energy -89321.079503 kJ/mol
# GULP energy per Si atom -5582.567469 kJ/mol
# Density = 2.548107 g / cm^3
# Si number density = 25.539201 Si / 1000 Ang^3
#
#
#
# Elastic Constant Matrix: (Units=GPa)
#
#
# Indices 1 2 3 4 5 6 
#
# 1 144.1355 66.0216 24.7365 -3.1550 -13.7536 8.9668
# 2 66.0216 207.2816 27.4017 13.4225 -5.9867 9.1713
# 3 24.7365 27.4017 42.1459 -5.0765 -11.7123 15.4083
# 4 -3.1550 13.4225 -5.0765 35.1497 -1.5014 -8.4141
# 5 -13.7536 -5.9867 -11.7123 -1.5014 24.5153 -5.1905
# 6 8.9668 9.1713 15.4083 -8.4141 -5.1905 55.3286
#
#
#
# Elastic Compliance Matrix: (Units=1/GPa)
#
#
# Indices 1 2 3 4 5 6 
#
# 1 0.008855 -0.002500 -0.002557 0.001578 0.003283 0.000239
# 2 -0.002500 0.006237 -0.003333 -0.003248 -0.001747 -0.000358
# 3 -0.002557 -0.003333 0.033961 0.004936 0.012896 -0.006530
# 4 0.001578 -0.003248 0.004936 0.031785 0.005294 0.004239
# 5 0.003283 -0.001747 0.012896 0.005294 0.049024 0.001570
# 6 0.000239 -0.000358 -0.006530 0.004239 0.001570 0.020705
#
#
# Mechanical properties :
#
#
# Convention : Reuss Voigt Hill
#
# Bulk Modulus (GPa) = 30.98657 69.98696 50.48676
# Shear Modulus (GPa) = 28.07335 41.35893 34.71614
#
# Velocity S-wave (km/s) = 3.31905 4.02858 3.69091
# Velocity P-wave (km/s) = 5.18145 7.00732 6.16238
#
# Compressibility (1/GPa) = 0.03227205
#
# Stress axis : x y z
#
# Youngs Moduli (GPa) = 112.93183 160.33051 29.44583
#
# Poissons Ratio (x) = 0.40088 0.07528
# Poissons Ratio (y) = 0.28237 0.09815
# Poissons Ratio (z) = 0.28872 0.53444
#
# Static dielectric constant tensor:
#      x y z
#    x 1.990020 0.018460 0.017470 
#    y 0.018460 2.013160 0.018660 
#    z 0.017470 0.018660 2.154350 
# 
# From -- ./inp_files/399033.got.cif
#   From: 2010.05.17/outbox.cif.g08.bks.cpg/sg2_200_cif.got.tgz:399033.got - 2010.06.03 11:33:40.
