data_PCOD9054292
_publ_section_title
;
Structure prediction by ZEFSAII (Michael W. Deem and Ramdas Pophale) SiO2 
 PCOD9054292
Probable space group: P -1
;
_chemical_formula_sum "Si O2"
_cell_formula_units_Z 14
_cell_length_a 17.019039
_cell_length_b 10.321458
_cell_length_c 9.479110
_cell_angle_alpha 135.978779
_cell_angle_beta 43.308302
_cell_angle_gamma 148.036877
_cell_volume 580.404000
_symmetry_space_group_name_H-M "P -1"
_symmetry_group_IT_number 2
_symmetry_cell_setting 'triclinic'
loop_
_space_group_symop_operation_xyz
x,y,z
-x,-y,-z
loop_
_atom_site_type_symbol
_atom_site_label
_atom_site_fract_x
_atom_site_fract_y
_atom_site_fract_z
Si Si1 0.974339 0.303548 0.183907
Si Si2 0.440272 0.073071 0.257936
Si Si3 0.886565 0.138273 0.478432
Si Si4 0.853541 0.741452 0.591901
Si Si5 0.578886 0.212125 0.685563
Si Si6 0.216751 0.519372 0.811617
Si Si7 0.250546 0.965349 0.998889
O O1 0.915343 0.141631 0.276659
O O2 0.034379 0.575413 0.360335
O O3 0.120582 0.374728 0.965674
O O4 0.837021 0.161436 0.135743
O O5 0.297287 0.050361 0.392243
O O6 0.373885 0.872177 0.315092
O O7 0.602840 0.344150 0.308644
O O8 0.500000 0.000000 0.000000
O O9 0.986872 0.105073 0.410523
O O10 0.720333 0.488630 0.658893
O O11 0.856551 0.641273 0.360572
O O12 0.806348 0.902803 0.764576
O O13 0.500000 0.000000 0.500000
O O14 0.436584 0.178586 0.901927
O O15 0.216385 0.744060 0.963200
#
# Coordination Sequence:
#
# PCOD9054292 Si02
#       7
#     2   2   2   2   2   2   2
#     4  11  22  42  69 101 139 177 229 286 338 410
#     4  11  22  40  72 100 130 181 229 280 345 409
#     4  11  23  41  71 102 136 182 228 278 357 405
#     4  12  25  42  72 103 138 183 229 287 340 412
#     4  11  20  42  69 101 135 180 226 283 341 401
#     4  11  24  45  72  99 139 181 234 283 339 404
#     4  11  24  41  71 103 139 180 236 280 341 407
#
# _framework density 24.121129
#
# number of rings (size 3 to 8) (size 9 to 14) (size 15 to 20)
#    0.000    0.857    5.714    3.429    0.000    1.143 
#    0.000    0.000    3.143    4.286    0.000    0.000 
#    0.000    0.000    0.000    0.000    0.000    0.000 
#
# Total GULP energy -78494.985281 kJ/mol
# GULP energy per Si atom -5606.784663 kJ/mol
# Density = 2.406623 g / cm^3
# Si number density = 24.121129 Si / 1000 Ang^3
#
#
#
# Elastic Constant Matrix: (Units=GPa)
#
#
# Indices 1 2 3 4 5 6 
#
# 1 113.5969 59.7466 54.3894 -11.6028 -14.1932 19.5480
# 2 59.7466 110.0964 41.8107 -32.5336 -10.8900 10.1725
# 3 54.3894 41.8107 123.7164 -22.7691 1.3169 -16.1473
# 4 -11.6028 -32.5336 -22.7691 41.7052 3.2977 -6.8053
# 5 -14.1932 -10.8900 1.3169 3.2977 48.7875 -6.9937
# 6 19.5480 10.1725 -16.1473 -6.8053 -6.9937 31.0377
#
#
#
# Elastic Compliance Matrix: (Units=1/GPa)
#
#
# Indices 1 2 3 4 5 6 
#
# 1 0.019990 -0.007940 -0.009941 -0.008962 0.002545 -0.016551
# 2 -0.007940 0.016430 0.000280 0.011079 0.000946 0.002404
# 3 -0.009941 0.000280 0.016154 0.009039 -0.001554 0.016205
# 4 -0.008962 0.011079 0.009039 0.037535 -0.000799 0.014766
# 5 0.002545 0.000946 -0.001554 -0.000799 0.021834 0.002024
# 6 -0.016551 0.002404 0.016205 0.014766 0.002024 0.053980
#
#
# Mechanical properties :
#
#
# Convention : Reuss Voigt Hill
#
# Bulk Modulus (GPa) = 57.56208 73.25590 65.40899
# Shear Modulus (GPa) = 24.16452 37.07029 30.61741
#
# Velocity S-wave (km/s) = 3.16855 3.92451 3.56662
# Velocity P-wave (km/s) = 6.10753 7.13944 6.64355
#
# Compressibility (1/GPa) = 0.01737255
#
# Stress axis : x y z
#
# Youngs Moduli (GPa) = 50.02616 60.86285 61.90400
#
# Poissons Ratio (x) = 0.48323 0.61541
# Poissons Ratio (y) = 0.39719 -0.01736
# Poissons Ratio (z) = 0.49733 -0.01707
#
# Static dielectric constant tensor:
#      x y z
#    x 1.928180 0.011710 -0.007790 
#    y 0.011710 1.924450 -0.016920 
#    z -0.007790 -0.016920 1.922300 
# 
# From -- ./inp_files/333699.got.cif
#   From: 2010.05.17/outbox.cif.g08.bks.cpg/sg2_167_cif.got.tgz:333699.got - 2010.06.03 11:33:40.
