data_PCOD9054217
_publ_section_title
;
Structure prediction by ZEFSAII (Michael W. Deem and Ramdas Pophale) SiO2 
 PCOD9054217
Probable space group: P -1
;
_chemical_formula_sum "Si O2"
_cell_formula_units_Z 16
_cell_length_a 8.861790
_cell_length_b 18.078882
_cell_length_c 9.049476
_cell_angle_alpha 139.344172
_cell_angle_beta 102.529929
_cell_angle_gamma 57.902647
_cell_volume 753.309079
_symmetry_space_group_name_H-M "P -1"
_symmetry_group_IT_number 2
_symmetry_cell_setting 'triclinic'
loop_
_space_group_symop_operation_xyz
x,y,z
-x,-y,-z
loop_
_atom_site_type_symbol
_atom_site_label
_atom_site_fract_x
_atom_site_fract_y
_atom_site_fract_z
Si Si1 0.054926 0.022862 0.385748
Si Si2 0.380745 0.141955 0.099425
Si Si3 0.990164 0.839761 0.907774
Si Si4 0.860643 0.280975 0.560595
Si Si5 0.635060 0.416482 0.262691
Si Si6 0.499761 0.876013 0.239494
Si Si7 0.341500 0.402195 0.990320
Si Si8 0.563139 0.645689 0.405284
O O1 0.971371 0.183290 0.576642
O O2 0.281762 0.927295 0.279059
O O3 0.000000 0.000000 0.500000
O O4 0.961479 0.978234 0.175681
O O5 0.409072 0.244754 0.351225
O O6 0.172622 0.177315 0.105536
O O7 0.448911 0.134191 0.936362
O O8 0.500000 0.000000 0.000000
O O9 0.023781 0.811281 0.697282
O O10 0.183155 0.719891 0.842738
O O11 0.651657 0.311868 0.564371
O O12 0.825265 0.432528 0.773704
O O13 0.500000 0.500000 0.500000
O O14 0.683699 0.508514 0.322657
O O15 0.520799 0.387249 0.081048
O O16 0.645339 0.727117 0.125917
O O17 0.500000 0.000000 0.500000
O O18 0.375501 0.378053 0.787046
#
# Coordination Sequence:
#
# PCOD9054217 Si02
#       8
#     2   2   2   2   2   2   2   2
#     4  12  25  42  70 102 133 172 231 281 329 406
#     4  12  26  45  66  96 138 182 223 276 342 403
#     4  12  24  42  70  99 133 176 231 272 338 402
#     4  11  23  42  69 100 131 176 228 277 331 401
#     4  11  20  41  70 102 131 172 224 285 333 402
#     4  12  25  47  69  96 138 178 221 281 345 402
#     4  11  23  43  71  99 132 176 225 275 345 398
#     4  11  23  41  69  96 139 175 220 276 344 396
#
# _framework density 21.239623000000002
#
# number of rings (size 3 to 8) (size 9 to 14) (size 15 to 20)
#    0.000    0.500    3.750    7.125    1.750    0.500 
#    0.000    1.250    0.000    0.000    0.000    0.000 
#    0.000    0.000    0.000    0.000    0.000    0.000 
#
# Total GULP energy -89469.668249 kJ/mol
# GULP energy per Si atom -5591.854266 kJ/mol
# Density = 2.119128 g / cm^3
# Si number density = 21.239623 Si / 1000 Ang^3
#
#
#
# Elastic Constant Matrix: (Units=GPa)
#
#
# Indices 1 2 3 4 5 6 
#
# 1 70.6360 24.3804 43.6385 -11.4057 -13.5160 18.7823
# 2 24.3804 147.4433 52.0478 8.8408 -1.0061 36.8965
# 3 43.6385 52.0478 138.4176 -16.6955 20.5039 24.8719
# 4 -11.4057 8.8408 -16.6955 54.4830 10.3944 -4.3316
# 5 -13.5160 -1.0061 20.5039 10.3944 37.7064 2.5846
# 6 18.7823 36.8965 24.8719 -4.3316 2.5846 37.1062
#
#
#
# Elastic Compliance Matrix: (Units=1/GPa)
#
#
# Indices 1 2 3 4 5 6 
#
# 1 0.024017 0.001590 -0.008877 -0.001427 0.014486 -0.008963
# 2 0.001590 0.010609 -0.004027 -0.004309 0.004881 -0.009498
# 3 -0.008877 -0.004027 0.013916 0.005481 -0.012414 0.000674
# 4 -0.001427 -0.004309 0.005481 0.022755 -0.010202 0.004700
# 5 0.014486 0.004881 -0.012414 -0.010202 0.041953 -0.007979
# 6 -0.008963 -0.009498 0.000674 0.004700 -0.007979 0.041584
#
#
# Mechanical properties :
#
#
# Convention : Reuss Voigt Hill
#
# Bulk Modulus (GPa) = 38.58804 66.29229 52.44016
# Shear Modulus (GPa) = 26.86719 41.62112 34.24415
#
# Velocity S-wave (km/s) = 3.56048 4.43154 4.01967
# Velocity P-wave (km/s) = 5.92538 7.58051 6.80346
#
# Compressibility (1/GPa) = 0.02591477
#
# Stress axis : x y z
#
# Youngs Moduli (GPa) = 41.63644 94.25681 71.85891
#
# Poissons Ratio (x) = -0.14982 0.63789
# Poissons Ratio (y) = -0.06618 0.28935
# Poissons Ratio (z) = 0.36961 0.37953
#
# Static dielectric constant tensor:
#      x y z
#    x 1.725460 -0.014120 0.002560 
#    y -0.014120 1.720560 -0.039830 
#    z 0.002560 -0.039830 1.560990 
# 
# From -- ./inp_files/218922.got.cif
#   From: 2010.05.17/outbox.cif.g08.bks.cpg/sg2_110_cif.got.tgz:218922.got - 2010.06.03 11:33:40.
