data_PCOD9054878
_publ_section_title
;
Structure prediction by ZEFSAII (Michael W. Deem and Ramdas Pophale) SiO2 
 PCOD9054878
Probable space group: P -1
;
_chemical_formula_sum "Si O2"
_cell_formula_units_Z 16
_cell_length_a 24.721443
_cell_length_b 14.684671
_cell_length_c 15.083593
_cell_angle_alpha 153.411167
_cell_angle_beta 160.394817
_cell_angle_gamma 28.179529
_cell_volume 794.033743
_symmetry_space_group_name_H-M "P -1"
_symmetry_group_IT_number 2
_symmetry_cell_setting 'triclinic'
loop_
_space_group_symop_operation_xyz
x,y,z
-x,-y,-z
loop_
_atom_site_type_symbol
_atom_site_label
_atom_site_fract_x
_atom_site_fract_y
_atom_site_fract_z
Si Si1 0.585699 0.940386 0.834480
Si Si2 0.415078 0.654452 0.424830
Si Si3 0.756297 0.011306 0.436542
Si Si4 0.525903 0.749461 0.930101
Si Si5 0.850767 0.688410 0.899428
Si Si6 0.101242 0.913855 0.788962
Si Si7 0.632268 0.962491 0.589090
Si Si8 0.315202 0.485630 0.668451
O O1 0.534412 0.801383 0.711039
O O2 0.760855 0.819499 0.959307
O O3 0.551992 0.170802 0.025634
O O4 0.461824 0.959993 0.578161
O O5 0.500000 0.500000 0.500000
O O6 0.246025 0.809996 0.336632
O O7 0.416442 0.499712 0.210793
O O8 0.682481 0.837387 0.219459
O O9 0.620797 0.137355 0.265990
O O10 0.925077 0.918637 0.563983
O O11 0.725718 0.589495 0.559412
O O12 0.000000 0.500000 0.000000
O O13 0.908059 0.865984 0.085011
O O14 0.185448 0.709634 0.682464
O O15 0.232341 0.915894 0.071335
O O16 0.712008 0.711837 0.489130
O O17 0.500000 0.000000 0.500000
O O18 0.500000 0.500000 0.000000
#
# Coordination Sequence:
#
# PCOD9054878 Si02
#       8
#     2   2   2   2   2   2   2   2
#     4  11  21  39  62  90 127 163 208 255 315 386
#     4   9  20  38  63  86 118 166 204 252 318 375
#     4   9  20  39  59  89 119 157 209 259 312 368
#     4   9  20  37  61  87 120 159 208 257 305 381
#     4  11  26  38  56  99 139 159 204 273 323 378
#     4  11  23  40  64  91 127 170 211 260 316 383
#     4  11  21  43  59  89 127 168 214 261 305 379
#     4  11  21  41  65  83 124 183 216 245 312 388
#
# _framework density 20.150276999999999
#
# number of rings (size 3 to 8) (size 9 to 14) (size 15 to 20)
#    0.000    1.750    3.750    0.750    5.250    5.500 
#    0.000    2.500    0.000    4.500    0.000    0.000 
#    0.000    0.000    0.000    0.000    0.000    0.000 
#
# Total GULP energy -89168.832468 kJ/mol
# GULP energy per Si atom -5573.052029 kJ/mol
# Density = 2.010441 g / cm^3
# Si number density = 20.150277 Si / 1000 Ang^3
#
#
#
# Elastic Constant Matrix: (Units=GPa)
#
#
# Indices 1 2 3 4 5 6 
#
# 1 65.3786 29.5399 23.5921 -7.2657 -3.2455 -35.0331
# 2 29.5399 107.3245 30.7822 7.4041 -4.2909 -33.0218
# 3 23.5921 30.7822 56.6931 6.0064 0.8367 -25.2352
# 4 -7.2657 7.4041 6.0064 29.5419 -7.2014 -10.2433
# 5 -3.2455 -4.2909 0.8367 -7.2014 27.9059 -3.1077
# 6 -35.0331 -33.0218 -25.2352 -10.2433 -3.1077 43.4721
#
#
#
# Elastic Compliance Matrix: (Units=1/GPa)
#
#
# Indices 1 2 3 4 5 6 
#
# 1 0.041870 0.000441 -0.003015 0.028936 0.016990 0.040360
# 2 0.000441 0.012931 -0.003528 0.001462 0.003494 0.008725
# 3 -0.003015 -0.003528 0.024967 -0.002189 -0.001229 0.008781
# 4 0.028936 0.001462 -0.002189 0.060337 0.023576 0.039061
# 5 0.016990 0.003494 -0.001229 0.023576 0.047204 0.024562
# 6 0.040360 0.008725 0.008781 0.039061 0.024562 0.078213
#
#
# Mechanical properties :
#
#
# Convention : Reuss Voigt Hill
#
# Bulk Modulus (GPa) = 14.80023 44.13608 29.46815
# Shear Modulus (GPa) = 16.65299 29.88278 23.26788
#
# Velocity S-wave (km/s) = 2.87790 3.85515 3.40180
# Velocity P-wave (km/s) = 4.28999 6.46276 5.48503
#
# Compressibility (1/GPa) = 0.06756653
#
# Stress axis : x y z
#
# Youngs Moduli (GPa) = 23.88341 77.33265 40.05258
#
# Poissons Ratio (x) = -0.03414 0.12075
# Poissons Ratio (y) = -0.01054 0.14129
# Poissons Ratio (z) = 0.07200 0.27281
#
# Static dielectric constant tensor:
#      x y z
#    x 1.761890 -0.046000 -0.046710 
#    y -0.046000 1.749720 0.030340 
#    z -0.046710 0.030340 1.773120 
# 
# From -- ./inp_files/543088.got.cif
#   From: 2010.05.17/outbox.cif.g08.bks.cpg/sg2_272_cif.got.tgz:543088.got - 2010.06.03 11:33:40.
