data_PCOD9054670
_publ_section_title
;
Structure prediction by ZEFSAII (Michael W. Deem and Ramdas Pophale) SiO2 
 PCOD9054670
Probable space group: P -1
;
_chemical_formula_sum "Si O2"
_cell_formula_units_Z 16
_cell_length_a 21.001926
_cell_length_b 9.934586
_cell_length_c 9.267676
_cell_angle_alpha 29.718906
_cell_angle_beta 56.187738
_cell_angle_gamma 54.056105
_cell_volume 770.807615
_symmetry_space_group_name_H-M "P -1"
_symmetry_group_IT_number 2
_symmetry_cell_setting 'triclinic'
loop_
_space_group_symop_operation_xyz
x,y,z
-x,-y,-z
loop_
_atom_site_type_symbol
_atom_site_label
_atom_site_fract_x
_atom_site_fract_y
_atom_site_fract_z
Si Si1 0.959377 0.785166 0.665952
Si Si2 0.691852 0.699485 0.991073
Si Si3 0.472172 0.757804 0.685359
Si Si4 0.063110 0.429116 0.615302
Si Si5 0.859624 0.189035 0.981720
Si Si6 0.688486 0.174542 0.318355
Si Si7 0.537347 0.736266 0.300295
Si Si8 0.131266 0.656867 0.849966
O O1 0.020972 0.617381 0.625794
O O2 0.883063 0.026250 0.483084
O O3 0.920577 0.527068 0.997167
O O4 0.000000 0.000000 0.500000
O O5 0.691777 0.975497 0.640306
O O6 0.663433 0.494410 0.105995
O O7 0.630384 0.719798 0.179722
O O8 0.779532 0.530952 0.084322
O O9 0.378273 0.851303 0.685459
O O10 0.512297 0.731810 0.501362
O O11 0.500000 0.000000 0.500000
O O12 0.500000 0.500000 0.000000
O O13 0.000000 0.500000 0.500000
O O14 0.089323 0.091928 0.898536
O O15 0.138040 0.548368 0.365624
O O16 0.775006 0.136525 0.175912
O O17 0.892087 0.274745 0.015296
O O18 0.500000 0.500000 0.500000
O O19 0.500000 0.000000 0.000000
#
# Coordination Sequence:
#
# PCOD9054670 Si02
#       8
#     2   2   2   2   2   2   2   2
#     4  12  25  40  59  88 128 170 205 258 331 399
#     4  11  21  39  68  96 124 163 223 285 312 375
#     4  12  25  42  65  98 140 176 210 267 343 402
#     4  12  21  38  62  92 122 157 218 268 315 381
#     4  11  21  37  64  95 119 159 217 276 319 372
#     4  11  22  40  64  96 132 166 213 271 336 384
#     4  12  22  42  68 100 128 171 232 271 312 391
#     4  11  21  39  62  92 123 161 213 270 330 373
#
# _framework density 20.757448
#
# number of rings (size 3 to 8) (size 9 to 14) (size 15 to 20)
#    0.000    0.500    5.000    6.000    0.000    0.000 
#    0.000    3.750    0.000    0.000    0.000    0.000 
#    0.000    0.000    0.000    0.000    0.000    0.000 
#
# Total GULP energy -89166.831543 kJ/mol
# GULP energy per Si atom -5572.926971 kJ/mol
# Density = 2.071020 g / cm^3
# Si number density = 20.757448 Si / 1000 Ang^3
#
#
#
# Elastic Constant Matrix: (Units=GPa)
#
#
# Indices 1 2 3 4 5 6 
#
# 1 88.2275 47.0345 28.7238 4.3300 -21.0719 8.1881
# 2 47.0345 112.7545 46.0921 -2.1529 -7.8212 14.1603
# 3 28.7238 46.0921 150.5543 -6.3485 -4.7606 -2.3395
# 4 4.3300 -2.1529 -6.3485 35.6413 1.5239 -10.0852
# 5 -21.0719 -7.8212 -4.7606 1.5239 37.3619 -4.1532
# 6 8.1881 14.1603 -2.3395 -10.0852 -4.1532 37.8816
#
#
#
# Elastic Compliance Matrix: (Units=1/GPa)
#
#
# Indices 1 2 3 4 5 6 
#
# 1 0.017237 -0.005910 -0.001391 -0.003514 0.008269 -0.001631
# 2 -0.005910 0.012926 -0.002939 -0.000070 -0.001434 -0.003912
# 3 -0.001391 -0.002939 0.007927 0.002098 -0.000206 0.002425
# 4 -0.003514 -0.000070 0.002098 0.031510 -0.002005 0.009085
# 5 0.008269 -0.001434 -0.000206 -0.002005 0.031367 0.001641
# 6 -0.001631 -0.003912 0.002425 0.009085 0.001641 0.030961
#
#
# Mechanical properties :
#
#
# Convention : Reuss Voigt Hill
#
# Bulk Modulus (GPa) = 56.78788 66.13747 61.46267
# Shear Modulus (GPa) = 31.59007 37.48935 34.53971
#
# Velocity S-wave (km/s) = 3.90534 4.25440 4.08360
# Velocity P-wave (km/s) = 6.91034 7.48762 7.20476
#
# Compressibility (1/GPa) = 0.01760939
#
# Stress axis : x y z
#
# Youngs Moduli (GPa) = 58.01555 77.36387 126.15242
#
# Poissons Ratio (x) = 0.45723 0.17551
# Poissons Ratio (y) = 0.34288 0.37073
# Poissons Ratio (z) = 0.08071 0.22736
#
# Static dielectric constant tensor:
#      x y z
#    x 1.790490 -0.034760 -0.010090 
#    y -0.034760 1.790320 0.005420 
#    z -0.010090 0.005420 1.751520 
# 
# From -- ./inp_files/228020.got.cif
#   From: 2010.05.17/outbox.cif.g08.bks.cpg/sg2_115_cif.got.tgz:228020.got - 2010.06.03 11:33:40.
