data_PCOD9054735
_publ_section_title
;
Structure prediction by ZEFSAII (Michael W. Deem and Ramdas Pophale) SiO2 
 PCOD9054735
Probable space group: P -1
;
_chemical_formula_sum "Si O2"
_cell_formula_units_Z 16
_cell_length_a 11.597157
_cell_length_b 11.111865
_cell_length_c 9.707517
_cell_angle_alpha 119.110671
_cell_angle_beta 89.644148
_cell_angle_gamma 124.019971
_cell_volume 842.564796
_symmetry_space_group_name_H-M "P -1"
_symmetry_group_IT_number 2
_symmetry_cell_setting 'triclinic'
loop_
_space_group_symop_operation_xyz
x,y,z
-x,-y,-z
loop_
_atom_site_type_symbol
_atom_site_label
_atom_site_fract_x
_atom_site_fract_y
_atom_site_fract_z
Si Si1 0.170839 0.752698 0.888779
Si Si2 0.651033 0.721519 0.477868
Si Si3 0.946843 0.828966 0.490338
Si Si4 0.661052 0.542086 0.632561
Si Si5 0.109027 0.664605 0.346333
Si Si6 0.665993 0.241882 0.363109
Si Si7 0.327959 0.943563 0.280231
Si Si8 0.983486 0.851027 0.829477
O O1 0.289018 0.768012 0.795958
O O2 0.023416 0.545500 0.796901
O O3 0.112211 0.842621 0.860011
O O4 0.246501 0.856464 0.087454
O O5 0.768796 0.706682 0.403509
O O6 0.646793 0.666196 0.606208
O O7 0.485229 0.578134 0.339932
O O8 0.693214 0.914315 0.587668
O O9 0.976789 0.870873 0.676701
O O10 0.024177 0.746561 0.401686
O O11 0.000000 0.000000 0.500000
O O12 0.654418 0.398314 0.461582
O O13 0.822130 0.665682 0.768151
O O14 0.195787 0.697111 0.505748
O O15 0.241612 0.779681 0.297182
O O16 0.506935 0.062689 0.320449
O O17 0.000000 0.000000 0.000000
#
# Coordination Sequence:
#
# PCOD9054735 Si02
#       8
#     2   2   2   2   2   2   2   2
#     4  12  22  39  61  94 122 154 205 253 298 353
#     4   9  18  35  58  84 114 151 200 238 292 349
#     4  11  21  38  61  87 116 155 201 242 292 359
#     4   9  18  35  59  86 111 151 199 245 287 351
#     4  12  23  40  62  89 123 163 203 247 301 361
#     4  11  22  41  63  88 118 162 206 249 296 361
#     4  11  24  39  60  90 127 161 194 251 312 355
#     4  11  22  37  62  88 119 153 198 248 299 353
#
# _framework density 18.989636999999998
#
# number of rings (size 3 to 8) (size 9 to 14) (size 15 to 20)
#    0.000    1.250    3.750    4.500    0.000    0.000 
#    0.000    1.250    0.000    0.750    0.000    0.000 
#    0.000    0.000    0.000    0.000    0.000    0.000 
#
# Total GULP energy -89219.666433 kJ/mol
# GULP energy per Si atom -5576.229152 kJ/mol
# Density = 1.894642 g / cm^3
# Si number density = 18.989637 Si / 1000 Ang^3
#
#
#
# Elastic Constant Matrix: (Units=GPa)
#
#
# Indices 1 2 3 4 5 6 
#
# 1 81.2584 15.7301 9.1082 9.7640 -4.9163 6.8062
# 2 15.7301 80.0958 15.7795 7.5524 -10.3347 12.3202
# 3 9.1082 15.7795 46.0834 7.2492 4.1383 9.9597
# 4 9.7640 7.5524 7.2492 20.2112 -2.5697 4.2328
# 5 -4.9163 -10.3347 4.1383 -2.5697 21.2355 2.9075
# 6 6.8062 12.3202 9.9597 4.2328 2.9075 37.2635
#
#
#
# Elastic Compliance Matrix: (Units=1/GPa)
#
#
# Indices 1 2 3 4 5 6 
#
# 1 0.013578 -0.001448 -0.001336 -0.004988 0.002267 -0.001255
# 2 -0.001448 0.015570 -0.004686 -0.001488 0.008541 -0.004128
# 3 -0.001336 -0.004686 0.026248 -0.007255 -0.008067 -0.003769
# 4 -0.004988 -0.001488 -0.007255 0.056683 0.006892 -0.003634
# 5 0.002267 0.008541 -0.008067 0.006892 0.055022 -0.006158
# 6 -0.001255 -0.004128 -0.003769 -0.003634 -0.006158 0.030331
#
#
# Mechanical properties :
#
#
# Convention : Reuss Voigt Hill
#
# Bulk Modulus (GPa) = 24.71703 32.07482 28.39593
# Shear Modulus (GPa) = 22.13807 26.86337 24.50072
#
# Velocity S-wave (km/s) = 3.41808 3.76524 3.59585
# Velocity P-wave (km/s) = 5.34996 5.98582 5.67680
#
# Compressibility (1/GPa) = 0.04045793
#
# Stress axis : x y z
#
# Youngs Moduli (GPa) = 73.64830 64.22713 38.09755
#
# Poissons Ratio (x) = 0.09297 0.05089
# Poissons Ratio (y) = 0.10661 0.17852
# Poissons Ratio (z) = 0.09837 0.30096
#
# Static dielectric constant tensor:
#      x y z
#    x 1.688860 0.045600 -0.006550 
#    y 0.045600 1.727370 0.004820 
#    z -0.006550 0.004820 1.630220 
# 
# From -- ./inp_files/208332.got.cif
#   From: 2010.05.17/outbox.cif.g08.bks.cpg/sg2_105_cif.got.tgz:208332.got - 2010.06.03 11:33:40.
