data_PCOD9054506
_publ_section_title
;
Structure prediction by ZEFSAII (Michael W. Deem and Ramdas Pophale) SiO2 
 PCOD9054506
Probable space group: P -1
;
_chemical_formula_sum "Si O2"
_cell_formula_units_Z 16
_cell_length_a 15.989681
_cell_length_b 9.884036
_cell_length_c 5.357950
_cell_angle_alpha 85.535574
_cell_angle_beta 73.184192
_cell_angle_gamma 109.393560
_cell_volume 750.268633
_symmetry_space_group_name_H-M "P -1"
_symmetry_group_IT_number 2
_symmetry_cell_setting 'triclinic'
loop_
_space_group_symop_operation_xyz
x,y,z
-x,-y,-z
loop_
_atom_site_type_symbol
_atom_site_label
_atom_site_fract_x
_atom_site_fract_y
_atom_site_fract_z
Si Si1 0.535358 0.400533 0.310325
Si Si2 0.289930 0.794348 0.230987
Si Si3 0.683278 0.923636 0.066517
Si Si4 0.717032 0.529537 0.829252
Si Si5 0.471927 0.865055 0.357731
Si Si6 0.905925 0.553378 0.787917
Si Si7 0.108515 0.633735 0.677557
Si Si8 0.324083 0.235510 0.399089
O O1 0.500000 0.500000 0.500000
O O2 0.571876 0.289803 0.441478
O O3 0.438516 0.298858 0.277803
O O4 0.621387 0.506083 0.061912
O O5 0.289205 0.635601 0.184013
O O6 0.393440 0.876188 0.240942
O O7 0.205511 0.762562 0.505598
O O8 0.278719 0.900812 0.012865
O O9 0.569512 0.867613 0.164918
O O10 0.704963 0.861020 0.314178
O O11 0.713191 0.857846 0.805308
O O12 0.818035 0.604718 0.862196
O O13 0.710359 0.628300 0.589228
O O14 0.500000 0.000000 0.500000
O O15 0.903230 0.484697 0.521362
O O16 0.012142 0.663599 0.732096
O O17 0.888481 0.434135 0.043278
#
# Coordination Sequence:
#
# PCOD9054506 Si02
#       8
#     2   2   2   2   2   2   2   2
#     4  11  21  35  56  85 119 154 196 240 287 343
#     4  11  21  36  62  88 114 154 206 245 285 347
#     4  11  24  40  55  79 120 159 189 232 292 347
#     4  11  21  36  62  88 114 154 206 245 285 347
#     4  11  21  35  56  85 119 154 196 240 287 343
#     4   9  19  35  57  88 120 146 184 246 304 341
#     4   9  19  35  57  88 120 146 184 246 304 341
#     4  11  24  40  55  79 120 159 189 232 292 347
#
# _framework density 21.325697000000002
#
# number of rings (size 3 to 8) (size 9 to 14) (size 15 to 20)
#    0.000    1.500    0.000    6.750    0.000    6.000 
#    0.000    0.000    0.000    1.500    0.000    0.000 
#    0.000    1.000    0.000    0.000    0.000    0.250 
#
# Total GULP energy -89338.229367 kJ/mol
# GULP energy per Si atom -5583.639335 kJ/mol
# Density = 2.127716 g / cm^3
# Si number density = 21.325697 Si / 1000 Ang^3
#
#
#
# Elastic Constant Matrix: (Units=GPa)
#
#
# Indices 1 2 3 4 5 6 
#
# 1 72.9833 15.8700 32.0544 -13.7378 11.5884 -18.8270
# 2 15.8700 93.7157 49.0101 -4.5009 16.4504 -23.0256
# 3 32.0544 49.0101 112.0670 -13.3079 15.4229 -17.5057
# 4 -13.7378 -4.5009 -13.3079 36.3640 -1.4871 13.4029
# 5 11.5884 16.4504 15.4229 -1.4871 32.0753 -9.1119
# 6 -18.8270 -23.0256 -17.5057 13.4029 -9.1119 16.5591
#
#
#
# Elastic Compliance Matrix: (Units=1/GPa)
#
#
# Indices 1 2 3 4 5 6 
#
# 1 0.021908 0.006568 -0.004539 -0.004798 0.000103 0.033183
# 2 0.006568 0.022988 -0.006843 -0.013076 0.000800 0.043223
# 3 -0.004539 -0.006843 0.013203 0.004208 -0.002578 -0.005544
# 4 -0.004798 -0.013076 0.004208 0.048760 -0.009465 -0.063864
# 5 0.000103 0.000800 -0.002578 -0.009465 0.039448 0.027872
# 6 0.033183 0.043223 -0.005544 -0.063864 0.027872 0.219387
#
#
# Mechanical properties :
#
#
# Convention : Reuss Voigt Hill
#
# Bulk Modulus (GPa) = 20.63106 52.51500 36.57303
# Shear Modulus (GPa) = 12.77206 29.12176 20.94691
#
# Velocity S-wave (km/s) = 2.44991 3.69937 3.13747
# Velocity P-wave (km/s) = 4.20690 6.55178 5.50563
#
# Compressibility (1/GPa) = 0.04847061
#
# Stress axis : x y z
#
# Youngs Moduli (GPa) = 45.64607 43.50041 75.74063
#
# Poissons Ratio (x) = -0.28573 0.34381
# Poissons Ratio (y) = -0.29982 0.51832
# Poissons Ratio (z) = 0.20720 0.29769
#
# Static dielectric constant tensor:
#      x y z
#    x 1.817190 0.021060 -0.000230 
#    y 0.021060 1.804210 0.020750 
#    z -0.000230 0.020750 1.841330 
# 
# From -- ./inp_files/90046.got.cif
#   From: 2010.05.17/outbox.cif.g08.bks.cpg/sg2_46_cif.got.tgz:90046.got - 2010.06.03 11:33:40.
