data_PCOD9054716
_publ_section_title
;
Structure prediction by ZEFSAII (Michael W. Deem and Ramdas Pophale) SiO2 
 PCOD9054716
Probable space group: P -1
;
_chemical_formula_sum "Si O2"
_cell_formula_units_Z 16
_cell_length_a 17.620453
_cell_length_b 13.049278
_cell_length_c 8.132083
_cell_angle_alpha 122.945692
_cell_angle_beta 145.846025
_cell_angle_gamma 46.218960
_cell_volume 756.013327
_symmetry_space_group_name_H-M "P -1"
_symmetry_group_IT_number 2
_symmetry_cell_setting 'triclinic'
loop_
_space_group_symop_operation_xyz
x,y,z
-x,-y,-z
loop_
_atom_site_type_symbol
_atom_site_label
_atom_site_fract_x
_atom_site_fract_y
_atom_site_fract_z
Si Si1 0.413273 0.279114 0.371508
Si Si2 0.645163 0.581813 0.936659
Si Si3 0.533255 0.347315 0.979659
Si Si4 0.849182 0.709659 0.532251
Si Si5 0.046260 0.429776 0.845139
Si Si6 0.844352 0.095533 0.202824
Si Si7 0.367808 0.019327 0.409834
Si Si8 0.087586 0.717782 0.736470
O O1 0.428746 0.373773 0.338682
O O2 0.455422 0.306046 0.654236
O O3 0.532996 0.113236 0.404486
O O4 0.232270 0.322196 0.087564
O O5 0.533259 0.640579 0.946578
O O6 0.751882 0.654607 0.208057
O O7 0.758737 0.413024 0.018046
O O8 0.500000 0.500000 0.000000
O O9 0.716523 0.229689 0.196314
O O10 0.985932 0.566323 0.737790
O O11 0.938431 0.767692 0.631916
O O12 0.727266 0.828736 0.541517
O O13 0.953852 0.352104 0.553166
O O14 0.000000 0.500000 0.000000
O O15 0.881089 0.162136 0.168238
O O16 0.761268 0.007779 0.929240
O O17 0.000000 0.000000 0.500000
O O18 0.500000 0.000000 0.500000
#
# Coordination Sequence:
#
# PCOD9054716 Si02
#       8
#     2   2   2   2   2   2   2   2
#     4  11  23  41  68 103 130 177 233 279 348 404
#     4  11  21  44  70 102 138 175 234 291 342 403
#     4  11  24  44  67  97 136 183 230 287 340 407
#     4  11  22  40  68  98 137 177 223 286 339 409
#     4  11  21  37  70 101 126 177 229 277 340 400
#     4  11  27  45  67  99 141 184 224 280 355 413
#     4  11  26  46  67 100 144 181 232 283 341 427
#     4  11  22  43  66 101 144 165 229 294 332 413
#
# _framework density 21.163647000000001
#
# number of rings (size 3 to 8) (size 9 to 14) (size 15 to 20)
#    0.000    1.000    3.750    4.500    3.500    2.500 
#    0.000    0.000    0.000    0.000    0.000    0.000 
#    0.000    0.000    0.000    0.000    0.000    0.000 
#
# Total GULP energy -89437.734912 kJ/mol
# GULP energy per Si atom -5589.858432 kJ/mol
# Density = 2.111548 g / cm^3
# Si number density = 21.163647 Si / 1000 Ang^3
#
#
#
# Elastic Constant Matrix: (Units=GPa)
#
#
# Indices 1 2 3 4 5 6 
#
# 1 123.9976 12.7372 25.3821 -0.6296 10.8741 4.8877
# 2 12.7372 95.0928 40.8339 -11.4067 8.6255 -7.0696
# 3 25.3821 40.8339 87.2472 -19.1971 9.8169 4.3136
# 4 -0.6296 -11.4067 -19.1971 38.3138 -0.7995 6.5650
# 5 10.8741 8.6255 9.8169 -0.7995 28.8804 0.5357
# 6 4.8877 -7.0696 4.3136 6.5650 0.5357 37.4448
#
#
#
# Elastic Compliance Matrix: (Units=1/GPa)
#
#
# Indices 1 2 3 4 5 6 
#
# 1 0.008811 -0.000081 -0.002443 -0.001041 -0.002480 -0.000666
# 2 -0.000081 0.013670 -0.006239 0.000339 -0.001983 0.003279
# 3 -0.002443 -0.006239 0.017233 0.007381 -0.002795 -0.004098
# 4 -0.001041 0.000339 0.007381 0.030893 -0.001251 -0.006049
# 5 -0.002480 -0.001983 -0.002795 -0.001251 0.037067 -0.000040
# 6 -0.000666 0.003279 -0.004098 -0.006049 -0.000040 0.028945
#
#
# Mechanical properties :
#
#
# Convention : Reuss Voigt Hill
#
# Bulk Modulus (GPa) = 45.06437 51.58266 48.32352
# Shear Modulus (GPa) = 30.95168 36.08676 33.51922
#
# Velocity S-wave (km/s) = 3.82840 4.13380 3.98403
# Velocity P-wave (km/s) = 6.39388 6.87099 6.63673
#
# Compressibility (1/GPa) = 0.02219048
#
# Stress axis : x y z
#
# Youngs Moduli (GPa) = 113.48916 73.15147 58.02678
#
# Poissons Ratio (x) = 0.00591 0.14174
# Poissons Ratio (y) = 0.00917 0.36202
# Poissons Ratio (z) = 0.27722 0.45638
#
# Static dielectric constant tensor:
#      x y z
#    x 1.832030 0.017410 -0.023550 
#    y 0.017410 1.772220 0.020000 
#    z -0.023550 0.020000 1.789800 
# 
# From -- ./inp_files/333658.got.cif
#   From: 2010.05.17/outbox.cif.g08.bks.cpg/sg2_167_cif.got.tgz:333658.got - 2010.06.03 11:33:40.
