data_PCOD9054629
_publ_section_title
;
Structure prediction by ZEFSAII (Michael W. Deem and Ramdas Pophale) SiO2 
 PCOD9054629
Probable space group: P -1
;
_chemical_formula_sum "Si O2"
_cell_formula_units_Z 16
_cell_length_a 10.449382
_cell_length_b 10.336018
_cell_length_c 9.885867
_cell_angle_alpha 98.742317
_cell_angle_beta 138.065882
_cell_angle_gamma 100.178207
_cell_volume 633.749152
_symmetry_space_group_name_H-M "P -1"
_symmetry_group_IT_number 2
_symmetry_cell_setting 'triclinic'
loop_
_space_group_symop_operation_xyz
x,y,z
-x,-y,-z
loop_
_atom_site_type_symbol
_atom_site_label
_atom_site_fract_x
_atom_site_fract_y
_atom_site_fract_z
Si Si1 0.606198 0.185009 0.201489
Si Si2 0.754870 0.529597 0.048425
Si Si3 0.168907 0.492512 0.461382
Si Si4 0.277869 0.825768 0.235004
Si Si5 0.067555 0.237577 0.559464
Si Si6 0.212877 0.368157 0.210947
Si Si7 0.400630 0.136846 0.300059
Si Si8 0.553867 0.792640 0.206517
O O1 0.686637 0.356838 0.327291
O O2 0.425874 0.107213 0.158708
O O3 0.816861 0.159244 0.378653
O O4 0.523492 0.158055 0.980628
O O5 0.806237 0.678377 0.192901
O O6 0.958293 0.502787 0.244728
O O7 0.738889 0.548954 0.879834
O O8 0.549195 0.384801 0.905919
O O9 0.097562 0.360867 0.490317
O O10 0.283533 0.463671 0.417116
O O11 0.361029 0.796079 0.438300
O O12 0.448431 0.826672 0.259364
O O13 0.281994 0.984086 0.259304
O O14 0.043847 0.710810 0.997049
O O15 0.192767 0.151044 0.585627
O O16 0.295821 0.244936 0.255669
#
# Coordination Sequence:
#
# PCOD9054629 Si02
#       8
#     2   2   2   2   2   2   2   2
#     4  11  23  42  60  96 136 161 209 258 312 384
#     4  11  21  37  61  97 132 162 199 254 318 380
#     4  11  21  38  63  94 135 168 193 260 321 375
#     4  11  25  48  66  89 128 166 222 268 303 368
#     4  11  21  38  60  91 133 170 198 249 322 377
#     4  12  24  42  67  96 128 166 212 259 321 377
#     4  11  27  45  67  91 122 176 218 262 311 364
#     4  12  23  39  66  95 131 169 206 254 320 382
#
# _framework density 25.246583000000001
#
# number of rings (size 3 to 8) (size 9 to 14) (size 15 to 20)
#    0.000    0.750    3.750    4.875    3.500    1.000 
#    0.000    0.625    0.000    0.000    0.000    0.000 
#    0.000    0.000    0.000    0.000    0.000    0.000 
#
# Total GULP energy -89787.905194 kJ/mol
# GULP energy per Si atom -5611.744075 kJ/mol
# Density = 2.518912 g / cm^3
# Si number density = 25.246583 Si / 1000 Ang^3
#
#
#
# Elastic Constant Matrix: (Units=GPa)
#
#
# Indices 1 2 3 4 5 6 
#
# 1 133.3594 15.1244 36.3414 -13.9414 -8.9986 -10.8312
# 2 15.1244 51.0573 14.3461 -2.5241 -4.7179 -12.8089
# 3 36.3414 14.3461 83.4123 -3.7683 -9.8756 -5.8681
# 4 -13.9414 -2.5241 -3.7683 31.0443 1.3705 1.4897
# 5 -8.9986 -4.7179 -9.8756 1.3705 42.6322 -10.6119
# 6 -10.8312 -12.8089 -5.8681 1.4897 -10.6119 24.2103
#
#
#
# Elastic Compliance Matrix: (Units=1/GPa)
#
#
# Indices 1 2 3 4 5 6 
#
# 1 0.009248 -0.000539 -0.003291 0.003447 0.001938 0.003692
# 2 -0.000539 0.024631 -0.002263 0.000526 0.005736 0.014724
# 3 -0.003291 -0.002263 0.014292 -0.000154 0.002885 0.002069
# 4 0.003447 0.000526 -0.000154 0.033828 -0.000462 -0.000501
# 5 0.001938 0.005736 0.002885 -0.000462 0.029561 0.017587
# 6 0.003692 0.014724 0.002069 -0.000501 0.017587 0.058987
#
#
# Mechanical properties :
#
#
# Convention : Reuss Voigt Hill
#
# Bulk Modulus (GPa) = 27.78985 44.38365 36.08675
# Shear Modulus (GPa) = 25.67678 33.04519 29.36098
#
# Velocity S-wave (km/s) = 3.19257 3.62179 3.41393
# Velocity P-wave (km/s) = 4.96198 5.92521 5.46486
#
# Compressibility (1/GPa) = 0.03598436
#
# Stress axis : x y z
#
# Youngs Moduli (GPa) = 108.13723 40.59904 69.96903
#
# Poissons Ratio (x) = 0.02188 0.23030
# Poissons Ratio (y) = 0.05828 0.15833
# Poissons Ratio (z) = 0.35593 0.09187
#
# Static dielectric constant tensor:
#      x y z
#    x 1.991940 -0.027380 0.013470 
#    y -0.027380 1.994560 0.017460 
#    z 0.013470 0.017460 1.949200 
# 
# From -- ./inp_files/188062.got.cif
#   From: 2010.05.17/outbox.cif.g08.bks.cpg/sg2_95_cif.got.tgz:188062.got - 2010.06.03 11:33:40.
