data_PCOD9054578
_publ_section_title
;
Structure prediction by ZEFSAII (Michael W. Deem and Ramdas Pophale) SiO2 
 PCOD9054578
Probable space group: P -1
;
_chemical_formula_sum "Si O2"
_cell_formula_units_Z 14
_cell_length_a 12.408475
_cell_length_b 8.140622
_cell_length_c 8.297033
_cell_angle_alpha 59.872187
_cell_angle_beta 115.945975
_cell_angle_gamma 76.632707
_cell_volume 531.154163
_symmetry_space_group_name_H-M "P -1"
_symmetry_group_IT_number 2
_symmetry_cell_setting 'triclinic'
loop_
_space_group_symop_operation_xyz
x,y,z
-x,-y,-z
loop_
_atom_site_type_symbol
_atom_site_label
_atom_site_fract_x
_atom_site_fract_y
_atom_site_fract_z
Si Si1 0.683721 0.608449 0.910293
Si Si2 0.160047 0.884401 0.880081
Si Si3 0.049562 0.385601 0.909403
Si Si4 0.217456 0.201945 0.606425
Si Si5 0.163899 0.956131 0.396495
Si Si6 0.469507 0.077514 0.657249
Si Si7 0.649390 0.277757 0.630146
O O1 0.643554 0.748002 0.643371
O O2 0.540148 0.803887 0.817056
O O3 0.737103 0.343663 0.054091
O O4 0.827546 0.581014 0.083932
O O5 0.195848 0.073238 0.796814
O O6 0.219572 0.766340 0.150488
O O7 0.987188 0.011973 0.674395
O O8 0.912399 0.529091 0.631848
O O9 0.000000 0.500000 0.000000
O O10 0.113289 0.124418 0.123275
O O11 0.372067 0.164113 0.710200
O O12 0.203200 0.066818 0.510192
O O13 0.304977 0.723424 0.524631
O O14 0.602465 0.100436 0.707754
O O15 0.500000 0.500000 0.500000
#
# Coordination Sequence:
#
# PCOD9054578 Si02
#       7
#     2   2   2   2   2   2   2
#     4  11  19  37  67  94 119 164 223 253 297 374
#     4  12  25  40  63 102 130 157 203 276 317 358
#     4  10  17  35  66  92 113 161 215 257 295 367
#     4  11  23  39  68  98 126 157 214 266 315 359
#     4  11  21  43  68  92 120 168 217 257 303 377
#     4  11  21  40  64  90 126 172 209 250 308 386
#     4  12  26  42  64  93 130 169 210 251 316 381
#
# _framework density 26.357693000000001
#
# number of rings (size 3 to 8) (size 9 to 14) (size 15 to 20)
#    0.000    0.857    8.571    1.714    0.000    1.143 
#    0.000    0.714    0.000    0.000    0.000    0.000 
#    0.000    0.000    0.000    0.000    0.000    0.000 
#
# Total GULP energy -78200.312758 kJ/mol
# GULP energy per Si atom -5585.736626 kJ/mol
# Density = 2.629770 g / cm^3
# Si number density = 26.357693 Si / 1000 Ang^3
#
#
#
# Elastic Constant Matrix: (Units=GPa)
#
#
# Indices 1 2 3 4 5 6 
#
# 1 93.7285 -13.4786 21.0403 -1.6555 22.9614 -2.7506
# 2 -13.4786 70.4028 8.4579 -13.0955 8.0420 -8.6736
# 3 21.0403 8.4579 73.6051 -4.7032 11.0682 -3.1448
# 4 -1.6555 -13.0955 -4.7032 36.9431 7.4108 0.4534
# 5 22.9614 8.0420 11.0682 7.4108 37.4896 -10.0816
# 6 -2.7506 -8.6736 -3.1448 0.4534 -10.0816 19.5801
#
#
#
# Elastic Compliance Matrix: (Units=1/GPa)
#
#
# Indices 1 2 3 4 5 6 
#
# 1 0.014612 0.004899 -0.002987 0.004116 -0.010390 -0.001702
# 2 0.004899 0.018137 -0.001798 0.007677 -0.006567 0.004875
# 3 -0.002987 -0.001798 0.015143 0.001688 -0.002638 -0.000181
# 4 0.004116 0.007677 0.001688 0.032589 -0.011803 -0.002581
# 5 -0.010390 -0.006567 -0.002638 -0.011803 0.042184 0.017201
# 6 -0.001702 0.004875 -0.000181 -0.002581 0.017201 0.061880
#
#
# Mechanical properties :
#
#
# Convention : Reuss Voigt Hill
#
# Bulk Modulus (GPa) = 20.78138 29.97505 25.37822
# Shear Modulus (GPa) = 24.95544 33.58370 29.26957
#
# Velocity S-wave (km/s) = 3.08035 3.57340 3.33599
# Velocity P-wave (km/s) = 4.53353 5.33129 4.94851
#
# Compressibility (1/GPa) = 0.04811999
#
# Stress axis : x y z
#
# Youngs Moduli (GPa) = 68.43534 55.13679 66.03558
#
# Poissons Ratio (x) = -0.27013 0.19727
# Poissons Ratio (y) = -0.33528 0.11874
# Poissons Ratio (z) = 0.20444 0.09915
#
# Static dielectric constant tensor:
#      x y z
#    x 2.045200 -0.035790 -0.015000 
#    y -0.035790 2.227520 -0.042180 
#    z -0.015000 -0.042180 2.110390 
# 
# From -- ./inp_files/154260.got.cif
#   From: 2010.05.17/outbox.cif.g08.bks.cpg/sg2_78_cif.got.tgz:154260.got - 2010.06.03 11:33:40.
