data_PCOD9054116
_publ_section_title
;
Structure prediction by ZEFSAII (Michael W. Deem and Ramdas Pophale) SiO2 
 PCOD9054116
Probable space group: P -1
;
_chemical_formula_sum "Si O2"
_cell_formula_units_Z 16
_cell_length_a 17.046315
_cell_length_b 7.915687
_cell_length_c 14.309877
_cell_angle_alpha 129.875150
_cell_angle_beta 145.292807
_cell_angle_gamma 37.121164
_cell_volume 662.915617
_symmetry_space_group_name_H-M "P -1"
_symmetry_group_IT_number 2
_symmetry_cell_setting 'triclinic'
loop_
_space_group_symop_operation_xyz
x,y,z
-x,-y,-z
loop_
_atom_site_type_symbol
_atom_site_label
_atom_site_fract_x
_atom_site_fract_y
_atom_site_fract_z
Si Si1 0.451295 0.967404 0.723648
Si Si2 0.617231 0.305634 0.277604
Si Si3 0.162273 0.613702 0.943321
Si Si4 0.193917 0.052827 0.169093
Si Si5 0.341756 0.501552 0.914498
Si Si6 0.308909 0.263443 0.501780
Si Si7 0.781775 0.914062 0.012447
Si Si8 0.916526 0.774267 0.285174
O O1 0.357691 0.278015 0.785052
O O2 0.387454 0.032145 0.577563
O O3 0.658458 0.821913 0.872130
O O4 0.407578 0.806267 0.690536
O O5 0.601470 0.585847 0.364087
O O6 0.812597 0.059056 0.341880
O O7 0.484101 0.346437 0.082376
O O8 0.154450 0.685633 0.851553
O O9 0.213581 0.309151 0.871168
O O10 0.986208 0.771491 0.886703
O O11 0.256440 0.736058 0.122516
O O12 0.306478 0.127678 0.355856
O O13 0.165533 0.135398 0.061726
O O14 0.343241 0.750664 0.968617
O O15 0.105347 0.520951 0.417985
O O16 0.930095 0.797424 0.194669
#
# Coordination Sequence:
#
# PCOD9054116 Si02
#       8
#     2   2   2   2   2   2   2   2
#     4  12  23  41  68  98 130 174 216 264 339 383
#     4  12  23  42  66 100 136 169 212 276 330 395
#     4   9  19  40  66  91 121 172 218 272 309 367
#     4   9  22  44  63  91 134 174 222 265 313 391
#     4  11  20  40  69  96 132 164 227 275 316 389
#     4  11  26  44  60  99 143 172 207 271 333 389
#     4  11  22  40  72  93 124 182 221 266 322 377
#     4  11  22  42  66  99 130 167 223 275 322 386
#
# _framework density 24.135802000000002
#
# number of rings (size 3 to 8) (size 9 to 14) (size 15 to 20)
#    0.000    1.250    3.750    2.625    0.000    3.000 
#   13.500    0.625    0.000    0.000    0.000    0.000 
#    0.000    0.000    0.000    0.000    0.000    0.000 
#
# Total GULP energy -89269.949130 kJ/mol
# GULP energy per Si atom -5579.371821 kJ/mol
# Density = 2.408087 g / cm^3
# Si number density = 24.135802 Si / 1000 Ang^3
#
#
#
# Elastic Constant Matrix: (Units=GPa)
#
#
# Indices 1 2 3 4 5 6 
#
# 1 124.3419 0.4697 27.6171 3.5848 -3.0172 11.6654
# 2 0.4697 61.7595 3.4792 11.7340 1.5121 6.1110
# 3 27.6171 3.4792 56.4904 8.5272 4.0009 16.7880
# 4 3.5848 11.7340 8.5272 54.6526 1.3729 -2.1223
# 5 -3.0172 1.5121 4.0009 1.3729 35.0554 -1.0620
# 6 11.6654 6.1110 16.7880 -2.1223 -1.0620 47.6985
#
#
#
# Elastic Compliance Matrix: (Units=1/GPa)
#
#
# Indices 1 2 3 4 5 6 
#
# 1 0.009102 0.000219 -0.004340 -0.000025 0.001249 -0.000700
# 2 0.000219 0.017168 0.000205 -0.003813 -0.000672 -0.002510
# 3 -0.004340 0.000205 0.022688 -0.003501 -0.003052 -0.007174
# 4 -0.000025 -0.003813 -0.003501 0.019768 -0.000133 0.002604
# 5 0.001249 -0.000672 -0.003052 -0.000133 0.029062 0.001496
# 6 -0.000700 -0.002510 -0.007174 0.002604 0.001496 0.024132
#
#
# Mechanical properties :
#
#
# Convention : Reuss Voigt Hill
#
# Bulk Modulus (GPa) = 24.31633 33.96931 29.14282
# Shear Modulus (GPa) = 34.85269 41.54968 38.20119
#
# Velocity S-wave (km/s) = 3.80415 4.15359 3.98271
# Velocity P-wave (km/s) = 5.42145 6.09163 5.76628
#
# Compressibility (1/GPa) = 0.04112462
#
# Stress axis : x y z
#
# Youngs Moduli (GPa) = 109.86407 58.24847 44.07652
#
# Poissons Ratio (x) = -0.01274 0.19129
# Poissons Ratio (y) = -0.02403 -0.00902
# Poissons Ratio (z) = 0.47681 -0.01192
#
# Static dielectric constant tensor:
#      x y z
#    x 2.044780 -0.020020 0.044040 
#    y -0.020020 2.003110 -0.023050 
#    z 0.044040 -0.023050 1.921010 
# 
# From -- ./inp_files/537540.got.cif
#   From: 2010.05.17/outbox.cif.g08.bks.cpg/sg2_269_cif.got.tgz:537540.got - 2010.06.03 11:33:40.
