data_PCOD9054836
_publ_section_title
;
Structure prediction by ZEFSAII (Michael W. Deem and Ramdas Pophale) SiO2 
 PCOD9054836
Probable space group: P -1
;
_chemical_formula_sum "Si O2"
_cell_formula_units_Z 14
_cell_length_a 13.496112
_cell_length_b 5.268599
_cell_length_c 23.281233
_cell_angle_alpha 114.382630
_cell_angle_beta 22.880280
_cell_angle_gamma 116.304320
_cell_volume 576.944664
_symmetry_space_group_name_H-M "P -1"
_symmetry_group_IT_number 2
_symmetry_cell_setting 'triclinic'
loop_
_space_group_symop_operation_xyz
x,y,z
-x,-y,-z
loop_
_atom_site_type_symbol
_atom_site_label
_atom_site_fract_x
_atom_site_fract_y
_atom_site_fract_z
Si Si1 0.970419 0.589541 0.692305
Si Si2 0.847542 0.973288 0.467858
Si Si3 0.763373 0.667041 0.643372
Si Si4 0.110806 0.565047 0.811389
Si Si5 0.453917 0.371707 0.886146
Si Si6 0.405120 0.875172 0.777913
Si Si7 0.751197 0.044768 0.329319
O O1 0.675635 0.436149 0.822212
O O2 0.146469 0.346930 0.584485
O O3 0.011841 0.789564 0.744070
O O4 0.073039 0.800214 0.604087
O O5 0.593274 0.029638 0.642115
O O6 0.079411 0.022325 0.396250
O O7 0.579512 0.563731 0.784472
O O8 0.584976 0.656677 0.682796
O O9 0.000000 0.500000 0.500000
O O10 0.152840 0.723556 0.865494
O O11 0.275257 0.759884 0.693267
O O12 0.816231 0.539880 0.946257
O O13 0.192187 0.261991 0.746083
O O14 0.384753 0.063910 0.862710
O O15 0.500000 0.000000 0.500000
#
# Coordination Sequence:
#
# PCOD9054836 Si02
#       7
#     2   2   2   2   2   2   2
#     4  11  24  43  73  98 139 178 242 299 340 397
#     4  11  21  38  68 107 131 179 228 293 349 399
#     4  11  22  39  68 103 148 182 230 280 342 419
#     4  12  30  45  74 102 144 190 231 285 360 421
#     4  11  26  43  67 108 144 188 229 284 356 425
#     4  12  23  42  67 102 153 181 230 282 353 430
#     4  12  27  53  73 101 133 186 249 296 347 412
#
# _framework density 24.265758999999999
#
# number of rings (size 3 to 8) (size 9 to 14) (size 15 to 20)
#    0.000    0.571    2.857    5.571    4.000    1.714 
#    0.000    0.000    0.000    0.000    0.000    0.000 
#    0.000    0.000    0.000    0.000    0.000    0.000 
#
# Total GULP energy -78279.811984 kJ/mol
# GULP energy per Si atom -5591.415142 kJ/mol
# Density = 2.421053 g / cm^3
# Si number density = 24.265759 Si / 1000 Ang^3
#
#
#
# Elastic Constant Matrix: (Units=GPa)
#
#
# Indices 1 2 3 4 5 6 
#
# 1 101.2968 24.0349 -7.1062 -6.7281 -20.2022 18.0985
# 2 24.0349 115.4702 7.5424 16.0647 -10.3985 1.0274
# 3 -7.1062 7.5424 67.5433 -7.0578 -17.7580 -0.9244
# 4 -6.7281 16.0647 -7.0578 21.1454 -1.2424 -2.3654
# 5 -20.2022 -10.3985 -17.7580 -1.2424 32.8248 -9.2496
# 6 18.0985 1.0274 -0.9244 -2.3654 -9.2496 41.9004
#
#
#
# Elastic Compliance Matrix: (Units=1/GPa)
#
#
# Indices 1 2 3 4 5 6 
#
# 1 0.014367 -0.003733 0.005531 0.009486 0.010102 -0.003227
# 2 -0.003733 0.011026 -0.002871 -0.010496 -0.000599 0.000554
# 3 0.005531 -0.002871 0.020896 0.012022 0.014846 0.002098
# 4 0.009486 -0.010496 0.012022 0.063313 0.012171 0.002686
# 5 0.010102 -0.000599 0.014846 0.012171 0.046967 0.007034
# 6 -0.003227 0.000554 0.002098 0.002686 0.007034 0.026997
#
#
# Mechanical properties :
#
#
# Convention : Reuss Voigt Hill
#
# Bulk Modulus (GPa) = 22.65281 37.02804 29.84042
# Shear Modulus (GPa) = 24.94703 36.49673 30.72188
#
# Velocity S-wave (km/s) = 3.20984 3.88241 3.56203
# Velocity P-wave (km/s) = 4.80552 5.94894 5.40754
#
# Compressibility (1/GPa) = 0.04414464
#
# Stress axis : x y z
#
# Youngs Moduli (GPa) = 69.60359 90.69308 47.85623
#
# Poissons Ratio (x) = 0.33857 -0.26472
# Poissons Ratio (y) = 0.25984 0.13738
# Poissons Ratio (z) = -0.38501 0.26034
#
# Static dielectric constant tensor:
#      x y z
#    x 1.941300 0.059920 0.005220 
#    y 0.059920 2.037630 -0.020660 
#    z 0.005220 -0.020660 1.870820 
# 
# From -- ./inp_files/619038.got.cif
#   From: 2010.05.17/outbox.cif.g08.bks.cpg/sg2_310_cif.got.tgz:619038.got - 2010.06.03 11:33:40.
