data_PCOD9054111
_publ_section_title
;
Structure prediction by ZEFSAII (Michael W. Deem and Ramdas Pophale) SiO2 
 PCOD9054111
Probable space group: P -1
;
_chemical_formula_sum "Si O2"
_cell_formula_units_Z 14
_cell_length_a 11.772162
_cell_length_b 13.092202
_cell_length_c 6.193987
_cell_angle_alpha 101.986987
_cell_angle_beta 118.490419
_cell_angle_gamma 43.245111
_cell_volume 559.134076
_symmetry_space_group_name_H-M "P -1"
_symmetry_group_IT_number 2
_symmetry_cell_setting 'triclinic'
loop_
_space_group_symop_operation_xyz
x,y,z
-x,-y,-z
loop_
_atom_site_type_symbol
_atom_site_label
_atom_site_fract_x
_atom_site_fract_y
_atom_site_fract_z
Si Si1 0.883556 0.306848 0.119038
Si Si2 0.232682 0.162950 0.060536
Si Si3 0.429008 0.840673 0.958850
Si Si4 0.111808 0.989633 0.409907
Si Si5 0.981966 0.410014 0.597527
Si Si6 0.636345 0.283118 0.782950
Si Si7 0.670701 0.667993 0.731092
O O1 0.865890 0.400707 0.334447
O O2 0.681078 0.379639 0.889125
O O3 0.985007 0.151077 0.260691
O O4 0.041844 0.246784 0.059027
O O5 0.159552 0.241920 0.789307
O O6 0.376151 0.979513 0.094289
O O7 0.333395 0.205558 0.273640
O O8 0.296059 0.927409 0.665591
O O9 0.628246 0.695758 0.960567
O O10 0.376909 0.774111 0.032745
O O11 0.181002 0.865399 0.246644
O O12 0.000000 0.000000 0.500000
O O13 0.870888 0.512866 0.754219
O O14 0.000000 0.500000 0.500000
O O15 0.465887 0.335303 0.510413
#
# Coordination Sequence:
#
# PCOD9054111 Si02
#       7
#     2   2   2   2   2   2   2
#     4  12  24  42  77 104 135 186 239 284 342 416
#     4  12  25  47  76 103 134 189 242 283 341 416
#     4  11  23  42  72 107 145 176 229 295 350 409
#     4  11  20  40  69 110 144 176 231 285 348 412
#     4  12  28  49  72  99 139 189 242 284 339 422
#     4  11  25  42  70 109 146 178 222 296 361 402
#     4  11  28  45  68 104 148 186 224 289 355 415
#
# _framework density 25.038715
#
# number of rings (size 3 to 8) (size 9 to 14) (size 15 to 20)
#    0.000    0.571    5.714    2.143    2.000    1.143 
#    0.000    1.429    0.000    0.000    0.000    0.000 
#    0.000    0.000    0.000    0.000    0.000    0.000 
#
# Total GULP energy -78210.112228 kJ/mol
# GULP energy per Si atom -5586.436588 kJ/mol
# Density = 2.498173 g / cm^3
# Si number density = 25.038715 Si / 1000 Ang^3
#
#
#
# Elastic Constant Matrix: (Units=GPa)
#
#
# Indices 1 2 3 4 5 6 
#
# 1 160.2063 35.1025 62.4394 17.9806 -17.9054 14.7655
# 2 35.1025 76.3138 44.9652 28.2282 -13.8360 1.8809
# 3 62.4394 44.9652 104.9609 15.2278 13.5734 14.7831
# 4 17.9806 28.2282 15.2278 52.5214 8.9023 -2.3958
# 5 -17.9054 -13.8360 13.5734 8.9023 63.8127 16.1955
# 6 14.7655 1.8809 14.7831 -2.3958 16.1955 34.8668
#
#
#
# Elastic Compliance Matrix: (Units=1/GPa)
#
#
# Indices 1 2 3 4 5 6 
#
# 1 0.009819 0.001762 -0.006175 -0.003784 0.006189 -0.004770
# 2 0.001762 0.025972 -0.011188 -0.013392 0.011278 -0.003562
# 3 -0.006175 -0.011188 0.018549 0.004190 -0.008596 -0.000365
# 4 -0.003784 -0.013392 0.004190 0.028479 -0.010731 0.007490
# 5 0.006189 0.011278 -0.008596 -0.010731 0.026368 -0.012570
# 6 -0.004770 -0.003562 -0.000365 0.007490 -0.012570 0.037401
#
#
# Mechanical properties :
#
#
# Convention : Reuss Voigt Hill
#
# Bulk Modulus (GPa) = 43.22188 69.61060 56.41624
# Shear Modulus (GPa) = 26.95361 43.50509 35.22935
#
# Velocity S-wave (km/s) = 3.28453 4.17287 3.75506
# Velocity P-wave (km/s) = 5.62883 7.14693 6.43282
#
# Compressibility (1/GPa) = 0.02313643
#
# Stress axis : x y z
#
# Youngs Moduli (GPa) = 101.84547 38.50318 53.91088
#
# Poissons Ratio (x) = -0.06783 0.33291
# Poissons Ratio (y) = -0.17942 0.60316
# Poissons Ratio (z) = 0.62892 0.43078
#
# Static dielectric constant tensor:
#      x y z
#    x 2.162040 -0.070860 0.100340 
#    y -0.070860 2.016350 -0.042540 
#    z 0.100340 -0.042540 2.037870 
# 
# From -- ./inp_files/69290.got.cif
#   From: 2010.05.17/outbox.cif.g08.bks.cpg/sg2_35_cif.got.tgz:69290.got - 2010.06.03 11:33:40.
