data_PCOD9054349
_publ_section_title
;
Structure prediction by ZEFSAII (Michael W. Deem and Ramdas Pophale) SiO2 
 PCOD9054349
Probable space group: P -1
;
_chemical_formula_sum "Si O2"
_cell_formula_units_Z 14
_cell_length_a 9.058474
_cell_length_b 12.517163
_cell_length_c 5.934705
_cell_angle_alpha 106.533012
_cell_angle_beta 100.208878
_cell_angle_gamma 77.584041
_cell_volume 625.147716
_symmetry_space_group_name_H-M "P -1"
_symmetry_group_IT_number 2
_symmetry_cell_setting 'triclinic'
loop_
_space_group_symop_operation_xyz
x,y,z
-x,-y,-z
loop_
_atom_site_type_symbol
_atom_site_label
_atom_site_fract_x
_atom_site_fract_y
_atom_site_fract_z
Si Si1 0.138628 0.055094 0.464047
Si Si2 0.492996 0.375856 0.024587
Si Si3 0.266179 0.819597 0.270581
Si Si4 0.961614 0.455791 0.712127
Si Si5 0.807827 0.731085 0.145250
Si Si6 0.010034 0.773681 0.852910
Si Si7 0.278599 0.653317 0.563230
O O1 0.209717 0.138904 0.701109
O O2 0.064036 0.128441 0.276074
O O3 0.270877 0.951798 0.363970
O O4 0.000000 0.000000 0.500000
O O5 0.608762 0.271500 0.876908
O O6 0.333549 0.333905 0.928447
O O7 0.500000 0.500000 0.000000
O O8 0.559797 0.379073 0.296438
O O9 0.268768 0.767256 0.487645
O O10 0.104174 0.818619 0.107237
O O11 0.784616 0.440863 0.657548
O O12 0.000000 0.500000 0.500000
O O13 0.067249 0.332587 0.686244
O O14 0.000000 0.500000 0.000000
O O15 0.877758 0.721813 0.907552
O O16 0.145091 0.682606 0.729293
#
# Coordination Sequence:
#
# PCOD9054349 Si02
#       7
#     2   2   2   2   2   2   2
#     4  12  22  42  76 112 142 182 248 315 381 442
#     4  11  29  50  67  99 155 199 244 302 383 452
#     4  11  24  44  72 103 142 196 239 303 381 452
#     4  12  25  43  75 107 144 192 262 322 368 445
#     4  12  26  43  71 111 142 195 253 307 379 444
#     4  11  20  42  75 107 146 182 248 316 372 449
#     4  11  23  46  70 103 142 193 246 304 383 441
#
# _framework density 22.394708000000001
#
# number of rings (size 3 to 8) (size 9 to 14) (size 15 to 20)
#    0.000    0.571    5.714    2.143    4.000    2.286 
#    0.000    1.429    0.000    0.000    0.000    0.000 
#    0.000    0.000    0.000    0.000    0.000    0.000 
#
# Total GULP energy -78116.718867 kJ/mol
# GULP energy per Si atom -5579.765633 kJ/mol
# Density = 2.234374 g / cm^3
# Si number density = 22.394708 Si / 1000 Ang^3
#
#
#
# Elastic Constant Matrix: (Units=GPa)
#
#
# Indices 1 2 3 4 5 6 
#
# 1 94.9857 28.5098 27.2488 2.6485 13.1903 15.1361
# 2 28.5098 120.6472 47.9972 -5.0357 -0.6196 8.0835
# 3 27.2488 47.9972 93.8102 -5.1998 18.5101 3.0131
# 4 2.6485 -5.0357 -5.1998 56.6094 -0.7271 -5.5774
# 5 13.1903 -0.6196 18.5101 -0.7271 40.6530 5.4856
# 6 15.1361 8.0835 3.0131 -5.5774 5.4856 30.7848
#
#
#
# Elastic Compliance Matrix: (Units=1/GPa)
#
#
# Indices 1 2 3 4 5 6 
#
# 1 0.013006 -0.001900 -0.002217 -0.001557 -0.002524 -0.005511
# 2 -0.001900 0.011235 -0.005845 0.000399 0.003731 -0.002036
# 3 -0.002217 -0.005845 0.015621 0.001180 -0.006801 0.002522
# 4 -0.001557 0.000399 0.001180 0.018262 -0.000225 0.003894
# 5 -0.002524 0.003731 -0.006801 -0.000225 0.029148 -0.004308
# 6 -0.005511 -0.002036 0.002522 0.003894 -0.004308 0.036954
#
#
# Mechanical properties :
#
#
# Convention : Reuss Voigt Hill
#
# Bulk Modulus (GPa) = 50.15616 57.43939 53.79777
# Shear Modulus (GPa) = 33.15692 39.32193 36.23942
#
# Velocity S-wave (km/s) = 3.85199 4.19484 4.02707
# Velocity P-wave (km/s) = 6.49837 7.01189 6.76001
#
# Compressibility (1/GPa) = 0.01993773
#
# Stress axis : x y z
#
# Youngs Moduli (GPa) = 76.88569 89.00522 64.01699
#
# Poissons Ratio (x) = 0.16912 0.14193
# Poissons Ratio (y) = 0.14610 0.37419
# Poissons Ratio (z) = 0.17046 0.52025
#
# Static dielectric constant tensor:
#      x y z
#    x 1.844300 -0.000240 -0.047030 
#    y -0.000240 1.899870 0.117630 
#    z -0.047030 0.117630 1.942730 
# 
# From -- ./inp_files/28423.got.cif
#   From: 2010.05.17/outbox.cif.g08.bks.cpg/sg2_15_cif.got.tgz:28423.got - 2010.06.03 11:33:40.
