data_PCOD9054331
_publ_section_title
;
Structure prediction by ZEFSAII (Michael W. Deem and Ramdas Pophale) SiO2 
 PCOD9054331
Probable space group: P -1
;
_chemical_formula_sum "Si O2"
_cell_formula_units_Z 16
_cell_length_a 5.863397
_cell_length_b 16.688407
_cell_length_c 18.637034
_cell_angle_alpha 152.392061
_cell_angle_beta 75.471797
_cell_angle_gamma 114.413261
_cell_volume 740.215518
_symmetry_space_group_name_H-M "P -1"
_symmetry_group_IT_number 2
_symmetry_cell_setting 'triclinic'
loop_
_space_group_symop_operation_xyz
x,y,z
-x,-y,-z
loop_
_atom_site_type_symbol
_atom_site_label
_atom_site_fract_x
_atom_site_fract_y
_atom_site_fract_z
Si Si1 0.031712 0.089720 0.765196
Si Si2 0.570729 0.849415 0.332797
Si Si3 0.575007 0.539893 0.879024
Si Si4 0.676090 0.776325 0.646493
Si Si5 0.541471 0.059144 0.959725
Si Si6 0.142026 0.254156 0.108096
Si Si7 0.229432 0.674345 0.081434
Si Si8 0.821794 0.594076 0.621194
O O1 0.144656 0.067816 0.661192
O O2 0.809948 0.155767 0.817028
O O3 0.232145 0.276459 0.942430
O O4 0.905177 0.900338 0.672443
O O5 0.496137 0.661789 0.238398
O O6 0.408401 0.773226 0.213019
O O7 0.500000 0.000000 0.500000
O O8 0.686342 0.564815 0.810954
O O9 0.318408 0.575045 0.932653
O O10 0.798678 0.737637 0.678612
O O11 0.470350 0.569898 0.471975
O O12 0.504672 0.887828 0.772533
O O13 0.337984 0.148503 0.022686
O O14 0.862087 0.168558 0.020771
O O15 0.500000 0.000000 0.000000
O O16 0.076487 0.303023 0.230509
O O17 0.000000 0.500000 0.000000
O O18 0.000000 0.500000 0.500000
#
# Coordination Sequence:
#
# PCOD9054331 Si02
#       8
#     2   2   2   2   2   2   2   2
#     4  11  22  44  69  99 131 183 233 282 344 424
#     4  11  25  42  64 102 140 176 222 286 349 413
#     4  11  23  42  69 101 136 179 235 290 345 413
#     4  11  25  44  70 102 139 186 238 288 365 425
#     4  12  24  45  73 106 137 182 242 299 346 419
#     4  12  27  44  74 108 140 185 241 296 356 418
#     4  11  20  42  72  92 133 183 230 284 346 414
#     4  11  27  47  68  98 147 190 225 300 366 426
#
# _framework density 21.615327000000001
#
# number of rings (size 3 to 8) (size 9 to 14) (size 15 to 20)
#    0.000    0.750    5.000    2.625    3.500    4.500 
#    2.250    0.000    0.000    0.000    0.000    0.000 
#    0.000    0.000    0.000    0.000    0.000    0.000 
#
# Total GULP energy -89185.313488 kJ/mol
# GULP energy per Si atom -5574.082093 kJ/mol
# Density = 2.156613 g / cm^3
# Si number density = 21.615327 Si / 1000 Ang^3
#
#
#
# Elastic Constant Matrix: (Units=GPa)
#
#
# Indices 1 2 3 4 5 6 
#
# 1 71.5668 27.2333 29.0013 5.1280 -14.3154 0.6120
# 2 27.2333 140.0512 36.7574 33.1482 -10.7234 10.4427
# 3 29.0013 36.7574 67.0008 11.6015 -17.5989 2.9111
# 4 5.1280 33.1482 11.6015 28.4602 3.8605 3.9173
# 5 -14.3154 -10.7234 -17.5989 3.8605 32.8961 -2.1636
# 6 0.6120 10.4427 2.9111 3.9173 -2.1636 30.2448
#
#
#
# Elastic Compliance Matrix: (Units=1/GPa)
#
#
# Indices 1 2 3 4 5 6 
#
# 1 0.017771 -0.001858 -0.005764 0.000620 0.004040 0.001045
# 2 -0.001858 0.011360 -0.002528 -0.011989 0.002825 -0.001886
# 3 -0.005764 -0.002528 0.022389 -0.006470 0.009427 0.000347
# 4 0.000620 -0.011989 -0.006470 0.053918 -0.013638 -0.003209
# 5 0.004040 0.002825 0.009427 -0.013638 0.039896 0.002656
# 6 0.001045 -0.001886 0.000347 -0.003209 0.002656 0.034266
#
#
# Mechanical properties :
#
#
# Convention : Reuss Voigt Hill
#
# Bulk Modulus (GPa) = 32.03242 51.62253 41.82747
# Shear Modulus (GPa) = 23.77490 30.69533 27.23512
#
# Velocity S-wave (km/s) = 3.32009 3.77247 3.55349
# Velocity P-wave (km/s) = 5.43588 6.55054 6.01907
#
# Compressibility (1/GPa) = 0.03121837
#
# Stress axis : x y z
#
# Youngs Moduli (GPa) = 56.27271 88.03132 44.66566
#
# Poissons Ratio (x) = 0.16357 0.25747
# Poissons Ratio (y) = 0.10456 0.11290
# Poissons Ratio (z) = 0.32438 0.22252
#
# Static dielectric constant tensor:
#      x y z
#    x 1.958180 0.112230 0.046410 
#    y 0.112230 1.889440 0.041890 
#    z 0.046410 0.041890 1.783250 
# 
# From -- ./inp_files/38470.got.cif
#   From: 2010.05.17/outbox.cif.g08.bks.cpg/sg2_20_cif.got.tgz:38470.got - 2010.06.03 11:33:40.
