data_PCOD9054033
_publ_section_title
;
Structure prediction by ZEFSAII (Michael W. Deem and Ramdas Pophale) SiO2 
 PCOD9054033
Probable space group: P -1
;
_chemical_formula_sum "Si O2"
_cell_formula_units_Z 16
_cell_length_a 15.339481
_cell_length_b 10.348058
_cell_length_c 9.330001
_cell_angle_alpha 40.092510
_cell_angle_beta 119.620393
_cell_angle_gamma 99.229840
_cell_volume 763.890605
_symmetry_space_group_name_H-M "P -1"
_symmetry_group_IT_number 2
_symmetry_cell_setting 'triclinic'
loop_
_space_group_symop_operation_xyz
x,y,z
-x,-y,-z
loop_
_atom_site_type_symbol
_atom_site_label
_atom_site_fract_x
_atom_site_fract_y
_atom_site_fract_z
Si Si1 0.240904 0.068889 0.298489
Si Si2 0.100722 0.874925 0.513007
Si Si3 0.041832 0.274342 0.313325
Si Si4 0.272612 0.467851 0.144661
Si Si5 0.653147 0.958593 0.876154
Si Si6 0.509687 0.436436 0.394302
Si Si7 0.449613 0.867721 0.812720
Si Si8 0.714514 0.799057 0.376194
O O1 0.231697 0.290475 0.188279
O O2 0.153858 0.961512 0.352719
O O3 0.254865 0.115013 0.106057
O O4 0.356577 0.894693 0.598635
O O5 0.022590 0.739887 0.582203
O O6 0.030326 0.103367 0.336246
O O7 0.204154 0.708030 0.828218
O O8 0.169994 0.183186 0.525082
O O9 0.000000 0.500000 0.000000
O O10 0.400161 0.406697 0.278642
O O11 0.264491 0.433583 0.337277
O O12 0.613811 0.215925 0.650061
O O13 0.543858 0.926799 0.769586
O O14 0.685018 0.836197 0.156437
O O15 0.500000 0.500000 0.500000
O O16 0.508225 0.633426 0.129265
O O17 0.382954 0.027604 0.754438
#
# Coordination Sequence:
#
# PCOD9054033 Si02
#       8
#     2   2   2   2   2   2   2   2
#     4  11  23  40  59  88 127 171 202 244 300 366
#     4  11  21  39  65  92 117 151 210 257 297 359
#     4  11  21  38  67  98 113 150 205 264 311 353
#     4  11  21  39  64  84 126 159 201 256 296 358
#     4  12  25  38  58  90 133 164 200 248 306 364
#     4  12  22  34  61  90 123 163 205 252 301 348
#     4  11  21  39  59  87 123 166 207 243 294 364
#     4  11  20  40  59  90 121 155 198 259 307 351
#
# _framework density 20.945406999999999
#
# number of rings (size 3 to 8) (size 9 to 14) (size 15 to 20)
#    0.000    0.750    8.750    1.500    0.000    1.500 
#    0.000    0.625    0.000    3.000    0.000    0.000 
#    0.000    0.000    0.000    0.000    0.000    0.000 
#
# Total GULP energy -89152.991667 kJ/mol
# GULP energy per Si atom -5572.061979 kJ/mol
# Density = 2.089773 g / cm^3
# Si number density = 20.945407 Si / 1000 Ang^3
#
#
#
# Elastic Constant Matrix: (Units=GPa)
#
#
# Indices 1 2 3 4 5 6 
#
# 1 138.0363 14.0569 11.6821 -1.6693 -28.9725 2.3262
# 2 14.0569 30.2553 20.7347 -6.9458 -11.8544 -3.3949
# 3 11.6821 20.7347 77.6189 -21.8988 -21.1926 -6.4300
# 4 -1.6693 -6.9458 -21.8988 26.4421 -1.2482 -10.1458
# 5 -28.9725 -11.8544 -21.1926 -1.2482 34.9450 2.6199
# 6 2.3262 -3.3949 -6.4300 -10.1458 2.6199 23.6984
#
#
#
# Elastic Compliance Matrix: (Units=1/GPa)
#
#
# Indices 1 2 3 4 5 6 
#
# 1 0.009003 -0.002007 0.001654 0.001402 0.007912 -0.000997
# 2 -0.002007 0.045117 -0.004803 0.011789 0.010456 0.009248
# 3 0.001654 -0.004803 0.028444 0.030050 0.016724 0.017883
# 4 0.001402 0.011789 0.030050 0.083430 0.023152 0.042863
# 5 0.007912 0.010456 0.016724 0.023152 0.048961 0.009758
# 6 -0.000997 0.009248 0.017883 0.042863 0.009758 0.065744
#
#
# Mechanical properties :
#
#
# Convention : Reuss Voigt Hill
#
# Bulk Modulus (GPa) = 13.84039 37.65087 25.74563
# Shear Modulus (GPa) = 15.86827 30.31290 23.09058
#
# Velocity S-wave (km/s) = 2.75544 3.80838 3.32387
# Velocity P-wave (km/s) = 4.09212 6.11172 5.20089
#
# Compressibility (1/GPa) = 0.07225229
#
# Stress axis : x y z
#
# Youngs Moduli (GPa) = 111.07189 22.16453 35.15729
#
# Poissons Ratio (x) = 0.04448 -0.05816
# Poissons Ratio (y) = 0.22288 0.16888
# Poissons Ratio (z) = -0.18375 0.10647
#
# Static dielectric constant tensor:
#      x y z
#    x 1.850010 0.035040 -0.013410 
#    y 0.035040 1.825670 -0.005240 
#    z -0.013410 -0.005240 1.749650 
# 
# From -- ./inp_files/306278.got.cif
#   From: 2010.05.17/outbox.cif.g08.bks.cpg/sg2_154_cif.got.tgz:306278.got - 2010.06.03 11:33:40.
