data_PCOD9054691
_publ_section_title
;
Structure prediction by ZEFSAII (Michael W. Deem and Ramdas Pophale) SiO2 
 PCOD9054691
Probable space group: P -1
;
_chemical_formula_sum "Si O2"
_cell_formula_units_Z 16
_cell_length_a 9.984033
_cell_length_b 12.580149
_cell_length_c 20.785188
_cell_angle_alpha 39.200297
_cell_angle_beta 67.022262
_cell_angle_gamma 36.726478
_cell_volume 781.477763
_symmetry_space_group_name_H-M "P -1"
_symmetry_group_IT_number 2
_symmetry_cell_setting 'triclinic'
loop_
_space_group_symop_operation_xyz
x,y,z
-x,-y,-z
loop_
_atom_site_type_symbol
_atom_site_label
_atom_site_fract_x
_atom_site_fract_y
_atom_site_fract_z
Si Si1 0.009073 0.384457 0.256361
Si Si2 0.309688 0.382893 0.668080
Si Si3 0.247587 0.637870 0.007172
Si Si4 0.704627 0.239326 0.475733
Si Si5 0.596862 0.702706 0.734708
Si Si6 0.755949 0.385343 0.721792
Si Si7 0.797092 0.714273 0.536878
Si Si8 0.136360 0.380407 0.100023
O O1 0.164500 0.389442 0.258222
O O2 0.952719 0.495496 0.141403
O O3 0.756244 0.585014 0.258303
O O4 0.222414 0.013263 0.388699
O O5 0.367384 0.523665 0.580843
O O6 0.028829 0.599030 0.582336
O O7 0.572693 0.012015 0.770672
O O8 0.338838 0.488026 0.130985
O O9 0.204225 0.507651 0.038915
O O10 0.500000 0.500000 0.000000
O O11 0.971826 0.024966 0.867981
O O12 0.467866 0.447225 0.368442
O O13 0.000000 0.000000 0.500000
O O14 0.611727 0.580351 0.724362
O O15 0.306095 0.096896 0.598393
O O16 0.894081 0.424350 0.652896
O O17 0.500000 0.000000 0.500000
O O18 0.000000 0.500000 0.000000
#
# Coordination Sequence:
#
# PCOD9054691 Si02
#       8
#     2   2   2   2   2   2   2   2
#     4  10  20  40  65  91 122 162 205 258 306 370
#     4  11  21  40  66  92 124 162 203 259 312 358
#     4  11  25  42  56  90 129 158 207 257 297 366
#     4  10  20  36  64  98 121 148 213 258 301 368
#     4  10  19  38  64  90 125 158 202 252 312 369
#     4  11  19  37  66  89 120 163 198 254 310 360
#     4  10  17  35  68  92 120 158 202 253 309 368
#     4  11  26  46  60  85 130 168 210 251 305 376
#
# _framework density 20.474032000000001
#
# number of rings (size 3 to 8) (size 9 to 14) (size 15 to 20)
#    0.000    1.500    3.750    4.125    0.000    1.000 
#    9.000    1.875    0.000    0.000    0.000    0.000 
#    0.000    0.000    0.000    0.000    0.000    0.000 
#
# Total GULP energy -89267.357907 kJ/mol
# GULP energy per Si atom -5579.209869 kJ/mol
# Density = 2.042743 g / cm^3
# Si number density = 20.474032 Si / 1000 Ang^3
#
#
#
# Elastic Constant Matrix: (Units=GPa)
#
#
# Indices 1 2 3 4 5 6 
#
# 1 117.3970 13.0420 47.4816 10.2621 -12.5198 6.1672
# 2 13.0420 38.6836 21.6217 8.7890 -6.5260 -5.0004
# 3 47.4816 21.6217 128.6499 10.3866 -19.3753 3.7301
# 4 10.2621 8.7890 10.3866 28.0725 10.8626 -8.7829
# 5 -12.5198 -6.5260 -19.3753 10.8626 48.8396 1.5704
# 6 6.1672 -5.0004 3.7301 -8.7829 1.5704 18.6197
#
#
#
# Elastic Compliance Matrix: (Units=1/GPa)
#
#
# Indices 1 2 3 4 5 6 
#
# 1 0.010915 -0.001148 -0.002721 -0.005802 0.003060 -0.006373
# 2 -0.001148 0.031538 -0.003808 -0.007837 0.003973 0.005581
# 3 -0.002721 -0.003808 0.010597 -0.004919 0.004250 -0.004923
# 4 -0.005802 -0.007837 -0.004919 0.058541 -0.018470 0.029974
# 5 0.003060 0.003973 0.004250 -0.018470 0.027966 -0.011869
# 6 -0.006373 0.005581 -0.004923 0.029974 -0.011869 0.073442
#
#
# Mechanical properties :
#
#
# Convention : Reuss Voigt Hill
#
# Bulk Modulus (GPa) = 26.52805 49.89125 38.20965
# Shear Modulus (GPa) = 20.75395 32.61205 26.68300
#
# Velocity S-wave (km/s) = 3.18728 3.99538 3.61399
# Velocity P-wave (km/s) = 5.15073 6.76055 6.00979
#
# Compressibility (1/GPa) = 0.03769595
#
# Stress axis : x y z
#
# Youngs Moduli (GPa) = 91.62060 31.70759 94.36445
#
# Poissons Ratio (x) = 0.03641 0.25679
# Poissons Ratio (y) = 0.10520 0.35929
# Poissons Ratio (z) = 0.24933 0.12073
#
# Static dielectric constant tensor:
#      x y z
#    x 1.710370 0.021510 -0.037500 
#    y 0.021510 1.764810 0.006830 
#    z -0.037500 0.006830 1.842970 
# 
# From -- ./inp_files/589473.got.cif
#   From: 2010.05.17/outbox.cif.g08.bks.cpg/sg2_295_cif.got.tgz:589473.got - 2010.06.03 11:33:40.
