data_PCOD9054368
_publ_section_title
;
Structure prediction by ZEFSAII (Michael W. Deem and Ramdas Pophale) SiO2 
 PCOD9054368
Probable space group: P -1
;
_chemical_formula_sum "Si O2"
_cell_formula_units_Z 16
_cell_length_a 12.743564
_cell_length_b 17.819048
_cell_length_c 20.313604
_cell_angle_alpha 159.306811
_cell_angle_beta 153.302954
_cell_angle_gamma 26.142844
_cell_volume 674.272174
_symmetry_space_group_name_H-M "P -1"
_symmetry_group_IT_number 2
_symmetry_cell_setting 'triclinic'
loop_
_space_group_symop_operation_xyz
x,y,z
-x,-y,-z
loop_
_atom_site_type_symbol
_atom_site_label
_atom_site_fract_x
_atom_site_fract_y
_atom_site_fract_z
Si Si1 0.341553 0.273303 0.125483
Si Si2 0.706467 0.194085 0.619871
Si Si3 0.738159 0.207744 0.993201
Si Si4 0.357527 0.008169 0.358931
Si Si5 0.973805 0.533853 0.434245
Si Si6 0.202576 0.410539 0.923897
Si Si7 0.221958 0.085280 0.778826
Si Si8 0.545144 0.649104 0.532369
O O1 0.504474 0.426304 0.352908
O O2 0.059638 0.416612 0.116051
O O3 0.280955 0.259946 0.003234
O O4 0.500000 0.000000 0.000000
O O5 0.514802 0.104216 0.475405
O O6 0.622152 0.261437 0.553576
O O7 0.001570 0.025200 0.640436
O O8 0.713450 0.414558 0.843083
O O9 0.760147 0.446002 0.219742
O O10 0.462088 0.243129 0.896565
O O11 0.704680 0.175028 0.869811
O O12 0.000000 0.000000 0.000000
O O13 0.085283 0.198461 0.382023
O O14 0.500000 0.000000 0.500000
O O15 0.000000 0.500000 0.500000
O O16 0.185226 0.408815 0.396894
O O17 0.130640 0.234418 0.783861
O O18 0.458721 0.853679 0.704365
#
# Coordination Sequence:
#
# PCOD9054368 Si02
#       8
#     2   2   2   2   2   2   2   2
#     4  11  26  45  66 105 154 188 231 305 379 444
#     4  11  20  43  70 100 144 179 242 310 361 435
#     4  12  24  44  77 108 144 195 252 309 368 444
#     4  12  28  46  70 106 152 195 245 310 375 435
#     4  12  24  45  70 104 145 192 251 300 357 444
#     4  11  21  43  75 106 140 188 247 309 367 441
#     4  11  23  40  72 108 130 184 246 300 373 432
#     4  12  23  42  76 105 137 189 250 304 362 444
#
# _framework density 23.729289999999999
#
# number of rings (size 3 to 8) (size 9 to 14) (size 15 to 20)
#    0.000    0.500    6.250    2.625    1.750    4.000 
#    2.250    0.000    0.000    0.000    0.000    0.000 
#    0.000    0.000    0.000    0.000    0.000    0.000 
#
# Total GULP energy -89158.195212 kJ/mol
# GULP energy per Si atom -5572.387201 kJ/mol
# Density = 2.367528 g / cm^3
# Si number density = 23.729290 Si / 1000 Ang^3
#
#
#
# Elastic Constant Matrix: (Units=GPa)
#
#
# Indices 1 2 3 4 5 6 
#
# 1 76.8289 37.6909 24.6177 1.2422 -12.9051 -34.4180
# 2 37.6909 91.9029 1.3222 8.1015 -1.6631 -27.3388
# 3 24.6177 1.3222 97.7106 6.0659 -12.3489 -4.1676
# 4 1.2422 8.1015 6.0659 30.5642 -7.0208 -7.3420
# 5 -12.9051 -1.6631 -12.3489 -7.0208 42.0438 -8.9156
# 6 -34.4180 -27.3388 -4.1676 -7.3420 -8.9156 44.8711
#
#
#
# Elastic Compliance Matrix: (Units=1/GPa)
#
#
# Indices 1 2 3 4 5 6 
#
# 1 0.030721 -0.006062 -0.005467 0.010507 0.014417 0.023947
# 2 -0.006062 0.014769 0.001626 -0.003176 -0.000507 0.003879
# 3 -0.005467 0.001626 0.011775 -0.002934 0.000841 -0.002422
# 4 0.010507 -0.003176 -0.002934 0.040041 0.012063 0.014801
# 5 0.014417 -0.000507 0.000841 0.012063 0.034625 0.019681
# 6 0.023947 0.003879 -0.002422 0.014801 0.019681 0.049125
#
#
# Mechanical properties :
#
#
# Convention : Reuss Voigt Hill
#
# Bulk Modulus (GPa) = 26.69649 43.74490 35.22070
# Shear Modulus (GPa) = 23.43588 37.01658 30.22623
#
# Velocity S-wave (km/s) = 3.14608 3.95391 3.57290
# Velocity P-wave (km/s) = 4.94691 6.27053 5.64763
#
# Compressibility (1/GPa) = 0.03745810
#
# Stress axis : x y z
#
# Youngs Moduli (GPa) = 32.55073 67.71154 84.92700
#
# Poissons Ratio (x) = 0.41050 0.46429
# Poissons Ratio (y) = 0.19734 -0.13810
# Poissons Ratio (z) = 0.17795 -0.11010
#
# Static dielectric constant tensor:
#      x y z
#    x 1.983400 -0.050440 0.064530 
#    y -0.050440 2.099530 -0.007990 
#    z 0.064530 -0.007990 1.863600 
# 
# From -- ./inp_files/596080.got.cif
#   From: 2010.05.17/outbox.cif.g08.bks.cpg/sg2_299_cif.got.tgz:596080.got - 2010.06.03 11:33:40.
