data_PCOD9054093
_publ_section_title
;
Structure prediction by ZEFSAII (Michael W. Deem and Ramdas Pophale) SiO2 
 PCOD9054093
Probable space group: P -1
;
_chemical_formula_sum "Si O2"
_cell_formula_units_Z 15
_cell_length_a 11.455085
_cell_length_b 8.047948
_cell_length_c 8.633628
_cell_angle_alpha 69.185501
_cell_angle_beta 90.600442
_cell_angle_gamma 120.550974
_cell_volume 626.229847
_symmetry_space_group_name_H-M "P -1"
_symmetry_group_IT_number 2
_symmetry_cell_setting 'triclinic'
loop_
_space_group_symop_operation_xyz
x,y,z
-x,-y,-z
loop_
_atom_site_type_symbol
_atom_site_label
_atom_site_fract_x
_atom_site_fract_y
_atom_site_fract_z
Si Si1 0.000000 0.500000 0.000000
Si Si2 0.738889 0.028656 0.759612
Si Si3 0.282337 0.382549 0.605326
Si Si4 0.282567 0.582823 0.250703
Si Si5 0.604294 0.840661 0.137816
Si Si6 0.279542 0.704913 0.894740
Si Si7 0.011095 0.198133 0.851642
Si Si8 0.503413 0.206285 0.376791
O O1 0.139555 0.667730 0.835968
O O2 0.970738 0.308534 0.943962
O O3 0.722660 0.229068 0.724811
O O4 0.900105 0.120234 0.737385
O O5 0.649123 0.888846 0.660244
O O6 0.674408 0.878513 0.959352
O O7 0.233305 0.391558 0.429908
O O8 0.321153 0.218158 0.713984
O O9 0.162380 0.346657 0.732211
O O10 0.425536 0.611562 0.555852
O O11 0.441545 0.670334 0.181587
O O12 0.208037 0.542073 0.095024
O O13 0.627038 0.062939 0.111139
O O14 0.385984 0.686836 0.797647
O O15 0.000000 0.000000 0.000000
O O16 0.500000 0.000000 0.500000
#
# Coordination Sequence:
#
# PCOD9054093 Si02
#       8
#     1   2   2   2   2   2   2   2
#     4  12  22  40  72  94 128 196 228 272 354 418
#     4  11  21  41  67  93 139 181 219 285 347 408
#     4  12  25  40  69 100 137 175 232 289 345 413
#     4  11  21  40  67  98 125 179 229 275 351 418
#     4  11  20  40  68  93 130 178 220 285 345 407
#     4  11  21  41  67  90 131 174 235 272 342 421
#     4  12  25  46  69 105 141 182 240 290 348 423
#     4  12  23  41  65 104 132 171 231 287 328 414
#
# _framework density 23.952866
#
# number of rings (size 3 to 8) (size 9 to 14) (size 15 to 20)
#    0.000    0.533    9.333    1.200    0.000    1.067 
#    4.800    0.000    0.000    1.600    0.000    0.000 
#    0.000    0.000    0.000    0.000    0.000    0.000 
#
# Total GULP energy -83638.148115 kJ/mol
# GULP energy per Si atom -5575.876541 kJ/mol
# Density = 2.389835 g / cm^3
# Si number density = 23.952866 Si / 1000 Ang^3
#
#
#
# Elastic Constant Matrix: (Units=GPa)
#
#
# Indices 1 2 3 4 5 6 
#
# 1 93.5022 15.1649 9.4083 -1.2453 0.0577 8.8831
# 2 15.1649 59.5843 10.3273 6.0108 5.2720 21.3053
# 3 9.4083 10.3273 104.1028 -10.9431 24.4413 -17.8773
# 4 -1.2453 6.0108 -10.9431 17.6715 -5.6343 -3.8359
# 5 0.0577 5.2720 24.4413 -5.6343 28.0521 -2.7170
# 6 8.8831 21.3053 -17.8773 -3.8359 -2.7170 26.9057
#
#
#
# Elastic Compliance Matrix: (Units=1/GPa)
#
#
# Indices 1 2 3 4 5 6 
#
# 1 0.011473 -0.001184 -0.002018 -0.000463 0.001466 -0.004109
# 2 -0.001184 0.040019 -0.013771 -0.034417 -0.006894 -0.046051
# 3 -0.002018 -0.013771 0.019720 0.020008 -0.007983 0.026720
# 4 -0.000463 -0.034417 0.020008 0.097266 0.013994 0.055981
# 5 0.001466 -0.006894 -0.007983 0.013994 0.047331 0.006445
# 6 -0.004109 -0.046051 0.026720 0.055981 0.006445 0.101375
#
#
# Mechanical properties :
#
#
# Convention : Reuss Voigt Hill
#
# Bulk Modulus (GPa) = 26.83294 36.33226 31.58260
# Shear Modulus (GPa) = 13.75316 29.34512 21.54914
#
# Velocity S-wave (km/s) = 2.39880 3.50397 3.00267
# Velocity P-wave (km/s) = 4.34730 5.61886 5.02347
#
# Compressibility (1/GPa) = 0.03726763
#
# Stress axis : x y z
#
# Youngs Moduli (GPa) = 87.15853 24.98801 50.70876
#
# Poissons Ratio (x) = 0.02959 0.10233
# Poissons Ratio (y) = 0.10320 0.69829
# Poissons Ratio (z) = 0.17588 0.34410
#
# Static dielectric constant tensor:
#      x y z
#    x 1.588130 -0.035930 -0.058260 
#    y -0.035930 1.948710 0.020070 
#    z -0.058260 0.020070 1.946840 
# 
# From -- ./inp_files/227743.got.cif
#   From: 2010.05.17/outbox.cif.g08.bks.cpg/sg2_114_cif.got.tgz:227743.got - 2010.06.03 11:33:40.
