data_PCOD9054865
_publ_section_title
;
Structure prediction by ZEFSAII (Michael W. Deem and Ramdas Pophale) SiO2 
 PCOD9054865
Probable space group: P -1
;
_chemical_formula_sum "Si O2"
_cell_formula_units_Z 16
_cell_length_a 9.017630
_cell_length_b 11.800154
_cell_length_c 11.022079
_cell_angle_alpha 121.513373
_cell_angle_beta 92.333208
_cell_angle_gamma 128.089073
_cell_volume 661.730079
_symmetry_space_group_name_H-M "P -1"
_symmetry_group_IT_number 2
_symmetry_cell_setting 'triclinic'
loop_
_space_group_symop_operation_xyz
x,y,z
-x,-y,-z
loop_
_atom_site_type_symbol
_atom_site_label
_atom_site_fract_x
_atom_site_fract_y
_atom_site_fract_z
Si Si1 0.971769 0.183571 0.044486
Si Si2 0.647074 0.343942 0.929325
Si Si3 0.054907 0.893738 0.254819
Si Si4 0.596490 0.619227 0.223730
Si Si5 0.656304 0.802211 0.966812
Si Si6 0.431269 0.321703 0.470135
Si Si7 0.135926 0.705503 0.272955
Si Si8 0.854809 0.453391 0.580330
O O1 0.948577 0.209904 0.918618
O O2 0.741876 0.966562 0.965876
O O3 0.155617 0.187858 0.037547
O O4 0.053620 0.354012 0.234082
O O5 0.583913 0.437065 0.905103
O O6 0.696177 0.266989 0.787556
O O7 0.420609 0.165747 0.899816
O O8 0.879065 0.507062 0.105661
O O9 0.180248 0.891010 0.358457
O O10 0.830404 0.788324 0.255904
O O11 0.180243 0.103660 0.318209
O O12 0.555470 0.440092 0.167069
O O13 0.571213 0.672084 0.380998
O O14 0.500000 0.500000 0.500000
O O15 0.614839 0.335228 0.453489
O O16 0.155954 0.668623 0.388791
O O17 0.000000 0.500000 0.500000
#
# Coordination Sequence:
#
# PCOD9054865 Si02
#       8
#     2   2   2   2   2   2   2   2
#     4  11  24  45  73 112 144 193 252 307 375 440
#     4  11  21  41  77 111 142 188 241 317 367 435
#     4  12  26  45  78 114 145 196 258 308 375 445
#     4  12  22  45  74 116 148 192 253 318 372 434
#     4  11  21  38  76 111 142 183 244 314 368 428
#     4  12  29  50  72 109 160 199 247 314 378 447
#     4  11  24  44  73 107 149 190 250 302 372 449
#     4  12  29  52  73 104 159 207 243 306 382 455
#
# _framework density 24.179043
#
# number of rings (size 3 to 8) (size 9 to 14) (size 15 to 20)
#    0.000    0.500    5.000    3.750    3.500    2.500 
#    2.250    1.875    0.000    0.000    0.000    0.000 
#    0.000    0.000    0.000    0.000    0.000    0.000 
#
# Total GULP energy -89253.815611 kJ/mol
# GULP energy per Si atom -5578.363476 kJ/mol
# Density = 2.412401 g / cm^3
# Si number density = 24.179043 Si / 1000 Ang^3
#
#
#
# Elastic Constant Matrix: (Units=GPa)
#
#
# Indices 1 2 3 4 5 6 
#
# 1 135.8505 75.0937 19.4689 -10.0225 -12.6039 23.5451
# 2 75.0937 214.8281 41.4494 -3.2801 -5.6213 31.9599
# 3 19.4689 41.4494 40.9144 -5.0638 0.9530 16.8598
# 4 -10.0225 -3.2801 -5.0638 42.0912 4.6373 -10.1583
# 5 -12.6039 -5.6213 0.9530 4.6373 14.8050 -15.3038
# 6 23.5451 31.9599 16.8598 -10.1583 -15.3038 52.8102
#
#
#
# Elastic Compliance Matrix: (Units=1/GPa)
#
#
# Indices 1 2 3 4 5 6 
#
# 1 0.009996 -0.002959 -0.001934 0.001175 0.007508 0.000353
# 2 -0.002959 0.006857 -0.004905 -0.001070 -0.001120 -0.001795
# 3 -0.001934 -0.004905 0.036591 0.002606 -0.020384 -0.013257
# 4 0.001175 -0.001070 0.002606 0.025464 -0.004595 0.002858
# 5 0.007508 -0.001120 -0.020384 -0.004595 0.113237 0.035769
# 6 0.000353 -0.001795 -0.013257 0.002858 0.035769 0.035012
#
#
# Mechanical properties :
#
#
# Convention : Reuss Voigt Hill
#
# Bulk Modulus (GPa) = 29.54420 73.73520 51.63970
# Shear Modulus (GPa) = 19.37715 38.97999 29.17857
#
# Velocity S-wave (km/s) = 2.83398 4.01950 3.47763
# Velocity P-wave (km/s) = 4.79104 7.21828 6.12607
#
# Compressibility (1/GPa) = 0.03384759
#
# Stress axis : x y z
#
# Youngs Moduli (GPa) = 100.04101 145.83420 27.32909
#
# Poissons Ratio (x) = 0.43155 0.05284
# Poissons Ratio (y) = 0.29604 0.13406
# Poissons Ratio (z) = 0.19344 0.71538
#
# Static dielectric constant tensor:
#      x y z
#    x 1.982300 -0.003540 -0.064760 
#    y -0.003540 1.932480 0.041250 
#    z -0.064760 0.041250 2.188660 
# 
# From -- ./inp_files/392856.got.cif
#   From: 2010.05.17/outbox.cif.g08.bks.cpg/sg2_197_cif.got.tgz:392856.got - 2010.06.03 11:33:40.
