data_PCOD9054546
_publ_section_title
;
Structure prediction by ZEFSAII (Michael W. Deem and Ramdas Pophale) SiO2 
 PCOD9054546
Probable space group: P -1
;
_chemical_formula_sum "Si O2"
_cell_formula_units_Z 16
_cell_length_a 15.079660
_cell_length_b 10.277737
_cell_length_c 11.308651
_cell_angle_alpha 110.020953
_cell_angle_beta 124.787205
_cell_angle_gamma 117.041244
_cell_volume 728.964664
_symmetry_space_group_name_H-M "P -1"
_symmetry_group_IT_number 2
_symmetry_cell_setting 'triclinic'
loop_
_space_group_symop_operation_xyz
x,y,z
-x,-y,-z
loop_
_atom_site_type_symbol
_atom_site_label
_atom_site_fract_x
_atom_site_fract_y
_atom_site_fract_z
Si Si1 0.536486 0.547414 0.231848
Si Si2 0.534042 0.153173 0.667765
Si Si3 0.270458 0.161535 0.120994
Si Si4 0.093147 0.463376 0.793657
Si Si5 0.202442 0.309222 0.726877
Si Si6 0.843550 0.102920 0.705846
Si Si7 0.648807 0.456832 0.634466
Si Si8 0.963637 0.623539 0.805412
O O1 0.391044 0.310795 0.137310
O O2 0.672326 0.600637 0.265153
O O3 0.710318 0.820392 0.518871
O O4 0.377974 0.469821 0.009931
O O5 0.318616 0.964264 0.487779
O O6 0.621923 0.367991 0.717204
O O7 0.500000 0.000000 0.500000
O O8 0.680434 0.258230 0.910666
O O9 0.433891 0.268874 0.364699
O O10 0.223527 0.264613 0.166744
O O11 0.079325 0.857478 0.883277
O O12 0.120596 0.378894 0.686346
O O13 0.983104 0.492637 0.721988
O O14 0.004773 0.278725 0.779228
O O15 0.000000 0.000000 0.500000
O O16 0.929453 0.249547 0.941997
O O17 0.748592 0.453908 0.622487
#
# Coordination Sequence:
#
# PCOD9054546 Si02
#       8
#     2   2   2   2   2   2   2   2
#     4  11  24  41  66  92 114 159 213 252 304 356
#     4  12  20  35  58  92 132 160 192 244 305 368
#     4  11  22  41  58  85 129 166 201 243 296 368
#     4  12  23  38  62  93 127 161 203 256 308 352
#     4  11  24  44  66  91 114 154 212 266 306 348
#     4  12  20  35  61  93 127 157 194 246 305 366
#     4  11  21  36  56  89 128 167 200 232 299 373
#     4  12  24  36  59  98 130 165 196 238 307 377
#
# _framework density 21.948937000000001
#
# number of rings (size 3 to 8) (size 9 to 14) (size 15 to 20)
#    0.000    0.500    7.500    2.250    0.000    1.000 
#    0.000    0.625    0.000    1.500    0.000    0.000 
#    0.000    0.000    0.000    0.000    0.000    0.000 
#
# Total GULP energy -89245.144156 kJ/mol
# GULP energy per Si atom -5577.821510 kJ/mol
# Density = 2.189898 g / cm^3
# Si number density = 21.948937 Si / 1000 Ang^3
#
#
#
# Elastic Constant Matrix: (Units=GPa)
#
#
# Indices 1 2 3 4 5 6 
#
# 1 162.3393 30.1661 7.1118 3.6842 1.0053 -16.5304
# 2 30.1661 52.2447 -7.1585 8.8728 0.8965 -7.6479
# 3 7.1118 -7.1585 37.6048 4.3969 2.3806 -8.4771
# 4 3.6842 8.8728 4.3969 20.2400 -5.2604 -0.0579
# 5 1.0053 0.8965 2.3806 -5.2604 29.1468 6.2350
# 6 -16.5304 -7.6479 -8.4771 -0.0579 6.2350 40.5660
#
#
#
# Elastic Compliance Matrix: (Units=1/GPa)
#
#
# Indices 1 2 3 4 5 6 
#
# 1 0.007204 -0.004322 -0.001892 0.000957 -0.000163 0.001752
# 2 -0.004322 0.026207 0.009092 -0.014006 -0.005180 0.005856
# 3 -0.001892 0.009092 0.032575 -0.012517 -0.007019 0.008811
# 4 0.000957 -0.014006 -0.012517 0.061722 0.014044 -0.006937
# 5 -0.000163 -0.005180 -0.007019 0.014044 0.039410 -0.008547
# 6 0.001752 0.005856 0.008811 -0.006937 -0.008547 0.029614
#
#
# Mechanical properties :
#
#
# Convention : Reuss Voigt Hill
#
# Bulk Modulus (GPa) = 13.93887 34.71418 24.32652
# Shear Modulus (GPa) = 23.26775 32.79519 28.03147
#
# Velocity S-wave (km/s) = 3.25943 3.86963 3.57756
# Velocity P-wave (km/s) = 4.53095 5.98461 5.30778
#
# Compressibility (1/GPa) = 0.07174184
#
# Stress axis : x y z
#
# Youngs Moduli (GPa) = 138.82007 38.15816 30.69828
#
# Poissons Ratio (x) = 0.16491 0.05807
# Poissons Ratio (y) = 0.59996 -0.27910
# Poissons Ratio (z) = 0.26261 -0.34693
#
# Static dielectric constant tensor:
#      x y z
#    x 1.860680 -0.011500 0.015340 
#    y -0.011500 1.934710 0.095370 
#    z 0.015340 0.095370 1.916570 
# 
# From -- ./inp_files/273566.got.cif
#   From: 2010.05.17/outbox.cif.g08.bks.cpg/sg2_137_cif.got.tgz:273566.got - 2010.06.03 11:33:40.
