data_PCOD9054316
_publ_section_title
;
Structure prediction by ZEFSAII (Michael W. Deem and Ramdas Pophale) SiO2 
 PCOD9054316
Probable space group: P -1
;
_chemical_formula_sum "Si O2"
_cell_formula_units_Z 16
_cell_length_a 12.027467
_cell_length_b 12.802504
_cell_length_c 8.577124
_cell_angle_alpha 114.643870
_cell_angle_beta 67.814800
_cell_angle_gamma 58.154067
_cell_volume 645.658541
_symmetry_space_group_name_H-M "P -1"
_symmetry_group_IT_number 2
_symmetry_cell_setting 'triclinic'
loop_
_space_group_symop_operation_xyz
x,y,z
-x,-y,-z
loop_
_atom_site_type_symbol
_atom_site_label
_atom_site_fract_x
_atom_site_fract_y
_atom_site_fract_z
Si Si1 0.492848 0.005354 0.316281
Si Si2 0.088842 0.214393 0.089795
Si Si3 0.205226 0.022838 0.412998
Si Si4 0.709454 0.425852 0.595476
Si Si5 0.818676 0.562750 0.207109
Si Si6 0.740700 0.445000 0.937507
Si Si7 0.851512 0.055982 0.275310
Si Si8 0.714803 0.237297 0.031842
O O1 0.339548 0.229605 0.493570
O O2 0.500000 0.000000 0.500000
O O3 0.389671 0.969195 0.289594
O O4 0.721881 0.846292 0.029849
O O5 0.923339 0.321802 0.378420
O O6 0.942948 0.373379 0.125917
O O7 0.194800 0.010963 0.859785
O O8 0.214811 0.926918 0.206855
O O9 0.194005 0.959627 0.539124
O O10 0.987956 0.258189 0.666771
O O11 0.645036 0.511235 0.858195
O O12 0.747136 0.260691 0.459842
O O13 0.519096 0.602270 0.691159
O O14 0.691242 0.592823 0.161507
O O15 0.000000 0.500000 0.000000
O O16 0.703027 0.357728 0.999602
O O17 0.100356 0.879640 0.021885
#
# Coordination Sequence:
#
# PCOD9054316 Si02
#       8
#     2   2   2   2   2   2   2   2
#     4  12  24  42  74  98 128 179 233 272 322 395
#     4  12  27  45  64 104 137 178 220 279 338 394
#     4  11  20  42  71 100 130 169 233 279 320 389
#     4  12  27  40  66 104 139 173 222 274 345 398
#     4  12  23  44  72  96 131 176 231 274 320 395
#     4  11  21  43  69  99 133 175 223 280 324 401
#     4  11  21  43  67  97 139 170 218 283 330 399
#     4  11  23  40  70  99 132 178 225 269 340 392
#
# _framework density 24.780898000000001
#
# number of rings (size 3 to 8) (size 9 to 14) (size 15 to 20)
#    0.000    0.500    8.750    1.500    3.500    1.500 
#    0.000    3.125    0.000    0.000    0.000    0.000 
#    0.000    0.000    0.000    0.000    0.000    0.000 
#
# Total GULP energy -89685.065087 kJ/mol
# GULP energy per Si atom -5605.316568 kJ/mol
# Density = 2.472450 g / cm^3
# Si number density = 24.780898 Si / 1000 Ang^3
#
#
#
# Elastic Constant Matrix: (Units=GPa)
#
#
# Indices 1 2 3 4 5 6 
#
# 1 137.4786 14.9440 23.9411 -2.5404 -9.7037 4.3618
# 2 14.9440 60.9757 17.7426 7.3267 1.4094 6.1794
# 3 23.9411 17.7426 75.9676 12.8707 -18.8835 1.3375
# 4 -2.5404 7.3267 12.8707 29.4561 -8.1332 -2.7553
# 5 -9.7037 1.4094 -18.8835 -8.1332 47.3428 9.4467
# 6 4.3618 6.1794 1.3375 -2.7553 9.4467 30.4237
#
#
#
# Elastic Compliance Matrix: (Units=1/GPa)
#
#
# Indices 1 2 3 4 5 6 
#
# 1 0.007995 -0.001537 -0.002189 0.002325 0.001403 -0.000963
# 2 -0.001537 0.018727 -0.003754 -0.004116 -0.002474 -0.003023
# 3 -0.002189 -0.003754 0.017152 -0.005282 0.006000 -0.002019
# 4 0.002325 -0.004116 -0.005282 0.039025 0.004632 0.002831
# 5 0.001403 -0.002474 0.006000 0.004632 0.026205 -0.007680
# 6 -0.000963 -0.003023 -0.002019 0.002831 -0.007680 0.036351
#
#
# Mechanical properties :
#
#
# Convention : Reuss Voigt Hill
#
# Bulk Modulus (GPa) = 34.58445 43.07526 38.82985
# Shear Modulus (GPa) = 29.40290 35.96411 32.68351
#
# Velocity S-wave (km/s) = 3.44832 3.81370 3.63561
# Velocity P-wave (km/s) = 5.46269 6.06734 5.77294
#
# Compressibility (1/GPa) = 0.02891473
#
# Stress axis : x y z
#
# Youngs Moduli (GPa) = 125.08405 53.39887 58.30263
#
# Poissons Ratio (x) = 0.08206 0.12762
# Poissons Ratio (y) = 0.19221 0.21886
# Poissons Ratio (z) = 0.27380 0.20045
#
# Static dielectric constant tensor:
#      x y z
#    x 1.923200 -0.039760 -0.047210 
#    y -0.039760 2.022360 -0.017430 
#    z -0.047210 -0.017430 1.964540 
# 
# From -- ./inp_files/274066.got.cif
#   From: 2010.05.17/outbox.cif.g08.bks.cpg/sg2_138_cif.got.tgz:274066.got - 2010.06.03 11:33:40.
