data_PCOD9054982
_publ_section_title
;
Structure prediction by ZEFSAII (Michael W. Deem and Ramdas Pophale) SiO2 
 PCOD9054982
Probable space group: P -1
;
_chemical_formula_sum "Si O2"
_cell_formula_units_Z 14
_cell_length_a 11.690280
_cell_length_b 9.257624
_cell_length_c 5.847305
_cell_angle_alpha 111.334197
_cell_angle_beta 75.827921
_cell_angle_gamma 91.272945
_cell_volume 569.947140
_symmetry_space_group_name_H-M "P -1"
_symmetry_group_IT_number 2
_symmetry_cell_setting 'triclinic'
loop_
_space_group_symop_operation_xyz
x,y,z
-x,-y,-z
loop_
_atom_site_type_symbol
_atom_site_label
_atom_site_fract_x
_atom_site_fract_y
_atom_site_fract_z
Si Si1 0.552830 0.533648 0.740673
Si Si2 0.530849 0.874786 0.109677
Si Si3 0.086529 0.827812 0.781591
Si Si4 0.935707 0.344471 0.883018
Si Si5 0.297937 0.990145 0.525007
Si Si6 0.866054 0.813121 0.629958
Si Si7 0.808880 0.479022 0.639095
O O1 0.500000 0.500000 0.500000
O O2 0.680843 0.445341 0.604065
O O3 0.500000 0.500000 0.000000
O O4 0.561829 0.716813 0.870216
O O5 0.408456 0.877474 0.315925
O O6 0.637339 0.911918 0.253050
O O7 0.500000 0.000000 0.000000
O O8 0.188926 0.907251 0.643776
O O9 0.094317 0.642672 0.591368
O O10 0.951687 0.888836 0.818848
O O11 0.110341 0.786770 0.007058
O O12 0.821568 0.427444 0.863744
O O13 0.038494 0.242830 0.640718
O O14 0.000000 0.500000 0.000000
O O15 0.238311 0.088785 0.397157
O O16 0.826724 0.656475 0.676965
#
# Coordination Sequence:
#
# PCOD9054982 Si02
#       7
#     2   2   2   2   2   2   2
#     4  12  31  50  82 117 150 202 274 330 391 466
#     4  11  28  51  77 107 155 208 258 322 401 464
#     4  11  23  43  71 107 155 193 255 311 383 470
#     4  11  21  39  69 106 144 196 248 311 383 451
#     4  11  27  46  75 110 158 204 254 315 395 472
#     4  11  23  42  69 110 149 198 255 310 388 462
#     4  11  24  42  73 104 146 195 253 322 381 449
#
# _framework density 24.563682
#
# number of rings (size 3 to 8) (size 9 to 14) (size 15 to 20)
#    0.000    0.857    2.857    3.000   12.000    4.000 
#    0.000    0.000    0.000    0.000    0.000    0.000 
#    0.000    0.000    0.000    0.000    0.000    0.000 
#
# Total GULP energy -78131.522606 kJ/mol
# GULP energy per Si atom -5580.823043 kJ/mol
# Density = 2.450777 g / cm^3
# Si number density = 24.563682 Si / 1000 Ang^3
#
#
#
# Elastic Constant Matrix: (Units=GPa)
#
#
# Indices 1 2 3 4 5 6 
#
# 1 185.4753 61.6807 36.2046 -30.4170 27.4944 -24.6483
# 2 61.6807 161.1435 25.5280 -42.2902 8.5878 -7.9799
# 3 36.2046 25.5280 64.5072 -15.4254 7.2494 1.8391
# 4 -30.4170 -42.2902 -15.4254 48.7185 -0.4927 -1.5612
# 5 27.4944 8.5878 7.2494 -0.4927 48.1536 -10.7762
# 6 -24.6483 -7.9799 1.8391 -1.5612 -10.7762 37.7957
#
#
#
# Elastic Compliance Matrix: (Units=1/GPa)
#
#
# Indices 1 2 3 4 5 6 
#
# 1 0.007915 -0.001443 -0.002996 0.002850 -0.002815 0.004318
# 2 -0.001443 0.008655 -0.001117 0.006292 -0.000233 0.001134
# 3 -0.002996 -0.001117 0.018606 0.002925 -0.001631 -0.003439
# 4 0.002850 0.006292 0.002925 0.028789 -0.002080 0.003641
# 5 -0.002815 -0.000233 -0.001631 -0.002080 0.023731 0.004874
# 6 0.004318 0.001134 -0.003439 0.003641 0.004874 0.031221
#
#
# Mechanical properties :
#
#
# Convention : Reuss Voigt Hill
#
# Bulk Modulus (GPa) = 41.55558 73.10584 57.33071
# Shear Modulus (GPa) = 36.21868 46.11441 41.16654
#
# Velocity S-wave (km/s) = 3.84406 4.33753 4.09823
# Velocity P-wave (km/s) = 6.05447 7.41026 6.76641
#
# Compressibility (1/GPa) = 0.02406416
#
# Stress axis : x y z
#
# Youngs Moduli (GPa) = 126.34451 115.54255 53.74501
#
# Poissons Ratio (x) = 0.16673 0.16104
# Poissons Ratio (y) = 0.18232 0.06001
# Poissons Ratio (z) = 0.37857 0.12901
#
# Static dielectric constant tensor:
#      x y z
#    x 1.663570 -0.112800 -0.000950 
#    y -0.112800 2.436720 -0.250480 
#    z -0.000950 -0.250480 2.197410 
# 
# From -- ./inp_files/60896.got.cif
#   From: 2010.05.17/outbox.cif.g08.bks.cpg/sg2_31_cif.got.tgz:60896.got - 2010.06.03 11:33:40.
