data_PCOD9054806
_publ_section_title
;
Structure prediction by ZEFSAII (Michael W. Deem and Ramdas Pophale) SiO2 
 PCOD9054806
Probable space group: P -1
;
_chemical_formula_sum "Si O2"
_cell_formula_units_Z 14
_cell_length_a 11.461177
_cell_length_b 8.720664
_cell_length_c 9.303555
_cell_angle_alpha 93.214934
_cell_angle_beta 138.512403
_cell_angle_gamma 82.175627
_cell_volume 608.778199
_symmetry_space_group_name_H-M "P -1"
_symmetry_group_IT_number 2
_symmetry_cell_setting 'triclinic'
loop_
_space_group_symop_operation_xyz
x,y,z
-x,-y,-z
loop_
_atom_site_type_symbol
_atom_site_label
_atom_site_fract_x
_atom_site_fract_y
_atom_site_fract_z
Si Si1 0.180196 0.898252 0.113237
Si Si2 0.687840 0.536067 0.610172
Si Si3 0.039432 0.301983 0.297163
Si Si4 0.831034 0.607501 0.043835
Si Si5 0.829032 0.239858 0.611552
Si Si6 0.372643 0.079592 0.084137
Si Si7 0.772654 0.968541 0.354150
O O1 0.105785 0.782430 0.926723
O O2 0.309628 0.002347 0.164405
O O3 0.257672 0.824292 0.329476
O O4 0.000000 0.000000 0.000000
O O5 0.500000 0.500000 0.500000
O O6 0.782359 0.674781 0.631040
O O7 0.720983 0.409867 0.505816
O O8 0.800123 0.523244 0.861597
O O9 0.116418 0.188470 0.490423
O O10 0.925870 0.472623 0.229437
O O11 0.658447 0.731744 0.929452
O O12 0.978004 0.721597 0.163798
O O13 0.845882 0.118883 0.493047
O O14 0.251742 0.036143 0.838235
O O15 0.571433 0.000451 0.230985
#
# Coordination Sequence:
#
# PCOD9054806 Si02
#       7
#     2   2   2   2   2   2   2
#     4  12  20  39  67  96 123 167 213 273 305 380
#     4  11  22  37  63  98 133 165 203 269 330 374
#     4  11  22  38  65  94 128 162 219 256 318 376
#     4  11  21  41  64  94 128 166 205 270 311 379
#     4  11  21  38  66  95 127 163 217 259 320 370
#     4  11  26  44  63  90 140 167 214 260 325 373
#     4  11  26  44  62  96 129 178 209 262 315 388
#
# _framework density 22.996883
#
# number of rings (size 3 to 8) (size 9 to 14) (size 15 to 20)
#    0.000    0.857    5.714    1.714    2.000    3.429 
#    0.000    1.429    0.000    9.429    0.000    0.000 
#    0.000    0.000    0.000    0.000    0.000    0.000 
#
# Total GULP energy -77993.490159 kJ/mol
# GULP energy per Si atom -5570.963583 kJ/mol
# Density = 2.294454 g / cm^3
# Si number density = 22.996883 Si / 1000 Ang^3
#
#
#
# Elastic Constant Matrix: (Units=GPa)
#
#
# Indices 1 2 3 4 5 6 
#
# 1 55.4592 6.9995 -2.9554 -0.1532 13.4363 -3.5056
# 2 6.9995 114.7237 28.7011 -4.0666 -10.1249 -8.2734
# 3 -2.9554 28.7011 82.3461 12.5476 -3.0397 3.9868
# 4 -0.1532 -4.0666 12.5476 28.1700 8.0369 3.9748
# 5 13.4363 -10.1249 -3.0397 8.0369 29.3037 1.3889
# 6 -3.5056 -8.2734 3.9868 3.9748 1.3889 16.3747
#
#
#
# Elastic Compliance Matrix: (Units=1/GPa)
#
#
# Indices 1 2 3 4 5 6 
#
# 1 0.021284 -0.002073 0.000549 0.002237 -0.011211 0.003783
# 2 -0.002073 0.010626 -0.004152 0.001635 0.003494 0.005243
# 3 0.000549 -0.004152 0.014994 -0.007293 0.002061 -0.004035
# 4 0.002237 0.001635 -0.007293 0.043569 -0.012863 -0.006404
# 5 -0.011211 0.003494 0.002061 -0.012863 0.044299 -0.001771
# 6 0.003783 0.005243 -0.004035 -0.006404 -0.001771 0.067216
#
#
# Mechanical properties :
#
#
# Convention : Reuss Voigt Hill
#
# Bulk Modulus (GPa) = 28.12931 35.33548 31.73240
# Shear Modulus (GPa) = 22.20342 29.42194 25.81268
#
# Velocity S-wave (km/s) = 3.11062 3.58073 3.35392
# Velocity P-wave (km/s) = 5.01593 5.70037 5.36907
#
# Compressibility (1/GPa) = 0.03555010
#
# Stress axis : x y z
#
# Youngs Moduli (GPa) = 46.98443 94.10609 66.69533
#
# Poissons Ratio (x) = 0.19509 -0.03659
# Poissons Ratio (y) = 0.09740 0.27693
# Poissons Ratio (z) = -0.02577 0.39074
#
# Static dielectric constant tensor:
#      x y z
#    x 1.873400 -0.027040 0.014210 
#    y -0.027040 1.986860 -0.009100 
#    z 0.014210 -0.009100 1.661810 
# 
# From -- ./inp_files/187565.got.cif
#   From: 2010.05.17/outbox.cif.g08.bks.cpg/sg2_94_cif.got.tgz:187565.got - 2010.06.03 11:33:40.
