data_PCOD9054014
_publ_section_title
;
Structure prediction by ZEFSAII (Michael W. Deem and Ramdas Pophale) SiO2 
 PCOD9054014
Probable space group: P -1
;
_chemical_formula_sum "Si O2"
_cell_formula_units_Z 16
_cell_length_a 10.855269
_cell_length_b 12.399004
_cell_length_c 8.603499
_cell_angle_alpha 93.949620
_cell_angle_beta 62.838802
_cell_angle_gamma 138.712438
_cell_volume 601.157117
_symmetry_space_group_name_H-M "P -1"
_symmetry_group_IT_number 2
_symmetry_cell_setting 'triclinic'
loop_
_space_group_symop_operation_xyz
x,y,z
-x,-y,-z
loop_
_atom_site_type_symbol
_atom_site_label
_atom_site_fract_x
_atom_site_fract_y
_atom_site_fract_z
Si Si1 0.905344 0.369051 0.734716
Si Si2 0.232133 0.910403 0.002593
Si Si3 0.088091 0.959374 0.842103
Si Si4 0.352635 0.886465 0.414255
Si Si5 0.917571 0.079426 0.487937
Si Si6 0.572460 0.594985 0.685913
Si Si7 0.496440 0.251940 0.081053
Si Si8 0.572284 0.369081 0.534171
O O1 0.858320 0.218642 0.817840
O O2 0.795807 0.298774 0.617256
O O3 0.186784 0.545202 0.605764
O O4 0.756484 0.362652 0.919607
O O5 0.349173 0.095480 0.016606
O O6 0.060011 0.836169 0.954141
O O7 0.436090 0.966130 0.816481
O O8 0.366695 0.152793 0.663472
O O9 0.985330 0.910553 0.725731
O O10 0.000000 0.000000 0.000000
O O11 0.147113 0.844456 0.531023
O O12 0.500000 0.000000 0.500000
O O13 0.141872 0.213262 0.483233
O O14 0.673325 0.885940 0.686703
O O15 0.485696 0.608107 0.886950
O O16 0.543583 0.446856 0.686352
O O17 0.454600 0.578627 0.603592
#
# Coordination Sequence:
#
# PCOD9054014 Si02
#       8
#     2   2   2   2   2   2   2   2
#     4  11  23  44  76 107 147 183 240 300 355 427
#     4  11  22  40  71 107 138 182 239 295 346 423
#     4  12  28  43  69 105 144 185 246 295 356 427
#     4  11  20  39  71 108 141 187 234 288 355 423
#     4  12  21  43  72 103 142 185 241 297 349 428
#     4  11  24  41  73  99 144 189 241 285 363 418
#     4  11  21  40  73 110 134 188 245 293 346 432
#     4  11  26  46  70 105 145 193 231 300 368 420
#
# _framework density 26.615337
#
# number of rings (size 3 to 8) (size 9 to 14) (size 15 to 20)
#    0.000    0.750    6.250    1.875    5.250    0.500 
#    0.000    5.000    8.250    0.000    0.000    0.000 
#    0.000    0.000    0.000    0.000    0.000    0.000 
#
# Total GULP energy -89280.802112 kJ/mol
# GULP energy per Si atom -5580.050132 kJ/mol
# Density = 2.655476 g / cm^3
# Si number density = 26.615337 Si / 1000 Ang^3
#
#
#
# Elastic Constant Matrix: (Units=GPa)
#
#
# Indices 1 2 3 4 5 6 
#
# 1 124.7674 13.4595 49.7658 -9.7256 -14.1909 21.4634
# 2 13.4595 60.1545 40.3922 3.8127 -9.9067 9.1002
# 3 49.7658 40.3922 96.9726 25.7630 -20.1105 13.8704
# 4 -9.7256 3.8127 25.7630 36.2396 -0.8659 -14.2989
# 5 -14.1909 -9.9067 -20.1105 -0.8659 58.6960 4.5802
# 6 21.4634 9.1002 13.8704 -14.2989 4.5802 44.8242
#
#
#
# Elastic Compliance Matrix: (Units=1/GPa)
#
#
# Indices 1 2 3 4 5 6 
#
# 1 0.012910 0.003923 -0.011132 0.010947 0.000135 -0.000055
# 2 0.003923 0.025187 -0.015057 0.009363 0.000129 0.000641
# 3 -0.011132 -0.015057 0.033287 -0.029666 0.006676 -0.012059
# 4 0.010947 0.009363 -0.029666 0.058974 -0.006748 0.021539
# 5 0.000135 0.000129 0.006676 -0.006748 0.019773 -0.006330
# 6 -0.000055 0.000641 -0.012059 0.021539 -0.006330 0.033455
#
#
# Mechanical properties :
#
#
# Convention : Reuss Voigt Hill
#
# Bulk Modulus (GPa) = 37.23964 54.34772 45.79368
# Shear Modulus (GPa) = 21.09090 39.83710 30.46400
#
# Velocity S-wave (km/s) = 2.81807 3.87301 3.38687
# Velocity P-wave (km/s) = 4.96094 6.36116 5.70417
#
# Compressibility (1/GPa) = 0.02685310
#
# Stress axis : x y z
#
# Youngs Moduli (GPa) = 77.45915 39.70264 30.04150
#
# Poissons Ratio (x) = -0.15575 0.33441
# Poissons Ratio (y) = -0.30386 0.45233
# Poissons Ratio (z) = 0.86225 0.59780
#
# Static dielectric constant tensor:
#      x y z
#    x 2.135990 -0.007650 0.017410 
#    y -0.007650 2.283040 0.079960 
#    z 0.017410 0.079960 2.096620 
# 
# From -- ./inp_files/270450.got.cif
#   From: 2010.05.17/outbox.cif.g08.bks.cpg/sg2_136_cif.got.tgz:270450.got - 2010.06.03 11:33:40.
