data_PCOD9054592
_publ_section_title
;
Structure prediction by ZEFSAII (Michael W. Deem and Ramdas Pophale) SiO2 
 PCOD9054592
Probable space group: P -1
;
_chemical_formula_sum "Si O2"
_cell_formula_units_Z 14
_cell_length_a 7.570429
_cell_length_b 9.978321
_cell_length_c 19.397469
_cell_angle_alpha 35.467845
_cell_angle_beta 40.612272
_cell_angle_gamma 48.974721
_cell_volume 550.617973
_symmetry_space_group_name_H-M "P -1"
_symmetry_group_IT_number 2
_symmetry_cell_setting 'triclinic'
loop_
_space_group_symop_operation_xyz
x,y,z
-x,-y,-z
loop_
_atom_site_type_symbol
_atom_site_label
_atom_site_fract_x
_atom_site_fract_y
_atom_site_fract_z
Si Si1 0.813699 0.099322 0.886545
Si Si2 0.577724 0.884405 0.240566
Si Si3 0.086863 0.749937 0.521277
Si Si4 0.298946 0.831820 0.567477
Si Si5 0.351522 0.662043 0.034488
Si Si6 0.112572 0.320492 0.599493
Si Si7 0.743728 0.628382 0.174995
O O1 0.668526 0.315401 0.885211
O O2 0.126731 0.078189 0.832374
O O3 0.881840 0.163299 0.761147
O O4 0.703169 0.846251 0.041443
O O5 0.348164 0.875433 0.368215
O O6 0.570869 0.674343 0.277329
O O7 0.517413 0.102941 0.118043
O O8 0.096125 0.754165 0.599218
O O9 0.145910 0.491722 0.582955
O O10 0.827053 0.899934 0.501085
O O11 0.606397 0.812560 0.455105
O O12 0.278869 0.646665 0.713648
O O13 0.042978 0.659871 0.101702
O O14 0.500000 0.500000 0.000000
O O15 0.000000 0.500000 0.500000
#
# Coordination Sequence:
#
# PCOD9054592 Si02
#       7
#     2   2   2   2   2   2   2
#     4   9  19  35  55  84 122 158 196 243 304 363
#     4   9  15  29  54  83 113 146 183 251 300 344
#     4  11  21  36  65  93 119 151 208 257 305 352
#     4  11  22  37  66  93 117 155 205 261 306 352
#     4   9  16  26  50  88 122 143 185 246 310 349
#     4  12  25  42  61  83 128 173 199 245 302 367
#     4   9  17  32  55  83 118 148 191 249 302 355
#
# _framework density 25.425975999999999
#
# number of rings (size 3 to 8) (size 9 to 14) (size 15 to 20)
#    0.000    2.000    2.857    4.714    0.000    1.714 
#    0.000    0.714    0.000    0.857    0.000    0.000 
#    0.000    0.000    0.000    0.000    0.000    0.000 
#
# Total GULP energy -78001.272425 kJ/mol
# GULP energy per Si atom -5571.519459 kJ/mol
# Density = 2.536811 g / cm^3
# Si number density = 25.425976 Si / 1000 Ang^3
#
#
#
# Elastic Constant Matrix: (Units=GPa)
#
#
# Indices 1 2 3 4 5 6 
#
# 1 69.6850 18.1212 9.4307 7.5505 -1.3577 4.0866
# 2 18.1212 122.7735 32.8496 5.1554 -2.0260 -18.7710
# 3 9.4307 32.8496 167.7948 3.5049 9.1162 -16.3856
# 4 7.5505 5.1554 3.5049 26.1801 -2.8718 -1.3501
# 5 -1.3577 -2.0260 9.1162 -2.8718 38.8390 -3.9448
# 6 4.0866 -18.7710 -16.3856 -1.3501 -3.9448 18.2498
#
#
#
# Elastic Compliance Matrix: (Units=1/GPa)
#
#
# Indices 1 2 3 4 5 6 
#
# 1 0.016276 -0.003233 -0.000969 -0.004414 -0.000540 -0.008283
# 2 -0.003233 0.010614 -0.000893 -0.000267 0.001768 0.011202
# 3 -0.000969 -0.000893 0.006756 -0.000315 -0.001173 0.005088
# 4 -0.004414 -0.000267 -0.000315 0.040138 0.003291 0.004112
# 5 -0.000540 0.001768 -0.001173 0.003291 0.027048 0.006977
# 6 -0.008283 0.011202 0.005088 0.004112 0.006977 0.074552
#
#
# Mechanical properties :
#
#
# Convention : Reuss Voigt Hill
#
# Bulk Modulus (GPa) = 42.63300 53.45070 48.04185
# Shear Modulus (GPa) = 25.85415 36.64391 31.24903
#
# Velocity S-wave (km/s) = 3.19225 3.80043 3.50954
# Velocity P-wave (km/s) = 5.51282 6.35023 5.94629
#
# Compressibility (1/GPa) = 0.02345601
#
# Stress axis : x y z
#
# Youngs Moduli (GPa) = 61.44138 94.21298 148.01508
#
# Poissons Ratio (x) = 0.30459 0.14345
# Poissons Ratio (y) = 0.19864 0.13216
# Poissons Ratio (z) = 0.05955 0.08412
#
# Static dielectric constant tensor:
#      x y z
#    x 2.479840 0.233510 0.001910 
#    y 0.233510 2.367440 -0.016550 
#    z 0.001910 -0.016550 2.085770 
# 
# From -- ./inp_files/390562.got.cif
#   From: 2010.05.17/outbox.cif.g08.bks.cpg/sg2_196_cif.got.tgz:390562.got - 2010.06.03 11:33:40.
