data_PCOD9054533
_publ_section_title
;
Structure prediction by ZEFSAII (Michael W. Deem and Ramdas Pophale) SiO2 
 PCOD9054533
Probable space group: P -1
;
_chemical_formula_sum "Si O2"
_cell_formula_units_Z 16
_cell_length_a 11.938920
_cell_length_b 11.749991
_cell_length_c 8.121739
_cell_angle_alpha 77.394408
_cell_angle_beta 60.677311
_cell_angle_gamma 46.740137
_cell_volume 710.948189
_symmetry_space_group_name_H-M "P -1"
_symmetry_group_IT_number 2
_symmetry_cell_setting 'triclinic'
loop_
_space_group_symop_operation_xyz
x,y,z
-x,-y,-z
loop_
_atom_site_type_symbol
_atom_site_label
_atom_site_fract_x
_atom_site_fract_y
_atom_site_fract_z
Si Si1 0.606312 0.210445 0.589007
Si Si2 0.853505 0.671829 0.637564
Si Si3 0.864820 0.289673 0.976586
Si Si4 0.031286 0.609339 0.869974
Si Si5 0.719908 0.397129 0.508081
Si Si6 0.418897 0.330991 0.021346
Si Si7 0.058371 0.137569 0.562176
Si Si8 0.411877 0.722743 0.769863
O O1 0.621133 0.341814 0.540216
O O2 0.572067 0.200708 0.423432
O O3 0.796973 0.041397 0.542616
O O4 0.480451 0.255002 0.818296
O O5 0.683563 0.701818 0.787023
O O6 0.845572 0.796290 0.505371
O O7 0.000000 0.500000 0.500000
O O8 0.913019 0.677558 0.773091
O O9 0.719668 0.476572 0.965040
O O10 0.969146 0.169432 0.790070
O O11 0.996856 0.277631 0.004575
O O12 0.756687 0.253178 0.149242
O O13 0.219402 0.540992 0.686011
O O14 0.000000 0.500000 0.000000
O O15 0.589373 0.538036 0.684306
O O16 0.898227 0.249119 0.515600
O O17 0.585107 0.251167 0.045845
#
# Coordination Sequence:
#
# PCOD9054533 Si02
#       8
#     2   2   2   2   2   2   2   2
#     4  12  26  43  65 103 142 175 222 286 346 392
#     4  11  22  43  68  98 133 178 235 274 330 409
#     4  12  21  42  69 100 130 175 231 276 334 402
#     4  11  21  35  65 101 126 167 224 286 320 386
#     4  11  21  42  67  95 135 177 227 278 331 403
#     4  12  23  42  74  96 133 183 228 279 337 400
#     4  11  25  43  66  97 140 177 221 285 339 399
#     4  12  24  42  70 105 131 177 232 279 331 408
#
# _framework density 22.505157000000001
#
# number of rings (size 3 to 8) (size 9 to 14) (size 15 to 20)
#    0.000    0.500    6.250    3.375    0.000    1.000 
#    4.500    0.625    0.000    0.000    0.000    0.000 
#    0.000    0.000    0.000    0.000    0.000    0.000 
#
# Total GULP energy -89252.549196 kJ/mol
# GULP energy per Si atom -5578.284325 kJ/mol
# Density = 2.245393 g / cm^3
# Si number density = 22.505157 Si / 1000 Ang^3
#
#
#
# Elastic Constant Matrix: (Units=GPa)
#
#
# Indices 1 2 3 4 5 6 
#
# 1 64.6973 -2.9300 -0.4186 -4.5185 3.8273 4.2919
# 2 -2.9300 55.8508 23.6475 10.1278 -5.6942 -9.0406
# 3 -0.4186 23.6475 118.9944 2.9419 -8.4210 5.5258
# 4 -4.5185 10.1278 2.9419 22.7592 -1.0664 -5.7238
# 5 3.8273 -5.6942 -8.4210 -1.0664 46.1944 -14.8815
# 6 4.2919 -9.0406 5.5258 -5.7238 -14.8815 25.5089
#
#
#
# Elastic Compliance Matrix: (Units=1/GPa)
#
#
# Indices 1 2 3 4 5 6 
#
# 1 0.016003 -0.000507 0.000099 0.002295 -0.002566 -0.003876
# 2 -0.000507 0.023428 -0.004611 -0.006896 0.005487 0.011041
# 3 0.000099 -0.004611 0.009494 -0.000106 -0.000062 -0.003768
# 4 0.002295 -0.006896 -0.000106 0.050283 0.003487 0.010510
# 5 -0.002566 0.005487 -0.000062 0.003487 0.029096 0.020146
# 6 -0.003876 0.011041 -0.003768 0.010510 0.020146 0.058694
#
#
# Mechanical properties :
#
#
# Convention : Reuss Voigt Hill
#
# Bulk Modulus (GPa) = 25.71706 31.12671 28.42189
# Shear Modulus (GPa) = 23.80952 33.50874 28.65913
#
# Velocity S-wave (km/s) = 3.25616 3.86286 3.57241
# Velocity P-wave (km/s) = 5.05853 5.81004 5.44726
#
# Compressibility (1/GPa) = 0.03888470
#
# Stress axis : x y z
#
# Youngs Moduli (GPa) = 62.48651 42.68414 105.33285
#
# Poissons Ratio (x) = 0.02166 -0.01041
# Poissons Ratio (y) = 0.03171 0.48574
# Poissons Ratio (z) = -0.00617 0.19684
#
# Static dielectric constant tensor:
#      x y z
#    x 1.854390 0.144940 -0.106320 
#    y 0.144940 1.394650 0.373210 
#    z -0.106320 0.373210 1.532770 
# 
# From -- ./inp_files/257955.got.cif
#   From: 2010.05.17/outbox.cif.g08.bks.cpg/sg2_129_cif.got.tgz:257955.got - 2010.06.03 11:33:40.
