data_PCOD9054326
_publ_section_title
;
Structure prediction by ZEFSAII (Michael W. Deem and Ramdas Pophale) SiO2 
 PCOD9054326
Probable space group: P -1
;
_chemical_formula_sum "Si O2"
_cell_formula_units_Z 14
_cell_length_a 23.052734
_cell_length_b 9.797612
_cell_length_c 8.327273
_cell_angle_alpha 107.715370
_cell_angle_beta 145.729849
_cell_angle_gamma 49.352890
_cell_volume 672.291603
_symmetry_space_group_name_H-M "P -1"
_symmetry_group_IT_number 2
_symmetry_cell_setting 'triclinic'
loop_
_space_group_symop_operation_xyz
x,y,z
-x,-y,-z
loop_
_atom_site_type_symbol
_atom_site_label
_atom_site_fract_x
_atom_site_fract_y
_atom_site_fract_z
Si Si1 0.619632 0.960310 0.643362
Si Si2 0.571186 0.575654 0.629417
Si Si3 0.536479 0.309399 0.943918
Si Si4 0.848326 0.847202 0.388326
Si Si5 0.369027 0.230188 0.703488
Si Si6 0.060463 0.779728 0.608414
Si Si7 0.074838 0.495568 0.326163
O O1 0.683505 0.795699 0.588982
O O2 0.500000 0.000000 0.500000
O O3 0.525304 0.191324 0.435911
O O4 0.754130 0.877370 0.034908
O O5 0.500000 0.500000 0.500000
O O6 0.533319 0.625941 0.371544
O O7 0.753485 0.403220 0.015871
O O8 0.446640 0.293603 0.845359
O O9 0.500000 0.500000 0.000000
O O10 0.716899 0.076429 0.261879
O O11 0.905314 0.654044 0.554707
O O12 0.982684 0.806399 0.606607
O O13 0.237448 0.380029 0.586140
O O14 0.500000 0.000000 0.000000
O O15 0.012907 0.704170 0.344739
O O16 0.000000 0.000000 0.500000
O O17 0.000000 0.500000 0.000000
#
# Coordination Sequence:
#
# PCOD9054326 Si02
#       7
#     2   2   2   2   2   2   2
#     4  11  20  42  71  99 129 178 233 277 331 404
#     4  11  25  43  71  99 132 182 229 278 340 412
#     4  11  26  43  68 104 138 174 226 288 345 401
#     4  11  24  47  69  99 138 180 230 280 340 416
#     4  12  23  42  70 100 136 174 228 284 339 399
#     4  12  27  47  70 100 141 185 232 282 344 417
#     4  12  28  44  70 103 141 183 226 287 347 405
#
# _framework density 20.824297000000001
#
# number of rings (size 3 to 8) (size 9 to 14) (size 15 to 20)
#    0.000    0.571    4.286    4.714    8.000    1.143 
#    0.000    1.429    0.000    0.000    0.000    0.000 
#    0.000    0.000    0.000    0.000    0.000    0.000 
#
# Total GULP energy -78284.448646 kJ/mol
# GULP energy per Si atom -5591.746332 kJ/mol
# Density = 2.077690 g / cm^3
# Si number density = 20.824297 Si / 1000 Ang^3
#
#
#
# Elastic Constant Matrix: (Units=GPa)
#
#
# Indices 1 2 3 4 5 6 
#
# 1 149.7153 62.8280 33.5323 -4.6364 24.8951 35.2363
# 2 62.8280 177.4992 35.6995 3.3310 -0.8512 18.9310
# 3 33.5323 35.6995 97.8381 -1.5628 4.7123 15.7433
# 4 -4.6364 3.3310 -1.5628 23.2395 4.0813 -1.8451
# 5 24.8951 -0.8512 4.7123 4.0813 37.6118 2.0304
# 6 35.2363 18.9310 15.7433 -1.8451 2.0304 45.4848
#
#
#
# Elastic Compliance Matrix: (Units=1/GPa)
#
#
# Indices 1 2 3 4 5 6 
#
# 1 0.011067 -0.003083 -0.001235 0.003333 -0.007256 -0.006403
# 2 -0.003083 0.007140 -0.001679 -0.002237 0.002667 -0.000212
# 3 -0.001235 -0.001679 0.011673 0.000706 -0.000634 -0.002328
# 4 0.003333 -0.002237 0.000706 0.045363 -0.007282 0.000270
# 5 -0.007256 0.002667 -0.000634 -0.007282 0.032158 0.003000
# 6 -0.006403 -0.000212 -0.002328 0.000270 0.003000 0.027717
#
#
# Mechanical properties :
#
#
# Convention : Reuss Voigt Hill
#
# Bulk Modulus (GPa) = 55.90781 76.57467 66.24124
# Shear Modulus (GPa) = 32.66395 40.80006 36.73201
#
# Velocity S-wave (km/s) = 3.96479 4.43115 4.20444
# Velocity P-wave (km/s) = 6.91846 7.93925 7.44637
#
# Compressibility (1/GPa) = 0.01788659
#
# Stress axis : x y z
#
# Youngs Moduli (GPa) = 90.36207 140.05287 85.66685
#
# Poissons Ratio (x) = 0.43181 0.10578
# Poissons Ratio (y) = 0.27860 0.14381
# Poissons Ratio (z) = 0.11158 0.23510
#
# Static dielectric constant tensor:
#      x y z
#    x 2.218230 -0.642210 0.493500 
#    y -0.642210 2.486770 -0.578870 
#    z 0.493500 -0.578870 2.272810 
# 
# From -- ./inp_files/190881.got.cif
#   From: 2010.05.17/outbox.cif.g08.bks.cpg/sg2_96_cif.got.tgz:190881.got - 2010.06.03 11:33:40.
