data_PCOD9054415
_publ_section_title
;
Structure prediction by ZEFSAII (Michael W. Deem and Ramdas Pophale) SiO2 
 PCOD9054415
Probable space group: P -1
;
_chemical_formula_sum "Si O2"
_cell_formula_units_Z 16
_cell_length_a 11.101163
_cell_length_b 12.785236
_cell_length_c 13.959176
_cell_angle_alpha 44.094019
_cell_angle_beta 110.144428
_cell_angle_gamma 145.190814
_cell_volume 618.992903
_symmetry_space_group_name_H-M "P -1"
_symmetry_group_IT_number 2
_symmetry_cell_setting 'triclinic'
loop_
_space_group_symop_operation_xyz
x,y,z
-x,-y,-z
loop_
_atom_site_type_symbol
_atom_site_label
_atom_site_fract_x
_atom_site_fract_y
_atom_site_fract_z
Si Si1 0.101990 0.814483 0.036986
Si Si2 0.277148 0.460302 0.593798
Si Si3 0.317890 0.868708 0.888982
Si Si4 0.886645 0.576169 0.604917
Si Si5 0.973769 0.712409 0.762837
Si Si6 0.244066 0.700667 0.561620
Si Si7 0.447199 0.492831 0.246616
Si Si8 0.245437 0.261054 0.021875
O O1 0.970061 0.611269 0.228576
O O2 0.139208 0.729483 0.022805
O O3 0.892717 0.723346 0.004513
O O4 0.385336 0.190284 0.879416
O O5 0.224737 0.401933 0.503851
O O6 0.306807 0.658854 0.516474
O O7 0.519204 0.600897 0.602250
O O8 0.997658 0.105997 0.792573
O O9 0.229494 0.899461 0.763705
O O10 0.623710 0.201972 0.781754
O O11 0.247428 0.621727 0.022630
O O12 0.987420 0.706427 0.654306
O O13 0.106529 0.722151 0.501059
O O14 0.840771 0.742498 0.712496
O O15 0.500000 0.000000 0.500000
O O16 0.627463 0.613568 0.130952
O O17 0.500000 0.500000 0.000000
#
# Coordination Sequence:
#
# PCOD9054415 Si02
#       8
#     2   2   2   2   2   2   2   2
#     4  11  20  44  71  99 134 180 241 289 343 406
#     4  11  26  45  67 103 143 186 232 290 360 416
#     4  11  24  44  71 102 137 186 242 290 346 422
#     4  12  26  45  68 101 148 186 228 296 356 415
#     4  11  24  42  72 102 135 188 242 288 346 421
#     4  12  26  44  73 103 141 186 230 295 359 419
#     4  11  21  45  73  98 139 185 235 297 345 412
#     4  11  23  41  72  99 137 185 239 290 344 418
#
# _framework density 25.848436
#
# number of rings (size 3 to 8) (size 9 to 14) (size 15 to 20)
#    0.000    0.750    5.000    3.000    3.500    0.500 
#    0.000    0.625    0.000    0.000    0.000    0.000 
#    0.000    0.000    0.000    0.000    0.000    0.000 
#
# Total GULP energy -89474.038271 kJ/mol
# GULP energy per Si atom -5592.127392 kJ/mol
# Density = 2.578960 g / cm^3
# Si number density = 25.848436 Si / 1000 Ang^3
#
#
#
# Elastic Constant Matrix: (Units=GPa)
#
#
# Indices 1 2 3 4 5 6 
#
# 1 75.9170 38.5207 17.4059 -6.2777 -8.2420 23.6245
# 2 38.5207 162.9565 15.2747 18.0373 5.1185 24.2536
# 3 17.4059 15.2747 58.9781 28.8209 -0.8658 3.0686
# 4 -6.2777 18.0373 28.8209 42.8004 5.3467 -1.3655
# 5 -8.2420 5.1185 -0.8658 5.3467 30.4610 0.7657
# 6 23.6245 24.2536 3.0686 -1.3655 0.7657 43.1190
#
#
#
# Elastic Compliance Matrix: (Units=1/GPa)
#
#
# Indices 1 2 3 4 5 6 
#
# 1 0.021729 -0.004278 -0.010165 0.010989 0.004594 -0.008509
# 2 -0.004278 0.007943 0.001783 -0.005065 -0.001493 -0.002385
# 3 -0.010165 0.001783 0.030732 -0.023115 0.001840 0.001615
# 4 0.010989 -0.005065 -0.023115 0.043225 -0.004418 -0.000080
# 5 0.004594 -0.001493 0.001840 -0.004418 0.035215 -0.002574
# 6 -0.008509 -0.002385 0.001615 -0.000080 -0.002574 0.029123
#
#
# Mechanical properties :
#
#
# Convention : Reuss Voigt Hill
#
# Bulk Modulus (GPa) = 28.50287 48.91712 38.71000
# Shear Modulus (GPa) = 24.39235 38.38610 31.38922
#
# Velocity S-wave (km/s) = 3.07525 3.85781 3.48854
# Velocity P-wave (km/s) = 4.86420 6.22971 5.58881
#
# Compressibility (1/GPa) = 0.03508418
#
# Stress axis : x y z
#
# Youngs Moduli (GPa) = 46.02193 125.89382 32.53912
#
# Poissons Ratio (x) = 0.53855 0.33075
# Poissons Ratio (y) = 0.19687 -0.05800
# Poissons Ratio (z) = 0.46780 -0.22441
#
# Static dielectric constant tensor:
#      x y z
#    x 1.493270 0.445300 0.216930 
#    y 0.445300 1.676930 -0.128250 
#    z 0.216930 -0.128250 2.025500 
# 
# From -- ./inp_files/455390.got.cif
#   From: 2010.05.17/outbox.cif.g08.bks.cpg/sg2_228_cif.got.tgz:455390.got - 2010.06.03 11:33:40.
