data_PCOD9054945
_publ_section_title
;
Structure prediction by ZEFSAII (Michael W. Deem and Ramdas Pophale) SiO2 
 PCOD9054945
Probable space group: P -1
;
_chemical_formula_sum "Si O2"
_cell_formula_units_Z 16
_cell_length_a 15.400241
_cell_length_b 9.367270
_cell_length_c 11.952005
_cell_angle_alpha 70.061802
_cell_angle_beta 44.968990
_cell_angle_gamma 40.994189
_cell_volume 726.773107
_symmetry_space_group_name_H-M "P -1"
_symmetry_group_IT_number 2
_symmetry_cell_setting 'triclinic'
loop_
_space_group_symop_operation_xyz
x,y,z
-x,-y,-z
loop_
_atom_site_type_symbol
_atom_site_label
_atom_site_fract_x
_atom_site_fract_y
_atom_site_fract_z
Si Si1 0.075179 0.376217 0.642916
Si Si2 0.959389 0.943789 0.838508
Si Si3 0.568313 0.097670 0.457329
Si Si4 0.537424 0.664888 0.299552
Si Si5 0.417871 0.675214 0.791475
Si Si6 0.875814 0.311392 0.484679
Si Si7 0.909304 0.897204 0.433255
Si Si8 0.085902 0.549645 0.987515
O O1 0.101632 0.528046 0.569702
O O2 0.989294 0.358615 0.626045
O O3 0.284501 0.099162 0.531654
O O4 0.992111 0.408656 0.829667
O O5 0.025307 0.815959 0.691847
O O6 0.035271 0.756561 0.915301
O O7 0.054991 0.019606 0.724057
O O8 0.729596 0.186648 0.006218
O O9 0.456548 0.333881 0.569144
O O10 0.642532 0.118215 0.278719
O O11 0.500000 0.000000 0.500000
O O12 0.614978 0.441482 0.224890
O O13 0.682566 0.666341 0.147159
O O14 0.319714 0.884195 0.391806
O O15 0.649414 0.477897 0.651152
O O16 0.985974 0.147684 0.537868
O O17 0.000000 0.500000 0.000000
#
# Coordination Sequence:
#
# PCOD9054945 Si02
#       8
#     2   2   2   2   2   2   2   2
#     4  11  23  43  70  98 141 180 228 297 351 406
#     4  12  26  43  73 104 139 185 233 293 346 420
#     4  11  21  39  67 103 138 175 232 282 352 424
#     4  11  26  41  69 100 145 187 224 290 352 412
#     4  12  25  42  70 108 137 186 230 287 357 404
#     4  12  25  49  71  97 148 191 234 286 340 413
#     4  11  27  47  67 102 141 191 243 277 338 425
#     4  12  24  43  70 106 142 170 230 300 363 409
#
# _framework density 22.015124
#
# number of rings (size 3 to 8) (size 9 to 14) (size 15 to 20)
#    0.000    0.500    5.000    3.375    3.500    1.500 
#    2.250    0.625    0.000    0.000    0.000    0.000 
#    0.000    0.000    0.000    0.000    0.000    0.000 
#
# Total GULP energy -89106.096147 kJ/mol
# GULP energy per Si atom -5569.131009 kJ/mol
# Density = 2.196502 g / cm^3
# Si number density = 22.015124 Si / 1000 Ang^3
#
#
#
# Elastic Constant Matrix: (Units=GPa)
#
#
# Indices 1 2 3 4 5 6 
#
# 1 127.0206 34.3531 65.9574 11.1581 -5.9249 14.1145
# 2 34.3531 60.2820 51.1156 -3.2580 -11.2319 7.1679
# 3 65.9574 51.1156 116.5322 17.1514 -6.7387 7.5409
# 4 11.1581 -3.2580 17.1514 32.2407 8.6471 0.3174
# 5 -5.9249 -11.2319 -6.7387 8.6471 24.3975 -3.2356
# 6 14.1145 7.1679 7.5409 0.3174 -3.2356 39.6091
#
#
#
# Elastic Compliance Matrix: (Units=1/GPa)
#
#
# Indices 1 2 3 4 5 6 
#
# 1 0.011590 -0.001641 -0.005405 -0.001469 0.000724 -0.002733
# 2 -0.001641 0.030884 -0.013444 0.009083 0.006625 -0.001976
# 3 -0.005405 -0.013444 0.019032 -0.010004 0.001424 0.000932
# 4 -0.001469 0.009083 -0.010004 0.041451 -0.013718 -0.000669
# 5 0.000724 0.006625 0.001424 -0.013718 0.049794 0.002449
# 6 -0.002733 -0.001976 0.000932 -0.000669 0.002449 0.026606
#
#
# Mechanical properties :
#
#
# Convention : Reuss Voigt Hill
#
# Bulk Modulus (GPa) = 48.71977 67.40967 58.06472
# Shear Modulus (GPa) = 22.00917 29.41004 25.70960
#
# Velocity S-wave (km/s) = 3.16528 3.65896 3.42104
# Velocity P-wave (km/s) = 5.96128 6.96684 6.48358
#
# Compressibility (1/GPa) = 0.02052555
#
# Stress axis : x y z
#
# Youngs Moduli (GPa) = 86.28340 32.37946 52.54290
#
# Poissons Ratio (x) = 0.05313 0.28400
# Poissons Ratio (y) = 0.14158 0.70639
# Poissons Ratio (z) = 0.46637 0.43531
#
# Static dielectric constant tensor:
#      x y z
#    x 2.351570 0.306190 -0.106240 
#    y 0.306190 2.083010 0.077740 
#    z -0.106240 0.077740 1.936510 
# 
# From -- ./inp_files/447069.got.cif
#   From: 2010.05.17/outbox.cif.g08.bks.cpg/sg2_224_cif.got.tgz:447069.got - 2010.06.03 11:33:40.
