data_PCOD9054380
_publ_section_title
;
Structure prediction by ZEFSAII (Michael W. Deem and Ramdas Pophale) SiO2 
 PCOD9054380
Probable space group: P -1
;
_chemical_formula_sum "Si O2"
_cell_formula_units_Z 13
_cell_length_a 10.359088
_cell_length_b 11.429379
_cell_length_c 10.825390
_cell_angle_alpha 41.955964
_cell_angle_beta 39.865744
_cell_angle_gamma 54.085403
_cell_volume 548.889139
_symmetry_space_group_name_H-M "P -1"
_symmetry_group_IT_number 2
_symmetry_cell_setting 'triclinic'
loop_
_space_group_symop_operation_xyz
x,y,z
-x,-y,-z
loop_
_atom_site_type_symbol
_atom_site_label
_atom_site_fract_x
_atom_site_fract_y
_atom_site_fract_z
Si Si1 0.894795 0.899745 0.319199
Si Si2 0.382062 0.291964 0.490254
Si Si3 0.500000 0.000000 0.000000
Si Si4 0.199037 0.564676 0.970230
Si Si5 0.764015 0.367947 0.824551
Si Si6 0.634846 0.804682 0.813669
Si Si7 0.153085 0.208381 0.959033
O O1 0.711778 0.873249 0.379441
O O2 0.801385 0.870997 0.545585
O O3 0.067964 0.754606 0.269201
O O4 0.002406 0.082784 0.094613
O O5 0.619957 0.309650 0.295379
O O6 0.288789 0.461411 0.353090
O O7 0.305604 0.292631 0.685232
O O8 0.541630 0.944360 0.867588
O O9 0.279446 0.090170 0.053681
O O10 0.171827 0.574106 0.132077
O O11 0.274355 0.366372 0.046929
O O12 0.994615 0.637932 0.002836
O O13 0.554402 0.268941 0.065689
#
# Coordination Sequence:
#
# PCOD9054380 Si02
#       7
#     2   2   1   2   2   2   2
#     4  12  22  39  74 106 141 175 217 289 361 406
#     4  11  22  40  71 111 143 168 216 291 353 419
#     4  12  30  54  62  90 150 190 244 282 316 406
#     4  11  23  43  76 110 136 174 226 284 361 411
#     4  11  20  43  72 113 142 171 216 288 364 416
#     4  11  24  47  73  98 140 188 227 276 345 414
#     4  12  28  43  67 103 140 188 235 276 340 404
#
# _framework density 23.684201000000002
#
# number of rings (size 3 to 8) (size 9 to 14) (size 15 to 20)
#    0.000    0.615    6.154    2.769    2.154    1.846 
#    0.000    3.077    0.000    0.000    0.000    0.000 
#    0.000    0.000    0.000    0.000    0.000    0.000 
#
# Total GULP energy -72568.193659 kJ/mol
# GULP energy per Si atom -5582.168743 kJ/mol
# Density = 2.363029 g / cm^3
# Si number density = 23.684201 Si / 1000 Ang^3
#
#
#
# Elastic Constant Matrix: (Units=GPa)
#
#
# Indices 1 2 3 4 5 6 
#
# 1 53.9552 24.8381 9.2506 5.4952 1.8463 -23.0038
# 2 24.8381 138.9235 16.4323 20.3730 -11.5558 -11.0999
# 3 9.2506 16.4323 96.8936 8.1737 -15.6855 -3.6597
# 4 5.4952 20.3730 8.1737 24.5739 -12.9785 2.7888
# 5 1.8463 -11.5558 -15.6855 -12.9785 -7.9429 6.7083
# 6 -23.0038 -11.0999 -3.6597 2.7888 6.7083 44.2710
#
#
#
# Elastic Compliance Matrix: (Units=1/GPa)
#
#
# Indices 1 2 3 4 5 6 
#
# 1 0.023013 -0.002758 0.000411 0.002471 0.012345 0.009274
# 2 -0.002758 0.008833 -0.000655 -0.006730 -0.000203 0.001182
# 3 0.000411 -0.000655 0.010004 -0.006448 -0.006283 0.002234
# 4 0.002471 -0.006730 -0.006448 0.032488 -0.028818 0.001384
# 5 0.012345 -0.000203 -0.006283 -0.028818 -0.050329 0.015286
# 6 0.009274 0.001182 0.002234 0.001384 0.015286 0.025485
#
#
# Mechanical properties :
#
#
# Convention : Reuss Voigt Hill
#
# Bulk Modulus (GPa) = 27.89711 43.42382 35.66047
# Shear Modulus (GPa) = 74.13230 28.13048 51.13139
#
# Velocity S-wave (km/s) = 5.60074 3.45009 4.65142
# Velocity P-wave (km/s) = 7.32316 5.85193 6.62849
#
# Compressibility (1/GPa) = 0.03584600
#
# Stress axis : x y z
#
# Youngs Moduli (GPa) = 43.45407 113.20830 99.96319
#
# Poissons Ratio (x) = 0.31218 -0.04107
# Poissons Ratio (y) = 0.11983 0.06550
# Poissons Ratio (z) = -0.01785 0.07418
#
# Static dielectric constant tensor:
#      x y z
#    x 1.745000 0.004640 -0.074530 
#    y 0.004640 1.913180 -0.030560 
#    z -0.074530 -0.030560 1.850290 
# 
# From -- ./inp_files/424841.got.cif
#   From: 2010.05.17/outbox.cif.g08.bks.cpg/sg2_213_cif.got.tgz:424841.got - 2010.06.03 11:33:40.
