data_PCOD9054046
_publ_section_title
;
Structure prediction by ZEFSAII (Michael W. Deem and Ramdas Pophale) SiO2 
 PCOD9054046
Probable space group: P -1
;
_chemical_formula_sum "Si O2"
_cell_formula_units_Z 16
_cell_length_a 15.170271
_cell_length_b 10.650116
_cell_length_c 7.800810
_cell_angle_alpha 120.983752
_cell_angle_beta 102.651531
_cell_angle_gamma 42.926237
_cell_volume 708.455099
_symmetry_space_group_name_H-M "P -1"
_symmetry_group_IT_number 2
_symmetry_cell_setting 'triclinic'
loop_
_space_group_symop_operation_xyz
x,y,z
-x,-y,-z
loop_
_atom_site_type_symbol
_atom_site_label
_atom_site_fract_x
_atom_site_fract_y
_atom_site_fract_z
Si Si1 0.238475 0.513147 0.660102
Si Si2 0.402943 0.132682 0.213750
Si Si3 0.875511 0.625111 0.281785
Si Si4 0.736655 0.072154 0.684887
Si Si5 0.535940 0.738443 0.146324
Si Si6 0.230002 0.837571 0.888916
Si Si7 0.178554 0.215474 0.004804
Si Si8 0.463900 0.499606 0.291664
O O1 0.328523 0.359881 0.425308
O O2 0.160179 0.466204 0.669594
O O3 0.333587 0.435449 0.807603
O O4 0.169985 0.751323 0.756050
O O5 0.500414 0.951455 0.272263
O O6 0.286091 0.157324 0.137029
O O7 0.500000 0.000000 0.000000
O O8 0.806653 0.723824 0.131885
O O9 0.831786 0.828987 0.492673
O O10 0.031802 0.426086 0.162943
O O11 0.595878 0.173100 0.763049
O O12 0.674626 0.254075 0.643927
O O13 0.807585 0.069765 0.869840
O O14 0.553366 0.641333 0.898490
O O15 0.392818 0.626622 0.818509
O O16 0.198834 0.014807 0.878586
O O17 0.500000 0.500000 0.500000
#
# Coordination Sequence:
#
# PCOD9054046 Si02
#       8
#     2   2   2   2   2   2   2   2
#     4  12  24  42  67 104 139 172 222 292 344 393
#     4  12  26  40  67 103 136 176 227 288 339 403
#     4  11  26  45  70  92 137 189 225 277 337 413
#     4  11  20  40  64  94 129 183 225 267 334 416
#     4  11  21  38  62  97 138 172 218 274 344 395
#     4  11  22  40  67  97 133 171 229 280 338 403
#     4  11  25  49  66  96 135 184 236 269 338 420
#     4  11  21  35  62  99 138 176 219 276 340 408
#
# _framework density 22.584353
#
# number of rings (size 3 to 8) (size 9 to 14) (size 15 to 20)
#    0.000    0.750    6.250    2.625    3.500    2.500 
#    0.000    0.000    0.000    3.000    0.000    0.000 
#    0.000    0.000    0.000    0.000    0.000    0.000 
#
# Total GULP energy -89200.338169 kJ/mol
# GULP energy per Si atom -5575.021136 kJ/mol
# Density = 2.253295 g / cm^3
# Si number density = 22.584353 Si / 1000 Ang^3
#
#
#
# Elastic Constant Matrix: (Units=GPa)
#
#
# Indices 1 2 3 4 5 6 
#
# 1 57.1556 22.9284 45.3629 17.3948 6.4743 9.2448
# 2 22.9284 66.0073 16.4957 14.4726 5.9221 11.1765
# 3 45.3629 16.4957 153.3548 11.3339 5.9187 4.2131
# 4 17.3948 14.4726 11.3339 39.4530 11.0752 4.7605
# 5 6.4743 5.9221 5.9187 11.0752 22.4639 6.5759
# 6 9.2448 11.1765 4.2131 4.7605 6.5759 14.1202
#
#
#
# Elastic Compliance Matrix: (Units=1/GPa)
#
#
# Indices 1 2 3 4 5 6 
#
# 1 0.029376 -0.004806 -0.007328 -0.008314 0.002184 -0.011457
# 2 -0.004806 0.019581 -0.000126 -0.004092 0.001707 -0.011730
# 3 -0.007328 -0.000126 0.008617 0.000852 -0.001323 0.002655
# 4 -0.008314 -0.004092 0.000852 0.033903 -0.014572 0.003784
# 5 0.002184 0.001707 -0.001323 -0.014572 0.058158 -0.024558
# 6 -0.011457 -0.011730 0.002655 0.003784 -0.024558 0.096975
#
#
# Mechanical properties :
#
#
# Convention : Reuss Voigt Hill
#
# Bulk Modulus (GPa) = 30.25257 49.56573 39.90915
# Shear Modulus (GPa) = 17.72128 27.98948 22.85538
#
# Velocity S-wave (km/s) = 2.80424 3.52423 3.18465
# Velocity P-wave (km/s) = 4.88973 6.20926 5.58857
#
# Compressibility (1/GPa) = 0.03305504
#
# Stress axis : x y z
#
# Youngs Moduli (GPa) = 34.04162 51.07040 116.04963
#
# Poissons Ratio (x) = 0.24544 0.85036
# Poissons Ratio (y) = 0.16360 0.01460
# Poissons Ratio (z) = 0.24944 0.00643
#
# Static dielectric constant tensor:
#      x y z
#    x 1.936970 0.108930 -0.006510 
#    y 0.108930 1.879330 -0.020740 
#    z -0.006510 -0.020740 1.868450 
# 
# From -- ./inp_files/308556.got.cif
#   From: 2010.05.17/outbox.cif.g08.bks.cpg/sg2_155_cif.got.tgz:308556.got - 2010.06.03 11:33:40.
