data_PCOD9054064
_publ_section_title
;
Structure prediction by ZEFSAII (Michael W. Deem and Ramdas Pophale) SiO2 
 PCOD9054064
Probable space group: P -1
;
_chemical_formula_sum "Si O2"
_cell_formula_units_Z 14
_cell_length_a 14.666562
_cell_length_b 11.427432
_cell_length_c 7.213174
_cell_angle_alpha 110.772639
_cell_angle_beta 73.408042
_cell_angle_gamma 150.546096
_cell_volume 555.106808
_symmetry_space_group_name_H-M "P -1"
_symmetry_group_IT_number 2
_symmetry_cell_setting 'triclinic'
loop_
_space_group_symop_operation_xyz
x,y,z
-x,-y,-z
loop_
_atom_site_type_symbol
_atom_site_label
_atom_site_fract_x
_atom_site_fract_y
_atom_site_fract_z
Si Si1 0.730115 0.627891 0.796012
Si Si2 0.844484 0.682446 0.344348
Si Si3 0.636062 0.264599 0.761064
Si Si4 0.449004 0.481529 0.725630
Si Si5 0.003457 0.554663 0.818858
Si Si6 0.317955 0.741908 0.680696
Si Si7 0.181560 0.007214 0.080168
O O1 0.824376 0.697744 0.582459
O O2 0.718112 0.496277 0.862675
O O3 0.516736 0.435966 0.775555
O O4 0.823053 0.861808 0.941338
O O5 0.752675 0.688247 0.279271
O O6 0.720985 0.416702 0.249929
O O7 0.046891 0.874127 0.261816
O O8 0.598510 0.219579 0.535145
O O9 0.796249 0.347215 0.760516
O O10 0.451716 0.003800 0.816455
O O11 0.500000 0.500000 0.500000
O O12 0.604587 0.759512 0.849671
O O13 0.120471 0.582272 0.659945
O O14 0.109613 0.807675 0.898302
O O15 0.000000 0.500000 0.000000
#
# Coordination Sequence:
#
# PCOD9054064 Si02
#       7
#     2   2   2   2   2   2   2
#     4   8  19  38  57  88 119 154 205 245 298 361
#     4  10  17  35  63  89 117 157 201 255 298 346
#     4  10  23  44  63  88 126 163 210 249 303 371
#     4   8  18  33  56  88 117 151 200 245 298 353
#     4  12  25  41  60  95 127 162 204 254 313 364
#     4  10  23  42  66  89 121 168 208 251 300 367
#     4  10  21  36  58  90 125 151 205 249 305 359
#
# _framework density 25.220369999999999
#
# number of rings (size 3 to 8) (size 9 to 14) (size 15 to 20)
#    0.857    1.429    1.429    0.857    2.000    2.286 
#    2.571    0.714    0.000    0.000    0.000    0.000 
#    0.000    0.000    0.000    0.000    0.000    0.000 
#
# Total GULP energy -78155.419734 kJ/mol
# GULP energy per Si atom -5582.529981 kJ/mol
# Density = 2.516297 g / cm^3
# Si number density = 25.220370 Si / 1000 Ang^3
#
#
#
# Elastic Constant Matrix: (Units=GPa)
#
#
# Indices 1 2 3 4 5 6 
#
# 1 115.4210 28.5731 -10.2398 -7.1362 6.6779 -7.6369
# 2 28.5731 73.5261 0.4618 -1.0529 6.5373 -17.1486
# 3 -10.2398 0.4618 49.9215 -22.4761 -8.9685 -2.8390
# 4 -7.1362 -1.0529 -22.4761 36.1055 0.5955 -5.5987
# 5 6.6779 6.5373 -8.9685 0.5955 38.5474 4.6732
# 6 -7.6369 -17.1486 -2.8390 -5.5987 4.6732 54.0738
#
#
#
# Elastic Compliance Matrix: (Units=1/GPa)
#
#
# Indices 1 2 3 4 5 6 
#
# 1 0.010349 -0.003706 0.004305 0.004784 -0.000363 0.001039
# 2 -0.003706 0.016449 -0.001296 -0.000256 -0.003034 0.004861
# 3 0.004305 -0.001296 0.031658 0.020964 0.006091 0.003503
# 4 0.004784 -0.000256 0.020964 0.042549 0.002724 0.005865
# 5 -0.000363 -0.003034 0.006091 0.002724 0.028240 -0.002852
# 6 0.001039 0.004861 0.003503 0.005865 -0.002852 0.021219
#
#
# Mechanical properties :
#
#
# Convention : Reuss Voigt Hill
#
# Bulk Modulus (GPa) = 17.52468 30.71763 24.12115
# Shear Modulus (GPa) = 29.26048 40.41692 34.83870
#
# Velocity S-wave (km/s) = 3.40985 4.00753 3.72071
# Velocity P-wave (km/s) = 4.73989 5.79826 5.29558
#
# Compressibility (1/GPa) = 0.05706238
#
# Stress axis : x y z
#
# Youngs Moduli (GPa) = 96.63009 60.79541 31.58722
#
# Poissons Ratio (x) = 0.22528 -0.13598
# Poissons Ratio (y) = 0.35807 0.04094
# Poissons Ratio (z) = -0.41599 0.07880
#
# Static dielectric constant tensor:
#      x y z
#    x 1.988290 -0.001510 -0.049870 
#    y -0.001510 2.018240 -0.016390 
#    z -0.049870 -0.016390 2.062560 
# 
# From -- ./inp_files/308003.got.cif
#   From: 2010.05.17/outbox.cif.g08.bks.cpg/sg2_155_cif.got.tgz:308003.got - 2010.06.03 11:33:40.
