data_PCOD9054783
_publ_section_title
;
Structure prediction by ZEFSAII (Michael W. Deem and Ramdas Pophale) SiO2 
 PCOD9054783
Probable space group: P -1
;
_chemical_formula_sum "Si O2"
_cell_formula_units_Z 16
_cell_length_a 10.042563
_cell_length_b 11.442152
_cell_length_c 12.590924
_cell_angle_alpha 82.404952
_cell_angle_beta 135.304901
_cell_angle_gamma 123.187535
_cell_volume 766.180426
_symmetry_space_group_name_H-M "P -1"
_symmetry_group_IT_number 2
_symmetry_cell_setting 'triclinic'
loop_
_space_group_symop_operation_xyz
x,y,z
-x,-y,-z
loop_
_atom_site_type_symbol
_atom_site_label
_atom_site_fract_x
_atom_site_fract_y
_atom_site_fract_z
Si Si1 0.404140 0.152428 0.476119
Si Si2 0.519443 0.052600 0.124134
Si Si3 0.965704 0.885436 0.905113
Si Si4 0.202823 0.806016 0.428983
Si Si5 0.672099 0.683785 0.163697
Si Si6 0.320820 0.340867 0.061256
Si Si7 0.703041 0.882707 0.342340
Si Si8 0.742890 0.333638 0.340665
O O1 0.237409 0.159655 0.295667
O O2 0.691603 0.238154 0.597066
O O3 0.388239 0.192478 0.582955
O O4 0.281968 0.971642 0.431009
O O5 0.704543 0.240743 0.223143
O O6 0.611182 0.976703 0.252697
O O7 0.500000 0.000000 0.000000
O O8 0.237796 0.972239 0.003929
O O9 0.878546 0.741256 0.948578
O O10 0.000000 0.000000 0.000000
O O11 0.334768 0.798653 0.604016
O O12 0.914555 0.697835 0.313191
O O13 0.421761 0.506478 0.057915
O O14 0.647595 0.774826 0.225351
O O15 0.729382 0.746455 0.068082
O O16 0.546176 0.357688 0.233942
O O17 0.000000 0.000000 0.500000
O O18 0.000000 0.500000 0.500000
#
# Coordination Sequence:
#
# PCOD9054783 Si02
#       8
#     2   2   2   2   2   2   2   2
#     4  11  23  38  64 101 132 172 224 284 339 394
#     4  12  26  44  68 104 138 182 225 283 346 408
#     4  12  24  42  70  98 137 175 233 283 332 407
#     4  11  21  38  64  96 131 171 224 276 331 396
#     4  11  24  43  67  95 135 183 221 278 336 414
#     4  11  24  42  69  98 132 177 231 275 339 399
#     4  12  24  42  64  97 136 175 224 274 344 402
#     4  12  22  42  67 102 133 173 226 281 331 403
#
# _framework density 20.882808000000001
#
# number of rings (size 3 to 8) (size 9 to 14) (size 15 to 20)
#    0.000    0.500    6.250    2.250    3.500    0.000 
#    0.000    2.500    0.000    0.000    0.000    0.000 
#    0.000    0.000    0.000    0.000    0.000    0.000 
#
# Total GULP energy -89153.565679 kJ/mol
# GULP energy per Si atom -5572.097855 kJ/mol
# Density = 2.083528 g / cm^3
# Si number density = 20.882808 Si / 1000 Ang^3
#
#
#
# Elastic Constant Matrix: (Units=GPa)
#
#
# Indices 1 2 3 4 5 6 
#
# 1 147.0464 29.6904 31.4841 13.4261 -12.0248 -4.4088
# 2 29.6904 74.7774 23.2599 -1.0025 -9.5486 3.0419
# 3 31.4841 23.2599 58.6621 -1.6806 -9.5848 -12.6648
# 4 13.4261 -1.0025 -1.6806 39.4452 -4.0581 -4.3918
# 5 -12.0248 -9.5486 -9.5848 -4.0581 36.9514 -6.7015
# 6 -4.4088 3.0419 -12.6648 -4.3918 -6.7015 18.3831
#
#
#
# Elastic Compliance Matrix: (Units=1/GPa)
#
#
# Indices 1 2 3 4 5 6 
#
# 1 0.008344 -0.002051 -0.003792 -0.003060 0.000732 -0.000736
# 2 -0.002051 0.016829 -0.007301 -0.000070 0.000289 -0.008218
# 3 -0.003792 -0.007301 0.029256 0.006196 0.009773 0.025497
# 4 -0.003060 -0.000070 0.006196 0.028678 0.006027 0.012594
# 5 0.000732 0.000289 0.009773 0.006027 0.034349 0.020822
# 6 -0.000736 -0.008218 0.025497 0.012594 0.020822 0.083746
#
#
# Mechanical properties :
#
#
# Convention : Reuss Voigt Hill
#
# Bulk Modulus (GPa) = 35.53584 49.92831 42.73207
# Shear Modulus (GPa) = 21.10881 32.02605 26.56743
#
# Velocity S-wave (km/s) = 3.18279 3.92038 3.57068
# Velocity P-wave (km/s) = 5.52817 6.66732 6.12429
#
# Compressibility (1/GPa) = 0.02814061
#
# Stress axis : x y z
#
# Youngs Moduli (GPa) = 119.84950 59.42253 34.18159
#
# Poissons Ratio (x) = 0.12188 0.12961
# Poissons Ratio (y) = 0.24581 0.24955
# Poissons Ratio (z) = 0.45446 0.43383
#
# Static dielectric constant tensor:
#      x y z
#    x 1.804180 0.033830 -0.024860 
#    y 0.033830 1.839310 -0.001530 
#    z -0.024860 -0.001530 1.863320 
# 
# From -- ./inp_files/392658.got.cif
#   From: 2010.05.17/outbox.cif.g08.bks.cpg/sg2_197_cif.got.tgz:392658.got - 2010.06.03 11:33:40.
