data_PCOD9054973
_publ_section_title
;
Structure prediction by ZEFSAII (Michael W. Deem and Ramdas Pophale) SiO2 
 PCOD9054973
Probable space group: P -1
;
_chemical_formula_sum "Si O2"
_cell_formula_units_Z 16
_cell_length_a 6.474415
_cell_length_b 13.757474
_cell_length_c 10.758069
_cell_angle_alpha 120.643014
_cell_angle_beta 81.744183
_cell_angle_gamma 124.326420
_cell_volume 666.751249
_symmetry_space_group_name_H-M "P -1"
_symmetry_group_IT_number 2
_symmetry_cell_setting 'triclinic'
loop_
_space_group_symop_operation_xyz
x,y,z
-x,-y,-z
loop_
_atom_site_type_symbol
_atom_site_label
_atom_site_fract_x
_atom_site_fract_y
_atom_site_fract_z
Si Si1 0.700248 0.908019 0.460267
Si Si2 0.643090 0.129983 0.736806
Si Si3 0.360895 0.131198 0.140428
Si Si4 0.800671 0.480959 0.600828
Si Si5 0.946355 0.615156 0.300066
Si Si6 0.276727 0.258604 0.451396
Si Si7 0.637327 0.641932 0.856706
Si Si8 0.824427 0.171298 0.020980
O O1 0.595675 0.882532 0.314293
O O2 0.631002 0.772639 0.448491
O O3 0.618907 0.993526 0.600192
O O4 0.000000 0.000000 0.500000
O O5 0.662081 0.135395 0.885284
O O6 0.884825 0.269098 0.743577
O O7 0.227926 0.145896 0.283131
O O8 0.362073 0.230611 0.105506
O O9 0.209996 0.968787 0.024055
O O10 0.664306 0.191143 0.152593
O O11 0.547998 0.390255 0.477373
O O12 0.769276 0.600742 0.718190
O O13 0.000000 0.500000 0.500000
O O14 0.895396 0.440243 0.690399
O O15 0.912952 0.701779 0.466690
O O16 0.659519 0.491586 0.195296
O O17 0.883138 0.713935 0.974334
#
# Coordination Sequence:
#
# PCOD9054973 Si02
#       8
#     2   2   2   2   2   2   2   2
#     4  11  22  42  66 102 133 167 218 275 336 397
#     4  11  24  43  68  99 136 175 218 273 339 394
#     4  11  24  45  66  99 133 178 228 273 334 391
#     4  11  22  40  66  96 137 173 219 276 334 393
#     4  11  23  40  68 101 136 171 220 277 338 393
#     4  11  21  39  69 100 131 168 218 278 336 394
#     4  11  24  43  64  96 135 179 228 270 324 396
#     4  11  25  45  68  95 137 182 224 273 324 399
#
# _framework density 23.996956000000001
#
# number of rings (size 3 to 8) (size 9 to 14) (size 15 to 20)
#    0.000    1.000    3.750    3.375    0.000    3.500 
#    4.500    2.500    0.000    0.000    0.000    0.000 
#    0.000    0.000    0.000    0.000    0.000    0.000 
#
# Total GULP energy -89106.091826 kJ/mol
# GULP energy per Si atom -5569.130739 kJ/mol
# Density = 2.394234 g / cm^3
# Si number density = 23.996956 Si / 1000 Ang^3
#
#
#
# Elastic Constant Matrix: (Units=GPa)
#
#
# Indices 1 2 3 4 5 6 
#
# 1 118.2123 28.8792 32.3488 16.1874 -0.7161 -0.4277
# 2 28.8792 53.0432 6.7324 4.1932 0.8544 5.5231
# 3 32.3488 6.7324 55.1726 3.6013 4.3218 -6.1129
# 4 16.1874 4.1932 3.6013 21.9949 3.5879 8.0680
# 5 -0.7161 0.8544 4.3218 3.5879 38.3245 12.6746
# 6 -0.4277 5.5231 -6.1129 8.0680 12.6746 44.4024
#
#
#
# Elastic Compliance Matrix: (Units=1/GPa)
#
#
# Indices 1 2 3 4 5 6 
#
# 1 0.012599 -0.005580 -0.006208 -0.007783 0.001473 0.000954
# 2 -0.005580 0.022109 0.000152 0.000932 0.000303 -0.003039
# 3 -0.006208 0.000152 0.022527 -0.000023 -0.004040 0.004180
# 4 -0.007783 0.000932 -0.000023 0.054873 -0.002141 -0.009553
# 5 0.001473 0.000303 -0.004040 -0.002141 0.029630 -0.008649
# 6 0.000954 -0.003039 0.004180 -0.009553 -0.008649 0.027688
#
#
# Mechanical properties :
#
#
# Convention : Reuss Voigt Hill
#
# Bulk Modulus (GPa) = 29.44208 40.26100 34.85154
# Shear Modulus (GPa) = 24.50754 31.50888 28.00821
#
# Velocity S-wave (km/s) = 3.19921 3.62752 3.42007
# Velocity P-wave (km/s) = 5.09336 5.86167 5.49097
#
# Compressibility (1/GPa) = 0.03396499
#
# Stress axis : x y z
#
# Youngs Moduli (GPa) = 79.36892 45.23069 44.39059
#
# Poissons Ratio (x) = 0.25237 0.27558
# Poissons Ratio (y) = 0.44285 -0.00676
# Poissons Ratio (z) = 0.49272 -0.00689
#
# Static dielectric constant tensor:
#      x y z
#    x 2.026560 -0.065960 0.065130 
#    y -0.065960 1.842230 -0.006190 
#    z 0.065130 -0.006190 1.907410 
# 
# From -- ./inp_files/367960.got.cif
#   From: 2010.05.17/outbox.cif.g08.bks.cpg/sg2_184_cif.got.tgz:367960.got - 2010.06.03 11:33:40.
