data_PCOD9054917
_publ_section_title
;
Structure prediction by ZEFSAII (Michael W. Deem and Ramdas Pophale) SiO2 
 PCOD9054917
Probable space group: P -1
;
_chemical_formula_sum "Si O2"
_cell_formula_units_Z 14
_cell_length_a 7.518739
_cell_length_b 10.015046
_cell_length_c 9.384031
_cell_angle_alpha 65.898309
_cell_angle_beta 104.816474
_cell_angle_gamma 74.403625
_cell_volume 565.038353
_symmetry_space_group_name_H-M "P -1"
_symmetry_group_IT_number 2
_symmetry_cell_setting 'triclinic'
loop_
_space_group_symop_operation_xyz
x,y,z
-x,-y,-z
loop_
_atom_site_type_symbol
_atom_site_label
_atom_site_fract_x
_atom_site_fract_y
_atom_site_fract_z
Si Si1 0.321972 0.566110 0.733639
Si Si2 0.789959 0.986760 0.930887
Si Si3 0.696865 0.184108 0.577484
Si Si4 0.767662 0.712968 0.562068
Si Si5 0.321844 0.235560 0.792129
Si Si6 0.939092 0.356339 0.097944
Si Si7 0.758951 0.390348 0.761276
O O1 0.221197 0.746282 0.565957
O O2 0.266241 0.422517 0.729216
O O3 0.268641 0.581487 0.881348
O O4 0.549684 0.497478 0.752341
O O5 0.781098 0.011789 0.747360
O O6 0.569360 0.132940 0.876632
O O7 0.764903 0.841335 0.070843
O O8 0.000000 0.000000 0.000000
O O9 0.469644 0.211255 0.481735
O O10 0.714535 0.297496 0.661603
O O11 0.771093 0.775599 0.375952
O O12 0.829036 0.520588 0.652861
O O13 0.899225 0.735707 0.705307
O O14 0.898258 0.294708 0.964784
O O15 0.000000 0.500000 0.000000
#
# Coordination Sequence:
#
# PCOD9054917 Si02
#       7
#     2   2   2   2   2   2   2
#     4  11  19  36  62  87 114 155 193 246 294 349
#     4  10  22  35  55  92 123 150 190 256 296 344
#     4  10  19  37  62  86 118 146 198 247 294 342
#     4   9  17  34  52  82 117 147 184 241 287 345
#     4  10  20  38  58  89 120 152 197 248 296 346
#     4  10  23  32  50  89 126 148 189 240 303 352
#     4  10  17  36  54  86 119 151 182 245 294 355
#
# _framework density 24.777079000000001
#
# number of rings (size 3 to 8) (size 9 to 14) (size 15 to 20)
#    0.000    2.000    4.286    1.286    2.000    2.857 
#    0.000    0.000    0.000    0.857    7.429   16.000 
#    0.000    0.000    0.000    0.000    0.000    0.000 
#
# Total GULP energy -78006.115215 kJ/mol
# GULP energy per Si atom -5571.865372 kJ/mol
# Density = 2.472069 g / cm^3
# Si number density = 24.777079 Si / 1000 Ang^3
#
#
#
# Elastic Constant Matrix: (Units=GPa)
#
#
# Indices 1 2 3 4 5 6 
#
# 1 144.3288 22.9371 66.7049 -5.7869 -4.1175 -0.2334
# 2 22.9371 44.9026 17.2795 6.3291 -18.2662 4.7545
# 3 66.7049 17.2795 161.0148 -17.4532 -24.0090 2.5442
# 4 -5.7869 6.3291 -17.4532 41.1065 11.1162 -9.4715
# 5 -4.1175 -18.2662 -24.0090 11.1162 69.1206 -0.1299
# 6 -0.2334 4.7545 2.5442 -9.4715 -0.1299 17.4781
#
#
#
# Elastic Compliance Matrix: (Units=1/GPa)
#
#
# Indices 1 2 3 4 5 6 
#
# 1 0.009358 -0.004923 -0.003530 0.001875 -0.002266 0.002977
# 2 -0.004923 0.032622 -0.001084 -0.012415 0.009919 -0.015436
# 3 -0.003530 -0.001084 0.008379 0.002831 0.001960 0.000577
# 4 0.001875 -0.012415 0.002831 0.034823 -0.007745 0.021803
# 5 -0.002266 0.009919 0.001960 -0.007745 0.018867 -0.007071
# 6 0.002977 -0.015436 0.000577 0.021803 -0.007071 0.073132
#
#
# Mechanical properties :
#
#
# Convention : Reuss Voigt Hill
#
# Bulk Modulus (GPa) = 31.96498 62.67659 47.32078
# Shear Modulus (GPa) = 24.19167 41.76267 32.97717
#
# Velocity S-wave (km/s) = 3.12809 4.10998 3.65218
# Velocity P-wave (km/s) = 5.09663 6.91908 6.07657
#
# Compressibility (1/GPa) = 0.03128424
#
# Stress axis : x y z
#
# Youngs Moduli (GPa) = 106.86193 30.65454 119.34178
#
# Poissons Ratio (x) = 0.15091 0.42128
# Poissons Ratio (y) = 0.52608 0.12939
# Poissons Ratio (z) = 0.37723 0.03324
#
# Static dielectric constant tensor:
#      x y z
#    x 2.019130 -0.085610 0.070060 
#    y -0.085610 2.124910 -0.148020 
#    z 0.070060 -0.148020 2.039620 
# 
# From -- ./inp_files/199679.got.cif
#   From: 2010.05.17/outbox.cif.g08.bks.cpg/sg2_100_cif.got.tgz:199679.got - 2010.06.03 11:33:40.
