data_PCOD9054797
_publ_section_title
;
Structure prediction by ZEFSAII (Michael W. Deem and Ramdas Pophale) SiO2 
 PCOD9054797
Probable space group: P -1
;
_chemical_formula_sum "Si O2"
_cell_formula_units_Z 16
_cell_length_a 10.179961
_cell_length_b 8.947074
_cell_length_c 14.349330
_cell_angle_alpha 37.448224
_cell_angle_beta 127.181420
_cell_angle_gamma 113.602293
_cell_volume 624.582165
_symmetry_space_group_name_H-M "P -1"
_symmetry_group_IT_number 2
_symmetry_cell_setting 'triclinic'
loop_
_space_group_symop_operation_xyz
x,y,z
-x,-y,-z
loop_
_atom_site_type_symbol
_atom_site_label
_atom_site_fract_x
_atom_site_fract_y
_atom_site_fract_z
Si Si1 0.750703 0.250485 0.949599
Si Si2 0.863144 0.369256 0.451054
Si Si3 0.435382 0.120361 0.665243
Si Si4 0.733254 0.377727 0.583601
Si Si5 0.333802 0.210214 0.966323
Si Si6 0.015811 0.366760 0.857864
Si Si7 0.352700 0.194879 0.385311
Si Si8 0.007756 0.841130 0.734708
O O1 0.909652 0.263606 0.944079
O O2 0.627720 0.514059 0.755776
O O3 0.831242 0.209705 0.105448
O O4 0.671716 0.020042 0.992042
O O5 0.761502 0.286847 0.536028
O O6 0.734339 0.544917 0.243246
O O7 0.000000 0.500000 0.500000
O O8 0.960877 0.135128 0.553200
O O9 0.600139 0.239318 0.648008
O O10 0.334097 0.327239 0.585733
O O11 0.344397 0.115963 0.529536
O O12 0.491609 0.859789 0.870217
O O13 0.905827 0.346575 0.729119
O O14 0.196098 0.220507 0.984040
O O15 0.030320 0.646328 0.756808
O O16 0.162130 0.212033 0.259320
O O17 0.500000 0.000000 0.500000
#
# Coordination Sequence:
#
# PCOD9054797 Si02
#       8
#     2   2   2   2   2   2   2   2
#     4  11  21  40  65 100 130 166 221 279 325 380
#     4  12  25  44  65  98 131 180 219 272 327 387
#     4  11  23  41  68  99 127 174 217 268 325 393
#     4  11  21  43  68  92 134 168 221 272 320 387
#     4  12  25  39  68 100 130 172 227 261 328 393
#     4  11  21  38  65  99 128 167 221 284 321 374
#     4  11  23  39  65 102 136 165 210 276 339 378
#     4  11  24  41  64  94 138 168 218 275 333 383
#
# _framework density 25.617128000000001
#
# number of rings (size 3 to 8) (size 9 to 14) (size 15 to 20)
#    0.000    0.750    6.250    3.375    5.250    1.000 
#    0.000    0.625    0.000    0.000    0.000    0.000 
#    0.000    0.000    0.000    0.000    0.000    0.000 
#
# Total GULP energy -89588.961766 kJ/mol
# GULP energy per Si atom -5599.310110 kJ/mol
# Density = 2.555882 g / cm^3
# Si number density = 25.617128 Si / 1000 Ang^3
#
#
#
# Elastic Constant Matrix: (Units=GPa)
#
#
# Indices 1 2 3 4 5 6 
#
# 1 70.3227 14.7873 9.4900 -2.4097 14.4381 -15.0129
# 2 14.7873 80.1411 38.7860 -16.6975 2.8778 -11.4835
# 3 9.4900 38.7860 166.9319 0.3864 7.3459 -13.6557
# 4 -2.4097 -16.6975 0.3864 43.6885 -7.3724 2.9244
# 5 14.4381 2.8778 7.3459 -7.3724 34.1972 -1.4503
# 6 -15.0129 -11.4835 -13.6557 2.9244 -1.4503 23.3512
#
#
#
# Elastic Compliance Matrix: (Units=1/GPa)
#
#
# Indices 1 2 3 4 5 6 
#
# 1 0.018453 -0.002312 0.000724 -0.001902 -0.007699 0.010910
# 2 -0.002312 0.016355 -0.003447 0.006205 0.001842 0.003879
# 3 0.000724 -0.003447 0.007082 -0.001848 -0.001807 0.003031
# 4 -0.001902 0.006205 -0.001848 0.026376 0.006272 -0.002165
# 5 -0.007699 0.001842 -0.001807 0.006272 0.033918 -0.003779
# 6 0.010910 0.003879 0.003031 -0.002165 -0.003779 0.053555
#
#
# Mechanical properties :
#
#
# Convention : Reuss Voigt Hill
#
# Bulk Modulus (GPa) = 31.42565 49.28025 40.35295
# Shear Modulus (GPa) = 28.34224 37.20287 32.77256
#
# Velocity S-wave (km/s) = 3.32984 3.81499 3.58064
# Velocity P-wave (km/s) = 5.20363 6.21969 5.73421
#
# Compressibility (1/GPa) = 0.03182114
#
# Stress axis : x y z
#
# Youngs Moduli (GPa) = 54.19068 61.14302 141.20525
#
# Poissons Ratio (x) = 0.14134 -0.10220
# Poissons Ratio (y) = 0.12527 0.48670
# Poissons Ratio (z) = -0.03922 0.21075
#
# Static dielectric constant tensor:
#      x y z
#    x 2.067500 0.070370 -0.057450 
#    y 0.070370 2.006520 -0.017920 
#    z -0.057450 -0.017920 2.016310 
# 
# From -- ./inp_files/274559.got.cif
#   From: 2010.05.17/outbox.cif.g08.bks.cpg/sg2_138_cif.got.tgz:274559.got - 2010.06.03 11:33:40.
