data_PCOD9054910
_publ_section_title
;
Structure prediction by ZEFSAII (Michael W. Deem and Ramdas Pophale) SiO2 
 PCOD9054910
Probable space group: P -1
;
_chemical_formula_sum "Si O2"
_cell_formula_units_Z 16
_cell_length_a 8.738796
_cell_length_b 12.961072
_cell_length_c 11.207275
_cell_angle_alpha 56.061527
_cell_angle_beta 64.706594
_cell_angle_gamma 104.081131
_cell_volume 729.746041
_symmetry_space_group_name_H-M "P -1"
_symmetry_group_IT_number 2
_symmetry_cell_setting 'triclinic'
loop_
_space_group_symop_operation_xyz
x,y,z
-x,-y,-z
loop_
_atom_site_type_symbol
_atom_site_label
_atom_site_fract_x
_atom_site_fract_y
_atom_site_fract_z
Si Si1 0.546684 0.887215 0.116332
Si Si2 0.952358 0.741077 0.804388
Si Si3 0.860551 0.968644 0.774054
Si Si4 0.806581 0.412656 0.714228
Si Si5 0.656259 0.402715 0.196488
Si Si6 0.231549 0.337060 0.329200
Si Si7 0.399881 0.861981 0.453396
Si Si8 0.587787 0.195125 0.130380
O O1 0.407335 0.711315 0.215314
O O2 0.458128 0.860347 0.297094
O O3 0.789434 0.967460 0.934330
O O4 0.500000 0.000000 0.000000
O O5 0.948367 0.869860 0.790931
O O6 0.765762 0.667449 0.811625
O O7 0.170394 0.814708 0.606695
O O8 0.883287 0.587935 0.003370
O O9 0.645016 0.890991 0.808633
O O10 0.049529 0.152373 0.551743
O O11 0.824064 0.550694 0.685897
O O12 0.000000 0.500000 0.500000
O O13 0.777872 0.294940 0.902576
O O14 0.461339 0.410008 0.264529
O O15 0.606780 0.272497 0.392053
O O16 0.628464 0.319914 0.132883
O O17 0.573001 0.056266 0.292505
#
# Coordination Sequence:
#
# PCOD9054910 Si02
#       8
#     2   2   2   2   2   2   2   2
#     4  11  21  41  64  92 127 168 210 257 317 386
#     4  12  22  42  66  94 125 170 217 260 312 378
#     4  11  22  39  70  95 120 164 222 263 315 371
#     4  11  22  36  65 101 121 160 222 266 306 367
#     4  12  25  40  62 100 131 162 210 270 320 370
#     4  12  22  40  69  93 126 163 219 266 309 374
#     4  12  25  42  65  93 134 172 206 257 327 385
#     4  11  21  39  64  95 128 164 207 269 313 380
#
# _framework density 21.925436000000001
#
# number of rings (size 3 to 8) (size 9 to 14) (size 15 to 20)
#    0.000    0.500    6.250    5.250    0.000    0.000 
#    0.000    3.125    0.000    0.000    0.000    0.000 
#    0.000    0.000    0.000    0.000    0.000    0.000 
#
# Total GULP energy -89323.059507 kJ/mol
# GULP energy per Si atom -5582.691219 kJ/mol
# Density = 2.187553 g / cm^3
# Si number density = 21.925436 Si / 1000 Ang^3
#
#
#
# Elastic Constant Matrix: (Units=GPa)
#
#
# Indices 1 2 3 4 5 6 
#
# 1 28.8815 4.5636 34.6648 11.0918 8.3864 -17.5166
# 2 4.5636 122.5512 56.7040 -5.4070 5.7910 -17.4826
# 3 34.6648 56.7040 211.0313 -2.3392 17.4051 -18.2803
# 4 11.0918 -5.4070 -2.3392 49.1770 0.6021 0.0585
# 5 8.3864 5.7910 17.4051 0.6021 22.4427 -6.1548
# 6 -17.5166 -17.4826 -18.2803 0.0585 -6.1548 25.0388
#
#
#
# Elastic Compliance Matrix: (Units=1/GPa)
#
#
# Indices 1 2 3 4 5 6 
#
# 1 0.100007 0.011243 -0.013063 -0.021877 -0.011598 0.065476
# 2 0.011243 0.011263 -0.003722 -0.001482 -0.000656 0.012854
# 3 -0.013063 -0.003722 0.007489 0.002924 -0.001894 -0.006742
# 4 -0.021877 -0.001482 0.002924 0.025239 0.001824 -0.013815
# 5 -0.011598 -0.000656 -0.001894 0.001824 0.051201 0.002627
# 6 0.065476 0.012854 -0.006742 -0.013815 0.002627 0.090475
#
#
# Mechanical properties :
#
#
# Convention : Reuss Voigt Hill
#
# Bulk Modulus (GPa) = 9.28713 61.59211 35.43962
# Shear Modulus (GPa) = 15.03086 37.10047 26.06567
#
# Velocity S-wave (km/s) = 2.62113 4.11800 3.45169
# Velocity P-wave (km/s) = 3.66134 7.12483 5.66430
#
# Compressibility (1/GPa) = 0.10767592
#
# Stress axis : x y z
#
# Youngs Moduli (GPa) = 9.99930 88.78896 133.52820
#
# Poissons Ratio (x) = -0.99828 1.74424
# Poissons Ratio (y) = -0.11243 0.49699
# Poissons Ratio (z) = 0.13062 0.33047
#
# Static dielectric constant tensor:
#      x y z
#    x 1.886890 0.015760 -0.014900 
#    y 0.015760 1.797680 -0.008210 
#    z -0.014900 -0.008210 1.890430 
# 
# From -- ./inp_files/243116.got.cif
#   From: 2010.05.17/outbox.cif.g08.bks.cpg/sg2_122_cif.got.tgz:243116.got - 2010.06.03 11:33:40.
