data_PCOD9054120
_publ_section_title
;
Structure prediction by ZEFSAII (Michael W. Deem and Ramdas Pophale) SiO2 
 PCOD9054120
Probable space group: P -1
;
_chemical_formula_sum "Si O2"
_cell_formula_units_Z 16
_cell_length_a 9.663284
_cell_length_b 11.619144
_cell_length_c 11.613648
_cell_angle_alpha 126.100146
_cell_angle_beta 130.535084
_cell_angle_gamma 77.140020
_cell_volume 772.954471
_symmetry_space_group_name_H-M "P -1"
_symmetry_group_IT_number 2
_symmetry_cell_setting 'triclinic'
loop_
_space_group_symop_operation_xyz
x,y,z
-x,-y,-z
loop_
_atom_site_type_symbol
_atom_site_label
_atom_site_fract_x
_atom_site_fract_y
_atom_site_fract_z
Si Si1 0.578843 0.116303 0.918787
Si Si2 0.483736 0.153883 0.634301
Si Si3 0.068612 0.385817 0.133258
Si Si4 0.938878 0.852937 0.614448
Si Si5 0.168237 0.924679 0.575718
Si Si6 0.773737 0.309230 0.717077
Si Si7 0.860533 0.918600 0.978527
Si Si8 0.072692 0.637806 0.703737
O O1 0.586186 0.164351 0.817745
O O2 0.359145 0.046717 0.786847
O O3 0.679284 0.983427 0.909736
O O4 0.712270 0.260453 0.137288
O O5 0.271384 0.159048 0.544687
O O6 0.579449 0.272009 0.660451
O O7 0.500000 0.000000 0.500000
O O8 0.195089 0.544163 0.255563
O O9 0.169833 0.255839 0.136929
O O10 0.961902 0.402163 0.204326
O O11 0.928303 0.333878 0.918014
O O12 0.075661 0.821544 0.571312
O O13 0.946053 0.746675 0.661733
O O14 0.031816 0.016361 0.807790
O O15 0.213211 0.826589 0.438035
O O16 0.000000 0.000000 0.500000
O O17 0.000000 0.000000 0.000000
O O18 0.000000 0.500000 0.500000
#
# Coordination Sequence:
#
# PCOD9054120 Si02
#       8
#     2   2   2   2   2   2   2   2
#     4  11  23  39  73  98 134 178 236 275 338 413
#     4  12  20  40  70 102 127 175 235 279 332 408
#     4  11  22  42  65  99 141 175 227 285 353 398
#     4  11  24  40  68  98 139 175 224 281 338 404
#     4  12  23  42  66 107 140 173 230 292 335 400
#     4  11  24  39  69 103 136 177 227 290 342 405
#     4  11  20  40  69  99 128 181 230 278 333 411
#     4  11  24  44  64  94 141 185 218 276 351 415
#
# _framework density 20.699797
#
# number of rings (size 3 to 8) (size 9 to 14) (size 15 to 20)
#    0.000    0.750    6.250    3.000    0.000    2.000 
#    0.000    8.125    0.000    0.000    0.000    0.000 
#    0.000    0.000    0.000    0.000    0.000    0.000 
#
# Total GULP energy -89312.683039 kJ/mol
# GULP energy per Si atom -5582.042690 kJ/mol
# Density = 2.065268 g / cm^3
# Si number density = 20.699797 Si / 1000 Ang^3
#
#
#
# Elastic Constant Matrix: (Units=GPa)
#
#
# Indices 1 2 3 4 5 6 
#
# 1 108.3259 41.3510 43.5958 7.4313 16.1067 15.7915
# 2 41.3510 108.6969 45.0368 9.0087 15.4116 18.0139
# 3 43.5958 45.0368 125.6069 6.6268 5.8745 -7.2216
# 4 7.4313 9.0087 6.6268 29.4655 1.9817 -2.9827
# 5 16.1067 15.4116 5.8745 1.9817 39.4274 -3.4615
# 6 15.7915 18.0139 -7.2216 -2.9827 -3.4615 30.0234
#
#
#
# Elastic Compliance Matrix: (Units=1/GPa)
#
#
# Indices 1 2 3 4 5 6 
#
# 1 0.013581 -0.000957 -0.004481 -0.002641 -0.005120 -0.008500
# 2 -0.000957 0.014377 -0.004974 -0.003727 -0.005204 -0.010290
# 3 -0.004481 -0.004974 0.011624 0.000714 0.002756 0.008526
# 4 -0.002641 -0.003727 0.000714 0.036261 0.001269 0.007546
# 5 -0.005120 -0.005204 0.002756 0.001269 0.029897 0.010051
# 6 -0.008500 -0.010290 0.008526 0.007546 0.010051 0.047911
#
#
# Mechanical properties :
#
#
# Convention : Reuss Voigt Hill
#
# Bulk Modulus (GPa) = 53.30935 66.95521 60.13228
# Shear Modulus (GPa) = 27.66588 33.95966 30.81277
#
# Velocity S-wave (km/s) = 3.65982 4.05480 3.86236
# Velocity P-wave (km/s) = 6.60822 7.37143 7.00023
#
# Compressibility (1/GPa) = 0.01875844
#
# Stress axis : x y z
#
# Youngs Moduli (GPa) = 73.62974 69.55612 86.03086
#
# Poissons Ratio (x) = 0.06654 0.38548
# Poissons Ratio (y) = 0.07044 0.42795
# Poissons Ratio (z) = 0.32992 0.34600
#
# Static dielectric constant tensor:
#      x y z
#    x 1.723770 -0.023710 -0.035480 
#    y -0.023710 1.706870 0.003340 
#    z -0.035480 0.003340 1.794640 
# 
# From -- ./inp_files/345283.got.cif
#   From: 2010.05.17/outbox.cif.g08.bks.cpg/sg2_173_cif.got.tgz:345283.got - 2010.06.03 11:33:40.
