data_PCOD9054793
_publ_section_title
;
Structure prediction by ZEFSAII (Michael W. Deem and Ramdas Pophale) SiO2 
 PCOD9054793
Probable space group: P -1
;
_chemical_formula_sum "Si O2"
_cell_formula_units_Z 16
_cell_length_a 10.524415
_cell_length_b 14.910719
_cell_length_c 14.747057
_cell_angle_alpha 150.688064
_cell_angle_beta 57.988505
_cell_angle_gamma 138.878643
_cell_volume 684.896498
_symmetry_space_group_name_H-M "P -1"
_symmetry_group_IT_number 2
_symmetry_cell_setting 'triclinic'
loop_
_space_group_symop_operation_xyz
x,y,z
-x,-y,-z
loop_
_atom_site_type_symbol
_atom_site_label
_atom_site_fract_x
_atom_site_fract_y
_atom_site_fract_z
Si Si1 0.789864 0.305061 0.968514
Si Si2 0.763393 0.144015 0.511864
Si Si3 0.466064 0.562854 0.793574
Si Si4 0.935927 0.478026 0.606222
Si Si5 0.943656 0.681935 0.994240
Si Si6 0.560149 0.862042 0.527134
Si Si7 0.899611 0.005194 0.952361
Si Si8 0.475724 0.642680 0.063372
O O1 0.619543 0.070079 0.759022
O O2 0.705133 0.425161 0.143780
O O3 0.000000 0.500000 0.000000
O O4 0.847602 0.219024 0.952994
O O5 0.946919 0.299697 0.503599
O O6 0.824667 0.407235 0.748861
O O7 0.701291 0.002376 0.505988
O O8 0.576912 0.905335 0.306939
O O9 0.383781 0.286456 0.583489
O O10 0.659602 0.738545 0.806174
O O11 0.558618 0.677604 0.962303
O O12 0.691387 0.342705 0.576559
O O13 0.000000 0.500000 0.500000
O O14 0.092182 0.769201 0.836274
O O15 0.776729 0.576935 0.044035
O O16 0.977425 0.883056 0.092014
O O17 0.000000 0.000000 0.000000
O O18 0.500000 0.500000 0.000000
#
# Coordination Sequence:
#
# PCOD9054793 Si02
#       8
#     2   2   2   2   2   2   2   2
#     4  12  25  46  67  94 138 182 235 271 320 395
#     4  11  21  38  65  95 129 168 221 276 341 396
#     4  12  25  43  69  99 135 182 220 278 333 400
#     4  11  22  38  66  98 132 172 212 279 349 401
#     4  11  24  43  66  94 132 179 218 281 328 395
#     4  12  23  43  68  96 135 178 227 277 326 395
#     4  11  22  43  69  97 136 167 213 280 352 397
#     4  12  21  36  64 102 130 162 219 284 342 388
#
# _framework density 23.361193
#
# number of rings (size 3 to 8) (size 9 to 14) (size 15 to 20)
#    0.000    0.500    5.000    6.000    0.000    1.000 
#    2.250    0.625    0.000    0.000    0.000    0.000 
#    0.000    0.000    0.000    0.000    0.000    0.000 
#
# Total GULP energy -89113.876563 kJ/mol
# GULP energy per Si atom -5569.617285 kJ/mol
# Density = 2.330802 g / cm^3
# Si number density = 23.361193 Si / 1000 Ang^3
#
#
#
# Elastic Constant Matrix: (Units=GPa)
#
#
# Indices 1 2 3 4 5 6 
#
# 1 86.3681 8.2418 -1.5655 11.1046 -12.6592 -7.5863
# 2 8.2418 120.5399 13.2711 32.9480 -15.1699 -18.9589
# 3 -1.5655 13.2711 59.2149 11.6668 -14.2357 -8.2380
# 4 11.1046 32.9480 11.6668 32.7348 -13.1214 -6.3464
# 5 -12.6592 -15.1699 -14.2357 -13.1214 33.2369 1.0266
# 6 -7.5863 -18.9589 -8.2380 -6.3464 1.0266 27.9567
#
#
#
# Elastic Compliance Matrix: (Units=1/GPa)
#
#
# Indices 1 2 3 4 5 6 
#
# 1 0.013082 0.001088 0.002592 -0.003662 0.005019 0.004036
# 2 0.001088 0.012420 0.000764 -0.011194 0.001795 0.006336
# 3 0.002592 0.000764 0.020455 -0.004534 0.008124 0.005921
# 4 -0.003662 -0.011194 -0.004534 0.049234 0.010965 0.000853
# 5 0.005019 0.001795 0.008124 0.010965 0.040442 0.005977
# 6 0.004036 0.006336 0.005921 0.000853 0.005977 0.042880
#
#
# Mechanical properties :
#
#
# Convention : Reuss Voigt Hill
#
# Bulk Modulus (GPa) = 18.23384 34.00195 26.11789
# Shear Modulus (GPa) = 26.60875 35.19737 30.90306
#
# Velocity S-wave (km/s) = 3.37859 3.88578 3.64103
# Velocity P-wave (km/s) = 4.80020 5.89227 5.37405
#
# Compressibility (1/GPa) = 0.05484309
#
# Stress axis : x y z
#
# Youngs Moduli (GPa) = 76.43800 80.51754 48.88750
#
# Poissons Ratio (x) = -0.08756 -0.12670
# Poissons Ratio (y) = -0.08313 -0.03734
# Poissons Ratio (z) = -0.19810 -0.06149
#
# Static dielectric constant tensor:
#      x y z
#    x 2.058920 -0.028020 -0.055070 
#    y -0.028020 2.071020 -0.059660 
#    z -0.055070 -0.059660 1.883460 
# 
# From -- ./inp_files/522622.got.cif
#   From: 2010.05.17/outbox.cif.g08.bks.cpg/sg2_262_cif.got.tgz:522622.got - 2010.06.03 11:33:40.
