data_PCOD9054178
_publ_section_title
;
Structure prediction by ZEFSAII (Michael W. Deem and Ramdas Pophale) SiO2 
 PCOD9054178
Probable space group: P -1
;
_chemical_formula_sum "Si O2"
_cell_formula_units_Z 14
_cell_length_a 8.238105
_cell_length_b 12.215365
_cell_length_c 7.657855
_cell_angle_alpha 85.246812
_cell_angle_beta 55.519715
_cell_angle_gamma 68.457121
_cell_volume 582.956429
_symmetry_space_group_name_H-M "P -1"
_symmetry_group_IT_number 2
_symmetry_cell_setting 'triclinic'
loop_
_space_group_symop_operation_xyz
x,y,z
-x,-y,-z
loop_
_atom_site_type_symbol
_atom_site_label
_atom_site_fract_x
_atom_site_fract_y
_atom_site_fract_z
Si Si1 0.812022 0.592051 0.931406
Si Si2 0.219416 0.661345 0.062927
Si Si3 0.750034 0.428499 0.398518
Si Si4 0.352969 0.351086 0.347896
Si Si5 0.753227 0.843651 0.367531
Si Si6 0.374199 0.736977 0.311714
Si Si7 0.429588 0.975589 0.242701
O O1 0.796392 0.466294 0.917150
O O2 0.741144 0.663433 0.781221
O O3 0.046000 0.584599 0.840129
O O4 0.631089 0.662717 0.171981
O O5 0.311001 0.679855 0.189803
O O6 0.993630 0.769143 0.171961
O O7 0.403117 0.663666 0.822419
O O8 0.500000 0.500000 0.500000
O O9 0.776658 0.515164 0.522059
O O10 0.758448 0.298720 0.457874
O O11 0.340612 0.253327 0.500989
O O12 0.626903 0.921971 0.269030
O O13 0.731222 0.918053 0.551948
O O14 0.336769 0.873001 0.294879
O O15 0.500000 0.000000 0.000000
#
# Coordination Sequence:
#
# PCOD9054178 Si02
#       7
#     2   2   2   2   2   2   2
#     4  11  21  39  66  99 147 188 218 282 361 424
#     4  11  21  40  71 105 139 189 235 282 360 428
#     4  12  23  34  59  99 139 177 227 282 346 423
#     4  11  20  41  66 103 141 178 230 282 350 434
#     4  11  25  46  76 100 138 195 238 294 356 412
#     4  11  23  41  65 101 139 181 231 289 352 420
#     4  11  26  51  71  98 142 190 245 301 349 412
#
# _framework density 24.015516999999999
#
# number of rings (size 3 to 8) (size 9 to 14) (size 15 to 20)
#    0.000    0.857    4.286    4.714    0.000    2.286 
#    0.000    9.286    0.000    0.000    0.000    0.000 
#    0.000    0.000    0.000    0.000    0.000    0.000 
#
# Total GULP energy -78278.188531 kJ/mol
# GULP energy per Si atom -5591.299181 kJ/mol
# Density = 2.396086 g / cm^3
# Si number density = 24.015517 Si / 1000 Ang^3
#
#
#
# Elastic Constant Matrix: (Units=GPa)
#
#
# Indices 1 2 3 4 5 6 
#
# 1 86.3603 29.5201 66.6633 -13.4839 -0.2565 4.8160
# 2 29.5201 134.2636 59.4438 -9.6407 1.4481 28.3951
# 3 66.6633 59.4438 131.8410 -6.7304 -3.0665 10.0020
# 4 -13.4839 -9.6407 -6.7304 42.5441 1.6084 -7.1843
# 5 -0.2565 1.4481 -3.0665 1.6084 62.8085 3.1637
# 6 4.8160 28.3951 10.0020 -7.1843 3.1637 39.5070
#
#
#
# Elastic Compliance Matrix: (Units=1/GPa)
#
#
# Indices 1 2 3 4 5 6 
#
# 1 0.019964 0.000222 -0.010022 0.004965 -0.000585 0.000894
# 2 0.000222 0.010805 -0.004456 0.000718 -0.000156 -0.006521
# 3 -0.010022 -0.004456 0.014560 -0.001856 0.000803 0.000336
# 4 0.004965 0.000718 -0.001856 0.025675 -0.000951 0.004093
# 5 -0.000585 -0.000156 0.000803 -0.000951 0.016061 -0.001479
# 6 0.000894 -0.006521 0.000336 0.004093 -0.001479 0.030668
#
#
# Mechanical properties :
#
#
# Convention : Reuss Voigt Hill
#
# Bulk Modulus (GPa) = 59.46955 73.74657 66.60806
# Shear Modulus (GPa) = 32.92743 42.09445 37.51094
#
# Velocity S-wave (km/s) = 3.70684 4.19119 3.95643
# Velocity P-wave (km/s) = 6.56792 7.36179 6.97616
#
# Compressibility (1/GPa) = 0.01681533
#
# Stress axis : x y z
#
# Youngs Moduli (GPa) = 50.09122 92.55401 68.68214
#
# Poissons Ratio (x) = -0.02051 0.68834
# Poissons Ratio (y) = -0.01110 0.30603
# Poissons Ratio (z) = 0.50202 0.41240
#
# Static dielectric constant tensor:
#      x y z
#    x 1.993420 -0.036470 0.061940 
#    y -0.036470 1.929070 -0.009980 
#    z 0.061940 -0.009980 1.960980 
# 
# From -- ./inp_files/177138.got.cif
#   From: 2010.05.17/outbox.cif.g08.bks.cpg/sg2_89_cif.got.tgz:177138.got - 2010.06.03 11:33:40.
