data_PCOD9054619
_publ_section_title
;
Structure prediction by ZEFSAII (Michael W. Deem and Ramdas Pophale) SiO2 
 PCOD9054619
Probable space group: P -1
;
_chemical_formula_sum "Si O2"
_cell_formula_units_Z 15
_cell_length_a 8.761062
_cell_length_b 7.972923
_cell_length_c 11.211046
_cell_angle_alpha 96.129966
_cell_angle_beta 121.609325
_cell_angle_gamma 83.482828
_cell_volume 661.579864
_symmetry_space_group_name_H-M "P -1"
_symmetry_group_IT_number 2
_symmetry_cell_setting 'triclinic'
loop_
_space_group_symop_operation_xyz
x,y,z
-x,-y,-z
loop_
_atom_site_type_symbol
_atom_site_label
_atom_site_fract_x
_atom_site_fract_y
_atom_site_fract_z
Si Si1 0.421981 0.360407 0.875168
Si Si2 0.159498 0.926409 0.380117
Si Si3 0.293064 0.296142 0.385148
Si Si4 0.500000 0.000000 0.000000
Si Si5 0.943435 0.458970 0.338869
Si Si6 0.203788 0.906652 0.789412
Si Si7 0.585071 0.250075 0.695996
Si Si8 0.543911 0.113858 0.310551
O O1 0.218003 0.410721 0.754903
O O2 0.549637 0.348971 0.809852
O O3 0.500000 0.500000 0.000000
O O4 0.421724 0.187195 0.932080
O O5 0.225370 0.796014 0.293784
O O6 0.270597 0.867829 0.539145
O O7 0.220546 0.113715 0.381670
O O8 0.947798 0.960047 0.311869
O O9 0.447485 0.329556 0.546319
O O10 0.396410 0.258025 0.300507
O O11 0.127731 0.433892 0.336671
O O12 0.719171 0.047888 0.049055
O O13 0.859753 0.277118 0.275430
O O14 0.000000 0.500000 0.500000
O O15 0.404158 0.904779 0.808105
O O16 0.518172 0.064046 0.683874
#
# Coordination Sequence:
#
# PCOD9054619 Si02
#       8
#     2   2   2   1   2   2   2   2
#     4  12  24  42  66  92 133 178 217 262 325 396
#     4   8  17  30  57  94 123 158 214 264 324 385
#     4   8  16  32  57  94 123 160 209 266 328 383
#     4  12  26  42  62  94 128 182 226 258 320 396
#     4  11  22  39  66  94 128 170 219 270 327 384
#     4  11  21  37  60  92 126 169 219 264 316 388
#     4   9  16  34  60  90 124 167 208 262 327 384
#     4   9  16  31  60  92 127 156 207 274 327 375
#
# _framework density 22.672999000000001
#
# number of rings (size 3 to 8) (size 9 to 14) (size 15 to 20)
#    0.000    2.133    4.000    2.000    0.000    1.067 
#    0.000    2.667    2.933    1.600    0.000    0.000 
#    0.000    0.000    0.000    0.000    0.000    0.000 
#
# Total GULP energy -83547.846323 kJ/mol
# GULP energy per Si atom -5569.856422 kJ/mol
# Density = 2.262139 g / cm^3
# Si number density = 22.672999 Si / 1000 Ang^3
#
#
#
# Elastic Constant Matrix: (Units=GPa)
#
#
# Indices 1 2 3 4 5 6 
#
# 1 89.9156 50.3188 47.6961 -3.5709 -2.0409 -34.7305
# 2 50.3188 117.2155 68.1734 -2.3213 3.8784 -18.2649
# 3 47.6961 68.1734 121.6607 -2.2138 15.7417 -26.9052
# 4 -3.5709 -2.3213 -2.2138 44.4087 -5.4461 4.5963
# 5 -2.0409 3.8784 15.7417 -5.4461 34.2863 5.0014
# 6 -34.7305 -18.2649 -26.9052 4.5963 5.0014 47.0812
#
#
#
# Elastic Compliance Matrix: (Units=1/GPa)
#
#
# Indices 1 2 3 4 5 6 
#
# 1 0.019659 -0.005344 -0.002489 0.000224 0.001372 0.010839
# 2 -0.005344 0.014256 -0.006612 0.000420 0.001521 -0.002392
# 3 -0.002489 -0.006612 0.014911 -0.001199 -0.007166 0.004998
# 4 0.000224 0.000420 -0.001199 0.023399 0.004691 -0.003140
# 5 0.001372 0.001521 -0.007166 0.004691 0.034069 -0.006570
# 6 0.010839 -0.002392 0.004998 -0.003140 -0.006570 0.032168
#
#
# Mechanical properties :
#
#
# Convention : Reuss Voigt Hill
#
# Bulk Modulus (GPa) = 50.15811 73.46316 61.81063
# Shear Modulus (GPa) = 28.73631 35.99548 32.36590
#
# Velocity S-wave (km/s) = 3.56395 3.98878 3.78234
# Velocity P-wave (km/s) = 6.25349 7.32703 6.81144
#
# Compressibility (1/GPa) = 0.01993696
#
# Stress axis : x y z
#
# Youngs Moduli (GPa) = 50.86754 70.14701 67.06443
#
# Poissons Ratio (x) = 0.37483 0.16694
# Poissons Ratio (y) = 0.27181 0.44340
# Poissons Ratio (z) = 0.12663 0.46378
#
# Static dielectric constant tensor:
#      x y z
#    x 1.946510 0.045670 -0.008460 
#    y 0.045670 1.922350 0.100420 
#    z -0.008460 0.100420 2.104820 
# 
# From -- ./inp_files/376743.got.cif
#   From: 2010.05.17/outbox.cif.g08.bks.cpg/sg2_189_cif.got.tgz:376743.got - 2010.06.03 11:33:40.
