data_PCOD9054369
_publ_section_title
;
Structure prediction by ZEFSAII (Michael W. Deem and Ramdas Pophale) SiO2 
 PCOD9054369
Probable space group: P -1
;
_chemical_formula_sum "Si O2"
_cell_formula_units_Z 16
_cell_length_a 21.752746
_cell_length_b 17.896715
_cell_length_c 11.467922
_cell_angle_alpha 148.945260
_cell_angle_beta 28.907851
_cell_angle_gamma 160.084679
_cell_volume 719.637959
_symmetry_space_group_name_H-M "P -1"
_symmetry_group_IT_number 2
_symmetry_cell_setting 'triclinic'
loop_
_space_group_symop_operation_xyz
x,y,z
-x,-y,-z
loop_
_atom_site_type_symbol
_atom_site_label
_atom_site_fract_x
_atom_site_fract_y
_atom_site_fract_z
Si Si1 0.894534 0.553362 0.205061
Si Si2 0.281680 0.934199 0.549189
Si Si3 0.726762 0.313644 0.921517
Si Si4 0.888085 0.763716 0.921224
Si Si5 0.173402 0.736324 0.699500
Si Si6 0.664982 0.388130 0.595144
Si Si7 0.567128 0.445366 0.219125
Si Si8 0.146884 0.991366 0.230167
O O1 0.780435 0.515256 0.453895
O O2 0.063126 0.809255 0.223901
O O3 0.752687 0.388349 0.111351
O O4 0.000000 0.500000 0.000000
O O5 0.361355 0.917415 0.280414
O O6 0.265041 0.807420 0.514977
O O7 0.068209 0.815966 0.726170
O O8 0.436520 0.189084 0.675253
O O9 0.951587 0.489240 0.741747
O O10 0.632690 0.358600 0.062446
O O11 0.749444 0.568250 0.793031
O O12 0.744337 0.658506 0.129981
O O13 0.000000 0.000000 0.000000
O O14 0.289394 0.735043 0.595581
O O15 0.150923 0.886047 0.972133
O O16 0.500000 0.500000 0.500000
O O17 0.369189 0.237452 0.200052
O O18 0.000000 0.000000 0.500000
#
# Coordination Sequence:
#
# PCOD9054369 Si02
#       8
#     2   2   2   2   2   2   2   2
#     4  11  23  44  67 106 150 189 245 307 368 435
#     4  12  24  43  76 105 143 188 241 307 369 439
#     4  11  22  42  73 105 140 188 242 301 367 439
#     4  12  29  49  73 108 149 190 248 313 372 443
#     4  11  20  43  70 104 139 184 241 298 365 438
#     4  12  25  45  72 106 147 192 240 309 379 434
#     4  12  26  47  72 106 143 194 249 302 370 449
#     4  11  25  43  72 102 143 195 246 299 363 448
#
# _framework density 22.233402999999999
#
# number of rings (size 3 to 8) (size 9 to 14) (size 15 to 20)
#    0.000    0.500    5.000    4.500    1.750    3.000 
#    0.000    0.000    0.000    0.000    0.000    0.000 
#    0.000    0.000    0.000    0.000    0.000    0.000 
#
# Total GULP energy -89421.849934 kJ/mol
# GULP energy per Si atom -5588.865621 kJ/mol
# Density = 2.218280 g / cm^3
# Si number density = 22.233403 Si / 1000 Ang^3
#
#
#
# Elastic Constant Matrix: (Units=GPa)
#
#
# Indices 1 2 3 4 5 6 
#
# 1 58.5551 34.9687 37.8324 -1.2813 4.8136 -4.2726
# 2 34.9687 112.6380 46.2901 3.3692 2.0089 9.1294
# 3 37.8324 46.2901 119.2840 3.7971 8.5356 -0.2746
# 4 -1.2813 3.3692 3.7971 32.4620 -0.9528 4.4490
# 5 4.8136 2.0089 8.5356 -0.9528 39.8807 -0.7102
# 6 -4.2726 9.1294 -0.2746 4.4490 -0.7102 40.1496
#
#
#
# Elastic Compliance Matrix: (Units=1/GPa)
#
#
# Indices 1 2 3 4 5 6 
#
# 1 0.024414 -0.005638 -0.005501 0.001654 -0.001381 0.003635
# 2 -0.005638 0.012114 -0.002944 -0.000666 0.000626 -0.003290
# 3 -0.005501 -0.002944 0.011432 -0.001336 -0.001662 0.000281
# 4 0.001654 -0.000666 -0.001336 0.031554 0.000817 -0.003164
# 5 -0.001381 0.000626 -0.001662 0.000817 0.025586 0.000061
# 6 0.003635 -0.003290 0.000281 -0.003164 0.000061 0.026395
#
#
# Mechanical properties :
#
#
# Convention : Reuss Voigt Hill
#
# Bulk Modulus (GPa) = 50.51866 58.73992 54.62929
# Shear Modulus (GPa) = 30.07365 33.92417 31.99891
#
# Velocity S-wave (km/s) = 3.68181 3.91041 3.79783
# Velocity P-wave (km/s) = 6.39105 6.84584 6.62235
#
# Compressibility (1/GPa) = 0.01979466
#
# Stress axis : x y z
#
# Youngs Moduli (GPa) = 40.96021 82.55189 87.47071
#
# Poissons Ratio (x) = 0.46545 0.48114
# Poissons Ratio (y) = 0.23094 0.25750
# Poissons Ratio (z) = 0.22531 0.24302
#
# Static dielectric constant tensor:
#      x y z
#    x 1.759730 -0.033030 -0.056200 
#    y -0.033030 1.850540 0.042690 
#    z -0.056200 0.042690 1.826880 
# 
# From -- ./inp_files/472474.got.cif
#   From: 2010.05.17/outbox.cif.g08.bks.cpg/sg2_237_cif.got.tgz:472474.got - 2010.06.03 11:33:40.
