data_PCOD9054991
_publ_section_title
;
Structure prediction by ZEFSAII (Michael W. Deem and Ramdas Pophale) SiO2 
 PCOD9054991
Probable space group: P -1
;
_chemical_formula_sum "Si O2"
_cell_formula_units_Z 14
_cell_length_a 16.321789
_cell_length_b 11.554467
_cell_length_c 14.298175
_cell_angle_alpha 49.992940
_cell_angle_beta 150.756075
_cell_angle_gamma 146.454786
_cell_volume 691.499460
_symmetry_space_group_name_H-M "P -1"
_symmetry_group_IT_number 2
_symmetry_cell_setting 'triclinic'
loop_
_space_group_symop_operation_xyz
x,y,z
-x,-y,-z
loop_
_atom_site_type_symbol
_atom_site_label
_atom_site_fract_x
_atom_site_fract_y
_atom_site_fract_z
Si Si1 0.270326 0.751501 0.630038
Si Si2 0.918934 0.078351 0.730133
Si Si3 0.690296 0.523239 0.970802
Si Si4 0.473095 0.444196 0.393531
Si Si5 0.316704 0.198118 0.922142
Si Si6 0.719594 0.190375 0.187129
Si Si7 0.996316 0.837873 0.635314
O O1 0.226433 0.858456 0.459156
O O2 0.483906 0.763118 0.835122
O O3 0.327558 0.877997 0.717391
O O4 0.000000 0.500000 0.500000
O O5 0.111958 0.156824 0.797947
O O6 0.715607 0.816504 0.669463
O O7 0.096525 0.223136 0.919556
O O8 0.617588 0.493724 0.806006
O O9 0.474358 0.398541 0.899063
O O10 0.764748 0.398066 0.122224
O O11 0.500000 0.500000 0.500000
O O12 0.749808 0.610144 0.549861
O O13 0.178374 0.986918 0.826650
O O14 0.935981 0.236518 0.337685
O O15 0.500000 0.000000 0.000000
O O16 0.000000 0.000000 0.500000
#
# Coordination Sequence:
#
# PCOD9054991 Si02
#       7
#     2   2   2   2   2   2   2
#     4  11  23  40  68 109 133 170 232 282 339 405
#     4  12  25  46  69 101 148 174 222 291 344 408
#     4  11  24  45  66 101 135 181 227 279 343 402
#     4  12  27  43  67 100 136 185 227 279 347 406
#     4  11  22  42  74 101 131 178 231 277 337 397
#     4  11  21  39  69  98 131 169 229 289 324 394
#     4  12  22  43  70 101 129 180 237 277 339 407
#
# _framework density 20.245857000000001
#
# number of rings (size 3 to 8) (size 9 to 14) (size 15 to 20)
#    0.000    0.571    8.571    1.714    2.000    0.000 
#    2.571    2.143    0.000    0.000    0.000    0.000 
#    0.000    0.000    0.000    0.000    0.000    0.000 
#
# Total GULP energy -77998.302023 kJ/mol
# GULP energy per Si atom -5571.307287 kJ/mol
# Density = 2.019978 g / cm^3
# Si number density = 20.245857 Si / 1000 Ang^3
#
#
#
# Elastic Constant Matrix: (Units=GPa)
#
#
# Indices 1 2 3 4 5 6 
#
# 1 60.7514 14.2438 11.9045 2.1727 1.3262 4.3054
# 2 14.2438 89.3684 22.7699 22.8232 16.0787 9.9840
# 3 11.9045 22.7699 95.7954 10.0786 -5.0447 7.2137
# 4 2.1727 22.8232 10.0786 43.9844 -2.3771 -5.9210
# 5 1.3262 16.0787 -5.0447 -2.3771 32.8356 6.7574
# 6 4.3054 9.9840 7.2137 -5.9210 6.7574 26.0785
#
#
#
# Elastic Compliance Matrix: (Units=1/GPa)
#
#
# Indices 1 2 3 4 5 6 
#
# 1 0.017410 -0.002496 -0.001483 0.000603 0.000652 -0.001540
# 2 -0.002496 0.016600 -0.002725 -0.008993 -0.008038 -0.005148
# 3 -0.001483 -0.002725 0.011876 -0.001475 0.003794 -0.003315
# 4 0.000603 -0.008993 -0.001475 0.029191 0.004363 0.009249
# 5 0.000652 -0.008038 0.003794 0.004363 0.036617 -0.006577
# 6 -0.001540 -0.005148 -0.003315 0.009249 -0.006577 0.045292
#
#
# Mechanical properties :
#
#
# Convention : Reuss Voigt Hill
#
# Bulk Modulus (GPa) = 30.79142 38.19461 34.49301
# Shear Modulus (GPa) = 27.59095 33.71285 30.65190
#
# Velocity S-wave (km/s) = 3.69561 4.08508 3.89522
# Velocity P-wave (km/s) = 5.78375 6.41536 6.10773
#
# Compressibility (1/GPa) = 0.03247658
#
# Stress axis : x y z
#
# Youngs Moduli (GPa) = 57.43892 60.24189 84.20655
#
# Poissons Ratio (x) = 0.15037 0.12491
# Poissons Ratio (y) = 0.14337 0.22945
# Poissons Ratio (z) = 0.08520 0.16415
#
# Static dielectric constant tensor:
#      x y z
#    x 1.676920 -0.014070 -0.035000 
#    y -0.014070 1.702230 -0.020840 
#    z -0.035000 -0.020840 1.820370 
# 
# From -- ./inp_files/538227.got.cif
#   From: 2010.05.17/outbox.cif.g08.bks.cpg/sg2_270_cif.got.tgz:538227.got - 2010.06.03 11:33:40.
