data_PCOD9054765
_publ_section_title
;
Structure prediction by ZEFSAII (Michael W. Deem and Ramdas Pophale) SiO2 
 PCOD9054765
Probable space group: P -1
;
_chemical_formula_sum "Si O2"
_cell_formula_units_Z 16
_cell_length_a 14.813762
_cell_length_b 6.544080
_cell_length_c 23.950826
_cell_angle_alpha 65.529636
_cell_angle_beta 159.961473
_cell_angle_gamma 111.496337
_cell_volume 722.202385
_symmetry_space_group_name_H-M "P -1"
_symmetry_group_IT_number 2
_symmetry_cell_setting 'triclinic'
loop_
_space_group_symop_operation_xyz
x,y,z
-x,-y,-z
loop_
_atom_site_type_symbol
_atom_site_label
_atom_site_fract_x
_atom_site_fract_y
_atom_site_fract_z
Si Si1 0.867583 0.201625 0.704902
Si Si2 0.622004 0.764251 0.664593
Si Si3 0.210952 0.120455 0.745497
Si Si4 0.609050 0.189742 0.354418
Si Si5 0.216974 0.977327 0.079848
Si Si6 0.582746 0.337140 0.861359
Si Si7 0.999142 0.551992 0.144582
Si Si8 0.401607 0.270865 0.946927
O O1 0.659742 0.235004 0.530162
O O2 0.864052 0.418143 0.719724
O O3 0.163986 0.179629 0.855814
O O4 0.770863 0.980103 0.704800
O O5 0.572481 0.787018 0.698557
O O6 0.784059 0.535827 0.764844
O O7 0.375552 0.165530 0.780629
O O8 0.277381 0.305175 0.809338
O O9 0.905939 0.126476 0.553141
O O10 0.340531 0.900962 0.876949
O O11 0.494905 0.005792 0.268471
O O12 0.568169 0.429706 0.272355
O O13 0.244698 0.766838 0.078284
O O14 0.138703 0.201197 0.973606
O O15 0.000000 0.000000 0.000000
O O16 0.770346 0.387034 0.017310
O O17 0.500000 0.500000 0.000000
#
# Coordination Sequence:
#
# PCOD9054765 Si02
#       8
#     2   2   2   2   2   2   2   2
#     4  11  23  42  66  97 132 173 219 278 338 391
#     4  11  23  41  65  97 137 169 219 277 334 399
#     4  11  24  44  65  98 132 174 228 273 326 393
#     4  11  24  43  66  98 133 175 221 274 331 395
#     4  11  23  40  63  94 128 171 217 270 328 392
#     4  11  24  42  69  92 137 177 220 275 325 397
#     4  11  21  38  63  94 125 170 217 262 332 392
#     4  11  24  44  69  96 134 178 221 276 330 393
#
# _framework density 22.154453
#
# number of rings (size 3 to 8) (size 9 to 14) (size 15 to 20)
#    0.000    1.000    1.250    6.000    0.000    5.500 
#    4.500    0.000    0.000    0.000    0.000    0.000 
#    0.000    0.000    0.000    0.000    0.000    0.000 
#
# Total GULP energy -89413.814399 kJ/mol
# GULP energy per Si atom -5588.363400 kJ/mol
# Density = 2.210403 g / cm^3
# Si number density = 22.154453 Si / 1000 Ang^3
#
#
#
# Elastic Constant Matrix: (Units=GPa)
#
#
# Indices 1 2 3 4 5 6 
#
# 1 72.3696 1.9628 12.7854 12.8422 1.7380 -7.2751
# 2 1.9628 63.4961 41.3615 17.9007 -4.9530 -18.4106
# 3 12.7854 41.3615 143.1935 18.6680 -2.0756 -6.5979
# 4 12.8422 17.9007 18.6680 29.4640 -8.3437 -9.0169
# 5 1.7380 -4.9530 -2.0756 -8.3437 37.7391 4.8957
# 6 -7.2751 -18.4106 -6.5979 -9.0169 4.8957 31.4448
#
#
#
# Elastic Compliance Matrix: (Units=1/GPa)
#
#
# Indices 1 2 3 4 5 6 
#
# 1 0.015729 0.003310 -0.001228 -0.007733 -0.002521 0.003495
# 2 0.003310 0.025632 -0.005874 -0.009910 -0.000837 0.011829
# 3 -0.001228 -0.005874 0.008992 -0.002478 -0.000446 -0.002478
# 4 -0.007733 -0.009910 -0.002478 0.048860 0.009141 0.004476
# 5 -0.002521 -0.000837 -0.000446 0.009141 0.028895 -0.003044
# 6 0.003495 0.011829 -0.002478 0.004476 -0.003044 0.040774
#
#
# Mechanical properties :
#
#
# Convention : Reuss Voigt Hill
#
# Bulk Modulus (GPa) = 23.38113 43.47540 33.42827
# Shear Modulus (GPa) = 26.21614 34.59287 30.40450
#
# Velocity S-wave (km/s) = 3.44370 3.95579 3.70859
# Velocity P-wave (km/s) = 5.13699 6.36638 5.78444
#
# Compressibility (1/GPa) = 0.04276953
#
# Stress axis : x y z
#
# Youngs Moduli (GPa) = 63.57578 39.01432 111.20460
#
# Poissons Ratio (x) = -0.12916 0.13656
# Poissons Ratio (y) = -0.21047 0.65326
# Poissons Ratio (z) = 0.07807 0.22919
#
# Static dielectric constant tensor:
#      x y z
#    x 1.884710 -0.018300 -0.013150 
#    y -0.018300 1.823640 0.016810 
#    z -0.013150 0.016810 1.810470 
# 
# From -- ./inp_files/71671.got.cif
#   From: 2010.05.17/outbox.cif.g08.bks.cpg/sg2_36_cif.got.tgz:71671.got - 2010.06.03 11:33:40.
