data_PCOD9054128
_publ_section_title
;
Structure prediction by ZEFSAII (Michael W. Deem and Ramdas Pophale) SiO2 
 PCOD9054128
Probable space group: P -1
;
_chemical_formula_sum "Si O2"
_cell_formula_units_Z 16
_cell_length_a 15.354992
_cell_length_b 14.915562
_cell_length_c 8.729833
_cell_angle_alpha 128.398217
_cell_angle_beta 128.451384
_cell_angle_gamma 25.533368
_cell_volume 664.161830
_symmetry_space_group_name_H-M "P -1"
_symmetry_group_IT_number 2
_symmetry_cell_setting 'triclinic'
loop_
_space_group_symop_operation_xyz
x,y,z
-x,-y,-z
loop_
_atom_site_type_symbol
_atom_site_label
_atom_site_fract_x
_atom_site_fract_y
_atom_site_fract_z
Si Si1 0.120182 0.614759 0.885678
Si Si2 0.453384 0.859008 0.901821
Si Si3 0.882605 0.596159 0.136406
Si Si4 0.328085 0.555743 0.326584
Si Si5 0.892651 0.210575 0.381460
Si Si6 0.755325 0.085988 0.980205
Si Si7 0.588552 0.647366 0.340580
Si Si8 0.251545 0.059286 0.587921
O O1 0.252765 0.590373 0.109516
O O2 0.045690 0.577400 0.875264
O O3 0.259280 0.442065 0.721516
O O4 0.933593 0.848798 0.863901
O O5 0.571452 0.650355 0.731941
O O6 0.351016 0.894508 0.978475
O O7 0.295522 0.038318 0.794471
O O8 0.636218 0.788381 0.058212
O O9 0.890239 0.708438 0.356967
O O10 0.000000 0.500000 0.000000
O O11 0.500000 0.500000 0.500000
O O12 0.134496 0.754870 0.428955
O O13 0.848643 0.121274 0.185163
O O14 0.719354 0.444220 0.366981
O O15 0.116425 0.062423 0.429843
O O16 0.591613 0.257193 0.852978
O O17 0.465858 0.852483 0.515347
#
# Coordination Sequence:
#
# PCOD9054128 Si02
#       8
#     2   2   2   2   2   2   2   2
#     4  11  26  46  70 103 142 186 235 291 353 416
#     4  11  22  45  73 105 137 181 235 293 353 409
#     4  11  24  49  78 105 139 178 239 301 350 413
#     4  11  20  40  70 101 139 179 230 297 344 400
#     4  12  26  44  71 109 145 184 240 292 346 421
#     4  12  25  46  74 102 144 193 232 287 361 415
#     4  12  26  48  66 104 149 188 236 283 354 424
#     4  12  27  43  76 107 137 192 235 289 354 418
#
# _framework density 24.090516000000001
#
# number of rings (size 3 to 8) (size 9 to 14) (size 15 to 20)
#    0.000    0.500    5.000    4.500    1.750    4.500 
#    0.000    1.250    0.000    0.000    0.000    0.000 
#    0.000    0.000    0.000    0.000    0.000    0.000 
#
# Total GULP energy -89483.606592 kJ/mol
# GULP energy per Si atom -5592.725412 kJ/mol
# Density = 2.403568 g / cm^3
# Si number density = 24.090516 Si / 1000 Ang^3
#
#
#
# Elastic Constant Matrix: (Units=GPa)
#
#
# Indices 1 2 3 4 5 6 
#
# 1 99.2032 18.3570 41.4449 11.1345 -1.8486 -23.6824
# 2 18.3570 87.2217 7.3556 11.9248 -9.0854 -0.2722
# 3 41.4449 7.3556 63.0685 12.9472 -4.4269 -5.9506
# 4 11.1345 11.9248 12.9472 48.7972 -8.1663 -11.7005
# 5 -1.8486 -9.0854 -4.4269 -8.1663 41.3630 3.9384
# 6 -23.6824 -0.2722 -5.9506 -11.7005 3.9384 27.8026
#
#
#
# Elastic Compliance Matrix: (Units=1/GPa)
#
#
# Indices 1 2 3 4 5 6 
#
# 1 0.018567 -0.003515 -0.011103 0.002799 -0.001993 0.014865
# 2 -0.003515 0.012799 0.001259 -0.003272 0.002556 -0.004339
# 3 -0.011103 0.001259 0.023589 -0.005376 0.001903 -0.006928
# 4 0.002799 -0.003272 -0.005376 0.025284 0.002732 0.011455
# 5 -0.001993 0.002556 0.001903 0.002732 0.025750 -0.003763
# 6 0.014865 -0.004339 -0.006928 0.011455 -0.003763 0.052458
#
#
# Mechanical properties :
#
#
# Convention : Reuss Voigt Hill
#
# Bulk Modulus (GPa) = 35.41599 42.64537 39.03068
# Shear Modulus (GPa) = 25.69685 35.74829 30.72257
#
# Velocity S-wave (km/s) = 3.26955 3.85634 3.57500
# Velocity P-wave (km/s) = 5.38390 6.12936 5.76868
#
# Compressibility (1/GPa) = 0.02823584
#
# Stress axis : x y z
#
# Youngs Moduli (GPa) = 53.86012 78.13263 42.39350
#
# Poissons Ratio (x) = 0.27465 0.47069
# Poissons Ratio (y) = 0.18933 -0.05338
# Poissons Ratio (z) = 0.59800 -0.09837
#
# Static dielectric constant tensor:
#      x y z
#    x 1.963630 -0.034790 0.031740 
#    y -0.034790 2.001930 -0.070080 
#    z 0.031740 -0.070080 2.012330 
# 
# From -- ./inp_files/315981.got.cif
#   From: 2010.05.17/outbox.cif.g08.bks.cpg/sg2_158_cif.got.tgz:315981.got - 2010.06.03 11:33:40.
