data_PCOD9054428
_publ_section_title
;
Structure prediction by ZEFSAII (Michael W. Deem and Ramdas Pophale) SiO2 
 PCOD9054428
Probable space group: P -1
;
_chemical_formula_sum "Si O2"
_cell_formula_units_Z 14
_cell_length_a 12.805611
_cell_length_b 22.526143
_cell_length_c 8.225580
_cell_angle_alpha 53.553173
_cell_angle_beta 49.945886
_cell_angle_gamma 18.672095
_cell_volume 580.284745
_symmetry_space_group_name_H-M "P -1"
_symmetry_group_IT_number 2
_symmetry_cell_setting 'triclinic'
loop_
_space_group_symop_operation_xyz
x,y,z
-x,-y,-z
loop_
_atom_site_type_symbol
_atom_site_label
_atom_site_fract_x
_atom_site_fract_y
_atom_site_fract_z
Si Si1 0.163117 0.203220 0.934022
Si Si2 0.341771 0.300518 0.073187
Si Si3 0.222317 0.665427 0.377015
Si Si4 0.644081 0.572743 0.930050
Si Si5 0.560879 0.384208 0.279629
Si Si6 0.102760 0.907340 0.380461
Si Si7 0.566131 0.073465 0.455185
O O1 0.986374 0.354715 0.973764
O O2 0.879105 0.279611 0.084179
O O3 0.289030 0.181576 0.682589
O O4 0.500000 0.000000 0.000000
O O5 0.332202 0.356452 0.152295
O O6 0.665174 0.158065 0.864386
O O7 0.000000 0.500000 0.000000
O O8 0.397606 0.191518 0.269190
O O9 0.500000 0.500000 0.500000
O O10 0.350311 0.680398 0.156138
O O11 0.280250 0.578387 0.317897
O O12 0.837041 0.872543 0.479736
O O13 0.554579 0.603196 0.782994
O O14 0.670405 0.273811 0.489275
O O15 0.789212 0.026001 0.403275
O O16 0.000000 0.000000 0.500000
#
# Coordination Sequence:
#
# PCOD9054428 Si02
#       7
#     2   2   2   2   2   2   2
#     4  11  23  44  74 115 149 186 248 302 364 445
#     4  12  30  51  73 107 149 199 255 310 368 437
#     4  11  20  44  74 106 147 192 241 294 370 444
#     4  11  25  48  72  99 156 193 250 299 371 444
#     4  11  24  47  76 108 148 202 236 302 377 441
#     4  12  26  47  80 105 147 194 252 304 374 444
#     4  12  25  47  77 110 152 194 244 309 372 438
#
# _framework density 24.126087999999999
#
# number of rings (size 3 to 8) (size 9 to 14) (size 15 to 20)
#    0.000    0.571    4.286    3.857    6.000    0.571 
#    5.143    2.857    0.000    0.000    0.000    0.000 
#    0.000    0.000    0.000    0.000    0.000    0.000 
#
# Total GULP energy -78392.757377 kJ/mol
# GULP energy per Si atom -5599.482670 kJ/mol
# Density = 2.407118 g / cm^3
# Si number density = 24.126088 Si / 1000 Ang^3
#
#
#
# Elastic Constant Matrix: (Units=GPa)
#
#
# Indices 1 2 3 4 5 6 
#
# 1 92.3679 56.5866 28.4538 2.3005 19.2359 0.7682
# 2 56.5866 92.3180 16.4657 8.9080 5.3928 11.0964
# 3 28.4538 16.4657 133.1247 1.2150 -4.3101 -4.9479
# 4 2.3005 8.9080 1.2150 58.3638 -1.2711 1.3795
# 5 19.2359 5.3928 -4.3101 -1.2711 34.0826 -3.2139
# 6 0.7682 11.0964 -4.9479 1.3795 -3.2139 33.3229
#
#
#
# Elastic Compliance Matrix: (Units=1/GPa)
#
#
# Indices 1 2 3 4 5 6 
#
# 1 0.021536 -0.012325 -0.003346 0.000826 -0.010401 0.002074
# 2 -0.012325 0.019044 0.000199 -0.002219 0.003356 -0.005612
# 3 -0.003346 0.000199 0.008359 -0.000043 0.003058 0.001549
# 4 0.000826 -0.002219 -0.000043 0.017452 0.000534 0.000043
# 5 -0.010401 0.003356 0.003058 0.000534 0.035366 0.002965
# 6 0.002074 -0.005612 0.001549 0.000043 0.002965 0.032345
#
#
# Mechanical properties :
#
#
# Convention : Reuss Voigt Hill
#
# Bulk Modulus (GPa) = 55.56920 57.86922 56.71921
# Shear Modulus (GPa) = 29.23238 39.57415 34.40327
#
# Velocity S-wave (km/s) = 3.48465 4.05446 3.78031
# Velocity P-wave (km/s) = 6.26684 6.77912 6.52800
#
# Compressibility (1/GPa) = 0.01799558
#
# Stress axis : x y z
#
# Youngs Moduli (GPa) = 46.43433 52.51001 119.62853
#
# Poissons Ratio (x) = 0.64719 0.40025
# Poissons Ratio (y) = 0.57231 -0.02383
# Poissons Ratio (z) = 0.15536 -0.01046
#
# Static dielectric constant tensor:
#      x y z
#    x 1.975960 -0.020770 0.056430 
#    y -0.020770 1.936080 -0.051630 
#    z 0.056430 -0.051630 1.937620 
# 
# From -- ./inp_files/281826.got.cif
#   From: 2010.05.17/outbox.cif.g08.bks.cpg/sg2_141_cif.got.tgz:281826.got - 2010.06.03 11:33:40.
