data_PCOD9054162
_publ_section_title
;
Structure prediction by ZEFSAII (Michael W. Deem and Ramdas Pophale) SiO2 
 PCOD9054162
Probable space group: P -1
;
_chemical_formula_sum "Si O2"
_cell_formula_units_Z 16
_cell_length_a 8.545359
_cell_length_b 14.747738
_cell_length_c 9.393589
_cell_angle_alpha 40.015047
_cell_angle_beta 89.849150
_cell_angle_gamma 78.992418
_cell_volume 727.585039
_symmetry_space_group_name_H-M "P -1"
_symmetry_group_IT_number 2
_symmetry_cell_setting 'triclinic'
loop_
_space_group_symop_operation_xyz
x,y,z
-x,-y,-z
loop_
_atom_site_type_symbol
_atom_site_label
_atom_site_fract_x
_atom_site_fract_y
_atom_site_fract_z
Si Si1 0.347347 0.142163 0.323902
Si Si2 0.984280 0.871599 0.758413
Si Si3 0.677538 0.320137 0.462728
Si Si4 0.182915 0.438566 0.516066
Si Si5 0.138685 0.586450 0.910693
Si Si6 0.437279 0.342936 0.867644
Si Si7 0.337815 0.307059 0.391561
Si Si8 0.220290 0.759905 0.134482
O O1 0.206073 0.116380 0.256950
O O2 0.290332 0.193650 0.421762
O O3 0.500000 0.000000 0.500000
O O4 0.400243 0.276168 0.094699
O O5 0.072763 0.717978 0.863708
O O6 0.000000 0.000000 0.500000
O O7 0.071058 0.864302 0.919795
O O8 0.802105 0.348412 0.310141
O O9 0.577787 0.484636 0.321370
O O10 0.532202 0.257574 0.482642
O O11 0.771668 0.230256 0.706498
O O12 0.296049 0.347704 0.748958
O O13 0.225553 0.341225 0.491411
O O14 0.224360 0.591013 0.307546
O O15 0.000000 0.500000 0.500000
O O16 0.293249 0.464936 0.122819
O O17 0.000000 0.500000 0.000000
O O18 0.607014 0.238958 0.932897
#
# Coordination Sequence:
#
# PCOD9054162 Si02
#       8
#     2   2   2   2   2   2   2   2
#     4  12  28  44  68  97 137 190 235 288 353 416
#     4  12  26  46  69  98 138 183 232 288 356 426
#     4  11  22  39  68 105 136 180 221 291 352 413
#     4  11  22  36  68 105 141 177 224 293 355 410
#     4  12  24  42  69 108 139 175 239 294 346 410
#     4  11  20  41  63 102 137 173 231 283 351 416
#     4  12  23  42  69 102 141 174 240 283 345 414
#     4  11  22  40  65  98 140 176 229 280 356 421
#
# _framework density 21.990558
#
# number of rings (size 3 to 8) (size 9 to 14) (size 15 to 20)
#    0.000    0.500    6.250    2.625    7.000    0.000 
#    0.000    1.250    0.000    0.000    0.000    0.000 
#    0.000    0.000    0.000    0.000    0.000    0.000 
#
# Total GULP energy -89431.732545 kJ/mol
# GULP energy per Si atom -5589.483284 kJ/mol
# Density = 2.194051 g / cm^3
# Si number density = 21.990558 Si / 1000 Ang^3
#
#
#
# Elastic Constant Matrix: (Units=GPa)
#
#
# Indices 1 2 3 4 5 6 
#
# 1 133.7250 23.8168 41.2363 25.3365 26.2885 -8.6325
# 2 23.8168 45.9396 20.7078 22.5992 13.6483 -7.8567
# 3 41.2363 20.7078 91.1440 16.3287 30.5369 7.5676
# 4 25.3365 22.5992 16.3287 39.1980 1.2336 -2.2202
# 5 26.2885 13.6483 30.5369 1.2336 42.0386 7.0734
# 6 -8.6325 -7.8567 7.5676 -2.2202 7.0734 27.6620
#
#
#
# Elastic Compliance Matrix: (Units=1/GPa)
#
#
# Indices 1 2 3 4 5 6 
#
# 1 0.010716 0.001326 -0.002460 -0.006166 -0.006082 0.005454
# 2 0.001326 0.038868 -0.002272 -0.021111 -0.013506 0.013834
# 3 -0.002460 -0.002272 0.016679 -0.003988 -0.009052 -0.003981
# 4 -0.006166 -0.021111 -0.003988 0.042515 0.013516 -0.006873
# 5 -0.006082 -0.013506 -0.009052 0.013516 0.040252 -0.012465
# 6 0.005454 0.013834 -0.003981 -0.006873 -0.012465 0.045507
#
#
# Mechanical properties :
#
#
# Convention : Reuss Voigt Hill
#
# Bulk Modulus (GPa) = 16.82066 49.14783 32.98424
# Shear Modulus (GPa) = 22.60724 34.11622 28.36173
#
# Velocity S-wave (km/s) = 3.20979 3.94306 3.59517
# Velocity P-wave (km/s) = 4.62630 6.56721 5.68027
#
# Compressibility (1/GPa) = 0.05945070
#
# Stress axis : x y z
#
# Youngs Moduli (GPa) = 93.31431 25.72800 59.95537
#
# Poissons Ratio (x) = -0.03412 0.14751
# Poissons Ratio (y) = -0.12375 0.13624
# Poissons Ratio (z) = 0.22959 0.05846
#
# Static dielectric constant tensor:
#      x y z
#    x 1.786300 0.209790 0.100310 
#    y 0.209790 1.501930 -0.145720 
#    z 0.100310 -0.145720 1.687850 
# 
# From -- ./inp_files/180383.got.cif
#   From: 2010.05.17/outbox.cif.g08.bks.cpg/sg2_91_cif.got.tgz:180383.got - 2010.06.03 11:33:40.
