data_PCOD9054856
_publ_section_title
;
Structure prediction by ZEFSAII (Michael W. Deem and Ramdas Pophale) SiO2 
 PCOD9054856
Probable space group: P -1
;
_chemical_formula_sum "Si O2"
_cell_formula_units_Z 16
_cell_length_a 5.841549
_cell_length_b 14.324734
_cell_length_c 9.496697
_cell_angle_alpha 98.629344
_cell_angle_beta 85.418961
_cell_angle_gamma 66.096348
_cell_volume 709.534500
_symmetry_space_group_name_H-M "P -1"
_symmetry_group_IT_number 2
_symmetry_cell_setting 'triclinic'
loop_
_space_group_symop_operation_xyz
x,y,z
-x,-y,-z
loop_
_atom_site_type_symbol
_atom_site_label
_atom_site_fract_x
_atom_site_fract_y
_atom_site_fract_z
Si Si1 0.725177 0.267246 0.446851
Si Si2 0.292342 0.965873 0.926545
Si Si3 0.013034 0.386102 0.472956
Si Si4 0.632727 0.710026 0.298880
Si Si5 0.858246 0.940509 0.570201
Si Si6 0.395130 0.282074 0.199712
Si Si7 0.649381 0.906583 0.284856
Si Si8 0.312918 0.440356 0.981680
O O1 0.623229 0.233952 0.585621
O O2 0.553463 0.294079 0.325887
O O3 0.761031 0.370121 0.503843
O O4 0.972132 0.162727 0.378696
O O5 0.456182 0.840431 0.874714
O O6 0.235996 0.029932 0.796810
O O7 0.500000 0.000000 0.000000
O O8 0.000000 0.000000 0.000000
O O9 0.172768 0.334222 0.592670
O O10 0.124819 0.326038 0.305781
O O11 0.000000 0.500000 0.500000
O O12 0.702899 0.789025 0.220220
O O13 0.614900 0.623606 0.181461
O O14 0.724298 0.904355 0.443959
O O15 0.648390 0.023281 0.696393
O O16 0.000000 0.000000 0.500000
O O17 0.373942 0.358453 0.089373
O O18 0.500000 0.500000 0.000000
O O19 0.000000 0.500000 0.000000
#
# Coordination Sequence:
#
# PCOD9054856 Si02
#       8
#     2   2   2   2   2   2   2   2
#     4  11  24  43  76 111 149 194 250 319 389 458
#     4  12  30  49  75 111 160 215 257 311 386 474
#     4  11  25  45  76 109 151 195 257 329 395 456
#     4  11  25  45  73 111 142 194 257 315 381 459
#     4  11  21  38  71 107 145 188 238 309 382 448
#     4  11  28  49  75 114 154 204 259 323 392 468
#     4  11  24  42  69 106 147 193 252 308 377 456
#     4  12  31  53  80 107 151 205 261 320 384 456
#
# _framework density 22.549993000000001
#
# number of rings (size 3 to 8) (size 9 to 14) (size 15 to 20)
#    0.000    0.750    2.500    3.000   15.750    3.000 
#    0.000    0.000    0.000    0.000    0.000    0.000 
#    0.000    0.000    0.000    0.000    0.000    0.000 
#
# Total GULP energy -89230.021175 kJ/mol
# GULP energy per Si atom -5576.876323 kJ/mol
# Density = 2.249867 g / cm^3
# Si number density = 22.549993 Si / 1000 Ang^3
#
#
#
# Elastic Constant Matrix: (Units=GPa)
#
#
# Indices 1 2 3 4 5 6 
#
# 1 86.5779 48.0090 29.9615 5.5130 -7.1714 15.7114
# 2 48.0090 159.3471 42.9317 -5.9616 -14.2483 23.0238
# 3 29.9615 42.9317 100.4679 -7.7250 -4.9347 5.6887
# 4 5.5130 -5.9616 -7.7250 38.9726 10.8671 2.1952
# 5 -7.1714 -14.2483 -4.9347 10.8671 31.4018 1.1425
# 6 15.7114 23.0238 5.6887 2.1952 1.1425 37.5144
#
#
#
# Elastic Compliance Matrix: (Units=1/GPa)
#
#
# Indices 1 2 3 4 5 6 
#
# 1 0.015656 -0.003126 -0.003258 -0.003998 0.003174 -0.004007
# 2 -0.003126 0.008674 -0.002368 0.000752 0.002727 -0.003782
# 3 -0.003258 -0.002368 0.012051 0.002686 -0.000886 0.000860
# 4 -0.003998 0.000752 0.002686 0.029820 -0.010447 -0.000621
# 5 0.003174 0.002727 -0.000886 -0.010447 0.037407 -0.003397
# 6 -0.004007 -0.003782 0.000860 -0.000621 -0.003397 0.030665
#
#
# Mechanical properties :
#
#
# Convention : Reuss Voigt Hill
#
# Bulk Modulus (GPa) = 52.97452 65.35527 59.16490
# Shear Modulus (GPa) = 31.63158 36.61046 34.12102
#
# Velocity S-wave (km/s) = 3.74937 4.03367 3.89411
# Velocity P-wave (km/s) = 6.50282 7.12315 6.82004
#
# Compressibility (1/GPa) = 0.01887700
#
# Stress axis : x y z
#
# Youngs Moduli (GPa) = 63.87447 115.28741 82.97860
#
# Poissons Ratio (x) = 0.36038 0.27032
# Poissons Ratio (y) = 0.19967 0.19653
# Poissons Ratio (z) = 0.20808 0.27305
#
# Static dielectric constant tensor:
#      x y z
#    x 2.078790 -0.121850 -0.070400 
#    y -0.121850 1.970430 -0.005200 
#    z -0.070400 -0.005200 1.849620 
# 
# From -- ./inp_files/135503.got.cif
#   From: 2010.05.17/outbox.cif.g08.bks.cpg/sg2_68_cif.got.tgz:135503.got - 2010.06.03 11:33:40.
