data_PCOD9054574
_publ_section_title
;
Structure prediction by ZEFSAII (Michael W. Deem and Ramdas Pophale) SiO2 
 PCOD9054574
Probable space group: P -1
;
_chemical_formula_sum "Si O2"
_cell_formula_units_Z 16
_cell_length_a 8.985461
_cell_length_b 8.925639
_cell_length_c 22.146637
_cell_angle_alpha 127.970192
_cell_angle_beta 34.666284
_cell_angle_gamma 130.155006
_cell_volume 757.305938
_symmetry_space_group_name_H-M "P -1"
_symmetry_group_IT_number 2
_symmetry_cell_setting 'triclinic'
loop_
_space_group_symop_operation_xyz
x,y,z
-x,-y,-z
loop_
_atom_site_type_symbol
_atom_site_label
_atom_site_fract_x
_atom_site_fract_y
_atom_site_fract_z
Si Si1 0.242925 0.992262 0.646444
Si Si2 0.986133 0.800841 0.809024
Si Si3 0.702167 0.353442 0.541606
Si Si4 0.607416 0.997910 0.029861
Si Si5 0.949183 0.394148 0.055700
Si Si6 0.370421 0.658896 0.733466
Si Si7 0.540295 0.425518 0.899279
Si Si8 0.240581 0.917502 0.238230
O O1 0.093736 0.923888 0.743123
O O2 0.279492 0.789637 0.555858
O O3 0.521993 0.180109 0.604913
O O4 0.050447 0.061460 0.679520
O O5 0.202161 0.714300 0.748500
O O6 0.701776 0.619363 0.854033
O O7 0.884786 0.939718 0.923455
O O8 0.531682 0.506068 0.623730
O O9 0.000000 0.500000 0.500000
O O10 0.681569 0.214107 0.085738
O O11 0.500000 0.000000 0.000000
O O12 0.371519 0.873306 0.120424
O O13 0.848382 0.454666 0.169001
O O14 0.000000 0.500000 0.000000
O O15 0.226000 0.339762 0.962475
O O16 0.582967 0.872974 0.737712
O O17 0.711492 0.270701 0.790522
O O18 0.500000 0.500000 0.000000
#
# Coordination Sequence:
#
# PCOD9054574 Si02
#       8
#     2   2   2   2   2   2   2   2
#     4  11  26  45  75 101 130 176 236 285 340 416
#     4  12  24  41  66 103 138 181 220 275 344 402
#     4  11  25  50  75  97 127 176 235 295 351 397
#     4  11  21  36  62  95 139 173 220 266 319 409
#     4  11  25  37  62 101 134 184 229 267 327 418
#     4  11  24  44  68  96 140 179 224 293 342 393
#     4  12  23  39  63  99 148 182 218 267 334 406
#     4  11  22  42  65  98 137 182 223 267 338 408
#
# _framework density 21.127524999999999
#
# number of rings (size 3 to 8) (size 9 to 14) (size 15 to 20)
#    0.000    0.750    5.000    2.250    3.500    2.500 
#    2.250    0.625    0.000    0.000    0.000    0.000 
#    0.000    0.000    0.000    0.000    0.000    0.000 
#
# Total GULP energy -89097.039169 kJ/mol
# GULP energy per Si atom -5568.564948 kJ/mol
# Density = 2.107944 g / cm^3
# Si number density = 21.127525 Si / 1000 Ang^3
#
#
#
# Elastic Constant Matrix: (Units=GPa)
#
#
# Indices 1 2 3 4 5 6 
#
# 1 64.6952 23.2441 17.8429 3.8667 -24.8312 6.2662
# 2 23.2441 107.7328 25.0474 -2.2335 -3.7650 12.1946
# 3 17.8429 25.0474 87.7125 13.1184 -21.1833 -1.6438
# 4 3.8667 -2.2335 13.1184 45.2161 -7.7872 -5.9924
# 5 -24.8312 -3.7650 -21.1833 -7.7872 28.9555 -2.6683
# 6 6.2662 12.1946 -1.6438 -5.9924 -2.6683 29.0321
#
#
#
# Elastic Compliance Matrix: (Units=1/GPa)
#
#
# Indices 1 2 3 4 5 6 
#
# 1 0.025477 -0.004915 0.001487 0.000862 0.022426 -0.001111
# 2 -0.004915 0.011551 -0.003862 0.000524 -0.005807 -0.004435
# 3 0.001487 -0.003862 0.015432 -0.002422 0.011665 0.002747
# 4 0.000862 0.000524 -0.002422 0.024492 0.006089 0.005072
# 5 0.022426 -0.005807 0.011665 0.006089 0.063679 0.005369
# 6 -0.001111 -0.004435 0.002747 0.005072 0.005369 0.038243
#
#
# Mechanical properties :
#
#
# Convention : Reuss Voigt Hill
#
# Bulk Modulus (GPa) = 26.39983 43.60103 35.00043
# Shear Modulus (GPa) = 24.26246 33.57448 28.91847
#
# Velocity S-wave (km/s) = 3.39245 3.99072 3.70369
# Velocity P-wave (km/s) = 5.27898 6.47428 5.90694
#
# Compressibility (1/GPa) = 0.03787904
#
# Stress axis : x y z
#
# Youngs Moduli (GPa) = 39.25186 86.57534 64.79965
#
# Poissons Ratio (x) = 0.42553 -0.09638
# Poissons Ratio (y) = 0.19293 0.25028
# Poissons Ratio (z) = -0.05838 0.33438
#
# Static dielectric constant tensor:
#      x y z
#    x 1.844230 0.026940 0.147700 
#    y 0.026940 1.791750 -0.052080 
#    z 0.147700 -0.052080 1.935910 
# 
# From -- ./inp_files/208504.got.cif
#   From: 2010.05.17/outbox.cif.g08.bks.cpg/sg2_105_cif.got.tgz:208504.got - 2010.06.03 11:33:40.
