data_PCOD9054641
_publ_section_title
;
Structure prediction by ZEFSAII (Michael W. Deem and Ramdas Pophale) SiO2 
 PCOD9054641
Probable space group: P -1
;
_chemical_formula_sum "Si O2"
_cell_formula_units_Z 12
_cell_length_a 15.227264
_cell_length_b 17.837665
_cell_length_c 9.239425
_cell_angle_alpha 137.562053
_cell_angle_beta 138.506951
_cell_angle_gamma 20.734794
_cell_volume 581.094911
_symmetry_space_group_name_H-M "P -1"
_symmetry_group_IT_number 2
_symmetry_cell_setting 'triclinic'
loop_
_space_group_symop_operation_xyz
x,y,z
-x,-y,-z
loop_
_atom_site_type_symbol
_atom_site_label
_atom_site_fract_x
_atom_site_fract_y
_atom_site_fract_z
Si Si1 0.270320 0.629820 0.565269
Si Si2 0.250212 0.972488 0.394610
Si Si3 0.705073 0.122707 0.017134
Si Si4 0.660991 0.779846 0.827669
Si Si5 0.155079 0.846866 0.331715
Si Si6 0.229095 0.451166 0.087440
O O1 0.281183 0.755356 0.757511
O O2 0.560938 0.393617 0.624122
O O3 0.212355 0.595628 0.304477
O O4 0.030922 0.767746 0.570424
O O5 0.496957 0.858896 0.599365
O O6 0.212875 0.900790 0.361829
O O7 0.289741 0.902406 0.181866
O O8 0.450202 0.264184 0.980747
O O9 0.966849 0.893223 0.088760
O O10 0.686109 0.668408 0.826652
O O11 0.953566 0.606272 0.917777
O O12 0.500000 0.000000 0.000000
O O13 0.000000 0.000000 0.500000
#
# Coordination Sequence:
#
# PCOD9054641 Si02
#       6
#     2   2   2   2   2   2
#     4  11  21  39  67  90 124 164 198 251 307 373
#     4  11  24  40  60  95 129 157 206 257 310 359
#     4  11  25  39  60 100 130 153 200 262 315 364
#     4  11  23  43  67  85 117 170 214 254 291 368
#     4  11  21  37  62  91 126 163 205 242 299 375
#     4  11  23  41  66  90 118 163 218 244 302 373
#
# _framework density 20.650670999999999
#
# number of rings (size 3 to 8) (size 9 to 14) (size 15 to 20)
#    0.000    1.000    5.000    2.500    2.333    4.667 
#    0.000    0.833    0.000    0.000    0.000    0.000 
#    0.000    0.000    0.000    0.000    0.000    0.000 
#
# Total GULP energy -66902.571165 kJ/mol
# GULP energy per Si atom -5575.214264 kJ/mol
# Density = 2.060367 g / cm^3
# Si number density = 20.650671 Si / 1000 Ang^3
#
#
#
# Elastic Constant Matrix: (Units=GPa)
#
#
# Indices 1 2 3 4 5 6 
#
# 1 72.0145 55.6923 74.6687 -17.0683 -20.0573 -24.9718
# 2 55.6923 160.5561 65.5723 -38.0789 -3.7902 -36.4239
# 3 74.6687 65.5723 104.7265 -27.7016 -30.6118 -24.0327
# 4 -17.0683 -38.0789 -27.7016 36.8512 -0.7555 9.6416
# 5 -20.0573 -3.7902 -30.6118 -0.7555 30.3619 0.5340
# 6 -24.9718 -36.4239 -24.0327 9.6416 0.5340 29.1116
#
#
#
# Elastic Compliance Matrix: (Units=1/GPa)
#
#
# Indices 1 2 3 4 5 6 
#
# 1 0.064596 -0.002916 -0.042953 -0.010608 -0.001611 0.019845
# 2 -0.002916 0.011489 -0.002462 0.006592 -0.002946 0.007711
# 3 -0.042953 -0.002462 0.053968 0.019251 0.026248 -0.002231
# 4 -0.010608 0.006592 0.019251 0.043721 0.014308 0.000298
# 5 -0.001611 -0.002946 0.026248 0.014308 0.058134 0.010795
# 6 0.019845 0.007711 -0.002231 0.000298 0.010795 0.058884
#
#
# Mechanical properties :
#
#
# Convention : Reuss Voigt Hill
#
# Bulk Modulus (GPa) = 29.94904 81.01818 55.48361
# Shear Modulus (GPa) = 12.54437 28.68920 20.61678
#
# Velocity S-wave (km/s) = 2.46734 3.73132 3.16311
# Velocity P-wave (km/s) = 4.75932 7.60800 6.34558
#
# Compressibility (1/GPa) = 0.03339005
#
# Stress axis : x y z
#
# Youngs Moduli (GPa) = 15.48082 87.04234 18.52937
#
# Poissons Ratio (x) = 0.25380 0.79590
# Poissons Ratio (y) = 0.04514 0.04563
# Poissons Ratio (z) = 0.66495 0.21433
#
# Static dielectric constant tensor:
#      x y z
#    x 1.793990 0.071110 0.045280 
#    y 0.071110 1.879940 -0.005150 
#    z 0.045280 -0.005150 1.736020 
# 
# From -- ./inp_files/165908.got.cif
#   From: 2010.05.17/outbox.cif.g08.bks.cpg/sg2_83_cif.got.tgz:165908.got - 2010.06.03 11:33:40.
