data_PCOD9054494
_publ_section_title
;
Structure prediction by ZEFSAII (Michael W. Deem and Ramdas Pophale) SiO2 
 PCOD9054494
Probable space group: P -1
;
_chemical_formula_sum "Si O2"
_cell_formula_units_Z 16
_cell_length_a 14.597984
_cell_length_b 13.373053
_cell_length_c 12.808733
_cell_angle_alpha 81.048023
_cell_angle_beta 102.137299
_cell_angle_gamma 28.106697
_cell_volume 773.994042
_symmetry_space_group_name_H-M "P -1"
_symmetry_group_IT_number 2
_symmetry_cell_setting 'triclinic'
loop_
_space_group_symop_operation_xyz
x,y,z
-x,-y,-z
loop_
_atom_site_type_symbol
_atom_site_label
_atom_site_fract_x
_atom_site_fract_y
_atom_site_fract_z
Si Si1 0.803852 0.600895 0.936425
Si Si2 0.959307 0.138712 0.824244
Si Si3 0.927946 0.148238 0.599628
Si Si4 0.125984 0.352153 0.670414
Si Si5 0.806551 0.323481 0.325032
Si Si6 0.415388 0.550284 0.126691
Si Si7 0.914560 0.759712 0.145398
Si Si8 0.237069 0.422720 0.839620
O O1 0.882264 0.464336 0.870313
O O2 0.464466 0.976914 0.795807
O O3 0.866498 0.481126 0.081010
O O4 0.000000 0.500000 0.000000
O O5 0.764716 0.323941 0.849790
O O6 0.094386 0.111782 0.857536
O O7 0.775648 0.313662 0.646403
O O8 0.196606 0.803822 0.940300
O O9 0.943927 0.015410 0.586371
O O10 0.272849 0.820799 0.756164
O O11 0.815573 0.331244 0.449477
O O12 0.993586 0.396931 0.703501
O O13 0.116597 0.459770 0.727052
O O14 0.000000 0.500000 0.500000
O O15 0.512241 0.561897 0.190986
O O16 0.833297 0.396150 0.253808
O O17 0.590716 0.051858 0.989688
#
# Coordination Sequence:
#
# PCOD9054494 Si02
#       8
#     2   2   2   2   2   2   2   2
#     4  11  21  43  66  85 122 160 207 251 290 370
#     4  11  21  34  62  87 119 156 196 246 296 344
#     4   9  20  39  56  81 127 154 193 246 297 346
#     4  11  25  41  65  93 127 154 197 261 311 352
#     4   9  20  40  58  84 120 159 198 239 298 358
#     4   9  20  37  55  86 117 149 204 242 282 355
#     4  11  22  41  62  92 119 165 204 241 305 367
#     4  11  21  41  66  87 118 165 204 242 308 363
#
# _framework density 20.671994000000002
#
# number of rings (size 3 to 8) (size 9 to 14) (size 15 to 20)
#    0.750    1.000    3.750    1.125    1.750    5.000 
#    0.000    0.000    0.000    0.000    0.000    0.000 
#    0.000    0.000    0.000    0.000    0.000    0.000 
#
# Total GULP energy -89200.361697 kJ/mol
# GULP energy per Si atom -5575.022606 kJ/mol
# Density = 2.062494 g / cm^3
# Si number density = 20.671994 Si / 1000 Ang^3
#
#
#
# Elastic Constant Matrix: (Units=GPa)
#
#
# Indices 1 2 3 4 5 6 
#
# 1 100.9606 15.9569 50.0356 15.8957 -29.3962 -11.2977
# 2 15.9569 62.7067 30.0364 21.1934 -8.4330 -7.7369
# 3 50.0356 30.0364 129.6383 40.9241 -37.8312 -10.7296
# 4 15.8957 21.1934 40.9241 32.1971 -7.6930 -3.9516
# 5 -29.3962 -8.4330 -37.8312 -7.6930 32.9930 9.0293
# 6 -11.2977 -7.7369 -10.7296 -3.9516 9.0293 23.0770
#
#
#
# Elastic Compliance Matrix: (Units=1/GPa)
#
#
# Indices 1 2 3 4 5 6 
#
# 1 0.014145 -0.000629 -0.001888 -0.001702 0.009367 0.001880
# 2 -0.000629 0.021079 -0.000074 -0.012804 0.000579 0.004306
# 3 -0.001888 -0.000074 0.019395 -0.019978 0.016360 -0.001753
# 4 -0.001702 -0.012804 -0.019978 0.062686 -0.013520 0.001610
# 5 0.009367 0.000579 0.016360 -0.013520 0.057848 -0.012563
# 6 0.001880 0.004306 -0.001753 0.001610 -0.012563 0.050073
#
#
# Mechanical properties :
#
#
# Convention : Reuss Voigt Hill
#
# Bulk Modulus (GPa) = 20.22693 53.92925 37.07809
# Shear Modulus (GPa) = 20.25211 30.80520 25.52866
#
# Velocity S-wave (km/s) = 3.13339 3.86449 3.51798
# Velocity P-wave (km/s) = 4.78506 6.78653 5.87171
#
# Compressibility (1/GPa) = 0.04943905
#
# Stress axis : x y z
#
# Youngs Moduli (GPa) = 70.69471 47.43997 51.55928
#
# Poissons Ratio (x) = 0.02982 0.09733
# Poissons Ratio (y) = 0.04443 0.00382
# Poissons Ratio (z) = 0.13346 0.00351
#
# Static dielectric constant tensor:
#      x y z
#    x 1.724540 0.000320 0.012450 
#    y 0.000320 1.778570 0.005930 
#    z 0.012450 0.005930 1.771220 
# 
# From -- ./inp_files/454754.got.cif
#   From: 2010.05.17/outbox.cif.g08.bks.cpg/sg2_228_cif.got.tgz:454754.got - 2010.06.03 11:33:40.
