data_PCOD9054968
_publ_section_title
;
Structure prediction by ZEFSAII (Michael W. Deem and Ramdas Pophale) SiO2 
 PCOD9054968
Probable space group: P -1
;
_chemical_formula_sum "Si O2"
_cell_formula_units_Z 12
_cell_length_a 20.243553
_cell_length_b 16.512367
_cell_length_c 12.791764
_cell_angle_alpha 26.247657
_cell_angle_beta 151.657812
_cell_angle_gamma 162.225866
_cell_volume 566.416442
_symmetry_space_group_name_H-M "P -1"
_symmetry_group_IT_number 2
_symmetry_cell_setting 'triclinic'
loop_
_space_group_symop_operation_xyz
x,y,z
-x,-y,-z
loop_
_atom_site_type_symbol
_atom_site_label
_atom_site_fract_x
_atom_site_fract_y
_atom_site_fract_z
Si Si1 0.920580 0.690870 0.021986
Si Si2 0.828762 0.658799 0.159965
Si Si3 0.409450 0.094644 0.317722
Si Si4 0.224939 0.846158 0.577652
Si Si5 0.432112 0.144998 0.732609
Si Si6 0.812810 0.824850 0.527136
O O1 0.786642 0.578431 0.073062
O O2 0.807305 0.397418 0.153963
O O3 0.898883 0.834081 0.746710
O O4 0.174121 0.912658 0.151573
O O5 0.602266 0.436211 0.164409
O O6 0.978835 0.655565 0.423897
O O7 0.000000 0.000000 0.000000
O O8 0.500000 0.000000 0.500000
O O9 0.366430 0.019209 0.468541
O O10 0.321192 0.051217 0.572487
O O11 0.624164 0.492113 0.610174
O O12 0.269940 0.053460 0.704462
O O13 0.500000 0.000000 0.000000
O O14 0.000000 0.000000 0.500000
#
# Coordination Sequence:
#
# PCOD9054968 Si02
#       6
#     2   2   2   2   2   2
#     4  11  22  41  66  95 137 174 227 286 331 405
#     4  11  23  39  62  98 136 169 217 283 338 401
#     4  11  21  39  68  98 130 182 223 265 345 415
#     4  11  22  40  67  99 132 177 230 274 338 409
#     4  11  25  47  71  96 138 185 228 288 346 400
#     4  11  27  47  69 103 136 181 239 286 342 409
#
# _framework density 21.185825000000001
#
# number of rings (size 3 to 8) (size 9 to 14) (size 15 to 20)
#    0.000    1.000    5.000    2.000    0.000   11.333 
#    0.000    0.000    0.000    0.000    0.000    0.000 
#    0.000    0.000    0.000    0.000    0.000    0.000 
#
# Total GULP energy -67001.285243 kJ/mol
# GULP energy per Si atom -5583.440437 kJ/mol
# Density = 2.113761 g / cm^3
# Si number density = 21.185825 Si / 1000 Ang^3
#
#
#
# Elastic Constant Matrix: (Units=GPa)
#
#
# Indices 1 2 3 4 5 6 
#
# 1 158.0527 65.5155 47.5229 8.7527 14.5281 9.4770
# 2 65.5155 98.4410 17.3966 -13.4684 -0.7506 16.6546
# 3 47.5229 17.3966 82.7392 -6.4791 14.6062 0.2400
# 4 8.7527 -13.4684 -6.4791 21.1059 -9.8779 -1.4563
# 5 14.5281 -0.7506 14.6062 -9.8779 36.7752 1.2743
# 6 9.4770 16.6546 0.2400 -1.4563 1.2743 45.2034
#
#
#
# Elastic Compliance Matrix: (Units=1/GPa)
#
#
# Indices 1 2 3 4 5 6 
#
# 1 0.014875 -0.011743 -0.006022 -0.019683 -0.009041 0.000861
# 2 -0.011743 0.021864 0.002131 0.024236 0.010927 -0.005132
# 3 -0.006022 0.002131 0.016043 0.007974 -0.001832 0.000701
# 4 -0.019683 0.024236 0.007974 0.086578 0.028457 -0.002858
# 5 -0.009041 0.010927 -0.001832 0.028457 0.039438 -0.002316
# 6 0.000861 -0.005132 0.000701 -0.002858 -0.002316 0.023802
#
#
# Mechanical properties :
#
#
# Convention : Reuss Voigt Hill
#
# Bulk Modulus (GPa) = 46.48046 66.67812 56.57929
# Shear Modulus (GPa) = 20.74349 34.53676 27.64013
#
# Velocity S-wave (km/s) = 3.13249 4.04193 3.61591
# Velocity P-wave (km/s) = 5.92202 7.30235 6.64811
#
# Compressibility (1/GPa) = 0.02151442
#
# Stress axis : x y z
#
# Youngs Moduli (GPa) = 67.22775 45.73628 62.33313
#
# Poissons Ratio (x) = 0.53707 0.37540
# Poissons Ratio (y) = 0.78944 -0.13286
# Poissons Ratio (z) = 0.40487 -0.09748
#
# Static dielectric constant tensor:
#      x y z
#    x 1.765880 -0.041450 0.065770 
#    y -0.041450 1.815540 0.012840 
#    z 0.065770 0.012840 1.866510 
# 
# From -- ./inp_files/131691.got.cif
#   From: 2010.05.17/outbox.cif.g08.bks.cpg/sg2_66_cif.got.tgz:131691.got - 2010.06.03 11:33:40.
