data_PCOD9054018
_publ_section_title
;
Structure prediction by ZEFSAII (Michael W. Deem and Ramdas Pophale) SiO2 
 PCOD9054018
Probable space group: P -1
;
_chemical_formula_sum "Si O2"
_cell_formula_units_Z 16
_cell_length_a 11.936140
_cell_length_b 6.473238
_cell_length_c 9.881901
_cell_angle_alpha 109.125248
_cell_angle_beta 82.594234
_cell_angle_gamma 73.483025
_cell_volume 670.517996
_symmetry_space_group_name_H-M "P -1"
_symmetry_group_IT_number 2
_symmetry_cell_setting 'triclinic'
loop_
_space_group_symop_operation_xyz
x,y,z
-x,-y,-z
loop_
_atom_site_type_symbol
_atom_site_label
_atom_site_fract_x
_atom_site_fract_y
_atom_site_fract_z
Si Si1 0.277864 0.595885 0.379403
Si Si2 0.948695 0.932888 0.132235
Si Si3 0.467838 0.707316 0.798351
Si Si4 0.925092 0.440375 0.755961
Si Si5 0.264862 0.156699 0.997786
Si Si6 0.606989 0.066112 0.432642
Si Si7 0.871361 0.405393 0.345004
Si Si8 0.697091 0.581125 0.186800
O O1 0.387463 0.395810 0.243924
O O2 0.158236 0.683698 0.327523
O O3 0.330489 0.795935 0.454938
O O4 0.231206 0.510686 0.506712
O O5 0.938590 0.127874 0.289717
O O6 0.819299 0.924983 0.108780
O O7 0.024954 0.686633 0.137463
O O8 0.000000 0.000000 0.000000
O O9 0.438894 0.782015 0.662561
O O10 0.414551 0.504374 0.793294
O O11 0.386722 0.932147 0.947369
O O12 0.035992 0.458293 0.654836
O O13 0.830874 0.706852 0.844913
O O14 0.295630 0.358788 0.956808
O O15 0.500000 0.000000 0.500000
O O16 0.690382 0.814073 0.316922
O O17 0.811035 0.405670 0.206928
#
# Coordination Sequence:
#
# PCOD9054018 Si02
#       8
#     2   2   2   2   2   2   2   2
#     4  12  26  46  65 105 150 180 220 280 352 423
#     4  12  23  44  73 102 133 180 240 288 331 402
#     4  11  23  43  72 101 132 177 238 286 332 402
#     4  12  28  45  66 103 148 182 222 283 349 413
#     4  11  23  42  72 102 129 179 240 285 333 395
#     4  11  21  39  69 100 131 182 227 276 337 400
#     4  12  23  44  71 102 137 185 225 282 346 408
#     4  11  20  39  72 100 128 172 236 293 323 388
#
# _framework density 23.862148999999999
#
# number of rings (size 3 to 8) (size 9 to 14) (size 15 to 20)
#    0.000    0.500    6.250    3.375    0.000    1.000 
#    4.500    0.625    0.000    0.000    0.000    0.000 
#    0.000    0.000    0.000    0.000    0.000    0.000 
#
# Total GULP energy -89378.352680 kJ/mol
# GULP energy per Si atom -5586.147043 kJ/mol
# Density = 2.380784 g / cm^3
# Si number density = 23.862149 Si / 1000 Ang^3
#
#
#
# Elastic Constant Matrix: (Units=GPa)
#
#
# Indices 1 2 3 4 5 6 
#
# 1 156.1832 46.7782 32.0080 -9.0820 -22.8587 18.1533
# 2 46.7782 74.1909 25.7037 -7.5111 -14.6403 13.6782
# 3 32.0080 25.7037 63.3593 -2.2628 -25.5120 2.1083
# 4 -9.0820 -7.5111 -2.2628 27.4981 1.0496 -16.8667
# 5 -22.8587 -14.6403 -25.5120 1.0496 48.4645 -5.7261
# 6 18.1533 13.6782 2.1083 -16.8667 -5.7261 36.7602
#
#
#
# Elastic Compliance Matrix: (Units=1/GPa)
#
#
# Indices 1 2 3 4 5 6 
#
# 1 0.008484 -0.003916 -0.002023 0.000063 0.001474 -0.002358
# 2 -0.003916 0.018738 -0.005241 0.000721 0.000528 -0.004325
# 3 -0.002023 -0.005241 0.022865 0.001888 0.009937 0.004052
# 4 0.000063 0.000721 0.001888 0.051013 0.002907 0.023451
# 5 0.001474 0.000528 0.009937 0.002907 0.027136 0.004067
# 6 -0.002358 -0.004325 0.004052 0.023451 0.004067 0.041138
#
#
# Mechanical properties :
#
#
# Convention : Reuss Voigt Hill
#
# Bulk Modulus (GPa) = 36.06735 55.85702 45.96219
# Shear Modulus (GPa) = 24.87843 35.16078 30.01960
#
# Velocity S-wave (km/s) = 3.23242 3.84278 3.55074
# Velocity P-wave (km/s) = 5.39250 6.56874 6.00947
#
# Compressibility (1/GPa) = 0.02772591
#
# Stress axis : x y z
#
# Youngs Moduli (GPa) = 117.87343 53.36661 43.73520
#
# Poissons Ratio (x) = 0.20900 0.08848
# Poissons Ratio (y) = 0.46163 0.22922
# Poissons Ratio (z) = 0.23846 0.27970
#
# Static dielectric constant tensor:
#      x y z
#    x 1.934710 -0.073330 -0.015640 
#    y -0.073330 2.020160 0.015450 
#    z -0.015640 0.015450 2.034900 
# 
# From -- ./inp_files/409462.got.cif
#   From: 2010.05.17/outbox.cif.g08.bks.cpg/sg2_205_cif.got.tgz:409462.got - 2010.06.03 11:33:40.
