data_PCOD9054600
_publ_section_title
;
Structure prediction by ZEFSAII (Michael W. Deem and Ramdas Pophale) SiO2 
 PCOD9054600
Probable space group: P -1
;
_chemical_formula_sum "Si O2"
_cell_formula_units_Z 14
_cell_length_a 8.150706
_cell_length_b 15.610316
_cell_length_c 5.123071
_cell_angle_alpha 119.457163
_cell_angle_beta 95.520718
_cell_angle_gamma 104.959923
_cell_volume 528.685498
_symmetry_space_group_name_H-M "P -1"
_symmetry_group_IT_number 2
_symmetry_cell_setting 'triclinic'
loop_
_space_group_symop_operation_xyz
x,y,z
-x,-y,-z
loop_
_atom_site_type_symbol
_atom_site_label
_atom_site_fract_x
_atom_site_fract_y
_atom_site_fract_z
Si Si1 0.952069 0.903977 0.549829
Si Si2 0.560078 0.146202 0.718626
Si Si3 0.842903 0.178863 0.186979
Si Si4 0.643725 0.871656 0.834092
Si Si5 0.766862 0.339873 0.756256
Si Si6 0.777957 0.717607 0.841177
Si Si7 0.120044 0.459830 0.254738
O O1 0.833472 0.917192 0.792711
O O2 0.124681 0.889811 0.678465
O O3 0.833483 0.796674 0.218631
O O4 0.000000 0.000000 0.500000
O O5 0.726961 0.126868 0.842227
O O6 0.411551 0.103898 0.852828
O O7 0.479248 0.103462 0.363246
O O8 0.630662 0.272956 0.853274
O O9 0.753624 0.257866 0.401629
O O10 0.039317 0.245409 0.233320
O O11 0.636659 0.750791 0.705194
O O12 0.775123 0.448072 0.790096
O O13 0.964412 0.369708 0.944976
O O14 0.749513 0.596688 0.705354
O O15 0.000000 0.500000 0.500000
#
# Coordination Sequence:
#
# PCOD9054600 Si02
#       7
#     2   2   2   2   2   2   2
#     4  11  25  48  74 104 135 182 235 290 347 414
#     4  12  22  45  68 104 140 191 224 283 354 410
#     4  11  21  40  75  98 136 185 234 282 340 411
#     4  11  26  42  73  97 149 182 225 287 358 412
#     4  11  21  36  69 102 140 177 233 286 333 401
#     4  11  22  44  70 103 139 184 231 287 344 408
#     4  11  21  37  66 109 135 177 239 286 329 402
#
# _framework density 26.480772000000002
#
# number of rings (size 3 to 8) (size 9 to 14) (size 15 to 20)
#    0.000    0.857    7.143    0.000    0.000    2.286 
#    0.000    2.857    0.000    0.000    0.000    0.000 
#    0.000    0.000    0.000    0.000    0.000    0.000 
#
# Total GULP energy -78249.080110 kJ/mol
# GULP energy per Si atom -5589.220008 kJ/mol
# Density = 2.642050 g / cm^3
# Si number density = 26.480772 Si / 1000 Ang^3
#
#
#
# Elastic Constant Matrix: (Units=GPa)
#
#
# Indices 1 2 3 4 5 6 
#
# 1 82.9233 44.7924 26.0279 -17.8589 8.0221 -6.0324
# 2 44.7924 206.8462 47.3673 -24.4652 2.1727 -8.7067
# 3 26.0279 47.3673 130.6174 -31.1649 -7.8388 -1.7045
# 4 -17.8589 -24.4652 -31.1649 44.3910 -0.5998 2.2005
# 5 8.0221 2.1727 -7.8388 -0.5998 36.8253 -23.8011
# 6 -6.0324 -8.7067 -1.7045 2.2005 -23.8011 64.5682
#
#
#
# Elastic Compliance Matrix: (Units=1/GPa)
#
#
# Indices 1 2 3 4 5 6 
#
# 1 0.014939 -0.002456 -0.001449 0.003612 -0.003643 -0.000440
# 2 -0.002456 0.005837 -0.001290 0.001298 0.000324 0.000599
# 3 -0.001449 -0.001290 0.009981 0.005709 0.003221 0.000947
# 4 0.003612 0.001298 0.005709 0.028715 0.000808 -0.000018
# 5 -0.003643 0.000324 0.003221 0.000808 0.037380 0.013540
# 6 -0.000440 0.000599 0.000947 -0.000018 0.013540 0.020544
#
#
# Mechanical properties :
#
#
# Convention : Reuss Voigt Hill
#
# Bulk Modulus (GPa) = 49.10176 72.97357 61.03766
# Shear Modulus (GPa) = 37.15381 49.30351 43.22866
#
# Velocity S-wave (km/s) = 3.74979 4.31961 4.04475
# Velocity P-wave (km/s) = 6.10988 7.24539 6.70173
#
# Compressibility (1/GPa) = 0.02036587
#
# Stress axis : x y z
#
# Youngs Moduli (GPa) = 66.93767 171.31422 100.19500
#
# Poissons Ratio (x) = 0.42081 0.14516
# Poissons Ratio (y) = 0.16442 0.12930
# Poissons Ratio (z) = 0.09697 0.22108
#
# Static dielectric constant tensor:
#      x y z
#    x 2.119650 -0.008980 0.056610 
#    y -0.008980 2.126530 0.036950 
#    z 0.056610 0.036950 2.218750 
# 
# From -- ./inp_files/39880.got.cif
#   From: 2010.05.17/outbox.cif.g08.bks.cpg/sg2_20_cif.got.tgz:39880.got - 2010.06.03 11:33:40.
