data_PCOD9054903
_publ_section_title
;
Structure prediction by ZEFSAII (Michael W. Deem and Ramdas Pophale) SiO2 
 PCOD9054903
Probable space group: P -1
;
_chemical_formula_sum "Si O2"
_cell_formula_units_Z 14
_cell_length_a 7.155277
_cell_length_b 9.215439
_cell_length_c 23.933457
_cell_angle_alpha 134.921629
_cell_angle_beta 31.614121
_cell_angle_gamma 124.730371
_cell_volume 583.629057
_symmetry_space_group_name_H-M "P -1"
_symmetry_group_IT_number 2
_symmetry_cell_setting 'triclinic'
loop_
_space_group_symop_operation_xyz
x,y,z
-x,-y,-z
loop_
_atom_site_type_symbol
_atom_site_label
_atom_site_fract_x
_atom_site_fract_y
_atom_site_fract_z
Si Si1 0.577058 0.471947 0.104806
Si Si2 0.253332 0.974283 0.482693
Si Si3 0.305853 0.918074 0.251139
Si Si4 0.661918 0.282297 0.925444
Si Si5 0.663505 0.373568 0.478195
Si Si6 0.486919 0.330846 0.301778
Si Si7 0.609438 0.560318 0.239257
O O1 0.401740 0.690609 0.187745
O O2 0.455855 0.456793 0.195552
O O3 0.518654 0.287541 0.026630
O O4 0.000000 0.500000 0.000000
O O5 0.528774 0.146415 0.450491
O O6 0.053071 0.016383 0.604130
O O7 0.384757 0.734369 0.379497
O O8 0.000000 0.000000 0.500000
O O9 0.355135 0.890605 0.164124
O O10 0.543381 0.106410 0.253387
O O11 0.083486 0.309008 0.827097
O O12 0.500000 0.500000 0.000000
O O13 0.500000 0.500000 0.500000
O O14 0.504072 0.504798 0.606964
O O15 0.092438 0.351288 0.376561
O O16 0.744968 0.385923 0.201089
#
# Coordination Sequence:
#
# PCOD9054903 Si02
#       7
#     2   2   2   2   2   2   2
#     4   9  20  39  64  85 119 170 223 264 312 385
#     4  12  22  37  67 100 125 175 218 258 334 399
#     4  11  21  39  64  92 129 164 218 270 322 394
#     4   9  20  39  62  87 117 170 227 261 310 383
#     4  11  24  40  60  94 146 177 210 264 325 405
#     4  11  24  40  60 100 137 171 215 272 334 387
#     4  11  21  39  64  93 130 167 215 269 326 392
#
# _framework density 23.987841
#
# number of rings (size 3 to 8) (size 9 to 14) (size 15 to 20)
#    0.000    1.429    1.429    5.143    0.000    1.714 
#    0.000    7.143    0.000    0.000    0.000    0.000 
#    0.000    0.000    0.000    0.000    0.000    0.000 
#
# Total GULP energy -78064.490205 kJ/mol
# GULP energy per Si atom -5576.035015 kJ/mol
# Density = 2.393324 g / cm^3
# Si number density = 23.987841 Si / 1000 Ang^3
#
#
#
# Elastic Constant Matrix: (Units=GPa)
#
#
# Indices 1 2 3 4 5 6 
#
# 1 112.0580 17.4105 37.7146 -4.6268 31.4098 -7.0597
# 2 17.4105 81.3655 13.2718 -4.1360 17.8035 -2.1900
# 3 37.7146 13.2718 129.2427 9.4872 42.5816 -5.0213
# 4 -4.6268 -4.1360 9.4872 9.4694 -1.4106 5.0124
# 5 31.4098 17.8035 42.5816 -1.4106 42.1622 -7.3030
# 6 -7.0597 -2.1900 -5.0213 5.0124 -7.3030 37.2905
#
#
#
# Elastic Compliance Matrix: (Units=1/GPa)
#
#
# Indices 1 2 3 4 5 6 
#
# 1 0.011657 -0.000458 -0.001617 0.006217 -0.006682 -0.000182
# 2 -0.000458 0.013849 0.000131 0.005431 -0.005646 -0.001092
# 3 -0.001617 0.000131 0.013867 -0.017284 -0.013208 0.001305
# 4 0.006217 0.005431 -0.017284 0.139229 0.012218 -0.017153
# 5 -0.006682 -0.005646 -0.013208 0.012218 0.045502 0.003894
# 6 -0.000182 -0.001092 0.001305 -0.017153 0.003894 0.029962
#
#
# Mechanical properties :
#
#
# Convention : Reuss Voigt Hill
#
# Bulk Modulus (GPa) = 28.18028 51.05109 39.61569
# Shear Modulus (GPa) = 18.53348 34.73572 26.63460
#
# Velocity S-wave (km/s) = 2.78262 3.80946 3.33579
# Velocity P-wave (km/s) = 4.70077 6.37790 5.60245
#
# Compressibility (1/GPa) = 0.03548581
#
# Stress axis : x y z
#
# Youngs Moduli (GPa) = 85.78298 72.20739 72.11535
#
# Poissons Ratio (x) = 0.03304 0.11658
# Poissons Ratio (y) = 0.03925 -0.00942
# Poissons Ratio (z) = 0.13868 -0.00943
#
# Static dielectric constant tensor:
#      x y z
#    x 2.040470 0.023210 -0.013880 
#    y 0.023210 1.961960 -0.091630 
#    z -0.013880 -0.091630 2.002160 
# 
# From -- ./inp_files/616715.got.cif
#   From: 2010.05.17/outbox.cif.g08.bks.cpg/sg2_309_cif.got.tgz:616715.got - 2010.06.03 11:33:40.
