data_PCOD9054489
_publ_section_title
;
Structure prediction by ZEFSAII (Michael W. Deem and Ramdas Pophale) SiO2 
 PCOD9054489
Probable space group: P -1
;
_chemical_formula_sum "Si O2"
_cell_formula_units_Z 16
_cell_length_a 12.671508
_cell_length_b 14.988773
_cell_length_c 11.042659
_cell_angle_alpha 136.822133
_cell_angle_beta 34.357680
_cell_angle_gamma 127.642286
_cell_volume 809.722108
_symmetry_space_group_name_H-M "P -1"
_symmetry_group_IT_number 2
_symmetry_cell_setting 'triclinic'
loop_
_space_group_symop_operation_xyz
x,y,z
-x,-y,-z
loop_
_atom_site_type_symbol
_atom_site_label
_atom_site_fract_x
_atom_site_fract_y
_atom_site_fract_z
Si Si1 0.937443 0.739749 0.987554
Si Si2 0.038705 0.524822 0.189850
Si Si3 0.840235 0.177367 0.898564
Si Si4 0.962168 0.814128 0.533185
Si Si5 0.637486 0.966460 0.033577
Si Si6 0.821440 0.086806 0.220200
Si Si7 0.263690 0.001691 0.542249
Si Si8 0.706276 0.449884 0.259409
O O1 0.906578 0.584721 0.873507
O O2 0.080686 0.778587 0.782635
O O3 0.769224 0.844447 0.248250
O O4 0.039895 0.777131 0.053672
O O5 0.831993 0.497554 0.301478
O O6 0.037838 0.677388 0.374807
O O7 0.179210 0.508156 0.927221
O O8 0.981540 0.170670 0.645637
O O9 0.718769 0.052906 0.931726
O O10 0.703554 0.293738 0.111625
O O11 0.742917 0.830919 0.782937
O O12 0.070402 0.935236 0.613464
O O13 0.711747 0.030272 0.152619
O O14 0.416870 0.971482 0.265905
O O15 0.695757 0.074447 0.446538
O O16 0.000000 0.000000 0.000000
O O17 0.500000 0.500000 0.500000
#
# Coordination Sequence:
#
# PCOD9054489 Si02
#       8
#     2   2   2   2   2   2   2   2
#     4   9  18  37  59  78 104 144 187 220 262 317
#     4   9  20  35  53  77 108 148 176 216 271 316
#     4   9  19  35  52  80 113 143 176 221 264 314
#     4  11  21  37  51  79 123 141 171 219 275 324
#     4  11  21  34  58  82 105 143 180 226 266 318
#     4   9  17  38  60  78 103 136 183 236 264 306
#     4  11  22  34  59  82 104 142 184 226 270 314
#     4   9  18  33  54  75 107 146 185 220 253 316
#
# _framework density 19.759865999999999
#
# number of rings (size 3 to 8) (size 9 to 14) (size 15 to 20)
#    0.000    2.250    3.750    1.500    1.750    2.500 
#    0.000    0.625    0.000    0.750    0.000    0.000 
#    0.000    0.000    0.000    0.000    0.000    0.000 
#
# Total GULP energy -89146.586266 kJ/mol
# GULP energy per Si atom -5571.661642 kJ/mol
# Density = 1.971489 g / cm^3
# Si number density = 19.759866 Si / 1000 Ang^3
#
#
#
# Elastic Constant Matrix: (Units=GPa)
#
#
# Indices 1 2 3 4 5 6 
#
# 1 31.8561 10.2084 8.2249 -5.8796 -7.3568 -12.2303
# 2 10.2084 98.3685 35.8651 10.3367 -3.2233 -31.0655
# 3 8.2249 35.8651 107.1647 -8.8155 -20.0081 -8.6105
# 4 -5.8796 10.3367 -8.8155 21.0639 -2.1645 -1.0186
# 5 -7.3568 -3.2233 -20.0081 -2.1645 22.1756 -6.2113
# 6 -12.2303 -31.0655 -8.6105 -1.0186 -6.2113 30.0495
#
#
#
# Elastic Compliance Matrix: (Units=1/GPa)
#
#
# Indices 1 2 3 4 5 6 
#
# 1 0.054749 0.001364 0.006665 0.022745 0.036071 0.033830
# 2 0.001364 0.019094 -0.005254 -0.009975 0.002846 0.019040
# 3 0.006665 -0.005254 0.015596 0.013157 0.018489 0.006017
# 4 0.022745 -0.009975 0.013157 0.067575 0.027560 0.010702
# 5 0.036071 0.002846 0.018489 0.027560 0.088662 0.042182
# 6 0.033830 0.019040 0.006017 0.010702 0.042182 0.077537
#
#
# Mechanical properties :
#
#
# Convention : Reuss Voigt Hill
#
# Bulk Modulus (GPa) = 10.52752 38.44290 24.48521
# Shear Modulus (GPa) = 14.31325 26.86387 20.58856
#
# Velocity S-wave (km/s) = 2.69431 3.69116 3.23141
# Velocity P-wave (km/s) = 3.87536 6.13706 5.13234
#
# Compressibility (1/GPa) = 0.09498913
#
# Stress axis : x y z
#
# Youngs Moduli (GPa) = 18.26505 52.37120 64.11857
#
# Poissons Ratio (x) = -0.07142 -0.42737
# Poissons Ratio (y) = -0.02491 0.33691
# Poissons Ratio (z) = -0.12174 0.27518
#
# Static dielectric constant tensor:
#      x y z
#    x 1.720720 -0.010770 0.001760 
#    y -0.010770 1.750100 0.002290 
#    z 0.001760 0.002290 1.726170 
# 
# From -- ./inp_files/455030.got.cif
#   From: 2010.05.17/outbox.cif.g08.bks.cpg/sg2_228_cif.got.tgz:455030.got - 2010.06.03 11:33:40.
