data_PCOD9054840
_publ_section_title
;
Structure prediction by ZEFSAII (Michael W. Deem and Ramdas Pophale) SiO2 
 PCOD9054840
Probable space group: P -1
;
_chemical_formula_sum "Si O2"
_cell_formula_units_Z 16
_cell_length_a 5.617381
_cell_length_b 13.038773
_cell_length_c 22.092197
_cell_angle_alpha 151.305039
_cell_angle_beta 85.584107
_cell_angle_gamma 94.175404
_cell_volume 774.578925
_symmetry_space_group_name_H-M "P -1"
_symmetry_group_IT_number 2
_symmetry_cell_setting 'triclinic'
loop_
_space_group_symop_operation_xyz
x,y,z
-x,-y,-z
loop_
_atom_site_type_symbol
_atom_site_label
_atom_site_fract_x
_atom_site_fract_y
_atom_site_fract_z
Si Si1 0.887870 0.386368 0.869694
Si Si2 0.444691 0.667653 0.912742
Si Si3 0.244563 0.159458 0.902767
Si Si4 0.787228 0.523679 0.726635
Si Si5 0.607342 0.842864 0.227598
Si Si6 0.927968 0.694982 0.295041
Si Si7 0.072394 0.037540 0.088117
Si Si8 0.369847 0.931760 0.529989
O O1 0.635933 0.294728 0.851838
O O2 0.138267 0.272426 0.821869
O O3 0.861797 0.357702 0.782639
O O4 0.919147 0.639842 0.009649
O O5 0.643413 0.641915 0.843952
O O6 0.293785 0.449342 0.798025
O O7 0.542532 0.717724 0.002998
O O8 0.283823 0.870642 0.006081
O O9 0.331539 0.048153 0.782162
O O10 0.118337 0.023333 0.887543
O O11 0.640715 0.323406 0.599777
O O12 0.005840 0.402525 0.692302
O O13 0.860699 0.712929 0.778717
O O14 0.553280 0.982210 0.360911
O O15 0.875669 0.942109 0.413569
O O16 0.000000 0.000000 0.000000
O O17 0.500000 0.000000 0.500000
#
# Coordination Sequence:
#
# PCOD9054840 Si02
#       8
#     2   2   2   2   2   2   2   2
#     4  11  21  42  65  97 135 172 215 270 336 399
#     4  12  21  39  66  94 135 166 220 270 343 386
#     4  12  24  39  63  94 137 170 215 276 333 398
#     4  12  23  40  63  96 130 170 221 273 330 391
#     4  11  27  41  66  99 134 178 222 266 337 397
#     4  11  21  38  68  98 130 166 215 274 337 394
#     4  12  24  40  63  98 128 172 222 275 335 392
#     4  11  23  42  68  94 130 173 220 273 328 395
#
# _framework density 20.656383999999999
#
# number of rings (size 3 to 8) (size 9 to 14) (size 15 to 20)
#    0.000    0.500    6.250    3.750    1.750    1.000 
#    0.000    0.625    0.000    0.750    0.000    0.000 
#    0.000    0.000    0.000    0.000    0.000    0.000 
#
# Total GULP energy -89177.898047 kJ/mol
# GULP energy per Si atom -5573.618628 kJ/mol
# Density = 2.060937 g / cm^3
# Si number density = 20.656384 Si / 1000 Ang^3
#
#
#
# Elastic Constant Matrix: (Units=GPa)
#
#
# Indices 1 2 3 4 5 6 
#
# 1 74.1081 34.0849 17.0531 -0.4014 8.2935 9.3730
# 2 34.0849 118.5069 53.4113 -10.4534 6.5368 37.0775
# 3 17.0531 53.4113 95.9717 -0.8334 5.3159 21.4366
# 4 -0.4014 -10.4534 -0.8334 42.1874 4.3764 -0.1403
# 5 8.2935 6.5368 5.3159 4.3764 24.9443 4.2365
# 6 9.3730 37.0775 21.4366 -0.1403 4.2365 29.8425
#
#
#
# Elastic Compliance Matrix: (Units=1/GPa)
#
#
# Indices 1 2 3 4 5 6 
#
# 1 0.016039 -0.004862 -0.000326 -0.000618 -0.004192 0.001829
# 2 -0.004862 0.017854 -0.005278 0.004197 0.000192 -0.016871
# 3 -0.000326 -0.005278 0.014220 -0.000960 -0.000785 -0.003448
# 4 -0.000618 0.004197 -0.000960 0.025174 -0.004500 -0.003574
# 5 -0.004192 0.000192 -0.000785 -0.004500 0.043155 -0.004505
# 6 0.001829 -0.016871 -0.003448 -0.003574 -0.004505 0.056996
#
#
# Mechanical properties :
#
#
# Convention : Reuss Voigt Hill
#
# Bulk Modulus (GPa) = 36.78954 55.29834 46.04394
# Shear Modulus (GPa) = 24.57846 31.66399 28.12122
#
# Velocity S-wave (km/s) = 3.45319 3.91946 3.69369
# Velocity P-wave (km/s) = 5.80933 6.87834 6.36632
#
# Compressibility (1/GPa) = 0.02718164
#
# Stress axis : x y z
#
# Youngs Moduli (GPa) = 62.34665 56.01063 70.32189
#
# Poissons Ratio (x) = 0.27232 0.02292
# Poissons Ratio (y) = 0.30312 0.37116
# Poissons Ratio (z) = 0.02032 0.29562
#
# Static dielectric constant tensor:
#      x y z
#    x 1.877040 -0.038510 -0.021320 
#    y -0.038510 1.837180 -0.015960 
#    z -0.021320 -0.015960 1.828810 
# 
# From -- ./inp_files/83193.got.cif
#   From: 2010.05.17/outbox.cif.g08.bks.cpg/sg2_42_cif.got.tgz:83193.got - 2010.06.03 11:33:40.
