data_PCOD9054561
_publ_section_title
;
Structure prediction by ZEFSAII (Michael W. Deem and Ramdas Pophale) SiO2 
 PCOD9054561
Probable space group: P -1
;
_chemical_formula_sum "Si O2"
_cell_formula_units_Z 16
_cell_length_a 9.156308
_cell_length_b 22.909527
_cell_length_c 8.354893
_cell_angle_alpha 28.257462
_cell_angle_beta 50.013355
_cell_angle_gamma 47.219365
_cell_volume 604.006840
_symmetry_space_group_name_H-M "P -1"
_symmetry_group_IT_number 2
_symmetry_cell_setting 'triclinic'
loop_
_space_group_symop_operation_xyz
x,y,z
-x,-y,-z
loop_
_atom_site_type_symbol
_atom_site_label
_atom_site_fract_x
_atom_site_fract_y
_atom_site_fract_z
Si Si1 0.076199 0.079303 0.456309
Si Si2 0.666088 0.163542 0.688384
Si Si3 0.344819 0.394623 0.218765
Si Si4 0.465147 0.965210 0.292416
Si Si5 0.767662 0.537313 0.518668
Si Si6 0.053465 0.691544 0.262664
Si Si7 0.232584 0.231990 0.237034
Si Si8 0.190464 0.668849 0.558473
O O1 0.243900 0.975994 0.483726
O O2 0.178613 0.123166 0.431997
O O3 0.868858 0.065818 0.703075
O O4 0.010470 0.200650 0.088554
O O5 0.539394 0.267800 0.395197
O O6 0.729615 0.243135 0.591488
O O7 0.526705 0.083099 0.045973
O O8 0.336892 0.455126 0.256779
O O9 0.146077 0.348693 0.457861
O O10 0.320861 0.517480 0.825162
O O11 0.618991 0.834061 0.566649
O O12 0.500000 0.000000 0.000000
O O13 0.777919 0.428021 0.647149
O O14 0.000000 0.500000 0.500000
O O15 0.691342 0.676058 0.153774
O O16 0.139747 0.728611 0.275116
O O17 0.023606 0.325332 0.228040
#
# Coordination Sequence:
#
# PCOD9054561 Si02
#       8
#     2   2   2   2   2   2   2   2
#     4  11  23  46  70 100 139 183 231 286 349 414
#     4  11  26  46  70  98 143 185 229 292 350 413
#     4  11  20  41  70 101 140 189 233 278 355 420
#     4  12  27  47  73 102 134 187 240 288 346 415
#     4  10  17  35  66 103 132 179 228 278 341 412
#     4  11  20  38  71 103 142 183 229 287 348 411
#     4  11  21  39  68 101 135 185 235 275 348 417
#     4  11  23  37  67 108 142 179 232 293 349 411
#
# _framework density 26.489768000000002
#
# number of rings (size 3 to 8) (size 9 to 14) (size 15 to 20)
#    0.000    1.000    6.250    2.625    0.000    2.500 
#    0.000    6.250    0.000    0.000    0.000    0.000 
#    0.000    0.000    0.000    0.000    0.000    0.000 
#
# Total GULP energy -89690.241223 kJ/mol
# GULP energy per Si atom -5605.640076 kJ/mol
# Density = 2.642948 g / cm^3
# Si number density = 26.489768 Si / 1000 Ang^3
#
#
#
# Elastic Constant Matrix: (Units=GPa)
#
#
# Indices 1 2 3 4 5 6 
#
# 1 108.0817 47.7475 39.0180 2.9211 20.4011 0.2629
# 2 47.7475 109.4008 19.2526 2.8620 13.3489 -35.5067
# 3 39.0180 19.2526 85.5256 1.3055 12.0188 -7.1519
# 4 2.9211 2.8620 1.3055 32.2051 -5.2077 6.1665
# 5 20.4011 13.3489 12.0188 -5.2077 47.0106 8.5679
# 6 0.2629 -35.5067 -7.1519 6.1665 8.5679 45.3912
#
#
#
# Elastic Compliance Matrix: (Units=1/GPa)
#
#
# Indices 1 2 3 4 5 6 
#
# 1 0.014801 -0.007423 -0.005393 0.000504 -0.001698 -0.006490
# 2 -0.007423 0.018289 0.001552 -0.005115 -0.005926 0.016408
# 3 -0.005393 0.001552 0.014573 -0.001505 -0.002771 0.004269
# 4 0.000504 -0.005115 -0.001505 0.034689 0.007346 -0.010340
# 5 -0.001698 -0.005926 -0.002771 0.007346 0.027255 -0.011205
# 6 -0.006490 0.016408 0.004269 -0.010340 -0.011205 0.039095
#
#
# Mechanical properties :
#
#
# Convention : Reuss Voigt Hill
#
# Bulk Modulus (GPa) = 39.78521 57.22715 48.50618
# Shear Modulus (GPa) = 27.83810 38.05403 32.94607
#
# Velocity S-wave (km/s) = 3.24528 3.79430 3.53048
# Velocity P-wave (km/s) = 5.39390 6.39109 5.91355
#
# Compressibility (1/GPa) = 0.02513497
#
# Stress axis : x y z
#
# Youngs Moduli (GPa) = 67.56131 54.67628 68.62090
#
# Poissons Ratio (x) = 0.40588 0.37010
# Poissons Ratio (y) = 0.50153 -0.10653
# Poissons Ratio (z) = 0.36438 -0.08488
#
# Static dielectric constant tensor:
#      x y z
#    x 2.103270 -0.008260 -0.052310 
#    y -0.008260 2.116010 -0.021600 
#    z -0.052310 -0.021600 2.003910 
# 
# From -- ./inp_files/225830.got.cif
#   From: 2010.05.17/outbox.cif.g08.bks.cpg/sg2_113_cif.got.tgz:225830.got - 2010.06.03 11:33:40.
