data_PCOD9054058
_publ_section_title
;
Structure prediction by ZEFSAII (Michael W. Deem and Ramdas Pophale) SiO2 
 PCOD9054058
Probable space group: P -1
;
_chemical_formula_sum "Si O2"
_cell_formula_units_Z 14
_cell_length_a 11.121837
_cell_length_b 7.923256
_cell_length_c 8.977742
_cell_angle_alpha 90.178512
_cell_angle_beta 103.185163
_cell_angle_gamma 44.748898
_cell_volume 527.504651
_symmetry_space_group_name_H-M "P -1"
_symmetry_group_IT_number 2
_symmetry_cell_setting 'triclinic'
loop_
_space_group_symop_operation_xyz
x,y,z
-x,-y,-z
loop_
_atom_site_type_symbol
_atom_site_label
_atom_site_fract_x
_atom_site_fract_y
_atom_site_fract_z
Si Si1 0.153635 0.907691 0.756885
Si Si2 0.791465 0.822157 0.377344
Si Si3 0.422951 0.811230 0.049418
Si Si4 0.410455 0.477199 0.601072
Si Si5 0.403072 0.227282 0.364644
Si Si6 0.243198 0.353179 0.019129
Si Si7 0.987626 0.318625 0.283307
O O1 0.267854 0.726219 0.649648
O O2 0.023673 0.874668 0.735854
O O3 0.096817 0.150176 0.685809
O O4 0.293731 0.804120 0.931693
O O5 0.836029 0.590963 0.325994
O O6 0.846973 0.794951 0.565719
O O7 0.581208 0.081388 0.309583
O O8 0.461124 0.725983 0.233051
O O9 0.318782 0.091939 0.008485
O O10 0.616446 0.656055 0.024272
O O11 0.500000 0.500000 0.500000
O O12 0.326132 0.424982 0.468727
O O13 0.254082 0.358965 0.198292
O O14 0.500000 0.000000 0.500000
O O15 0.049994 0.584953 0.894502
#
# Coordination Sequence:
#
# PCOD9054058 Si02
#       7
#     2   2   2   2   2   2   2
#     4  12  22  40  66  98 124 169 219 270 311 382
#     4  11  23  44  61  96 133 166 214 271 314 383
#     4  11  21  37  65  96 128 162 221 274 310 367
#     4  12  23  35  59  96 133 163 204 266 329 371
#     4  12  23  40  65  94 130 166 210 266 323 385
#     4  11  20  40  65  95 126 166 217 268 316 371
#     4  11  24  39  68  93 127 173 218 260 322 379
#
# _framework density 26.540053
#
# number of rings (size 3 to 8) (size 9 to 14) (size 15 to 20)
#    0.000    0.571    7.143    2.571    2.000    0.000 
#    0.000    0.714    0.000    1.714    0.000    0.000 
#    0.000    0.000    0.000    0.000    0.000    0.000 
#
# Total GULP energy -78190.263112 kJ/mol
# GULP energy per Si atom -5585.018794 kJ/mol
# Density = 2.647965 g / cm^3
# Si number density = 26.540053 Si / 1000 Ang^3
#
#
#
# Elastic Constant Matrix: (Units=GPa)
#
#
# Indices 1 2 3 4 5 6 
#
# 1 89.2751 23.1872 63.1737 -9.9486 11.3698 17.8957
# 2 23.1872 54.0069 21.4876 10.6605 -0.0675 21.4238
# 3 63.1737 21.4876 256.8300 -3.1049 23.2956 19.8916
# 4 -9.9486 10.6605 -3.1049 54.4103 14.7145 7.7032
# 5 11.3698 -0.0675 23.2956 14.7145 47.2810 -4.7440
# 6 17.8957 21.4238 19.8916 7.7032 -4.7440 39.4462
#
#
#
# Elastic Compliance Matrix: (Units=1/GPa)
#
#
# Indices 1 2 3 4 5 6 
#
# 1 0.016919 -0.005306 -0.002776 0.006098 -0.005128 -0.005202
# 2 -0.005306 0.026040 -0.000323 -0.005185 0.002052 -0.010313
# 3 -0.002776 -0.000323 0.004908 0.000597 -0.002078 -0.001406
# 4 0.006098 -0.005185 0.000597 0.024086 -0.009880 -0.006143
# 5 -0.005128 0.002052 -0.002078 -0.009880 0.027234 0.007465
# 6 -0.005202 -0.010313 -0.001406 -0.006143 0.007465 0.036119
#
#
# Mechanical properties :
#
#
# Convention : Reuss Voigt Hill
#
# Bulk Modulus (GPa) = 32.19984 68.42322 50.31153
# Shear Modulus (GPa) = 30.77500 47.71172 39.24336
#
# Velocity S-wave (km/s) = 3.40894 4.24456 3.84949
# Velocity P-wave (km/s) = 5.25865 7.06108 6.22544
#
# Compressibility (1/GPa) = 0.03105606
#
# Stress axis : x y z
#
# Youngs Moduli (GPa) = 59.10413 38.40215 203.74231
#
# Poissons Ratio (x) = 0.20377 0.56559
# Poissons Ratio (y) = 0.31363 0.06590
# Poissons Ratio (z) = 0.16407 0.01242
#
# Static dielectric constant tensor:
#      x y z
#    x 2.220470 0.004340 0.018140 
#    y 0.004340 1.961380 0.001410 
#    z 0.018140 0.001410 2.060240 
# 
# From -- ./inp_files/295395.got.cif
#   From: 2010.05.17/outbox.cif.g08.bks.cpg/sg2_148_cif.got.tgz:295395.got - 2010.06.03 11:33:40.
