data_PCOD9054879
_publ_section_title
;
Structure prediction by ZEFSAII (Michael W. Deem and Ramdas Pophale) SiO2 
 PCOD9054879
Probable space group: P -1
;
_chemical_formula_sum "Si O2"
_cell_formula_units_Z 16
_cell_length_a 7.138803
_cell_length_b 18.543106
_cell_length_c 10.348482
_cell_angle_alpha 119.736617
_cell_angle_beta 49.476711
_cell_angle_gamma 140.427692
_cell_volume 663.333810
_symmetry_space_group_name_H-M "P -1"
_symmetry_group_IT_number 2
_symmetry_cell_setting 'triclinic'
loop_
_space_group_symop_operation_xyz
x,y,z
-x,-y,-z
loop_
_atom_site_type_symbol
_atom_site_label
_atom_site_fract_x
_atom_site_fract_y
_atom_site_fract_z
Si Si1 0.030482 0.618921 0.220847
Si Si2 0.237647 0.590950 0.362447
Si Si3 0.366627 0.840699 0.124387
Si Si4 0.375283 0.176102 0.460171
Si Si5 0.577583 0.991931 0.607133
Si Si6 0.495978 0.262571 0.196674
Si Si7 0.455864 0.390502 0.162903
Si Si8 0.141223 0.336232 0.993184
O O1 0.031242 0.591349 0.344088
O O2 0.161238 0.741585 0.238370
O O3 0.669809 0.516484 0.230265
O O4 0.296803 0.617709 0.030385
O O5 0.474173 0.713678 0.430151
O O6 0.495679 0.588325 0.168614
O O7 0.000000 0.500000 0.500000
O O8 0.547313 0.961940 0.205234
O O9 0.097477 0.788195 0.079364
O O10 0.617015 0.831038 0.940805
O O11 0.451190 0.212927 0.310357
O O12 0.971772 0.084491 0.552857
O O13 0.514427 0.122262 0.410562
O O14 0.500000 0.000000 0.500000
O O15 0.340139 0.313632 0.273293
O O16 0.906060 0.361582 0.089961
O O17 0.182394 0.343089 0.134282
#
# Coordination Sequence:
#
# PCOD9054879 Si02
#       8
#     2   2   2   2   2   2   2   2
#     4   9  18  33  56  83 121 158 205 243 294 359
#     4  11  21  39  62  90 131 166 198 250 307 367
#     4   9  19  41  60  86 117 157 204 251 298 360
#     4  11  23  42  63  94 123 159 206 253 306 361
#     4  11  24  43  68  87 122 163 204 256 305 364
#     4   9  20  38  62  89 121 155 206 253 298 363
#     4   9  17  34  56  86 120 160 197 249 295 350
#     4   9  20  38  62  85 125 167 201 246 302 366
#
# _framework density 24.120584999999998
#
# number of rings (size 3 to 8) (size 9 to 14) (size 15 to 20)
#    0.750    1.500    1.250    1.500    0.000    3.000 
#    4.500    1.250    0.000    0.000    0.000    0.000 
#    0.000    0.000    0.000    0.000    0.000    0.000 
#
# Total GULP energy -89252.993094 kJ/mol
# GULP energy per Si atom -5578.312068 kJ/mol
# Density = 2.406569 g / cm^3
# Si number density = 24.120585 Si / 1000 Ang^3
#
#
#
# Elastic Constant Matrix: (Units=GPa)
#
#
# Indices 1 2 3 4 5 6 
#
# 1 124.5936 41.4802 28.8560 -3.5057 44.7097 -4.9108
# 2 41.4802 89.3424 25.8604 4.1751 9.7572 -5.0557
# 3 28.8560 25.8604 63.7068 -9.1752 31.7869 -7.7853
# 4 -3.5057 4.1751 -9.1752 28.5756 -0.3259 8.2811
# 5 44.7097 9.7572 31.7869 -0.3259 49.3745 -6.2911
# 6 -4.9108 -5.0557 -7.7853 8.2811 -6.2911 38.7081
#
#
#
# Elastic Compliance Matrix: (Units=1/GPa)
#
#
# Indices 1 2 3 4 5 6 
#
# 1 0.014602 -0.006547 0.003681 0.004203 -0.014463 -0.001512
# 2 -0.006547 0.016195 -0.008461 -0.006467 0.008430 0.002337
# 3 0.003681 -0.008461 0.029183 0.010950 -0.020431 -0.000432
# 4 0.004203 -0.006467 0.010950 0.042426 -0.010429 -0.008881
# 5 -0.014463 0.008430 -0.020431 -0.010429 0.045376 0.004763
# 6 -0.001512 0.002337 -0.000432 -0.008881 0.004763 0.028535
#
#
# Mechanical properties :
#
#
# Convention : Reuss Voigt Hill
#
# Bulk Modulus (GPa) = 26.79118 52.22622 39.50870
# Shear Modulus (GPa) = 23.65033 35.42805 29.53919
#
# Velocity S-wave (km/s) = 3.13470 3.83664 3.50329
# Velocity P-wave (km/s) = 4.92271 6.42849 5.72532
#
# Compressibility (1/GPa) = 0.03732571
#
# Stress axis : x y z
#
# Youngs Moduli (GPa) = 68.48317 61.74563 34.26680
#
# Poissons Ratio (x) = 0.40427 -0.12613
# Poissons Ratio (y) = 0.44839 0.28992
# Poissons Ratio (z) = -0.25207 0.52241
#
# Static dielectric constant tensor:
#      x y z
#    x 1.985450 -0.004790 -0.043930 
#    y -0.004790 1.978770 -0.032240 
#    z -0.043930 -0.032240 2.040380 
# 
# From -- ./inp_files/219663.got.cif
#   From: 2010.05.17/outbox.cif.g08.bks.cpg/sg2_110_cif.got.tgz:219663.got - 2010.06.03 11:33:40.
