data_PCOD9054189
_publ_section_title
;
Structure prediction by ZEFSAII (Michael W. Deem and Ramdas Pophale) SiO2 
 PCOD9054189
Probable space group: P -1
;
_chemical_formula_sum "Si O2"
_cell_formula_units_Z 16
_cell_length_a 8.891754
_cell_length_b 14.879036
_cell_length_c 11.904657
_cell_angle_alpha 75.081041
_cell_angle_beta 81.855858
_cell_angle_gamma 29.703177
_cell_volume 742.982882
_symmetry_space_group_name_H-M "P -1"
_symmetry_group_IT_number 2
_symmetry_cell_setting 'triclinic'
loop_
_space_group_symop_operation_xyz
x,y,z
-x,-y,-z
loop_
_atom_site_type_symbol
_atom_site_label
_atom_site_fract_x
_atom_site_fract_y
_atom_site_fract_z
Si Si1 0.538660 0.913546 0.309514
Si Si2 0.172016 0.923448 0.278844
Si Si3 0.479706 0.708252 0.877896
Si Si4 0.190155 0.294422 0.210965
Si Si5 0.467363 0.646488 0.141508
Si Si6 0.511550 0.601998 0.490629
Si Si7 0.780549 0.427590 0.755542
Si Si8 0.878657 0.642234 0.554551
O O1 0.334703 0.935568 0.281327
O O2 0.634053 0.833837 0.451708
O O3 0.862398 0.753278 0.260561
O O4 0.362155 0.104519 0.261008
O O5 0.324863 0.796518 0.193702
O O6 0.244255 0.812111 0.408050
O O7 0.814401 0.123056 0.225605
O O8 0.640606 0.721666 0.881388
O O9 0.714552 0.516597 0.848586
O O10 0.372089 0.718622 0.001057
O O11 0.219255 0.328848 0.319354
O O12 0.837454 0.460931 0.165065
O O13 0.339775 0.613710 0.202854
O O14 0.500000 0.500000 0.500000
O O15 0.590958 0.570520 0.623452
O O16 0.805997 0.470986 0.426474
O O17 0.000000 0.500000 0.500000
#
# Coordination Sequence:
#
# PCOD9054189 Si02
#       8
#     2   2   2   2   2   2   2   2
#     4  11  25  41  69 101 137 174 220 275 341 404
#     4  12  24  45  68 100 138 175 224 277 338 398
#     4  12  28  43  68 100 134 181 231 273 330 401
#     4  12  24  44  67 101 134 180 226 272 333 399
#     4  12  24  49  69  94 136 179 228 283 328 394
#     4  11  21  39  71  98 134 172 215 277 345 398
#     4  11  24  45  70  99 136 177 222 280 340 395
#     4  11  20  41  67  97 137 176 214 272 339 398
#
# _framework density 21.534815999999999
#
# number of rings (size 3 to 8) (size 9 to 14) (size 15 to 20)
#    0.000    0.500    3.750    5.250    1.750    0.500 
#    2.250    1.875    0.000    0.000    0.000    0.000 
#    0.000    0.000    0.000    0.000    0.000    0.000 
#
# Total GULP energy -89452.559584 kJ/mol
# GULP energy per Si atom -5590.784974 kJ/mol
# Density = 2.148580 g / cm^3
# Si number density = 21.534816 Si / 1000 Ang^3
#
#
#
# Elastic Constant Matrix: (Units=GPa)
#
#
# Indices 1 2 3 4 5 6 
#
# 1 125.2493 30.7709 26.6040 -12.2537 -8.0982 -6.6794
# 2 30.7709 67.6279 6.3646 -15.1818 1.8976 4.7869
# 3 26.6040 6.3646 63.3428 -0.1329 -20.0637 7.8027
# 4 -12.2537 -15.1818 -0.1329 27.5211 -5.2004 7.5408
# 5 -8.0982 1.8976 -20.0637 -5.2004 25.3381 4.6378
# 6 -6.6794 4.7869 7.8027 7.5408 4.6378 41.6470
#
#
#
# Elastic Compliance Matrix: (Units=1/GPa)
#
#
# Indices 1 2 3 4 5 6 
#
# 1 0.010160 -0.004064 -0.004128 0.001584 0.000138 0.002568
# 2 -0.004064 0.019212 0.000660 0.010296 0.000802 -0.004937
# 3 -0.004128 0.000660 0.025295 0.005077 0.021308 -0.008769
# 4 0.001584 0.010296 0.005077 0.049253 0.016171 -0.012599
# 5 0.000138 0.000802 0.021308 0.016171 0.062188 -0.013915
# 6 0.002568 -0.004937 -0.008769 -0.012599 -0.013915 0.030465
#
#
# Mechanical properties :
#
#
# Convention : Reuss Voigt Hill
#
# Bulk Modulus (GPa) = 25.25073 42.63325 33.94199
# Shear Modulus (GPa) = 22.23812 31.73327 26.98570
#
# Velocity S-wave (km/s) = 3.21699 3.84289 3.54378
# Velocity P-wave (km/s) = 5.05467 6.28735 5.70440
#
# Compressibility (1/GPa) = 0.03960282
#
# Stress axis : x y z
#
# Youngs Moduli (GPa) = 98.42172 52.04988 39.53411
#
# Poissons Ratio (x) = 0.21155 0.16321
# Poissons Ratio (y) = 0.40003 -0.02611
# Poissons Ratio (z) = 0.40631 -0.03438
#
# Static dielectric constant tensor:
#      x y z
#    x 1.787160 -0.003010 0.014450 
#    y -0.003010 1.755340 -0.008330 
#    z 0.014450 -0.008330 1.796240 
# 
# From -- ./inp_files/271349.got.cif
#   From: 2010.05.17/outbox.cif.g08.bks.cpg/sg2_136_cif.got.tgz:271349.got - 2010.06.03 11:33:40.
