data_PCOD9054413
_publ_section_title
;
Structure prediction by ZEFSAII (Michael W. Deem and Ramdas Pophale) SiO2 
 PCOD9054413
Probable space group: P -1
;
_chemical_formula_sum "Si O2"
_cell_formula_units_Z 16
_cell_length_a 18.935359
_cell_length_b 18.794833
_cell_length_c 8.926829
_cell_angle_alpha 49.757795
_cell_angle_beta 49.131796
_cell_angle_gamma 20.213839
_cell_volume 823.860140
_symmetry_space_group_name_H-M "P -1"
_symmetry_group_IT_number 2
_symmetry_cell_setting 'triclinic'
loop_
_space_group_symop_operation_xyz
x,y,z
-x,-y,-z
loop_
_atom_site_type_symbol
_atom_site_label
_atom_site_fract_x
_atom_site_fract_y
_atom_site_fract_z
Si Si1 0.968530 0.529541 0.182926
Si Si2 0.321811 0.718547 0.027124
Si Si3 0.865040 0.807308 0.439064
Si Si4 0.418701 0.460358 0.821188
Si Si5 0.212695 0.832365 0.522133
Si Si6 0.944297 0.925509 0.322468
Si Si7 0.145650 0.527348 0.151793
Si Si8 0.581397 0.841510 0.500597
O O1 0.734514 0.734620 0.297740
O O2 0.077836 0.341041 0.359531
O O3 0.069271 0.530426 0.119123
O O4 0.000000 0.500000 0.000000
O O5 0.440239 0.674281 0.044513
O O6 0.161667 0.786345 0.225795
O O7 0.500000 0.500000 0.000000
O O8 0.190821 0.899124 0.852086
O O9 0.960621 0.806254 0.404068
O O10 0.959482 0.723899 0.253819
O O11 0.617565 0.033389 0.460544
O O12 0.279375 0.678519 0.726307
O O13 0.588450 0.321336 0.645183
O O14 0.269419 0.505992 0.950322
O O15 0.169682 0.956192 0.523934
O O16 0.000000 0.000000 0.500000
O O17 0.290720 0.337451 0.319663
O O18 0.500000 0.000000 0.500000
#
# Coordination Sequence:
#
# PCOD9054413 Si02
#       8
#     2   2   2   2   2   2   2   2
#     4  11  25  44  63  98 137 162 208 272 322 377
#     4  11  21  40  62  91 125 157 212 266 306 367
#     4  11  23  42  67  96 126 169 214 264 317 380
#     4  11  24  41  66  90 128 174 207 260 327 372
#     4  11  24  44  59  89 135 171 207 260 317 384
#     4  11  24  38  65  94 124 164 213 262 314 377
#     4  11  23  42  68  96 125 165 220 262 317 379
#     4  11  20  44  71  89 126 172 211 264 318 379
#
# _framework density 19.420773000000001
#
# number of rings (size 3 to 8) (size 9 to 14) (size 15 to 20)
#    0.000    1.000    5.000    2.250    1.750    4.500 
#    2.250    0.000    0.000    0.000    0.000    0.000 
#    0.000    0.000    0.000    0.000    0.000    0.000 
#
# Total GULP energy -89379.077887 kJ/mol
# GULP energy per Si atom -5586.192368 kJ/mol
# Density = 1.937657 g / cm^3
# Si number density = 19.420773 Si / 1000 Ang^3
#
#
#
# Elastic Constant Matrix: (Units=GPa)
#
#
# Indices 1 2 3 4 5 6 
#
# 1 141.9403 26.8044 43.3692 16.8207 -5.9285 6.0454
# 2 26.8044 85.6371 24.6966 18.0408 0.1074 -5.8278
# 3 43.3692 24.6966 72.1269 21.2897 -3.1866 0.2422
# 4 16.8207 18.0408 21.2897 21.2875 0.5132 1.0914
# 5 -5.9285 0.1074 -3.1866 0.5132 33.3509 4.6933
# 6 6.0454 -5.8278 0.2422 1.0914 4.6933 36.6871
#
#
#
# Elastic Compliance Matrix: (Units=1/GPa)
#
#
# Indices 1 2 3 4 5 6 
#
# 1 0.008962 -0.001346 -0.004429 -0.001454 0.001451 -0.001804
# 2 -0.001346 0.014856 -0.001240 -0.010423 -0.000665 0.002985
# 3 -0.004429 -0.001240 0.022269 -0.017794 0.001517 0.000721
# 4 -0.001454 -0.010423 -0.017794 0.074982 -0.002630 -0.003193
# 5 0.001451 -0.000665 0.001517 -0.002630 0.031027 -0.004246
# 6 -0.001804 0.002985 0.000721 -0.003193 -0.004246 0.028662
#
#
# Mechanical properties :
#
#
# Convention : Reuss Voigt Hill
#
# Bulk Modulus (GPa) = 31.19408 54.38273 42.78841
# Shear Modulus (GPa) = 24.33397 31.92072 28.12734
#
# Velocity S-wave (km/s) = 3.54360 4.05858 3.80980
# Velocity P-wave (km/s) = 5.73061 7.07290 6.43684
#
# Compressibility (1/GPa) = 0.03205736
#
# Stress axis : x y z
#
# Youngs Moduli (GPa) = 111.57810 67.31303 44.90569
#
# Poissons Ratio (x) = 0.09062 0.19887
# Poissons Ratio (y) = 0.15021 0.05568
# Poissons Ratio (z) = 0.49413 0.08347
#
# Static dielectric constant tensor:
#      x y z
#    x 1.669630 -0.010450 0.022320 
#    y -0.010450 1.761500 -0.038410 
#    z 0.022320 -0.038410 1.712200 
# 
# From -- ./inp_files/39280.got.cif
#   From: 2010.05.17/outbox.cif.g08.bks.cpg/sg2_20_cif.got.tgz:39280.got - 2010.06.03 11:33:40.
