data_PCOD9054431
_publ_section_title
;
Structure prediction by ZEFSAII (Michael W. Deem and Ramdas Pophale) SiO2 
 PCOD9054431
Probable space group: P -1
;
_chemical_formula_sum "Si O2"
_cell_formula_units_Z 14
_cell_length_a 10.031525
_cell_length_b 9.715766
_cell_length_c 10.300905
_cell_angle_alpha 44.724854
_cell_angle_beta 64.387252
_cell_angle_gamma 92.677004
_cell_volume 528.829435
_symmetry_space_group_name_H-M "P -1"
_symmetry_group_IT_number 2
_symmetry_cell_setting 'triclinic'
loop_
_space_group_symop_operation_xyz
x,y,z
-x,-y,-z
loop_
_atom_site_type_symbol
_atom_site_label
_atom_site_fract_x
_atom_site_fract_y
_atom_site_fract_z
Si Si1 0.708865 0.014585 0.908556
Si Si2 0.532653 0.271863 0.247835
Si Si3 0.202121 0.205051 0.322993
Si Si4 0.156217 0.536052 0.616453
Si Si5 0.578874 0.516199 0.312806
Si Si6 0.232702 0.837488 0.929195
Si Si7 0.896899 0.833032 0.323521
O O1 0.743832 0.202748 0.659546
O O2 0.892233 0.033664 0.841579
O O3 0.674021 0.079475 0.023307
O O4 0.586076 0.742726 0.103923
O O5 0.352252 0.147130 0.321053
O O6 0.483137 0.307573 0.389479
O O7 0.359162 0.840823 0.763293
O O8 0.683896 0.549562 0.965785
O O9 0.176325 0.261248 0.441252
O O10 0.000000 0.000000 0.500000
O O11 0.248461 0.492138 0.725708
O O12 0.160489 0.379527 0.605396
O O13 0.948799 0.424726 0.805754
O O14 0.500000 0.500000 0.500000
O O15 0.150719 0.989276 0.828838
#
# Coordination Sequence:
#
# PCOD9054431 Si02
#       7
#     2   2   2   2   2   2   2
#     4  11  22  44  75 111 153 214 260 315 393 466
#     4  11  27  48  75 117 159 196 263 333 388 465
#     4  11  25  49  77 108 154 208 258 320 398 468
#     4  11  22  43  78 112 157 208 260 318 396 466
#     4  12  26  48  70 110 159 207 263 327 386 476
#     4  11  22  43  76 115 156 202 258 327 389 466
#     4  11  20  44  78 111 152 206 260 322 387 469
#
# _framework density 26.473565000000001
#
# number of rings (size 3 to 8) (size 9 to 14) (size 15 to 20)
#    0.000    0.857    2.857    6.000    0.000    2.857 
#    5.143    0.000    0.000    2.571    0.000    0.000 
#    0.000    0.000    0.000    0.000    0.000    0.000 
#
# Total GULP energy -78325.374122 kJ/mol
# GULP energy per Si atom -5594.669580 kJ/mol
# Density = 2.641331 g / cm^3
# Si number density = 26.473565 Si / 1000 Ang^3
#
#
#
# Elastic Constant Matrix: (Units=GPa)
#
#
# Indices 1 2 3 4 5 6 
#
# 1 154.2658 45.7085 46.7259 -22.2570 -16.6021 -16.2235
# 2 45.7085 111.5705 29.9285 10.9507 -10.0537 -9.8034
# 3 46.7259 29.9285 105.1938 -20.4845 3.8379 -9.7775
# 4 -22.2570 10.9507 -20.4845 44.0607 -7.3321 -1.6518
# 5 -16.6021 -10.0537 3.8379 -7.3321 52.9077 -7.9454
# 6 -16.2235 -9.8034 -9.7775 -1.6518 -7.9454 41.0077
#
#
#
# Elastic Compliance Matrix: (Units=1/GPa)
#
#
# Indices 1 2 3 4 5 6 
#
# 1 0.009667 -0.003279 -0.002106 0.005491 0.003851 0.003506
# 2 -0.003279 0.011814 -0.003002 -0.005840 0.000732 0.000718
# 3 -0.002106 -0.003002 0.012514 0.005356 -0.001184 0.001419
# 4 0.005491 -0.005840 0.005356 0.030417 0.005080 0.004263
# 5 0.003851 0.000732 -0.001184 0.005080 0.021919 0.005868
# 6 0.003506 0.000718 0.001419 0.004263 0.005868 0.027591
#
#
# Mechanical properties :
#
#
# Convention : Reuss Voigt Hill
#
# Bulk Modulus (GPa) = 58.07091 68.41732 63.24411
# Shear Modulus (GPa) = 36.64683 44.17304 40.40994
#
# Velocity S-wave (km/s) = 3.72463 4.08925 3.91119
# Velocity P-wave (km/s) = 6.36240 6.94231 6.65867
#
# Compressibility (1/GPa) = 0.01722033
#
# Stress axis : x y z
#
# Youngs Moduli (GPa) = 103.44036 84.64652 79.91070
#
# Poissons Ratio (x) = 0.27760 0.16832
# Poissons Ratio (y) = 0.33923 0.23986
# Poissons Ratio (z) = 0.21789 0.25407
#
# Static dielectric constant tensor:
#      x y z
#    x 2.197450 0.014470 -0.133190 
#    y 0.014470 2.010930 0.004680 
#    z -0.133190 0.004680 2.318830 
# 
# From -- ./inp_files/424977.got.cif
#   From: 2010.05.17/outbox.cif.g08.bks.cpg/sg2_213_cif.got.tgz:424977.got - 2010.06.03 11:33:40.
