data_PCOD9054196
_publ_section_title
;
Structure prediction by ZEFSAII (Michael W. Deem and Ramdas Pophale) SiO2 
 PCOD9054196
Probable space group: P -1
;
_chemical_formula_sum "Si O2"
_cell_formula_units_Z 16
_cell_length_a 19.495613
_cell_length_b 12.599051
_cell_length_c 15.822604
_cell_angle_alpha 131.922996
_cell_angle_beta 154.114918
_cell_angle_gamma 31.011289
_cell_volume 777.213773
_symmetry_space_group_name_H-M "P -1"
_symmetry_group_IT_number 2
_symmetry_cell_setting 'triclinic'
loop_
_space_group_symop_operation_xyz
x,y,z
-x,-y,-z
loop_
_atom_site_type_symbol
_atom_site_label
_atom_site_fract_x
_atom_site_fract_y
_atom_site_fract_z
Si Si1 0.576624 0.118844 0.086731
Si Si2 0.583025 0.708097 0.318038
Si Si3 0.901977 0.627491 0.204725
Si Si4 0.708512 0.745327 0.323032
Si Si5 0.852858 0.897832 0.682292
Si Si6 0.344097 0.643209 0.317302
Si Si7 0.857620 0.802960 0.831314
Si Si8 0.451527 0.515781 0.171544
O O1 0.365767 0.252454 0.999560
O O2 0.435618 0.144419 0.865853
O O3 0.614772 0.259343 0.193286
O O4 0.829882 0.844038 0.230011
O O5 0.566003 0.723229 0.206562
O O6 0.524666 0.607679 0.252366
O O7 0.879234 0.534206 0.568438
O O8 0.395175 0.967117 0.279235
O O9 0.040293 0.433218 0.182754
O O10 0.724526 0.878780 0.465713
O O11 0.000000 0.500000 0.500000
O O12 0.810424 0.886448 0.726869
O O13 0.740164 0.132483 0.661748
O O14 0.162292 0.684858 0.910231
O O15 0.500000 0.500000 0.500000
O O16 0.458917 0.530605 0.290034
O O17 0.089334 0.730563 0.084836
#
# Coordination Sequence:
#
# PCOD9054196 Si02
#       8
#     2   2   2   2   2   2   2   2
#     4  11  24  44  64  94 135 179 220 257 325 397
#     4  12  23  40  70  96 126 172 223 277 319 384
#     4  11  23  40  68  91 129 181 214 265 324 392
#     4  12  23  42  64  99 126 171 226 262 318 392
#     4  11  20  41  68  93 129 175 214 263 318 406
#     4  11  23  39  65 104 132 166 212 270 333 384
#     4  11  20  42  66  97 127 170 222 262 330 386
#     4  11  21  43  67  93 132 176 218 259 327 394
#
# _framework density 20.586355000000001
#
# number of rings (size 3 to 8) (size 9 to 14) (size 15 to 20)
#    0.000    0.750    8.750    1.125    1.750    1.000 
#    2.250    0.625    0.000    0.000    0.000    0.000 
#    0.000    0.000    0.000    0.000    0.000    0.000 
#
# Total GULP energy -89230.041672 kJ/mol
# GULP energy per Si atom -5576.877605 kJ/mol
# Density = 2.053950 g / cm^3
# Si number density = 20.586355 Si / 1000 Ang^3
#
#
#
# Elastic Constant Matrix: (Units=GPa)
#
#
# Indices 1 2 3 4 5 6 
#
# 1 71.9864 42.8396 21.8995 -4.8785 -0.7124 0.2882
# 2 42.8396 177.8303 35.4677 -8.7132 -8.1768 11.8995
# 3 21.8995 35.4677 59.0255 1.0812 -17.4668 1.0502
# 4 -4.8785 -8.7132 1.0812 34.7993 -1.1105 1.8815
# 5 -0.7124 -8.1768 -17.4668 -1.1105 33.6461 0.1650
# 6 0.2882 11.8995 1.0502 1.8815 0.1650 22.9736
#
#
#
# Elastic Compliance Matrix: (Units=1/GPa)
#
#
# Indices 1 2 3 4 5 6 
#
# 1 0.017634 -0.003316 -0.005580 0.001621 -0.003284 0.001642
# 2 -0.003316 0.007389 -0.003120 0.001692 0.000180 -0.003783
# 3 -0.005580 -0.003120 0.024377 -0.001982 0.011710 0.000650
# 4 0.001621 0.001692 -0.001982 0.029637 0.000411 -0.003236
# 5 -0.003284 0.000180 0.011710 0.000411 0.035792 -0.000878
# 6 0.001642 -0.003783 0.000650 -0.003236 -0.000878 0.045709
#
#
# Mechanical properties :
#
#
# Convention : Reuss Voigt Hill
#
# Bulk Modulus (GPa) = 39.42253 56.58396 48.00325
# Shear Modulus (GPa) = 25.90332 32.19282 29.04807
#
# Velocity S-wave (km/s) = 3.55107 3.95877 3.76045
# Velocity P-wave (km/s) = 6.00040 6.96001 6.49794
#
# Compressibility (1/GPa) = 0.02536620
#
# Stress axis : x y z
#
# Youngs Moduli (GPa) = 56.70993 135.33930 41.02265
#
# Poissons Ratio (x) = 0.44885 0.22892
# Poissons Ratio (y) = 0.18808 0.12798
# Poissons Ratio (z) = 0.31646 0.42222
#
# Static dielectric constant tensor:
#      x y z
#    x 1.753650 -0.006750 0.006150 
#    y -0.006750 1.785020 0.017380 
#    z 0.006150 0.017380 1.739150 
# 
# From -- ./inp_files/177859.got.cif
#   From: 2010.05.17/outbox.cif.g08.bks.cpg/sg2_89_cif.got.tgz:177859.got - 2010.06.03 11:33:40.
