data_PCOD9054238
_publ_section_title
;
Structure prediction by ZEFSAII (Michael W. Deem and Ramdas Pophale) SiO2 
 PCOD9054238
Probable space group: P -1
;
_chemical_formula_sum "Si O2"
_cell_formula_units_Z 16
_cell_length_a 25.157838
_cell_length_b 9.663876
_cell_length_c 9.820707
_cell_angle_alpha 56.338060
_cell_angle_beta 134.069238
_cell_angle_gamma 155.104115
_cell_volume 698.636287
_symmetry_space_group_name_H-M "P -1"
_symmetry_group_IT_number 2
_symmetry_cell_setting 'triclinic'
loop_
_space_group_symop_operation_xyz
x,y,z
-x,-y,-z
loop_
_atom_site_type_symbol
_atom_site_label
_atom_site_fract_x
_atom_site_fract_y
_atom_site_fract_z
Si Si1 0.480443 0.509443 0.304016
Si Si2 0.954573 0.558989 0.703496
Si Si3 0.282744 0.812795 0.284709
Si Si4 0.094699 0.526216 0.857370
Si Si5 0.253516 0.336069 0.910751
Si Si6 0.645369 0.753178 0.217668
Si Si7 0.294107 0.504815 0.588029
Si Si8 0.046326 0.216633 0.683228
O O1 0.500000 0.500000 0.500000
O O2 0.623471 0.797030 0.301461
O O3 0.391743 0.181625 0.256646
O O4 0.381901 0.481988 0.132176
O O5 0.827707 0.343946 0.705636
O O6 0.922384 0.599265 0.487469
O O7 0.973589 0.403000 0.786283
O O8 0.115860 0.942615 0.837942
O O9 0.364982 0.806305 0.482713
O O10 0.186966 0.602908 0.091429
O O11 0.030621 0.285706 0.756612
O O12 0.209766 0.881653 0.796529
O O13 0.319106 0.536600 0.776463
O O14 0.176336 0.333432 0.857143
O O15 0.667519 0.598391 0.350419
O O16 0.500000 0.500000 0.000000
O O17 0.114027 0.179678 0.423749
#
# Coordination Sequence:
#
# PCOD9054238 Si02
#       8
#     2   2   2   2   2   2   2   2
#     4  12  29  46  68  98 134 185 238 273 331 402
#     4  11  20  41  71  99 134 179 221 273 348 407
#     4  12  24  43  68 103 134 181 224 285 341 396
#     4  12  25  40  70 103 141 179 222 281 342 399
#     4  11  20  47  69  96 138 181 218 282 343 404
#     4  12  23  49  67  89 137 194 225 264 330 413
#     4  11  22  41  76  98 138 177 221 282 341 409
#     4  11  23  40  70 112 131 169 231 279 351 399
#
# _framework density 22.901758999999998
#
# number of rings (size 3 to 8) (size 9 to 14) (size 15 to 20)
#    0.000    0.500    8.750    1.500    1.750    2.000 
#    2.250    1.250    0.000    0.000    0.000    0.000 
#    0.000    0.000    0.000    0.000    0.000    0.000 
#
# Total GULP energy -89616.022115 kJ/mol
# GULP energy per Si atom -5601.001382 kJ/mol
# Density = 2.284963 g / cm^3
# Si number density = 22.901759 Si / 1000 Ang^3
#
#
#
# Elastic Constant Matrix: (Units=GPa)
#
#
# Indices 1 2 3 4 5 6 
#
# 1 113.7254 -4.2423 46.8041 -7.7527 9.2198 0.0856
# 2 -4.2423 22.7116 5.5465 -7.3606 0.8781 -0.2848
# 3 46.8041 5.5465 114.4933 -16.4544 4.7955 -4.9405
# 4 -7.7527 -7.3606 -16.4544 20.9894 -7.7115 1.8004
# 5 9.2198 0.8781 4.7955 -7.7115 51.2035 -4.2284
# 6 0.0856 -0.2848 -4.9405 1.8004 -4.2284 27.7301
#
#
#
# Elastic Compliance Matrix: (Units=1/GPa)
#
#
# Indices 1 2 3 4 5 6 
#
# 1 0.010977 0.003629 -0.004449 0.001381 -0.001506 -0.001109
# 2 0.003629 0.051052 -0.001351 0.018747 0.001360 -0.000737
# 3 -0.004449 -0.001351 0.011697 0.007257 0.000967 0.001760
# 4 0.001381 0.018747 0.007257 0.063551 0.008206 -0.001394
# 5 -0.001506 0.001360 0.000967 0.008206 0.021161 0.002885
# 6 -0.001109 -0.000737 0.001760 -0.001394 0.002885 0.036902
#
#
# Mechanical properties :
#
#
# Convention : Reuss Voigt Hill
#
# Bulk Modulus (GPa) = 14.41296 38.57188 26.49242
# Shear Modulus (GPa) = 22.44070 33.50607 27.97339
#
# Velocity S-wave (km/s) = 3.13368 3.82911 3.49872
# Velocity P-wave (km/s) = 4.40458 6.03559 5.28340
#
# Compressibility (1/GPa) = 0.06938200
#
# Stress axis : x y z
#
# Youngs Moduli (GPa) = 91.10272 19.58789 85.49378
#
# Poissons Ratio (x) = -0.07108 0.38039
# Poissons Ratio (y) = -0.33059 0.11551
# Poissons Ratio (z) = 0.40534 0.02647
#
# Static dielectric constant tensor:
#      x y z
#    x 1.830750 0.006310 0.009580 
#    y 0.006310 1.889040 -0.007880 
#    z 0.009580 -0.007880 1.844310 
# 
# From -- ./inp_files/218806.got.cif
#   From: 2010.05.17/outbox.cif.g08.bks.cpg/sg2_110_cif.got.tgz:218806.got - 2010.06.03 11:33:40.
