data_PCOD9054486
_publ_section_title
;
Structure prediction by ZEFSAII (Michael W. Deem and Ramdas Pophale) SiO2 
 PCOD9054486
Probable space group: P -1
;
_chemical_formula_sum "Si O2"
_cell_formula_units_Z 16
_cell_length_a 16.377217
_cell_length_b 9.429556
_cell_length_c 8.770404
_cell_angle_alpha 58.814694
_cell_angle_beta 33.833584
_cell_angle_gamma 64.177910
_cell_volume 645.099395
_symmetry_space_group_name_H-M "P -1"
_symmetry_group_IT_number 2
_symmetry_cell_setting 'triclinic'
loop_
_space_group_symop_operation_xyz
x,y,z
-x,-y,-z
loop_
_atom_site_type_symbol
_atom_site_label
_atom_site_fract_x
_atom_site_fract_y
_atom_site_fract_z
Si Si1 0.906306 0.518760 0.920722
Si Si2 0.033308 0.178915 0.779142
Si Si3 0.783123 0.386205 0.482860
Si Si4 0.664231 0.051688 0.883980
Si Si5 0.592511 0.401803 0.072575
Si Si6 0.193973 0.895508 0.044093
Si Si7 0.409072 0.116078 0.456870
Si Si8 0.713273 0.702077 0.860590
O O1 0.809306 0.502580 0.232791
O O2 0.951223 0.331099 0.905392
O O3 0.817206 0.606869 0.874483
O O4 0.057870 0.610259 0.680445
O O5 0.194895 0.246767 0.460266
O O6 0.967477 0.152997 0.724768
O O7 0.000000 0.000000 0.000000
O O8 0.664635 0.420930 0.781996
O O9 0.733865 0.204440 0.600452
O O10 0.768989 0.049135 0.873586
O O11 0.499804 0.092909 0.174121
O O12 0.660119 0.873045 0.918107
O O13 0.592474 0.571177 0.069051
O O14 0.707066 0.269944 0.044887
O O15 0.443481 0.300540 0.352620
O O16 0.250015 0.043466 0.765932
O O17 0.500000 0.000000 0.500000
#
# Coordination Sequence:
#
# PCOD9054486 Si02
#       8
#     2   2   2   2   2   2   2   2
#     4  11  21  34  55  81 115 159 185 228 285 347
#     4  12  24  35  56  86 122 148 187 237 287 339
#     4   9  19  35  53  76 115 154 193 221 281 343
#     4   9  19  34  57  88 112 146 189 239 276 335
#     4   9  16  34  60  82 110 150 185 234 277 339
#     4   9  18  37  59  84 111 156 192 227 281 343
#     4   7  15  34  60  84 104 154 193 228 277 337
#     4  12  21  34  57  91 120 142 188 237 293 329
#
# _framework density 24.802379999999999
#
# number of rings (size 3 to 8) (size 9 to 14) (size 15 to 20)
#    0.000    2.750    2.500    2.625    0.000    4.000 
#    0.000    5.625    0.000    7.500    0.000    0.875 
#    0.000    0.000    0.000    0.000    0.000    0.000 
#
# Total GULP energy -89419.721594 kJ/mol
# GULP energy per Si atom -5588.732600 kJ/mol
# Density = 2.474593 g / cm^3
# Si number density = 24.802380 Si / 1000 Ang^3
#
#
#
# Elastic Constant Matrix: (Units=GPa)
#
#
# Indices 1 2 3 4 5 6 
#
# 1 62.5251 33.5117 30.7519 -17.4616 4.8536 4.7629
# 2 33.5117 148.4449 38.8261 -32.4227 -20.9097 24.2200
# 3 30.7519 38.8261 136.0650 -28.2695 -0.1326 0.7180
# 4 -17.4616 -32.4227 -28.2695 44.4728 5.1518 -1.6486
# 5 4.8536 -20.9097 -0.1326 5.1518 32.1159 -11.8284
# 6 4.7629 24.2200 0.7180 -1.6486 -11.8284 27.3662
#
#
#
# Elastic Compliance Matrix: (Units=1/GPa)
#
#
# Indices 1 2 3 4 5 6 
#
# 1 0.021502 -0.003567 -0.002834 0.004796 -0.007653 -0.003530
# 2 -0.003567 0.010572 -0.001168 0.004832 0.004214 -0.006592
# 3 -0.002834 -0.001168 0.009135 0.003942 -0.000434 0.001337
# 4 0.004796 0.004832 0.003942 0.030715 -0.004435 -0.005281
# 5 -0.007653 0.004214 -0.000434 -0.004435 0.041353 0.015220
# 6 -0.003530 -0.006592 0.001337 -0.005281 0.015220 0.049215
#
#
# Mechanical properties :
#
#
# Convention : Reuss Voigt Hill
#
# Bulk Modulus (GPa) = 38.35820 61.46826 49.91323
# Shear Modulus (GPa) = 26.83551 37.05399 31.94475
#
# Velocity S-wave (km/s) = 3.29290 3.86938 3.59272
# Velocity P-wave (km/s) = 5.47327 6.69327 6.11378
#
# Compressibility (1/GPa) = 0.02607005
#
# Stress axis : x y z
#
# Youngs Moduli (GPa) = 46.50777 94.59111 109.47203
#
# Poissons Ratio (x) = 0.33745 0.31025
# Poissons Ratio (y) = 0.16592 0.12782
# Poissons Ratio (z) = 0.13181 0.11044
#
# Static dielectric constant tensor:
#      x y z
#    x 2.064500 -0.079900 0.000410 
#    y -0.079900 2.006110 0.024530 
#    z 0.000410 0.024530 1.952880 
# 
# From -- ./inp_files/343401.got.cif
#   From: 2010.05.17/outbox.cif.g08.bks.cpg/sg2_172_cif.got.tgz:343401.got - 2010.06.03 11:33:40.
