data_PCOD9054980
_publ_section_title
;
Structure prediction by ZEFSAII (Michael W. Deem and Ramdas Pophale) SiO2 
 PCOD9054980
Probable space group: P -1
;
_chemical_formula_sum "Si O2"
_cell_formula_units_Z 14
_cell_length_a 11.919840
_cell_length_b 9.283260
_cell_length_c 11.076373
_cell_angle_alpha 71.649210
_cell_angle_beta 117.297365
_cell_angle_gamma 148.087400
_cell_volume 568.481093
_symmetry_space_group_name_H-M "P -1"
_symmetry_group_IT_number 2
_symmetry_cell_setting 'triclinic'
loop_
_space_group_symop_operation_xyz
x,y,z
-x,-y,-z
loop_
_atom_site_type_symbol
_atom_site_label
_atom_site_fract_x
_atom_site_fract_y
_atom_site_fract_z
Si Si1 0.711277 0.467369 0.225543
Si Si2 0.390215 0.031418 0.003438
Si Si3 0.007118 0.343587 0.480339
Si Si4 0.939916 0.994951 0.836135
Si Si5 0.455244 0.409659 0.814370
Si Si6 0.930421 0.677312 0.763826
Si Si7 0.426442 0.275592 0.592986
O O1 0.644568 0.575041 0.143879
O O2 0.774980 0.512810 0.384236
O O3 0.510663 0.159717 0.160063
O O4 0.955496 0.731686 0.207559
O O5 0.497710 0.290444 0.926626
O O6 0.116205 0.772752 0.914572
O O7 0.500000 0.000000 0.000000
O O8 0.000000 0.500000 0.500000
O O9 0.026985 0.345869 0.344711
O O10 0.772940 0.022263 0.485883
O O11 0.666064 0.716253 0.784372
O O12 0.976506 0.896857 0.778954
O O13 0.000000 0.000000 0.000000
O O14 0.314616 0.224610 0.675207
O O15 0.650985 0.400567 0.705387
O O16 0.500000 0.500000 0.500000
#
# Coordination Sequence:
#
# PCOD9054980 Si02
#       7
#     2   2   2   2   2   2   2
#     4  12  24  42  73 100 138 181 237 288 355 417
#     4  12  24  43  67  99 141 184 227 287 355 418
#     4  12  26  46  72 103 147 187 231 297 359 420
#     4  11  21  39  69 103 132 175 231 294 337 408
#     4  11  22  41  71  97 132 179 236 288 340 419
#     4  11  24  45  71  99 143 182 237 286 352 419
#     4  11  24  43  73 104 136 180 242 291 347 420
#
# _framework density 24.627030000000001
#
# number of rings (size 3 to 8) (size 9 to 14) (size 15 to 20)
#    0.000    0.571    4.286    4.714    0.000    2.286 
#    0.000    4.286    0.000    0.000    0.000    0.000 
#    0.000    0.000    0.000    0.000    0.000    0.000 
#
# Total GULP energy -77957.261615 kJ/mol
# GULP energy per Si atom -5568.375830 kJ/mol
# Density = 2.457098 g / cm^3
# Si number density = 24.627030 Si / 1000 Ang^3
#
#
#
# Elastic Constant Matrix: (Units=GPa)
#
#
# Indices 1 2 3 4 5 6 
#
# 1 88.3097 32.4156 29.7671 25.9642 3.6698 -14.2572
# 2 32.4156 65.8424 50.1000 22.7856 -5.3866 -14.4977
# 3 29.7671 50.1000 156.4291 51.6102 -11.9077 -0.8527
# 4 25.9642 22.7856 51.6102 39.9126 6.3645 -6.3070
# 5 3.6698 -5.3866 -11.9077 6.3645 45.8797 5.8654
# 6 -14.2572 -14.4977 -0.8527 -6.3070 5.8654 31.2186
#
#
#
# Elastic Compliance Matrix: (Units=1/GPa)
#
#
# Indices 1 2 3 4 5 6 
#
# 1 0.015841 -0.005309 0.001466 -0.008543 -0.000737 0.003221
# 2 -0.005309 0.025181 -0.006566 -0.001170 0.000725 0.008718
# 3 0.001466 -0.006566 0.014707 -0.018321 0.006349 -0.006872
# 4 -0.008543 -0.001170 -0.018321 0.058623 -0.013549 0.009444
# 5 -0.000737 0.000725 0.006349 -0.013549 0.026430 -0.007529
# 6 0.003221 0.008718 -0.006872 0.009444 -0.007529 0.040687
#
#
# Mechanical properties :
#
#
# Convention : Reuss Voigt Hill
#
# Bulk Modulus (GPa) = 28.64368 59.46074 44.05221
# Shear Modulus (GPa) = 23.37282 36.62209 29.99745
#
# Velocity S-wave (km/s) = 3.08404 3.86044 3.49387
# Velocity P-wave (km/s) = 4.93336 6.63834 5.84831
#
# Compressibility (1/GPa) = 0.03491171
#
# Stress axis : x y z
#
# Youngs Moduli (GPa) = 63.12792 39.71228 67.99472
#
# Poissons Ratio (x) = 0.21082 -0.09969
# Poissons Ratio (y) = 0.33513 0.44645
# Poissons Ratio (z) = -0.09255 0.26075
#
# Static dielectric constant tensor:
#      x y z
#    x 2.341130 0.214670 0.017670 
#    y 0.214670 2.084640 -0.045770 
#    z 0.017670 -0.045770 2.120850 
# 
# From -- ./inp_files/417419.got.cif
#   From: 2010.05.17/outbox.cif.g08.bks.cpg/sg2_209_cif.got.tgz:417419.got - 2010.06.03 11:33:40.
