data_PCOD9054819
_publ_section_title
;
Structure prediction by ZEFSAII (Michael W. Deem and Ramdas Pophale) SiO2 
 PCOD9054819
Probable space group: P -1
;
_chemical_formula_sum "Si O2"
_cell_formula_units_Z 16
_cell_length_a 23.039215
_cell_length_b 15.632584
_cell_length_c 13.011789
_cell_angle_alpha 145.636711
_cell_angle_beta 21.839866
_cell_angle_gamma 157.920662
_cell_volume 634.850412
_symmetry_space_group_name_H-M "P -1"
_symmetry_group_IT_number 2
_symmetry_cell_setting 'triclinic'
loop_
_space_group_symop_operation_xyz
x,y,z
-x,-y,-z
loop_
_atom_site_type_symbol
_atom_site_label
_atom_site_fract_x
_atom_site_fract_y
_atom_site_fract_z
Si Si1 0.071728 0.376101 0.525461
Si Si2 0.961686 0.798433 0.058391
Si Si3 0.542311 0.855959 0.312242
Si Si4 0.112168 0.214458 0.110666
Si Si5 0.174847 0.204336 0.334236
Si Si6 0.620590 0.477534 0.496559
Si Si7 0.376642 0.022632 0.373889
Si Si8 0.697441 0.308253 0.950097
O O1 0.262295 0.600322 0.507411
O O2 0.186959 0.394629 0.250334
O O3 0.018960 0.188389 0.494556
O O4 0.869588 0.336832 0.772488
O O5 0.815688 0.678159 0.290088
O O6 0.816770 0.559712 0.999426
O O7 0.990024 0.984723 0.146703
O O8 0.244920 0.969157 0.779210
O O9 0.500000 0.000000 0.500000
O O10 0.667855 0.810122 0.993966
O O11 0.353246 0.344999 0.784876
O O12 0.893712 0.119777 0.309647
O O13 0.327247 0.428975 0.381106
O O14 0.000000 0.000000 0.500000
O O15 0.574066 0.260709 0.351841
O O16 0.354059 0.824344 0.200754
O O17 0.451259 0.131793 0.244058
#
# Coordination Sequence:
#
# PCOD9054819 Si02
#       8
#     2   2   2   2   2   2   2   2
#     4  11  21  38  67  89 125 172 209 256 324 385
#     4  11  22  40  63  97 126 167 215 264 322 383
#     4  12  22  38  61  95 129 165 208 258 323 386
#     4  11  21  39  66  92 120 169 220 262 314 379
#     4  12  23  41  64  97 128 167 218 263 315 395
#     4  11  22  38  64  93 127 161 216 264 315 377
#     4   9  21  40  63  91 123 169 215 263 321 375
#     4   9  20  40  63  89 127 165 211 264 323 376
#
# _framework density 25.202787000000001
#
# number of rings (size 3 to 8) (size 9 to 14) (size 15 to 20)
#    0.000    1.250    5.000    1.500    0.000    2.000 
#    0.000   10.000    0.000    4.500    0.000    0.000 
#    0.000    0.000    0.000    0.000    0.000    0.000 
#
# Total GULP energy -89166.332553 kJ/mol
# GULP energy per Si atom -5572.895785 kJ/mol
# Density = 2.514542 g / cm^3
# Si number density = 25.202787 Si / 1000 Ang^3
#
#
#
# Elastic Constant Matrix: (Units=GPa)
#
#
# Indices 1 2 3 4 5 6 
#
# 1 59.2031 22.9470 16.0969 4.1054 -7.5705 -8.3326
# 2 22.9470 137.2607 13.2224 14.6707 6.4077 19.5681
# 3 16.0969 13.2224 82.9877 2.0550 -3.6980 -21.1385
# 4 4.1054 14.6707 2.0550 51.4836 3.5584 9.2448
# 5 -7.5705 6.4077 -3.6980 3.5584 25.4527 -1.1013
# 6 -8.3326 19.5681 -21.1385 9.2448 -1.1013 44.2920
#
#
#
# Elastic Compliance Matrix: (Units=1/GPa)
#
#
# Indices 1 2 3 4 5 6 
#
# 1 0.020879 -0.004303 -0.001529 -0.001924 0.007586 0.005689
# 2 -0.004303 0.009370 -0.002346 -0.000873 -0.004116 -0.005989
# 3 -0.001529 -0.002346 0.014997 -0.001496 0.002882 0.008290
# 4 -0.001924 -0.000873 -0.001496 0.021075 -0.003740 -0.005182
# 5 0.007586 -0.004116 0.002882 -0.003740 0.043804 0.006491
# 6 0.005689 -0.005989 0.008290 -0.005182 0.006491 0.031493
#
#
# Mechanical properties :
#
#
# Convention : Reuss Voigt Hill
#
# Bulk Modulus (GPa) = 34.61316 42.66490 38.63903
# Shear Modulus (GPa) = 29.83237 39.39134 34.61186
#
# Velocity S-wave (km/s) = 3.44422 3.95774 3.70987
# Velocity P-wave (km/s) = 5.43880 6.15226 5.80650
#
# Compressibility (1/GPa) = 0.02889075
#
# Stress axis : x y z
#
# Youngs Moduli (GPa) = 47.89555 106.72436 66.67793
#
# Poissons Ratio (x) = 0.45921 0.10198
# Poissons Ratio (y) = 0.20608 0.15639
# Poissons Ratio (z) = 0.07326 0.25032
#
# Static dielectric constant tensor:
#      x y z
#    x 2.074800 0.053810 0.081150 
#    y 0.053810 2.128760 0.052850 
#    z 0.081150 0.052850 1.973760 
# 
# From -- ./inp_files/544332.got.cif
#   From: 2010.05.17/outbox.cif.g08.bks.cpg/sg2_273_cif.got.tgz:544332.got - 2010.06.03 11:33:40.
