data_PCOD9054050
_publ_section_title
;
Structure prediction by ZEFSAII (Michael W. Deem and Ramdas Pophale) SiO2 
 PCOD9054050
Probable space group: P -1
;
_chemical_formula_sum "Si O2"
_cell_formula_units_Z 16
_cell_length_a 7.023266
_cell_length_b 24.045342
_cell_length_c 7.501388
_cell_angle_alpha 121.569363
_cell_angle_beta 67.051181
_cell_angle_gamma 134.190304
_cell_volume 773.264045
_symmetry_space_group_name_H-M "P -1"
_symmetry_group_IT_number 2
_symmetry_cell_setting 'triclinic'
loop_
_space_group_symop_operation_xyz
x,y,z
-x,-y,-z
loop_
_atom_site_type_symbol
_atom_site_label
_atom_site_fract_x
_atom_site_fract_y
_atom_site_fract_z
Si Si1 0.334342 0.863771 0.326810
Si Si2 0.391177 0.677734 0.214258
Si Si3 0.039594 0.684780 0.104984
Si Si4 0.613555 0.587937 0.830915
Si Si5 0.311047 0.976398 0.755777
Si Si6 0.711323 0.862487 0.439154
Si Si7 0.836300 0.608196 0.408347
Si Si8 0.153763 0.978697 0.188423
O O1 0.575260 0.937555 0.241336
O O2 0.452005 0.845926 0.418651
O O3 0.143178 0.775134 0.150437
O O4 0.211420 0.904759 0.525760
O O5 0.611268 0.770747 0.368401
O O6 0.283324 0.687792 0.083913
O O7 0.124906 0.629615 0.351917
O O8 0.498944 0.628682 0.041234
O O9 0.878699 0.662598 0.312159
O O10 0.852782 0.612379 0.911325
O O11 0.740613 0.623935 0.649319
O O12 0.383090 0.489160 0.725632
O O13 0.576813 0.997364 0.783475
O O14 0.126781 0.953375 0.951575
O O15 0.924233 0.905455 0.274481
O O16 0.819394 0.937433 0.664555
#
# Coordination Sequence:
#
# PCOD9054050 Si02
#       8
#     2   2   2   2   2   2   2   2
#     4   9  18  34  49  73 110 138 176 232 272 321
#     4   9  21  38  57  86 121 150 189 245 281 341
#     4   9  21  38  57  86 121 150 189 245 281 341
#     4  11  20  40  65  84 115 160 185 232 304 341
#     4   9  18  31  52  75 102 143 181 219 271 327
#     4   9  18  34  49  73 110 138 176 232 272 321
#     4   9  22  40  59  92 117 142 201 240 274 359
#     4   9  18  31  52  75 102 143 181 219 271 327
#
# _framework density 20.691510000000001
#
# number of rings (size 3 to 8) (size 9 to 14) (size 15 to 20)
#    0.750    2.000    0.000    0.750    1.750    2.500 
#    2.250    1.250    0.000    0.000    0.000    0.000 
#    0.000    0.000    0.000    0.000    0.000    0.000 
#
# Total GULP energy -89155.283504 kJ/mol
# GULP energy per Si atom -5572.205219 kJ/mol
# Density = 2.064441 g / cm^3
# Si number density = 20.691510 Si / 1000 Ang^3
#
#
#
# Elastic Constant Matrix: (Units=GPa)
#
#
# Indices 1 2 3 4 5 6 
#
# 1 33.4638 -2.6451 -4.3354 6.4766 -2.4023 3.4898
# 2 -2.6451 68.4495 31.9572 7.1567 1.4150 15.8236
# 3 -4.3354 31.9572 53.1460 -17.1732 -1.3915 11.1073
# 4 6.4766 7.1567 -17.1732 17.6452 -3.4732 4.2459
# 5 -2.4023 1.4150 -1.3915 -3.4732 25.7626 2.2822
# 6 3.4898 15.8236 11.1073 4.2459 2.2822 25.5044
#
#
#
# Elastic Compliance Matrix: (Units=1/GPa)
#
#
# Indices 1 2 3 4 5 6 
#
# 1 0.034967 0.011583 -0.014575 -0.032201 -0.002501 -0.000039
# 2 0.011583 0.052537 -0.063810 -0.094018 -0.018897 0.010952
# 3 -0.014575 -0.063810 0.117318 0.161540 0.033753 -0.039422
# 4 -0.032201 -0.094018 0.161540 0.289335 0.055273 -0.060728
# 5 -0.002501 -0.018897 0.033753 0.055273 0.050343 -0.016339
# 6 -0.000039 0.010952 -0.039422 -0.060728 -0.016339 0.061160
#
#
# Mechanical properties :
#
#
# Convention : Reuss Voigt Hill
#
# Bulk Modulus (GPa) = 14.04125 22.77919 18.41022
# Shear Modulus (GPa) = 6.55305 22.45463 14.50384
#
# Velocity S-wave (km/s) = 1.78154 3.29783 2.65043
# Velocity P-wave (km/s) = 3.32153 5.05309 4.27588
#
# Compressibility (1/GPa) = 0.07121875
#
# Stress axis : x y z
#
# Youngs Moduli (GPa) = 28.59835 19.03423 8.52382
#
# Poissons Ratio (x) = -0.22048 0.12424
# Poissons Ratio (y) = -0.33127 0.54391
# Poissons Ratio (z) = 0.41682 1.21458
#
# Static dielectric constant tensor:
#      x y z
#    x 1.829520 0.012030 -0.015410 
#    y 0.012030 1.725230 0.015420 
#    z -0.015410 0.015420 1.725080 
# 
# From -- ./inp_files/227953.got.cif
#   From: 2010.05.17/outbox.cif.g08.bks.cpg/sg2_114_cif.got.tgz:227953.got - 2010.06.03 11:33:40.
