data_PCOD9054393
_publ_section_title
;
Structure prediction by ZEFSAII (Michael W. Deem and Ramdas Pophale) SiO2 
 PCOD9054393
Probable space group: P -1
;
_chemical_formula_sum "Si O2"
_cell_formula_units_Z 14
_cell_length_a 12.283146
_cell_length_b 7.900642
_cell_length_c 18.996453
_cell_angle_alpha 132.805033
_cell_angle_beta 152.803244
_cell_angle_gamma 63.619239
_cell_volume 543.212069
_symmetry_space_group_name_H-M "P -1"
_symmetry_group_IT_number 2
_symmetry_cell_setting 'triclinic'
loop_
_space_group_symop_operation_xyz
x,y,z
-x,-y,-z
loop_
_atom_site_type_symbol
_atom_site_label
_atom_site_fract_x
_atom_site_fract_y
_atom_site_fract_z
Si Si1 0.792264 0.675297 0.267227
Si Si2 0.567564 0.275235 0.151730
Si Si3 0.211742 0.719056 0.411281
Si Si4 0.301560 0.801863 0.222800
Si Si5 0.036228 0.933258 0.236771
Si Si6 0.821784 0.698079 0.828518
Si Si7 0.639497 0.515709 0.391719
O O1 0.691725 0.514604 0.236296
O O2 0.012061 0.636312 0.338023
O O3 0.500000 0.500000 0.000000
O O4 0.000000 0.000000 0.500000
O O5 0.718558 0.356139 0.336346
O O6 0.279726 0.232440 0.003974
O O7 0.500000 0.000000 0.000000
O O8 0.082684 0.823470 0.305668
O O9 0.232066 0.478215 0.320454
O O10 0.506386 0.970487 0.656191
O O11 0.224872 0.924629 0.280431
O O12 0.479068 0.668824 0.312264
O O13 0.016175 0.630386 0.971709
O O14 0.091833 0.230606 0.358045
O O15 0.553749 0.643848 0.701111
O O16 0.000000 0.000000 0.000000
#
# Coordination Sequence:
#
# PCOD9054393 Si02
#       7
#     2   2   2   2   2   2   2
#     4  12  28  51  75 106 150 202 251 300 359 448
#     4  12  28  46  69 103 144 199 245 298 366 441
#     4  11  23  42  71 104 133 179 242 296 363 428
#     4  11  21  41  74 100 128 178 234 296 365 428
#     4  11  20  43  74 101 132 176 243 301 355 443
#     4  12  25  38  63 105 143 177 223 302 376 427
#     4  11  22  44  70 100 133 179 241 293 366 436
#
# _framework density 25.772625000000001
#
# number of rings (size 3 to 8) (size 9 to 14) (size 15 to 20)
#    0.000    0.571    5.714    3.857    4.000    1.143 
#    2.571    0.000    0.000    0.000    0.000    0.000 
#    0.000    0.000    0.000    0.000    0.000    0.000 
#
# Total GULP energy -78164.929478 kJ/mol
# GULP energy per Si atom -5583.209248 kJ/mol
# Density = 2.571397 g / cm^3
# Si number density = 25.772625 Si / 1000 Ang^3
#
#
#
# Elastic Constant Matrix: (Units=GPa)
#
#
# Indices 1 2 3 4 5 6 
#
# 1 168.8457 20.6589 52.4886 31.6534 17.0046 -12.9810
# 2 20.6589 70.3770 28.6904 19.6853 3.0381 8.6856
# 3 52.4886 28.6904 141.0233 25.6773 21.4249 -5.8484
# 4 31.6534 19.6853 25.6773 65.7898 -1.0122 3.9819
# 5 17.0046 3.0381 21.4249 -1.0122 57.5641 8.8977
# 6 -12.9810 8.6856 -5.8484 3.9819 8.8977 36.5353
#
#
#
# Elastic Compliance Matrix: (Units=1/GPa)
#
#
# Indices 1 2 3 4 5 6 
#
# 1 0.007600 -0.001103 -0.001583 -0.002958 -0.002201 0.003568
# 2 -0.001103 0.017143 -0.002885 -0.003159 0.001193 -0.004876
# 3 -0.001583 -0.002885 0.009277 -0.002207 -0.003281 0.002648
# 4 -0.002958 -0.003159 -0.002207 0.018674 0.002708 -0.003348
# 5 -0.002201 0.001193 -0.003281 0.002708 0.020283 -0.006826
# 6 0.003568 -0.004876 0.002648 -0.003348 -0.006826 0.032249
#
#
# Mechanical properties :
#
#
# Convention : Reuss Voigt Hill
#
# Bulk Modulus (GPa) = 43.71209 64.88021 54.29615
# Shear Modulus (GPa) = 40.32380 50.53838 45.43109
#
# Velocity S-wave (km/s) = 3.95979 4.43305 4.20308
# Velocity P-wave (km/s) = 6.15663 7.17156 6.68339
#
# Compressibility (1/GPa) = 0.02287697
#
# Stress axis : x y z
#
# Youngs Moduli (GPa) = 131.57276 58.33232 107.78885
#
# Poissons Ratio (x) = 0.06436 0.17067
# Poissons Ratio (y) = 0.14517 0.31100
# Poissons Ratio (z) = 0.20832 0.16830
#
# Static dielectric constant tensor:
#      x y z
#    x 6.467820 -0.963800 -4.620050 
#    y -0.963800 2.319690 0.976740 
#    z -4.620050 0.976740 6.822360 
# 
# From -- ./inp_files/594227.got.cif
#   From: 2010.05.17/outbox.cif.g08.bks.cpg/sg2_298_cif.got.tgz:594227.got - 2010.06.03 11:33:40.
