data_PCOD9054173
_publ_section_title
;
Structure prediction by ZEFSAII (Michael W. Deem and Ramdas Pophale) SiO2 
 PCOD9054173
Probable space group: P -1
;
_chemical_formula_sum "Si O2"
_cell_formula_units_Z 16
_cell_length_a 9.698986
_cell_length_b 15.231867
_cell_length_c 8.942674
_cell_angle_alpha 86.708870
_cell_angle_beta 63.235038
_cell_angle_gamma 130.399479
_cell_volume 770.735855
_symmetry_space_group_name_H-M "P -1"
_symmetry_group_IT_number 2
_symmetry_cell_setting 'triclinic'
loop_
_space_group_symop_operation_xyz
x,y,z
-x,-y,-z
loop_
_atom_site_type_symbol
_atom_site_label
_atom_site_fract_x
_atom_site_fract_y
_atom_site_fract_z
Si Si1 0.063278 0.697782 0.572765
Si Si2 0.626990 0.401288 0.742867
Si Si3 0.290485 0.537048 0.816434
Si Si4 0.822675 0.696905 0.958778
Si Si5 0.575081 0.123117 0.885587
Si Si6 0.531224 0.256400 0.511840
Si Si7 0.168107 0.993641 0.873623
Si Si8 0.831519 0.374038 0.883216
O O1 0.227484 0.802261 0.348109
O O2 0.223650 0.694111 0.586953
O O3 0.827276 0.560453 0.621597
O O4 0.959649 0.719394 0.745096
O O5 0.522460 0.319318 0.649891
O O6 0.776305 0.386880 0.745152
O O7 0.406600 0.340624 0.954359
O O8 0.481881 0.683410 0.628891
O O9 0.086290 0.451100 0.798495
O O10 0.288228 0.435456 0.885051
O O11 0.219491 0.566498 0.989318
O O12 0.015672 0.840174 0.935818
O O13 0.353295 0.065696 0.910589
O O14 0.659213 0.217242 0.976775
O O15 0.500000 0.000000 0.000000
O O16 0.324532 0.095453 0.646421
O O17 0.000000 0.000000 0.000000
#
# Coordination Sequence:
#
# PCOD9054173 Si02
#       8
#     2   2   2   2   2   2   2   2
#     4  11  22  39  67  99 120 173 220 263 321 391
#     4  12  21  42  69  92 133 172 218 260 332 389
#     4  11  23  37  64 104 130 158 221 279 319 368
#     4  12  25  40  66 100 136 165 216 282 320 379
#     4  11  24  41  67  94 130 172 223 267 315 391
#     4  11  22  41  70  92 129 179 217 259 324 405
#     4  11  23  45  62  89 130 179 210 256 333 396
#     4  11  20  41  65  92 131 170 207 266 326 386
#
# _framework density 20.759381999999999
#
# number of rings (size 3 to 8) (size 9 to 14) (size 15 to 20)
#    0.000    0.750    6.250    3.000    0.000    3.500 
#    2.250    0.000    0.000    3.000    0.000    0.000 
#    0.000    0.000    0.000    0.000    0.000    0.000 
#
# Total GULP energy -89168.989797 kJ/mol
# GULP energy per Si atom -5573.061862 kJ/mol
# Density = 2.071213 g / cm^3
# Si number density = 20.759382 Si / 1000 Ang^3
#
#
#
# Elastic Constant Matrix: (Units=GPa)
#
#
# Indices 1 2 3 4 5 6 
#
# 1 39.8295 13.8965 27.3599 -7.1108 -14.3101 -4.5937
# 2 13.8965 87.1982 23.7097 -17.1414 -6.6774 -17.0061
# 3 27.3599 23.7097 81.2506 -9.5114 -10.0238 -6.8606
# 4 -7.1108 -17.1414 -9.5114 35.8737 -6.7586 -3.1578
# 5 -14.3101 -6.6774 -10.0238 -6.7586 39.1228 -5.5369
# 6 -4.5937 -17.0061 -6.8606 -3.1578 -5.5369 28.4413
#
#
#
# Elastic Compliance Matrix: (Units=1/GPa)
#
#
# Indices 1 2 3 4 5 6 
#
# 1 0.039604 0.001030 -0.009994 0.009252 0.014907 0.008531
# 2 0.001030 0.016584 -0.002329 0.009665 0.005943 0.011751
# 3 -0.009994 -0.002329 0.016740 0.001595 0.000701 0.001344
# 4 0.009252 0.009665 0.001595 0.038725 0.014216 0.014725
# 5 0.014907 0.005943 0.000701 0.014216 0.036767 0.014867
# 6 0.008531 0.011751 0.001344 0.014725 0.014867 0.048418
#
#
# Mechanical properties :
#
#
# Convention : Reuss Voigt Hill
#
# Bulk Modulus (GPa) = 19.86468 37.57897 28.72183
# Shear Modulus (GPa) = 21.16799 30.24170 25.70485
#
# Velocity S-wave (km/s) = 3.19671 3.82091 3.52266
# Velocity P-wave (km/s) = 4.81820 6.13248 5.51463
#
# Compressibility (1/GPa) = 0.05034061
#
# Stress axis : x y z
#
# Youngs Moduli (GPa) = 25.24966 60.29859 59.73892
#
# Poissons Ratio (x) = -0.06210 0.59705
# Poissons Ratio (y) = -0.02601 0.13916
# Poissons Ratio (z) = 0.25235 0.14046
#
# Static dielectric constant tensor:
#      x y z
#    x 2.288110 0.424240 0.024970 
#    y 0.424240 2.185950 -0.033080 
#    z 0.024970 -0.033080 1.824770 
# 
# From -- ./inp_files/206874.got.cif
#   From: 2010.05.17/outbox.cif.g08.bks.cpg/sg2_104_cif.got.tgz:206874.got - 2010.06.03 11:33:40.
