data_PCOD9054565
_publ_section_title
;
Structure prediction by ZEFSAII (Michael W. Deem and Ramdas Pophale) SiO2 
 PCOD9054565
Probable space group: P -1
;
_chemical_formula_sum "Si O2"
_cell_formula_units_Z 16
_cell_length_a 14.200134
_cell_length_b 22.966158
_cell_length_c 23.406069
_cell_angle_alpha 12.679493
_cell_angle_beta 27.133253
_cell_angle_gamma 27.227894
_cell_volume 747.200863
_symmetry_space_group_name_H-M "P -1"
_symmetry_group_IT_number 2
_symmetry_cell_setting 'triclinic'
loop_
_space_group_symop_operation_xyz
x,y,z
-x,-y,-z
loop_
_atom_site_type_symbol
_atom_site_label
_atom_site_fract_x
_atom_site_fract_y
_atom_site_fract_z
Si Si1 0.527703 0.001236 0.361742
Si Si2 0.646921 0.515841 0.850448
Si Si3 0.985872 0.197058 0.243135
Si Si4 0.380455 0.936285 0.068760
Si Si5 0.100441 0.512112 0.659938
Si Si6 0.437332 0.190666 0.028139
Si Si7 0.483181 0.735614 0.523478
Si Si8 0.053376 0.340893 0.272275
O O1 0.547835 0.772711 0.618512
O O2 0.577094 0.843400 0.426358
O O3 0.288476 0.176105 0.318678
O O4 0.661090 0.228923 0.085303
O O5 0.874310 0.552435 0.713396
O O6 0.500000 0.500000 0.000000
O O7 0.770340 0.203101 0.387366
O O8 0.185259 0.258141 0.110696
O O9 0.054633 0.890045 0.475632
O O10 0.935660 0.417144 0.008775
O O11 0.230764 0.732099 0.360118
O O12 0.532389 0.816678 0.049066
O O13 0.500000 0.000000 0.000000
O O14 0.236446 0.216319 0.857513
O O15 0.060684 0.540750 0.721891
O O16 0.526140 0.906884 0.282092
O O17 0.541401 0.418901 0.782148
#
# Coordination Sequence:
#
# PCOD9054565 Si02
#       8
#     2   2   2   2   2   2   2   2
#     4  11  23  40  62  99 135 165 203 264 346 397
#     4  12  24  40  69  99 137 166 212 271 341 392
#     4  11  22  37  61  97 130 167 215 266 328 387
#     4  12  27  46  67  95 132 178 225 265 316 379
#     4  12  25  41  67  96 132 176 219 264 328 387
#     4  12  23  42  64  89 128 173 227 271 313 383
#     4  11  23  39  66  92 129 171 214 269 335 388
#     4  11  21  36  61  94 137 166 204 260 329 405
#
# _framework density 21.413252
#
# number of rings (size 3 to 8) (size 9 to 14) (size 15 to 20)
#    0.000    0.500    1.250    9.750    1.750    0.000 
#    0.000    0.000    0.000   15.000    0.000    0.000 
#    0.000    0.000    0.000    0.000    0.000    0.000 
#
# Total GULP energy -89589.175946 kJ/mol
# GULP energy per Si atom -5599.323497 kJ/mol
# Density = 2.136451 g / cm^3
# Si number density = 21.413252 Si / 1000 Ang^3
#
#
#
# Elastic Constant Matrix: (Units=GPa)
#
#
# Indices 1 2 3 4 5 6 
#
# 1 101.2466 20.8505 61.2547 12.8160 -16.7511 7.3528
# 2 20.8505 45.9202 30.0440 7.4210 -2.0090 8.7347
# 3 61.2547 30.0440 179.9540 10.3286 -1.4102 2.5532
# 4 12.8160 7.4210 10.3286 32.6812 5.9389 -1.3521
# 5 -16.7511 -2.0090 -1.4102 5.9389 64.5407 -3.4434
# 6 7.3528 8.7347 2.5532 -1.3521 -3.4434 35.4952
#
#
#
# Elastic Compliance Matrix: (Units=1/GPa)
#
#
# Indices 1 2 3 4 5 6 
#
# 1 0.014214 -0.002532 -0.004103 -0.004475 0.003835 -0.001825
# 2 -0.002532 0.026943 -0.003299 -0.004366 0.000190 -0.006016
# 3 -0.004103 -0.003299 0.007470 0.000216 -0.000969 0.001039
# 4 -0.004475 -0.004366 0.000216 0.034174 -0.004284 0.002872
# 5 0.003835 0.000190 -0.000969 -0.004284 0.016906 0.000705
# 6 -0.001825 -0.006016 0.001039 0.002872 0.000705 0.030134
#
#
# Mechanical properties :
#
#
# Convention : Reuss Voigt Hill
#
# Bulk Modulus (GPa) = 34.77088 61.26879 48.01984
# Shear Modulus (GPa) = 31.38838 40.87487 36.13162
#
# Velocity S-wave (km/s) = 3.83278 4.37379 4.11219
# Velocity P-wave (km/s) = 5.98834 7.36080 6.70975
#
# Compressibility (1/GPa) = 0.02875969
#
# Stress axis : x y z
#
# Youngs Moduli (GPa) = 70.35337 37.11518 133.87604
#
# Poissons Ratio (x) = 0.09396 0.54928
# Poissons Ratio (y) = 0.17810 0.44167
# Poissons Ratio (z) = 0.28865 0.12245
#
# Static dielectric constant tensor:
#      x y z
#    x 1.781740 0.013200 -0.023710 
#    y 0.013200 1.759710 -0.017100 
#    z -0.023710 -0.017100 1.755610 
# 
# From -- ./inp_files/612378.got.cif
#   From: 2010.05.17/outbox.cif.g08.bks.cpg/sg2_307_cif.got.tgz:612378.got - 2010.06.03 11:33:40.
