data_PCOD9054142
_publ_section_title
;
Structure prediction by ZEFSAII (Michael W. Deem and Ramdas Pophale) SiO2 
 PCOD9054142
Probable space group: P -1
;
_chemical_formula_sum "Si O2"
_cell_formula_units_Z 16
_cell_length_a 10.922828
_cell_length_b 12.171063
_cell_length_c 13.681095
_cell_angle_alpha 62.071558
_cell_angle_beta 32.831268
_cell_angle_gamma 82.687347
_cell_volume 724.241001
_symmetry_space_group_name_H-M "P -1"
_symmetry_group_IT_number 2
_symmetry_cell_setting 'triclinic'
loop_
_space_group_symop_operation_xyz
x,y,z
-x,-y,-z
loop_
_atom_site_type_symbol
_atom_site_label
_atom_site_fract_x
_atom_site_fract_y
_atom_site_fract_z
Si Si1 0.199174 0.044837 0.616661
Si Si2 0.252485 0.779749 0.749833
Si Si3 0.447267 0.817290 0.384896
Si Si4 0.254104 0.118319 0.174195
Si Si5 0.040064 0.803035 0.520746
Si Si6 0.123131 0.846220 0.091499
Si Si7 0.751955 0.660845 0.235913
Si Si8 0.853490 0.323595 0.671691
O O1 0.515296 0.182170 0.342587
O O2 0.046031 0.102020 0.757066
O O3 0.217518 0.919154 0.712376
O O4 0.014108 0.961474 0.681017
O O5 0.360647 0.772477 0.574234
O O6 0.945683 0.648600 0.034591
O O7 0.184944 0.756004 0.519099
O O8 0.628349 0.757731 0.251395
O O9 0.619573 0.997599 0.185894
O O10 0.203368 0.201136 0.260019
O O11 0.248740 0.977252 0.278688
O O12 0.539499 0.232565 0.883771
O O13 0.981770 0.714318 0.496998
O O14 0.944600 0.743940 0.164637
O O15 0.171644 0.749612 0.175454
O O16 0.500000 0.500000 0.500000
O O17 0.000000 0.500000 0.500000
#
# Coordination Sequence:
#
# PCOD9054142 Si02
#       8
#     2   2   2   2   2   2   2   2
#     4  11  20  40  72 102 132 174 234 301 328 395
#     4  11  24  41  71 106 134 174 231 285 346 399
#     4  12  23  45  73 103 134 179 239 291 331 407
#     4  11  23  43  71 103 132 177 240 291 339 400
#     4  11  24  41  73 102 131 180 241 291 334 403
#     4  12  23  46  71 101 136 185 238 283 342 407
#     4  12  29  45  68 103 146 183 219 282 356 420
#     4  12  28  46  68 102 149 187 224 284 356 421
#
# _framework density 22.092093999999999
#
# number of rings (size 3 to 8) (size 9 to 14) (size 15 to 20)
#    0.000    0.500    6.250    3.000    1.750    1.000 
#    0.000    0.000    0.000    0.000    0.000    0.000 
#    0.000    0.000    0.000    0.000    0.000    0.000 
#
# Total GULP energy -89451.206879 kJ/mol
# GULP energy per Si atom -5590.700430 kJ/mol
# Density = 2.204181 g / cm^3
# Si number density = 22.092094 Si / 1000 Ang^3
#
#
#
# Elastic Constant Matrix: (Units=GPa)
#
#
# Indices 1 2 3 4 5 6 
#
# 1 90.7944 8.6232 5.7379 -2.4374 -2.6121 -8.9009
# 2 8.6232 66.5082 14.3670 17.9009 8.9758 1.3007
# 3 5.7379 14.3670 102.0608 11.3543 2.1213 -8.3255
# 4 -2.4374 17.9009 11.3543 29.6913 0.7227 7.5486
# 5 -2.6121 8.9758 2.1213 0.7227 19.2531 8.7172
# 6 -8.9009 1.3007 -8.3255 7.5486 8.7172 20.2104
#
#
#
# Elastic Compliance Matrix: (Units=1/GPa)
#
#
# Indices 1 2 3 4 5 6 
#
# 1 0.011698 -0.001869 -0.000113 0.000912 0.000279 0.004764
# 2 -0.001869 0.020917 -0.000185 -0.014671 -0.013543 0.009076
# 3 -0.000113 -0.000185 0.011423 -0.006512 -0.005167 0.009329
# 4 0.000912 -0.014671 -0.006512 0.051968 0.018794 -0.028853
# 5 0.000279 -0.013543 -0.005167 0.018794 0.076856 -0.041303
# 6 0.004764 0.009076 0.009329 -0.028853 -0.041303 0.083428
#
#
# Mechanical properties :
#
#
# Convention : Reuss Voigt Hill
#
# Bulk Modulus (GPa) = 25.18644 35.20219 30.19431
# Shear Modulus (GPa) = 18.25748 29.20666 23.73207
#
# Velocity S-wave (km/s) = 2.87788 3.63993 3.28111
# Velocity P-wave (km/s) = 4.74008 5.79951 5.29635
#
# Compressibility (1/GPa) = 0.03970391
#
# Stress axis : x y z
#
# Youngs Moduli (GPa) = 85.48378 47.80778 87.53996
#
# Poissons Ratio (x) = 0.08934 0.00991
# Poissons Ratio (y) = 0.15974 0.01623
# Poissons Ratio (z) = 0.00968 0.00886
#
# Static dielectric constant tensor:
#      x y z
#    x 1.855530 0.008900 0.007780 
#    y 0.008900 1.793640 0.022210 
#    z 0.007780 0.022210 1.862520 
# 
# From -- ./inp_files/519569.got.cif
#   From: 2010.05.17/outbox.cif.g08.bks.cpg/sg2_260_cif.got.tgz:519569.got - 2010.06.03 11:33:40.
