data_PCOD9054034
_publ_section_title
;
Structure prediction by ZEFSAII (Michael W. Deem and Ramdas Pophale) SiO2 
 PCOD9054034
Probable space group: P -1
;
_chemical_formula_sum "Si O2"
_cell_formula_units_Z 14
_cell_length_a 16.262957
_cell_length_b 8.367773
_cell_length_c 7.630723
_cell_angle_alpha 125.641290
_cell_angle_beta 86.175012
_cell_angle_gamma 119.640860
_cell_volume 696.486808
_symmetry_space_group_name_H-M "P -1"
_symmetry_group_IT_number 2
_symmetry_cell_setting 'triclinic'
loop_
_space_group_symop_operation_xyz
x,y,z
-x,-y,-z
loop_
_atom_site_type_symbol
_atom_site_label
_atom_site_fract_x
_atom_site_fract_y
_atom_site_fract_z
Si Si1 0.448211 0.739537 0.764107
Si Si2 0.273843 0.276775 0.519345
Si Si3 0.412131 0.422851 0.280049
Si Si4 0.082466 0.240186 0.039829
Si Si5 0.250591 0.162799 0.847251
Si Si6 0.103336 0.652591 0.479131
Si Si7 0.945727 0.108664 0.670901
O O1 0.330117 0.562642 0.706218
O O2 0.453548 0.684870 0.521454
O O3 0.502270 0.624535 0.773358
O O4 0.500000 0.000000 0.000000
O O5 0.336728 0.258689 0.344450
O O6 0.280439 0.197075 0.661290
O O7 0.158586 0.113923 0.382395
O O8 0.345350 0.337365 0.063690
O O9 0.130623 0.469978 0.301386
O O10 0.166597 0.216059 0.927689
O O11 0.019514 0.267461 0.916297
O O12 0.000000 0.000000 0.000000
O O13 0.191875 0.881414 0.715227
O O14 0.079982 0.759461 0.382434
O O15 0.000000 0.500000 0.500000
O O16 0.000000 0.000000 0.500000
#
# Coordination Sequence:
#
# PCOD9054034 Si02
#       7
#     2   2   2   2   2   2   2
#     4   9  20  43  63  91 118 152 206 253 316 372
#     4   9  20  39  62  87 119 158 200 251 302 360
#     4   9  21  41  64  85 118 159 194 257 317 354
#     4  12  22  39  59  85 131 167 208 258 303 367
#     4  11  22  41  59  90 123 158 214 245 315 363
#     4  11  23  38  57  88 122 169 217 249 303 370
#     4  11  20  40  60  89 126 168 204 254 304 365
#
# _framework density 20.100883
#
# number of rings (size 3 to 8) (size 9 to 14) (size 15 to 20)
#    0.857    0.857    4.286    1.286    0.000    1.714 
#    7.714    0.714    0.000    0.000    0.000    0.000 
#    0.000    0.000    0.000    0.000    0.000    0.000 
#
# Total GULP energy -77963.045398 kJ/mol
# GULP energy per Si atom -5568.788957 kJ/mol
# Density = 2.005513 g / cm^3
# Si number density = 20.100883 Si / 1000 Ang^3
#
#
#
# Elastic Constant Matrix: (Units=GPa)
#
#
# Indices 1 2 3 4 5 6 
#
# 1 52.1110 -2.2830 10.4959 3.4020 3.6027 4.5621
# 2 -2.2830 35.1580 1.8765 8.6791 -12.4937 0.3299
# 3 10.4959 1.8765 116.0982 25.7458 8.8350 -12.2385
# 4 3.4020 8.6791 25.7458 42.6760 -3.9775 3.1014
# 5 3.6027 -12.4937 8.8350 -3.9775 37.6461 -6.0663
# 6 4.5621 0.3299 -12.2385 3.1014 -6.0663 22.9168
#
#
#
# Elastic Compliance Matrix: (Units=1/GPa)
#
#
# Indices 1 2 3 4 5 6 
#
# 1 0.020346 0.000795 -0.002260 -0.000195 -0.002108 -0.005800
# 2 0.000795 0.033914 0.000301 -0.006358 0.010965 0.003277
# 3 -0.002260 0.000301 0.011347 -0.007420 -0.002006 0.006978
# 4 -0.000195 -0.006358 -0.007420 0.029909 0.001609 -0.007454
# 5 -0.002108 0.010965 -0.002006 0.001609 0.032255 0.007511
# 6 -0.005800 0.003277 0.006978 -0.007454 0.007511 0.051467
#
#
# Mechanical properties :
#
#
# Convention : Reuss Voigt Hill
#
# Bulk Modulus (GPa) = 15.80292 24.83843 20.32067
# Shear Modulus (GPa) = 24.67204 33.53297 29.10250
#
# Velocity S-wave (km/s) = 3.50724 4.08883 3.80915
# Velocity P-wave (km/s) = 4.92746 5.88856 5.42932
#
# Compressibility (1/GPa) = 0.06327946
#
# Stress axis : x y z
#
# Youngs Moduli (GPa) = 49.14941 29.48648 88.13138
#
# Poissons Ratio (x) = -0.02345 0.19917
# Poissons Ratio (y) = -0.03909 -0.02653
# Poissons Ratio (z) = 0.11108 -0.00888
#
# Static dielectric constant tensor:
#      x y z
#    x 1.923620 0.006570 -0.109000 
#    y 0.006570 1.738120 -0.002320 
#    z -0.109000 -0.002320 1.854770 
# 
# From -- ./inp_files/296800.got.cif
#   From: 2010.05.17/outbox.cif.g08.bks.cpg/sg2_149_cif.got.tgz:296800.got - 2010.06.03 11:33:40.
