data_PCOD9054229
_publ_section_title
;
Structure prediction by ZEFSAII (Michael W. Deem and Ramdas Pophale) SiO2 
 PCOD9054229
Probable space group: P -1
;
_chemical_formula_sum "Si O2"
_cell_formula_units_Z 14
_cell_length_a 8.341742
_cell_length_b 10.925479
_cell_length_c 8.086279
_cell_angle_alpha 128.797347
_cell_angle_beta 91.619257
_cell_angle_gamma 102.265987
_cell_volume 548.508923
_symmetry_space_group_name_H-M "P -1"
_symmetry_group_IT_number 2
_symmetry_cell_setting 'triclinic'
loop_
_space_group_symop_operation_xyz
x,y,z
-x,-y,-z
loop_
_atom_site_type_symbol
_atom_site_label
_atom_site_fract_x
_atom_site_fract_y
_atom_site_fract_z
Si Si1 0.169574 0.484844 0.927488
Si Si2 0.226414 0.281900 0.202231
Si Si3 0.892056 0.840503 0.541622
Si Si4 0.417820 0.064943 0.396342
Si Si5 0.738255 0.053849 0.213030
Si Si6 0.557487 0.440166 0.773841
Si Si7 0.904040 0.356450 0.248707
O O1 0.155466 0.295259 0.722428
O O2 0.203315 0.580433 0.835317
O O3 0.278274 0.584393 0.163812
O O4 0.000000 0.500000 0.000000
O O5 0.171984 0.258498 0.372376
O O6 0.382194 0.427709 0.258381
O O7 0.057610 0.301335 0.128914
O O8 0.256805 0.113047 0.011895
O O9 0.786071 0.975261 0.644641
O O10 0.096639 0.907605 0.624416
O O11 0.545142 0.029890 0.236835
O O12 0.455120 0.262287 0.564032
O O13 0.500000 0.000000 0.500000
O O14 0.788573 0.207385 0.221863
O O15 0.500000 0.500000 0.000000
O O16 0.000000 0.500000 0.500000
#
# Coordination Sequence:
#
# PCOD9054229 Si02
#       7
#     2   2   2   2   2   2   2
#     4  12  23  40  72 104 137 186 235 288 361 417
#     4  11  24  45  73 102 147 186 240 296 352 430
#     4  11  25  47  73 104 139 194 238 287 368 419
#     4  12  28  47  71 106 148 182 240 300 356 427
#     4  11  25  45  73 105 144 188 237 300 349 422
#     4  12  25  44  67 103 143 184 235 295 355 419
#     4  11  20  41  71 103 138 184 243 287 346 429
#
# _framework density 25.52374
#
# number of rings (size 3 to 8) (size 9 to 14) (size 15 to 20)
#    0.000    0.571    5.714    4.286    0.000    5.143 
#    0.000    0.000    0.000    0.000    0.000    0.000 
#    0.000    0.000    0.000    0.000    0.000    0.000 
#
# Total GULP energy -78067.043754 kJ/mol
# GULP energy per Si atom -5576.217411 kJ/mol
# Density = 2.546565 g / cm^3
# Si number density = 25.523740 Si / 1000 Ang^3
#
#
#
# Elastic Constant Matrix: (Units=GPa)
#
#
# Indices 1 2 3 4 5 6 
#
# 1 102.0461 -16.5088 7.7179 -1.4764 -15.3882 -22.5887
# 2 -16.5088 108.0855 5.6945 -7.9805 3.8607 -1.4604
# 3 7.7179 5.6945 93.9744 12.6347 -17.0448 6.8694
# 4 -1.4764 -7.9805 12.6347 32.2562 -3.2569 -5.1957
# 5 -15.3882 3.8607 -17.0448 -3.2569 54.7277 -2.3234
# 6 -22.5887 -1.4604 6.8694 -5.1957 -2.3234 34.1918
#
#
#
# Elastic Compliance Matrix: (Units=1/GPa)
#
#
# Indices 1 2 3 4 5 6 
#
# 1 0.013134 0.002394 -0.001820 0.003878 0.003612 0.009980
# 2 0.002394 0.010011 -0.001531 0.003629 -0.000173 0.002857
# 3 -0.001820 -0.001531 0.012525 -0.005788 0.002963 -0.004462
# 4 0.003878 0.003629 -0.005788 0.036028 0.001578 0.009462
# 5 0.003612 -0.000173 0.002963 0.001578 0.020462 0.003414
# 6 0.009980 0.002857 -0.004462 0.009462 0.003414 0.038528
#
#
# Mechanical properties :
#
#
# Convention : Reuss Voigt Hill
#
# Bulk Modulus (GPa) = 29.62334 33.10146 31.36240
# Shear Modulus (GPa) = 34.75741 44.71528 39.73635
#
# Velocity S-wave (km/s) = 3.69422 4.19012 3.94996
# Velocity P-wave (km/s) = 5.46147 6.03378 5.75475
#
# Compressibility (1/GPa) = 0.03375717
#
# Stress axis : x y z
#
# Youngs Moduli (GPa) = 76.13628 99.89003 79.83865
#
# Poissons Ratio (x) = -0.23916 0.14527
# Poissons Ratio (y) = -0.18228 0.12226
# Poissons Ratio (z) = 0.13854 0.15296
#
# Static dielectric constant tensor:
#      x y z
#    x 1.952470 0.113150 -0.085150 
#    y 0.113150 2.040640 -0.061320 
#    z -0.085150 -0.061320 2.030030 
# 
# From -- ./inp_files/183151.got.cif
#   From: 2010.05.17/outbox.cif.g08.bks.cpg/sg2_92_cif.got.tgz:183151.got - 2010.06.03 11:33:40.
