data_PCOD9054786
_publ_section_title
;
Structure prediction by ZEFSAII (Michael W. Deem and Ramdas Pophale) SiO2 
 PCOD9054786
Probable space group: P -1
;
_chemical_formula_sum "Si O2"
_cell_formula_units_Z 16
_cell_length_a 6.932166
_cell_length_b 7.325263
_cell_length_c 18.840270
_cell_angle_alpha 77.639865
_cell_angle_beta 48.912233
_cell_angle_gamma 87.379338
_cell_volume 698.477639
_symmetry_space_group_name_H-M "P -1"
_symmetry_group_IT_number 2
_symmetry_cell_setting 'triclinic'
loop_
_space_group_symop_operation_xyz
x,y,z
-x,-y,-z
loop_
_atom_site_type_symbol
_atom_site_label
_atom_site_fract_x
_atom_site_fract_y
_atom_site_fract_z
Si Si1 0.079247 0.370394 0.894679
Si Si2 0.748951 0.574936 0.587339
Si Si3 0.370781 0.695833 0.881761
Si Si4 0.396724 0.079800 0.764109
Si Si5 0.580423 0.200310 0.427265
Si Si6 0.150975 0.655718 0.293589
Si Si7 0.084755 0.388246 0.209499
Si Si8 0.412923 0.280295 0.603710
O O1 0.159962 0.712919 0.992213
O O2 0.995291 0.537417 0.852630
O O3 0.187539 0.206638 0.836594
O O4 0.293481 0.488111 0.883442
O O5 0.667226 0.768781 0.564503
O O6 0.783185 0.530152 0.664292
O O7 0.501783 0.444009 0.625196
O O8 0.000000 0.500000 0.500000
O O9 0.658113 0.710339 0.842693
O O10 0.354849 0.864235 0.815914
O O11 0.657294 0.178483 0.731255
O O12 0.411519 0.104959 0.672838
O O13 0.603222 0.312931 0.488051
O O14 0.845632 0.259555 0.316187
O O15 0.500000 0.000000 0.500000
O O16 0.154897 0.586219 0.218418
O O17 0.865169 0.713127 0.363553
#
# Coordination Sequence:
#
# PCOD9054786 Si02
#       8
#     2   2   2   2   2   2   2   2
#     4  11  24  50  71 104 136 185 225 289 356 405
#     4  11  21  38  65  85 122 182 230 266 324 396
#     4  11  27  44  75 103 141 174 236 290 343 414
#     4  11  24  43  74 103 137 182 229 282 346 413
#     4  12  27  40  64 101 141 179 226 284 337 401
#     4  11  21  40  70  94 132 183 232 269 340 411
#     4  12  24  46  69  97 142 185 225 285 350 407
#     4  11  23  43  64  98 135 181 227 275 334 409
#
# _framework density 22.906960999999999
#
# number of rings (size 3 to 8) (size 9 to 14) (size 15 to 20)
#    0.000    0.750    5.000    2.625    3.500    0.000 
#    0.000    2.500    0.000    0.000    0.000    0.000 
#    0.000    0.000    0.000    0.000    0.000    0.000 
#
# Total GULP energy -89316.609112 kJ/mol
# GULP energy per Si atom -5582.288070 kJ/mol
# Density = 2.285482 g / cm^3
# Si number density = 22.906961 Si / 1000 Ang^3
#
#
#
# Elastic Constant Matrix: (Units=GPa)
#
#
# Indices 1 2 3 4 5 6 
#
# 1 115.8358 13.4220 37.2150 -6.7312 -15.0190 -21.9163
# 2 13.4220 64.7901 12.2937 -17.1016 -18.9643 -17.4611
# 3 37.2150 12.2937 119.6000 -13.4071 -16.1453 -29.7302
# 4 -6.7312 -17.1016 -13.4071 31.6274 -6.1536 4.5962
# 5 -15.0190 -18.9643 -16.1453 -6.1536 30.7064 6.9356
# 6 -21.9163 -17.4611 -29.7302 4.5962 6.9356 34.9374
#
#
#
# Elastic Compliance Matrix: (Units=1/GPa)
#
#
# Indices 1 2 3 4 5 6 
#
# 1 0.010604 0.001595 -0.001221 0.002831 0.004955 0.005054
# 2 0.001595 0.030235 0.005247 0.021606 0.023594 0.013050
# 3 -0.001221 0.005247 0.012773 0.008262 0.008780 0.009896
# 4 0.002831 0.021606 0.008262 0.051758 0.027802 0.007277
# 5 0.004955 0.023594 0.008780 0.027802 0.058130 0.007175
# 6 0.005054 0.013050 0.009896 0.007277 0.007175 0.044354
#
#
# Mechanical properties :
#
#
# Convention : Reuss Voigt Hill
#
# Bulk Modulus (GPa) = 15.41934 47.34301 31.38118
# Shear Modulus (GPa) = 22.91168 35.27392 29.09280
#
# Velocity S-wave (km/s) = 3.16603 3.92838 3.56763
# Velocity P-wave (km/s) = 4.48452 6.42563 5.54074
#
# Compressibility (1/GPa) = 0.06485362
#
# Stress axis : x y z
#
# Youngs Moduli (GPa) = 94.30840 33.07447 78.28927
#
# Poissons Ratio (x) = -0.05275 0.09557
# Poissons Ratio (y) = -0.15040 -0.41079
# Poissons Ratio (z) = 0.11513 -0.17355
#
# Static dielectric constant tensor:
#      x y z
#    x 1.870190 0.043210 0.015480 
#    y 0.043210 2.139260 0.030070 
#    z 0.015480 0.030070 1.897260 
# 
# From -- ./inp_files/582310.got.cif
#   From: 2010.05.17/outbox.cif.g08.bks.cpg/sg2_292_cif.got.tgz:582310.got - 2010.06.03 11:33:40.
