data_PCOD9054468
_publ_section_title
;
Structure prediction by ZEFSAII (Michael W. Deem and Ramdas Pophale) SiO2 
 PCOD9054468
Probable space group: P -1
;
_chemical_formula_sum "Si O2"
_cell_formula_units_Z 12
_cell_length_a 8.146309
_cell_length_b 18.156240
_cell_length_c 7.604220
_cell_angle_alpha 43.288155
_cell_angle_beta 126.563958
_cell_angle_gamma 134.348426
_cell_volume 542.743186
_symmetry_space_group_name_H-M "P -1"
_symmetry_group_IT_number 2
_symmetry_cell_setting 'triclinic'
loop_
_space_group_symop_operation_xyz
x,y,z
-x,-y,-z
loop_
_atom_site_type_symbol
_atom_site_label
_atom_site_fract_x
_atom_site_fract_y
_atom_site_fract_z
Si Si1 0.838277 0.784512 0.130072
Si Si2 0.124282 0.706175 0.631840
Si Si3 0.802084 0.557482 0.380408
Si Si4 0.168124 0.656716 0.141927
Si Si5 0.262262 0.909784 0.907511
Si Si6 0.395170 0.076360 0.396697
O O1 0.961023 0.772014 0.406247
O O2 0.688188 0.643982 0.203544
O O3 0.048778 0.850594 0.009374
O O4 0.712764 0.865541 0.907468
O O5 0.010174 0.610206 0.568403
O O6 0.386377 0.806452 0.581135
O O7 0.123954 0.652747 0.913711
O O8 0.926561 0.591243 0.212838
O O9 0.686366 0.413058 0.590202
O O10 0.283238 0.797021 0.031753
O O11 0.229022 0.987492 0.595351
O O12 0.500000 0.000000 0.000000
O O13 0.500000 0.000000 0.500000
#
# Coordination Sequence:
#
# PCOD9054468 Si02
#       6
#     2   2   2   2   2   2
#     4   9  22  38  58  87 118 157 200 245 293 350
#     4  10  20  37  61  86 118 155 197 246 297 346
#     4   8  19  37  60  86 115 153 206 240 297 352
#     4  10  17  35  65  84 114 162 192 245 303 346
#     4  11  20  39  59  88 121 160 195 244 300 359
#     4  12  22  37  58  86 124 158 197 245 297 354
#
# _framework density 22.109905000000001
#
# number of rings (size 3 to 8) (size 9 to 14) (size 15 to 20)
#    1.000    1.000    3.333    1.000    0.000    0.667 
#    0.000    0.833    0.000    8.000    0.000    0.000 
#    0.000    0.000    0.000    0.000    0.000    0.000 
#
# Total GULP energy -66890.311459 kJ/mol
# GULP energy per Si atom -5574.192622 kJ/mol
# Density = 2.205958 g / cm^3
# Si number density = 22.109905 Si / 1000 Ang^3
#
#
#
# Elastic Constant Matrix: (Units=GPa)
#
#
# Indices 1 2 3 4 5 6 
#
# 1 62.9055 0.3515 31.7836 -3.1488 -2.4167 -12.1391
# 2 0.3515 43.1381 3.6441 -15.4806 -2.8068 -3.9634
# 3 31.7836 3.6441 160.5473 -25.5130 -0.8396 1.4814
# 4 -3.1488 -15.4806 -25.5130 24.9179 -9.3948 1.3660
# 5 -2.4167 -2.8068 -0.8396 -9.3948 36.5515 8.6056
# 6 -12.1391 -3.9634 1.4814 1.3660 8.6056 13.0599
#
#
#
# Elastic Compliance Matrix: (Units=1/GPa)
#
#
# Indices 1 2 3 4 5 6 
#
# 1 0.023895 -0.000400 -0.006296 -0.008014 -0.007364 0.028494
# 2 -0.000400 0.033844 0.003952 0.028858 0.010139 -0.000249
# 3 -0.006296 0.003952 0.009913 0.015000 0.006747 -0.011792
# 4 -0.008014 0.028858 0.015000 0.085771 0.031107 -0.029861
# 5 -0.007364 0.010139 0.006747 0.031107 0.044545 -0.037139
# 6 0.028494 -0.000249 -0.011792 -0.029861 -0.037139 0.131912
#
#
# Mechanical properties :
#
#
# Convention : Reuss Voigt Hill
#
# Bulk Modulus (GPa) = 16.08653 37.57213 26.82933
# Shear Modulus (GPa) = 14.04143 30.29331 22.16737
#
# Velocity S-wave (km/s) = 2.52280 3.70553 3.16982
# Velocity P-wave (km/s) = 3.97210 5.94460 5.05548
#
# Compressibility (1/GPa) = 0.06216380
#
# Stress axis : x y z
#
# Youngs Moduli (GPa) = 41.85002 29.54751 100.87527
#
# Poissons Ratio (x) = 0.01182 0.63515
# Poissons Ratio (y) = 0.01674 -0.39869
# Poissons Ratio (z) = 0.26350 -0.11678
#
# Static dielectric constant tensor:
#      x y z
#    x 1.822200 0.002660 0.025920 
#    y 0.002660 1.835310 -0.055510 
#    z 0.025920 -0.055510 1.884500 
# 
# From -- ./inp_files/41306.got.cif
#   From: 2010.05.17/outbox.cif.g08.bks.cpg/sg2_21_cif.got.tgz:41306.got - 2010.06.03 11:33:40.
