data_PCOD9054236
_publ_section_title
;
Structure prediction by ZEFSAII (Michael W. Deem and Ramdas Pophale) SiO2 
 PCOD9054236
Probable space group: P -1
;
_chemical_formula_sum "Si O2"
_cell_formula_units_Z 14
_cell_length_a 11.200760
_cell_length_b 24.154690
_cell_length_c 6.730906
_cell_angle_alpha 117.104990
_cell_angle_beta 84.038380
_cell_angle_gamma 148.052949
_cell_volume 686.017251
_symmetry_space_group_name_H-M "P -1"
_symmetry_group_IT_number 2
_symmetry_cell_setting 'triclinic'
loop_
_space_group_symop_operation_xyz
x,y,z
-x,-y,-z
loop_
_atom_site_type_symbol
_atom_site_label
_atom_site_fract_x
_atom_site_fract_y
_atom_site_fract_z
Si Si1 0.682852 0.780048 0.196196
Si Si2 0.291992 0.601278 0.631367
Si Si3 0.192706 0.854953 0.214628
Si Si4 0.315907 0.463132 0.336317
Si Si5 0.892414 0.079533 0.972135
Si Si6 0.712016 0.870524 0.715658
Si Si7 0.755557 0.706768 0.359031
O O1 0.768920 0.872848 0.488544
O O2 0.621953 0.694006 0.211312
O O3 0.902327 0.858110 0.121404
O O4 0.422490 0.680554 0.950298
O O5 0.302678 0.530400 0.509325
O O6 0.484749 0.721394 0.620992
O O7 0.000000 0.500000 0.500000
O O8 0.212977 0.910612 0.113785
O O9 0.984174 0.780466 0.303179
O O10 0.500000 0.000000 0.500000
O O11 0.006064 0.710080 0.924502
O O12 0.500000 0.500000 0.500000
O O13 0.502493 0.550886 0.247798
O O14 0.654129 0.917151 0.799594
O O15 0.069278 0.181078 0.302952
O O16 0.000000 0.000000 0.000000
#
# Coordination Sequence:
#
# PCOD9054236 Si02
#       7
#     2   2   2   2   2   2   2
#     4  11  20  41  71  96 134 180 243 276 344 424
#     4  12  28  45  66 107 145 183 231 297 356 408
#     4  11  27  43  68 106 140 178 235 303 360 406
#     4  12  22  50  74  99 137 192 244 281 340 438
#     4  11  22  41  68 103 133 181 238 290 344 423
#     4  12  22  41  69  99 137 182 231 282 348 424
#     4  11  21  44  73  97 131 187 247 279 345 429
#
# _framework density 20.407651000000001
#
# number of rings (size 3 to 8) (size 9 to 14) (size 15 to 20)
#    0.000    0.571    7.143    1.714    0.000    3.429 
#    5.143    0.000    0.000    0.000    0.000    0.000 
#    0.000    0.000    0.000    0.000    0.000    0.000 
#
# Total GULP energy -78045.185078 kJ/mol
# GULP energy per Si atom -5574.656077 kJ/mol
# Density = 2.036120 g / cm^3
# Si number density = 20.407651 Si / 1000 Ang^3
#
#
#
# Elastic Constant Matrix: (Units=GPa)
#
#
# Indices 1 2 3 4 5 6 
#
# 1 66.8939 36.5622 30.0006 6.7615 1.9036 -15.0689
# 2 36.5622 88.8097 27.9964 -1.3298 0.1411 -23.9708
# 3 30.0006 27.9964 123.4721 -10.1033 -1.3852 -2.9740
# 4 6.7615 -1.3298 -10.1033 41.4653 -2.1931 0.0534
# 5 1.9036 0.1411 -1.3852 -2.1931 38.3990 4.0115
# 6 -15.0689 -23.9708 -2.9740 0.0534 4.0115 37.9105
#
#
#
# Elastic Compliance Matrix: (Units=1/GPa)
#
#
# Indices 1 2 3 4 5 6 
#
# 1 0.021981 -0.006608 -0.004160 -0.004919 -0.001961 0.004447
# 2 -0.006608 0.016721 -0.001912 0.001108 -0.000560 0.007853
# 3 -0.004160 -0.001912 0.009750 0.003047 0.000969 -0.002204
# 4 -0.004919 0.001108 0.003047 0.025802 0.001955 -0.001259
# 5 -0.001961 -0.000560 0.000969 0.001955 0.026694 -0.003885
# 6 0.004447 0.007853 -0.002204 -0.001259 -0.003885 0.033351
#
#
# Mechanical properties :
#
#
# Convention : Reuss Voigt Hill
#
# Bulk Modulus (GPa) = 43.30582 52.03270 47.66926
# Shear Modulus (GPa) = 29.87618 35.86274 32.86946
#
# Velocity S-wave (km/s) = 3.83034 4.19659 4.01764
# Velocity P-wave (km/s) = 6.38971 7.00241 6.70307
#
# Compressibility (1/GPa) = 0.02309159
#
# Stress axis : x y z
#
# Youngs Moduli (GPa) = 45.49289 59.80633 102.55998
#
# Poissons Ratio (x) = 0.39523 0.42664
# Poissons Ratio (y) = 0.30064 0.19610
# Poissons Ratio (z) = 0.18925 0.11435
#
# Static dielectric constant tensor:
#      x y z
#    x 1.791030 -0.034370 -0.040240 
#    y -0.034370 1.741930 0.036300 
#    z -0.040240 0.036300 1.771130 
# 
# From -- ./inp_files/84438.got.cif
#   From: 2010.05.17/outbox.cif.g08.bks.cpg/sg2_43_cif.got.tgz:84438.got - 2010.06.03 11:33:40.
