data_PCOD9054725
_publ_section_title
;
Structure prediction by ZEFSAII (Michael W. Deem and Ramdas Pophale) SiO2 
 PCOD9054725
Probable space group: P -1
;
_chemical_formula_sum "Si O2"
_cell_formula_units_Z 14
_cell_length_a 14.869155
_cell_length_b 14.937344
_cell_length_c 12.845168
_cell_angle_alpha 61.656747
_cell_angle_beta 108.133012
_cell_angle_gamma 160.973817
_cell_volume 718.310808
_symmetry_space_group_name_H-M "P -1"
_symmetry_group_IT_number 2
_symmetry_cell_setting 'triclinic'
loop_
_space_group_symop_operation_xyz
x,y,z
-x,-y,-z
loop_
_atom_site_type_symbol
_atom_site_label
_atom_site_fract_x
_atom_site_fract_y
_atom_site_fract_z
Si Si1 0.674272 0.865962 0.332009
Si Si2 0.681431 0.558798 0.763809
Si Si3 0.481415 0.362980 0.036414
Si Si4 0.134499 0.443033 0.431154
Si Si5 0.506031 0.116885 0.486488
Si Si6 0.714911 0.818481 0.600466
Si Si7 0.779456 0.587009 0.212332
O O1 0.558342 0.695024 0.278423
O O2 0.463956 0.752662 0.323816
O O3 0.623194 0.753113 0.485007
O O4 0.051709 0.254261 0.250622
O O5 0.834263 0.826994 0.654344
O O6 0.536145 0.407605 0.909126
O O7 0.735761 0.567371 0.086483
O O8 0.500000 0.500000 0.000000
O O9 0.142658 0.969318 0.160395
O O10 0.239987 0.605659 0.484905
O O11 0.839155 0.205876 0.415552
O O12 0.974112 0.167109 0.535206
O O13 0.614136 0.311491 0.333422
O O14 0.500000 0.000000 0.500000
O O15 0.415158 0.530066 0.725407
#
# Coordination Sequence:
#
# PCOD9054725 Si02
#       7
#     2   2   2   2   2   2   2
#     4  12  23  38  55  88 123 167 205 258 294 350
#     4  12  26  34  57  84 124 173 223 231 277 367
#     4  12  25  40  57  85 124 180 208 238 284 355
#     4  11  21  38  58  90 127 150 185 254 333 350
#     4  11  23  40  67  97 120 149 198 260 335 379
#     4  11  23  36  60  85 128 163 205 254 304 349
#     4  11  23  40  62  84 127 157 201 253 307 358
#
# _framework density 19.490169000000002
#
# number of rings (size 3 to 8) (size 9 to 14) (size 15 to 20)
#    0.000    0.571    5.714    4.286    4.000    0.000 
#    0.000    0.000    0.000    0.000    0.000   20.000 
#    0.000    0.000    0.000    0.000    0.000    0.000 
#
# Total GULP energy -78125.569882 kJ/mol
# GULP energy per Si atom -5580.397849 kJ/mol
# Density = 1.944581 g / cm^3
# Si number density = 19.490169 Si / 1000 Ang^3
#
#
#
# Elastic Constant Matrix: (Units=GPa)
#
#
# Indices 1 2 3 4 5 6 
#
# 1 63.1754 9.7677 17.6066 -5.9759 -1.1138 -0.0632
# 2 9.7677 107.5688 16.0632 11.2690 -6.3879 -1.0023
# 3 17.6066 16.0632 65.4770 11.5076 -21.2850 -7.7794
# 4 -5.9759 11.2690 11.5076 22.6237 -4.8723 -16.4266
# 5 -1.1138 -6.3879 -21.2850 -4.8723 27.2666 -2.3654
# 6 -0.0632 -1.0023 -7.7794 -16.4266 -2.3654 34.9360
#
#
#
# Elastic Compliance Matrix: (Units=1/GPa)
#
#
# Indices 1 2 3 4 5 6 
#
# 1 0.019248 -0.002047 -0.007266 0.011900 -0.002913 0.003756
# 2 -0.002047 0.010429 -0.001146 -0.007885 -0.000263 -0.003685
# 3 -0.007266 -0.001146 0.025073 -0.008158 0.017802 0.002907
# 4 0.011900 -0.007885 -0.008158 0.086389 0.011121 0.039351
# 5 -0.002913 -0.000263 0.017802 0.011121 0.053489 0.012802
# 6 0.003756 -0.003685 0.002907 0.039351 0.012802 0.048542
#
#
# Mechanical properties :
#
#
# Convention : Reuss Voigt Hill
#
# Bulk Modulus (GPa) = 29.55604 35.89959 32.72781
# Shear Modulus (GPa) = 18.15760 29.81750 23.98755
#
# Velocity S-wave (km/s) = 3.05557 3.91560 3.51201
# Velocity P-wave (km/s) = 5.25796 6.23714 5.76837
#
# Compressibility (1/GPa) = 0.03383404
#
# Stress axis : x y z
#
# Youngs Moduli (GPa) = 51.95233 95.88198 39.88281
#
# Poissons Ratio (x) = 0.19632 0.28977
# Poissons Ratio (y) = 0.10637 0.04569
# Poissons Ratio (z) = 0.37746 0.10984
#
# Static dielectric constant tensor:
#      x y z
#    x 1.716720 0.027900 -0.049030 
#    y 0.027900 1.698820 0.006510 
#    z -0.049030 0.006510 1.688760 
# 
# From -- ./inp_files/454697.got.cif
#   From: 2010.05.17/outbox.cif.g08.bks.cpg/sg2_228_cif.got.tgz:454697.got - 2010.06.03 11:33:40.
