data_PCOD9054557
_publ_section_title
;
Structure prediction by ZEFSAII (Michael W. Deem and Ramdas Pophale) SiO2 
 PCOD9054557
Probable space group: P -1
;
_chemical_formula_sum "Si O2"
_cell_formula_units_Z 16
_cell_length_a 15.497654
_cell_length_b 15.036659
_cell_length_c 14.443766
_cell_angle_alpha 138.091522
_cell_angle_beta 41.463719
_cell_angle_gamma 161.233400
_cell_volume 707.439355
_symmetry_space_group_name_H-M "P -1"
_symmetry_group_IT_number 2
_symmetry_cell_setting 'triclinic'
loop_
_space_group_symop_operation_xyz
x,y,z
-x,-y,-z
loop_
_atom_site_type_symbol
_atom_site_label
_atom_site_fract_x
_atom_site_fract_y
_atom_site_fract_z
Si Si1 0.522885 0.217440 0.650872
Si Si2 0.425216 0.687711 0.058200
Si Si3 0.137683 0.987067 0.339277
Si Si4 0.729568 0.223480 0.625318
Si Si5 0.488038 0.600971 0.352634
Si Si6 0.081316 0.931488 0.927359
Si Si7 0.932290 0.184381 0.546694
Si Si8 0.317084 0.493936 0.808337
O O1 0.769375 0.374698 0.633432
O O2 0.583438 0.409092 0.699004
O O3 0.439471 0.035459 0.499246
O O4 0.267149 0.019991 0.770652
O O5 0.433599 0.842759 0.216133
O O6 0.182623 0.387548 0.072604
O O7 0.710953 0.873552 0.000583
O O8 0.355065 0.638618 0.968394
O O9 0.445783 0.288295 0.290791
O O10 0.128408 0.870431 0.338642
O O11 0.000000 0.000000 0.500000
O O12 0.964455 0.778371 0.229922
O O13 0.953634 0.341322 0.593492
O O14 0.629976 0.588015 0.234302
O O15 0.208427 0.350887 0.439538
O O16 0.691904 0.885153 0.459912
O O17 0.000000 0.000000 0.000000
#
# Coordination Sequence:
#
# PCOD9054557 Si02
#       8
#     2   2   2   2   2   2   2   2
#     4   9  21  39  66  90 123 171 208 255 298 360
#     4  11  25  41  61  88 129 172 200 259 311 366
#     4  12  22  41  66  95 124 154 206 263 325 373
#     4   9  22  42  60  90 126 166 217 248 297 367
#     4  11  21  36  60  95 122 154 201 255 317 363
#     4  11  23  41  63  93 130 165 214 254 308 365
#     4  11  23  38  63  91 122 158 202 265 306 365
#     4  12  23  40  64  93 128 157 202 258 327 377
#
# _framework density 22.616779000000001
#
# number of rings (size 3 to 8) (size 9 to 14) (size 15 to 20)
#    0.000    1.250    2.500    3.000    0.000   13.000 
#    0.000    1.250    0.000    0.000    0.000    0.000 
#    0.000    0.000    0.000    0.000    0.000    0.000 
#
# Total GULP energy -89347.752207 kJ/mol
# GULP energy per Si atom -5584.234513 kJ/mol
# Density = 2.256530 g / cm^3
# Si number density = 22.616779 Si / 1000 Ang^3
#
#
#
# Elastic Constant Matrix: (Units=GPa)
#
#
# Indices 1 2 3 4 5 6 
#
# 1 128.1856 -8.5195 17.0146 7.1330 6.0825 1.4164
# 2 -8.5195 85.5753 -2.6755 -3.6886 -7.9420 0.6752
# 3 17.0146 -2.6755 84.8117 1.7140 12.5796 8.6021
# 4 7.1330 -3.6886 1.7140 22.8047 8.5660 10.6710
# 5 6.0825 -7.9420 12.5796 8.5660 25.2005 -6.1969
# 6 1.4164 0.6752 8.6021 10.6710 -6.1969 33.0831
#
#
#
# Elastic Compliance Matrix: (Units=1/GPa)
#
#
# Indices 1 2 3 4 5 6 
#
# 1 0.008212 0.000661 -0.001739 -0.003009 0.000396 0.001132
# 2 0.000661 0.012105 -0.000401 0.000014 0.003991 0.000572
# 3 -0.001739 -0.000401 0.014542 0.007655 -0.011620 -0.008344
# 4 -0.003009 0.000014 0.007655 0.072526 -0.035593 -0.031922
# 5 0.000396 0.003991 -0.011620 -0.035593 0.065292 0.026634
# 6 0.001132 0.000572 -0.008344 -0.031922 0.026634 0.047622
#
#
# Mechanical properties :
#
#
# Convention : Reuss Voigt Hill
#
# Bulk Modulus (GPa) = 31.34643 34.46799 32.90721
# Shear Modulus (GPa) = 21.37742 35.73453 28.55598
#
# Velocity S-wave (km/s) = 3.07775 3.97923 3.55717
# Velocity P-wave (km/s) = 5.14975 6.03204 5.60827
#
# Compressibility (1/GPa) = 0.03190156
#
# Stress axis : x y z
#
# Youngs Moduli (GPa) = 121.77040 82.60744 68.76514
#
# Poissons Ratio (x) = -0.05463 0.11961
# Poissons Ratio (y) = -0.08052 0.02758
# Poissons Ratio (z) = 0.21180 0.03313
#
# Static dielectric constant tensor:
#      x y z
#    x 1.898990 -0.016620 0.005780 
#    y -0.016620 1.809480 0.014070 
#    z 0.005780 0.014070 1.933080 
# 
# From -- ./inp_files/534439.got.cif
#   From: 2010.05.17/outbox.cif.g08.bks.cpg/sg2_268_cif.got.tgz:534439.got - 2010.06.03 11:33:40.
