data_PCOD9054283
_publ_section_title
;
Structure prediction by ZEFSAII (Michael W. Deem and Ramdas Pophale) SiO2 
 PCOD9054283
Probable space group: P -1
;
_chemical_formula_sum "Si O2"
_cell_formula_units_Z 16
_cell_length_a 18.082932
_cell_length_b 8.544534
_cell_length_c 6.891825
_cell_angle_alpha 52.081929
_cell_angle_beta 101.989728
_cell_angle_gamma 74.443985
_cell_volume 705.383041
_symmetry_space_group_name_H-M "P -1"
_symmetry_group_IT_number 2
_symmetry_cell_setting 'triclinic'
loop_
_space_group_symop_operation_xyz
x,y,z
-x,-y,-z
loop_
_atom_site_type_symbol
_atom_site_label
_atom_site_fract_x
_atom_site_fract_y
_atom_site_fract_z
Si Si1 0.813397 0.620799 0.341976
Si Si2 0.330397 0.967970 0.304200
Si Si3 0.506416 0.791262 0.285428
Si Si4 0.188682 0.747061 0.635252
Si Si5 0.430612 0.480856 0.844239
Si Si6 0.348439 0.335248 0.223693
Si Si7 0.952259 0.368703 0.317630
Si Si8 0.135741 0.241447 0.357848
O O1 0.788995 0.425272 0.412116
O O2 0.911673 0.502343 0.396435
O O3 0.811523 0.694821 0.505914
O O4 0.750359 0.853029 0.008684
O O5 0.418835 0.878660 0.293800
O O6 0.343640 0.729004 0.571924
O O7 0.333649 0.120927 0.364871
O O8 0.522593 0.612951 0.261695
O O9 0.591830 0.686151 0.548388
O O10 0.500000 0.000000 0.000000
O O11 0.090767 0.792011 0.593440
O O12 0.181637 0.993595 0.464007
O O13 0.257279 0.574334 0.965723
O O14 0.500000 0.500000 0.000000
O O15 0.403123 0.324449 0.068291
O O16 0.054940 0.254688 0.426191
O O17 0.904697 0.561263 0.977324
#
# Coordination Sequence:
#
# PCOD9054283 Si02
#       8
#     2   2   2   2   2   2   2   2
#     4   9  23  41  60  95 125 158 209 257 305 372
#     4  11  23  44  59  90 127 157 208 261 303 367
#     4  12  24  40  64  88 120 166 205 248 312 364
#     4   9  23  40  62  94 126 160 209 256 306 373
#     4  12  25  40  65  87 121 167 211 254 306 370
#     4  11  24  44  59  91 126 161 207 260 306 362
#     4   9  22  42  60  99 121 161 214 246 311 386
#     4  11  20  42  68  85 132 164 197 263 313 365
#
# _framework density 22.68271
#
# number of rings (size 3 to 8) (size 9 to 14) (size 15 to 20)
#    0.750    0.750    2.500    2.250    3.500    1.000 
#    2.250    1.250    0.000    0.000    0.000    0.000 
#    0.000    0.000    0.000    0.000    0.000    0.000 
#
# Total GULP energy -89295.063499 kJ/mol
# GULP energy per Si atom -5580.941469 kJ/mol
# Density = 2.263108 g / cm^3
# Si number density = 22.682710 Si / 1000 Ang^3
#
#
#
# Elastic Constant Matrix: (Units=GPa)
#
#
# Indices 1 2 3 4 5 6 
#
# 1 49.7805 17.4325 1.2384 9.0077 10.9711 3.7918
# 2 17.4325 148.4109 52.9161 5.3476 9.7532 19.4604
# 3 1.2384 52.9161 56.8378 9.8868 5.8797 15.7537
# 4 9.0077 5.3476 9.8868 34.2429 1.1822 -3.5221
# 5 10.9711 9.7532 5.8797 1.1822 30.0917 -9.0133
# 6 3.7918 19.4604 15.7537 -3.5221 -9.0133 30.7393
#
#
#
# Elastic Compliance Matrix: (Units=1/GPa)
#
#
# Indices 1 2 3 4 5 6 
#
# 1 0.026491 -0.003670 0.008662 -0.009506 -0.012856 -0.010242
# 2 -0.003670 0.010861 -0.009953 0.002034 -0.000706 -0.001296
# 3 0.008662 -0.009953 0.034774 -0.012152 -0.011442 -0.017336
# 4 -0.009506 0.002034 -0.012152 0.035914 0.007492 0.012425
# 5 -0.012856 -0.000706 -0.011442 0.007492 0.046824 0.022484
# 6 -0.010242 -0.001296 -0.017336 0.012425 0.022484 0.051517
#
#
# Mechanical properties :
#
#
# Convention : Reuss Voigt Hill
#
# Bulk Modulus (GPa) = 16.07612 44.24480 30.16046
# Shear Modulus (GPa) = 21.09367 31.24426 26.16897
#
# Velocity S-wave (km/s) = 3.05281 3.71543 3.40030
# Velocity P-wave (km/s) = 4.41916 6.16069 5.36112
#
# Compressibility (1/GPa) = 0.06220406
#
# Stress axis : x y z
#
# Youngs Moduli (GPa) = 37.74820 92.07314 28.75694
#
# Poissons Ratio (x) = 0.33787 -0.24908
# Poissons Ratio (y) = 0.13852 0.28622
# Poissons Ratio (z) = -0.32696 0.91642
#
# Static dielectric constant tensor:
#      x y z
#    x 1.900530 0.003960 -0.030490 
#    y 0.003960 1.906240 -0.038420 
#    z -0.030490 -0.038420 1.799740 
# 
# From -- ./inp_files/116661.got.cif
#   From: 2010.05.17/outbox.cif.g08.bks.cpg/sg2_59_cif.got.tgz:116661.got - 2010.06.03 11:33:40.
