data_PCOD9054872
_publ_section_title
;
Structure prediction by ZEFSAII (Michael W. Deem and Ramdas Pophale) SiO2 
 PCOD9054872
Probable space group: P -1
;
_chemical_formula_sum "Si O2"
_cell_formula_units_Z 12
_cell_length_a 7.106786
_cell_length_b 19.254154
_cell_length_c 5.147895
_cell_angle_alpha 111.078387
_cell_angle_beta 53.744626
_cell_angle_gamma 124.661126
_cell_volume 466.933937
_symmetry_space_group_name_H-M "P -1"
_symmetry_group_IT_number 2
_symmetry_cell_setting 'triclinic'
loop_
_space_group_symop_operation_xyz
x,y,z
-x,-y,-z
loop_
_atom_site_type_symbol
_atom_site_label
_atom_site_fract_x
_atom_site_fract_y
_atom_site_fract_z
Si Si1 0.585385 0.207668 0.322585
Si Si2 0.743613 0.745636 0.737427
Si Si3 0.430694 0.574261 0.606975
Si Si4 0.246915 0.894039 0.296653
Si Si5 0.327718 0.638940 0.277826
Si Si6 0.245214 0.048457 0.674563
O O1 0.481313 0.236513 0.193513
O O2 0.761719 0.293145 0.457741
O O3 0.324171 0.136681 0.587540
O O4 0.732322 0.155887 0.035429
O O5 0.709060 0.661903 0.506045
O O6 0.011356 0.827702 0.578294
O O7 0.636198 0.707586 0.056643
O O8 0.500000 0.500000 0.500000
O O9 0.303914 0.575517 0.438366
O O10 0.260340 0.588185 0.994915
O O11 0.508115 0.924700 0.296899
O O12 0.224537 0.978828 0.386771
O O13 0.000000 0.000000 0.000000
#
# Coordination Sequence:
#
# PCOD9054872 Si02
#       6
#     2   2   2   2   2   2
#     4  11  21  39  61  86 127 164 213 257 316 371
#     4   9  22  38  61  91 122 166 204 263 308 372
#     4   9  18  35  65  97 123 163 208 251 312 378
#     4  11  23  39  58  91 121 169 212 260 317 365
#     4   9  19  35  62  92 127 164 203 256 308 369
#     4  11  25  39  59  85 128 166 215 264 311 370
#
# _framework density 25.699567999999999
#
# number of rings (size 3 to 8) (size 9 to 14) (size 15 to 20)
#    1.000    1.000    0.000    4.000    0.000    8.000 
#    0.000    0.000    0.000    5.000    0.000    0.000 
#    0.000    0.000    0.000    0.000    0.000    0.000 
#
# Total GULP energy -67014.655362 kJ/mol
# GULP energy per Si atom -5584.554614 kJ/mol
# Density = 2.564108 g / cm^3
# Si number density = 25.699568 Si / 1000 Ang^3
#
#
#
# Elastic Constant Matrix: (Units=GPa)
#
#
# Indices 1 2 3 4 5 6 
#
# 1 54.2347 26.6202 23.5500 -5.6995 14.0195 2.4000
# 2 26.6202 160.8518 35.2410 21.9621 10.4140 -34.6126
# 3 23.5500 35.2410 113.3386 13.6774 28.2577 -19.8864
# 4 -5.6995 21.9621 13.6774 40.7439 -7.8283 3.3706
# 5 14.0195 10.4140 28.2577 -7.8283 33.4863 -13.1674
# 6 2.4000 -34.6126 -19.8864 3.3706 -13.1674 35.6180
#
#
#
# Elastic Compliance Matrix: (Units=1/GPa)
#
#
# Indices 1 2 3 4 5 6 
#
# 1 0.028969 -0.008042 -0.005313 0.009744 -0.009636 -0.017218
# 2 -0.008042 0.011237 0.000916 -0.008126 0.002585 0.013698
# 3 -0.005313 0.000916 0.014115 -0.008311 -0.009379 0.006449
# 4 0.009744 -0.008126 -0.008311 0.035831 0.008561 -0.013419
# 5 -0.009636 0.002585 -0.009379 0.008561 0.048997 0.015229
# 6 -0.017218 0.013698 0.006449 -0.013419 0.015229 0.053047
#
#
# Mechanical properties :
#
#
# Convention : Reuss Voigt Hill
#
# Bulk Modulus (GPa) = 33.96270 55.47194 44.71732
# Shear Modulus (GPa) = 22.03729 38.17058 30.10393
#
# Velocity S-wave (km/s) = 2.93148 3.85809 3.42625
# Velocity P-wave (km/s) = 4.97012 6.44035 5.75240
#
# Compressibility (1/GPa) = 0.02944407
#
# Stress axis : x y z
#
# Youngs Moduli (GPa) = 34.51914 88.99511 70.84704
#
# Poissons Ratio (x) = 0.71567 0.37643
# Poissons Ratio (y) = 0.27759 -0.06493
# Poissons Ratio (z) = 0.18341 -0.08156
#
# Static dielectric constant tensor:
#      x y z
#    x 2.090480 0.009250 0.013500 
#    y 0.009250 2.030770 0.034310 
#    z 0.013500 0.034310 2.117280 
# 
# From -- ./inp_files/6332.got.cif
#   From: 2010.05.17/outbox.cif.g08.bks.cpg/sg2_4_cif.got.tgz:6332.got - 2010.06.03 11:33:40.
