data_PCOD9054523
_publ_section_title
;
Structure prediction by ZEFSAII (Michael W. Deem and Ramdas Pophale) SiO2 
 PCOD9054523
Probable space group: P -1
;
_chemical_formula_sum "Si O2"
_cell_formula_units_Z 14
_cell_length_a 15.878621
_cell_length_b 9.034642
_cell_length_c 9.059260
_cell_angle_alpha 129.646558
_cell_angle_beta 126.022425
_cell_angle_gamma 32.800738
_cell_volume 537.905302
_symmetry_space_group_name_H-M "P -1"
_symmetry_group_IT_number 2
_symmetry_cell_setting 'triclinic'
loop_
_space_group_symop_operation_xyz
x,y,z
-x,-y,-z
loop_
_atom_site_type_symbol
_atom_site_label
_atom_site_fract_x
_atom_site_fract_y
_atom_site_fract_z
Si Si1 0.155056 0.134477 0.321627
Si Si2 0.313510 0.387466 0.300237
Si Si3 0.377976 0.887369 0.164365
Si Si4 0.093837 0.465224 0.939827
Si Si5 0.327278 0.143800 0.744778
Si Si6 0.093745 0.780426 0.818771
Si Si7 0.690765 0.343922 0.265985
O O1 0.256059 0.139524 0.525085
O O2 0.030058 0.362275 0.211336
O O3 0.041373 0.181609 0.347080
O O4 0.290604 0.871376 0.184492
O O5 0.297587 0.599705 0.518318
O O6 0.309138 0.196156 0.272055
O O7 0.485894 0.135824 0.242956
O O8 0.172257 0.549365 0.143643
O O9 0.551921 0.668370 0.263730
O O10 0.362448 0.790562 0.935378
O O11 0.245280 0.170764 0.823239
O O12 0.000000 0.500000 0.000000
O O13 0.246073 0.464822 0.845527
O O14 0.152537 0.822323 0.768784
O O15 0.000000 0.000000 0.000000
#
# Coordination Sequence:
#
# PCOD9054523 Si02
#       7
#     2   2   2   2   2   2   2
#     4  11  22  42  65  95 127 172 222 266 321 384
#     4  12  23  42  69  92 133 176 213 264 336 383
#     4  11  21  39  66  98 133 168 221 269 314 391
#     4  11  24  38  65  98 132 168 214 272 328 384
#     4  11  24  43  68  93 126 176 224 259 321 397
#     4  11  21  35  60  94 129 162 211 276 318 363
#     4  11  23  38  66 102 128 171 223 268 319 387
#
# _framework density 26.026883000000002
#
# number of rings (size 3 to 8) (size 9 to 14) (size 15 to 20)
#    0.000    0.857    5.714    3.429    2.000    0.000 
#    0.000    0.714   12.571    1.714    0.000    0.000 
#    0.000    0.000    0.000    0.000    0.000    0.000 
#
# Total GULP energy -78099.419527 kJ/mol
# GULP energy per Si atom -5578.529966 kJ/mol
# Density = 2.596764 g / cm^3
# Si number density = 26.026883 Si / 1000 Ang^3
#
#
#
# Elastic Constant Matrix: (Units=GPa)
#
#
# Indices 1 2 3 4 5 6 
#
# 1 63.1151 40.0064 18.2870 -11.1421 -13.1744 -45.0581
# 2 40.0064 110.4783 39.6260 -8.0329 -6.2542 -44.7971
# 3 18.2870 39.6260 178.2577 -4.2157 -2.1570 -14.7702
# 4 -11.1421 -8.0329 -4.2157 43.6400 -10.0649 -0.0931
# 5 -13.1744 -6.2542 -2.1570 -10.0649 33.0564 4.1111
# 6 -45.0581 -44.7971 -14.7702 -0.0931 4.1111 61.0408
#
#
#
# Elastic Compliance Matrix: (Units=1/GPa)
#
#
# Indices 1 2 3 4 5 6 
#
# 1 0.046635 -0.001229 -0.001252 0.016052 0.019186 0.031951
# 2 -0.001229 0.014146 -0.002207 0.002488 0.001702 0.008829
# 3 -0.001252 -0.002207 0.006132 -0.000242 -0.000462 -0.001029
# 4 0.016052 0.002488 -0.000242 0.030859 0.014672 0.012676
# 5 0.019186 0.001702 -0.000462 0.014672 0.041095 0.012554
# 6 0.031951 0.008829 -0.001029 0.012676 0.012554 0.045372
#
#
# Mechanical properties :
#
#
# Convention : Reuss Voigt Hill
#
# Bulk Modulus (GPa) = 17.38046 60.85442 39.11744
# Shear Modulus (GPa) = 23.49684 44.47622 33.98653
#
# Velocity S-wave (km/s) = 3.00791 4.13832 3.61754
# Velocity P-wave (km/s) = 4.33079 6.80194 5.70185
#
# Compressibility (1/GPa) = 0.05753587
#
# Stress axis : x y z
#
# Youngs Moduli (GPa) = 21.44321 70.69277 163.06958
#
# Poissons Ratio (x) = 0.08692 0.20410
# Poissons Ratio (y) = 0.02636 0.35996
# Poissons Ratio (z) = 0.02684 0.15605
#
# Static dielectric constant tensor:
#      x y z
#    x 2.292010 0.094850 0.103990 
#    y 0.094850 2.108630 0.095650 
#    z 0.103990 0.095650 2.096740 
# 
# From -- ./inp_files/333806.got.cif
#   From: 2010.05.17/outbox.cif.g08.bks.cpg/sg2_167_cif.got.tgz:333806.got - 2010.06.03 11:33:40.
