data_PCOD9054021
_publ_section_title
;
Structure prediction by ZEFSAII (Michael W. Deem and Ramdas Pophale) SiO2 
 PCOD9054021
Probable space group: P -1
;
_chemical_formula_sum "Si O2"
_cell_formula_units_Z 16
_cell_length_a 12.503747
_cell_length_b 15.250014
_cell_length_c 14.502010
_cell_angle_alpha 28.675614
_cell_angle_beta 140.417435
_cell_angle_gamma 120.231067
_cell_volume 697.726764
_symmetry_space_group_name_H-M "P -1"
_symmetry_group_IT_number 2
_symmetry_cell_setting 'triclinic'
loop_
_space_group_symop_operation_xyz
x,y,z
-x,-y,-z
loop_
_atom_site_type_symbol
_atom_site_label
_atom_site_fract_x
_atom_site_fract_y
_atom_site_fract_z
Si Si1 0.740108 0.650334 0.284358
Si Si2 0.227670 0.856503 0.319372
Si Si3 0.429878 0.603584 0.511810
Si Si4 0.203734 0.262268 0.961441
Si Si5 0.933050 0.078256 0.169674
Si Si6 0.734306 0.395471 0.258528
Si Si7 0.123854 0.531380 0.132618
Si Si8 0.737160 0.852922 0.278265
O O1 0.589172 0.594686 0.281867
O O2 0.697914 0.752715 0.059703
O O3 0.766575 0.799155 0.238119
O O4 0.960889 0.419323 0.642487
O O5 0.380537 0.751313 0.433501
O O6 0.229771 0.670988 0.549690
O O7 0.263917 0.019514 0.250715
O O8 0.000000 0.000000 0.000000
O O9 0.650457 0.529824 0.689279
O O10 0.241573 0.754564 0.175726
O O11 0.240431 0.404810 0.925217
O O12 0.820130 0.997101 0.231135
O O13 0.993524 0.220519 0.134172
O O14 0.120920 0.839954 0.477806
O O15 0.500000 0.500000 0.000000
O O16 0.161240 0.368723 0.391200
O O17 0.000000 0.500000 0.000000
O O18 0.500000 0.000000 0.000000
#
# Coordination Sequence:
#
# PCOD9054021 Si02
#       8
#     2   2   2   2   2   2   2   2
#     4  11  20  39  72 104 136 176 236 295 336 411
#     4  12  22  41  73 103 140 181 228 294 351 415
#     4  12  22  44  76 107 138 186 244 291 344 423
#     4  11  22  40  67 104 141 179 228 284 353 418
#     4  12  24  47  77 100 140 188 244 292 346 433
#     4  12  27  44  67 108 146 184 230 289 364 428
#     4  12  30  49  70 106 146 187 240 300 361 416
#     4  12  24  43  75 105 136 188 242 292 350 415
#
# _framework density 22.931615000000001
#
# number of rings (size 3 to 8) (size 9 to 14) (size 15 to 20)
#    0.000    0.250    7.500    2.625    0.000    3.000 
#    0.000    0.000    0.000    0.000    0.000    0.000 
#    0.000    0.000    0.000    0.000    0.000    0.000 
#
# Total GULP energy -89379.893271 kJ/mol
# GULP energy per Si atom -5586.243329 kJ/mol
# Density = 2.287942 g / cm^3
# Si number density = 22.931615 Si / 1000 Ang^3
#
#
#
# Elastic Constant Matrix: (Units=GPa)
#
#
# Indices 1 2 3 4 5 6 
#
# 1 68.3623 11.2234 3.6883 -9.0170 7.5685 8.5042
# 2 11.2234 153.3913 40.9680 -32.1393 8.1460 9.6196
# 3 3.6883 40.9680 53.1368 -6.8000 15.7402 -0.5997
# 4 -9.0170 -32.1393 -6.8000 40.9402 9.6770 2.0381
# 5 7.5685 8.1460 15.7402 9.6770 26.8092 -11.9393
# 6 8.5042 9.6196 -0.5997 2.0381 -11.9393 37.5611
#
#
#
# Elastic Compliance Matrix: (Units=1/GPa)
#
#
# Indices 1 2 3 4 5 6 
#
# 1 0.018502 0.001204 0.003568 0.009808 -0.015655 -0.009949
# 2 0.001204 0.010459 -0.005108 0.009418 -0.006403 -0.005579
# 3 0.003568 -0.005108 0.030171 0.007525 -0.022867 -0.006695
# 4 0.009808 0.009418 0.007525 0.044106 -0.033835 -0.017661
# 5 -0.015655 -0.006403 -0.022867 -0.033835 0.084185 0.033414
# 6 -0.009949 -0.005579 -0.006695 -0.017661 0.033414 0.041777
#
#
# Mechanical properties :
#
#
# Convention : Reuss Voigt Hill
#
# Bulk Modulus (GPa) = 17.10597 42.96109 30.03353
# Shear Modulus (GPa) = 20.05126 35.66280 27.85703
#
# Velocity S-wave (km/s) = 2.96022 3.94786 3.48916
# Velocity P-wave (km/s) = 4.37717 6.28935 5.41828
#
# Compressibility (1/GPa) = 0.05845911
#
# Stress axis : x y z
#
# Youngs Moduli (GPa) = 54.04712 95.61360 33.14402
#
# Poissons Ratio (x) = -0.11508 -0.11826
# Poissons Ratio (y) = -0.06505 0.16931
# Poissons Ratio (z) = -0.19284 0.48842
#
# Static dielectric constant tensor:
#      x y z
#    x 1.921990 -0.022260 0.025880 
#    y -0.022260 1.940250 -0.027770 
#    z 0.025880 -0.027770 1.836110 
# 
# From -- ./inp_files/522209.got.cif
#   From: 2010.05.17/outbox.cif.g08.bks.cpg/sg2_262_cif.got.tgz:522209.got - 2010.06.03 11:33:40.
