data_PCOD9054696
_publ_section_title
;
Structure prediction by ZEFSAII (Michael W. Deem and Ramdas Pophale) SiO2 
 PCOD9054696
Probable space group: P -1
;
_chemical_formula_sum "Si O2"
_cell_formula_units_Z 10
_cell_length_a 9.012772
_cell_length_b 7.247018
_cell_length_c 6.819995
_cell_angle_alpha 62.786509
_cell_angle_beta 72.014544
_cell_angle_gamma 72.416923
_cell_volume 369.909200
_symmetry_space_group_name_H-M "P -1"
_symmetry_group_IT_number 2
_symmetry_cell_setting 'triclinic'
loop_
_space_group_symop_operation_xyz
x,y,z
-x,-y,-z
loop_
_atom_site_type_symbol
_atom_site_label
_atom_site_fract_x
_atom_site_fract_y
_atom_site_fract_z
Si Si1 0.502190 0.573565 0.690533
Si Si2 0.831338 0.511804 0.463559
Si Si3 0.132765 0.951565 0.257099
Si Si4 0.244650 0.360187 0.000575
Si Si5 0.201145 0.827274 0.850062
O O1 0.500000 0.500000 0.500000
O O2 0.684188 0.590432 0.632029
O O3 0.428929 0.389409 0.919940
O O4 0.372900 0.780183 0.698898
O O5 0.799085 0.641826 0.213639
O O6 0.000000 0.500000 0.500000
O O7 0.827284 0.266548 0.537173
O O8 0.943682 0.016072 0.267670
O O9 0.154339 0.593385 0.986724
O O10 0.207786 0.895951 0.038286
O O11 0.801899 0.846737 0.791597
#
# Coordination Sequence:
#
# PCOD9054696 Si02
#       5
#     2   2   2   2   2
#     4   8  19  41  62  83 129 164 191 252 310 350
#     4  11  22  38  64  93 122 157 212 251 292 366
#     4  11  21  37  66  98 113 160 211 243 307 359
#     4   9  21  43  62  84 131 161 191 254 306 358
#     4   9  20  39  64  88 128 161 193 254 308 358
#
# _framework density 27.033657999999999
#
# number of rings (size 3 to 8) (size 9 to 14) (size 15 to 20)
#    1.200    1.200    0.000    3.000    0.000    2.400 
#    0.000   11.000    0.000    0.000    0.000    0.000 
#    0.000    0.000    0.000    0.000    0.000    0.000 
#
# Total GULP energy -55971.796660 kJ/mol
# GULP energy per Si atom -5597.179666 kJ/mol
# Density = 2.697213 g / cm^3
# Si number density = 27.033658 Si / 1000 Ang^3
#
#
#
# Elastic Constant Matrix: (Units=GPa)
#
#
# Indices 1 2 3 4 5 6 
#
# 1 163.0009 19.9919 50.2541 3.4776 -44.9280 4.5240
# 2 19.9919 147.3997 23.1663 -4.1891 0.2899 -1.8457
# 3 50.2541 23.1663 148.6764 20.1184 -36.9995 -9.0097
# 4 3.4776 -4.1891 20.1184 42.6588 -6.1823 -4.8147
# 5 -44.9280 0.2899 -36.9995 -6.1823 54.8611 7.3172
# 6 4.5240 -1.8457 -9.0097 -4.8147 7.3172 42.0626
#
#
#
# Elastic Compliance Matrix: (Units=1/GPa)
#
#
# Indices 1 2 3 4 5 6 
#
# 1 0.008487 -0.000969 -0.001327 0.000510 0.006424 -0.002299
# 2 -0.000969 0.007172 -0.001339 0.001236 -0.001670 0.000564
# 3 -0.001327 -0.001339 0.009033 -0.003537 0.004503 0.000831
# 4 0.000510 0.001236 -0.003537 0.025512 0.000627 0.002053
# 5 0.006424 -0.001670 0.004503 0.000627 0.027200 -0.004460
# 6 -0.002299 0.000564 0.000831 0.002053 -0.004460 0.025235
#
#
# Mechanical properties :
#
#
# Convention : Reuss Voigt Hill
#
# Bulk Modulus (GPa) = 57.40329 71.76686 64.58507
# Shear Modulus (GPa) = 43.20963 52.29414 47.75189
#
# Velocity S-wave (km/s) = 4.00229 4.40296 4.20740
# Velocity P-wave (km/s) = 6.52977 7.24244 6.89532
#
# Compressibility (1/GPa) = 0.01742061
#
# Stress axis : x y z
#
# Youngs Moduli (GPa) = 117.83271 139.43856 110.70958
#
# Poissons Ratio (x) = 0.13517 0.14693
# Poissons Ratio (y) = 0.11422 0.14820
# Poissons Ratio (z) = 0.15638 0.18665
#
# Static dielectric constant tensor:
#      x y z
#    x 2.175710 0.059960 0.036360 
#    y 0.059960 2.026900 0.005260 
#    z 0.036360 0.005260 2.201230 
# 
# From -- ./inp_files/173413.got.cif
#   From: 2010.05.17/outbox.cif.g08.bks.cpg/sg2_87_cif.got.tgz:173413.got - 2010.06.03 11:33:40.
