data_PCOD9054335
_publ_section_title
;
Structure prediction by ZEFSAII (Michael W. Deem and Ramdas Pophale) SiO2 
 PCOD9054335
Probable space group: P -1
;
_chemical_formula_sum "Si O2"
_cell_formula_units_Z 16
_cell_length_a 8.076839
_cell_length_b 17.816359
_cell_length_c 11.531250
_cell_angle_alpha 36.530521
_cell_angle_beta 139.405588
_cell_angle_gamma 133.563574
_cell_volume 629.202456
_symmetry_space_group_name_H-M "P -1"
_symmetry_group_IT_number 2
_symmetry_cell_setting 'triclinic'
loop_
_space_group_symop_operation_xyz
x,y,z
-x,-y,-z
loop_
_atom_site_type_symbol
_atom_site_label
_atom_site_fract_x
_atom_site_fract_y
_atom_site_fract_z
Si Si1 0.693831 0.931699 0.548567
Si Si2 0.685219 0.545498 0.861986
Si Si3 0.090606 0.180852 0.429895
Si Si4 0.462419 0.164060 0.867916
Si Si5 0.612802 0.594087 0.337626
Si Si6 0.827634 0.466698 0.278228
Si Si7 0.991025 0.763367 0.053588
Si Si8 0.220155 0.925031 0.176381
O O1 0.801562 0.876315 0.557355
O O2 0.386597 0.903752 0.402255
O O3 0.819390 0.083607 0.432338
O O4 0.796931 0.855731 0.801136
O O5 0.893635 0.668943 0.775519
O O6 0.565310 0.455582 0.804827
O O7 0.440188 0.599222 0.720168
O O8 0.788143 0.469957 0.114789
O O9 0.279946 0.173548 0.648528
O O10 0.399880 0.263014 0.807593
O O11 0.760527 0.205302 0.937994
O O12 0.404747 0.021789 0.066308
O O13 0.500000 0.500000 0.500000
O O14 0.906097 0.575555 0.499557
O O15 0.864520 0.615761 0.151881
O O16 0.101016 0.801563 0.191388
O O17 0.000000 0.000000 0.000000
#
# Coordination Sequence:
#
# PCOD9054335 Si02
#       8
#     2   2   2   2   2   2   2   2
#     4  11  24  42  76 103 128 186 235 290 348 415
#     4  11  25  46  68 104 142 188 238 292 349 416
#     4  11  20  42  73 102 136 180 239 287 340 424
#     4  12  24  46  70 105 143 187 236 291 350 421
#     4  12  25  44  69 105 143 188 235 293 347 414
#     4  11  26  46  72 105 143 193 237 288 356 420
#     4  12  23  47  76 102 140 185 242 281 349 433
#     4  12  29  47  69 106 144 180 229 300 363 414
#
# _framework density 25.429017999999999
#
# number of rings (size 3 to 8) (size 9 to 14) (size 15 to 20)
#    0.000    0.500    6.250    2.250    1.750    2.000 
#    4.500    0.000    0.000    0.000    0.000    0.000 
#    0.000    0.000    0.000    0.000    0.000    0.000 
#
# Total GULP energy -89841.069369 kJ/mol
# GULP energy per Si atom -5615.066836 kJ/mol
# Density = 2.537114 g / cm^3
# Si number density = 25.429018 Si / 1000 Ang^3
#
#
#
# Elastic Constant Matrix: (Units=GPa)
#
#
# Indices 1 2 3 4 5 6 
#
# 1 61.4573 35.3896 20.7634 -1.9387 -1.4522 5.9902
# 2 35.3896 152.6552 71.5211 19.1916 -14.7147 -14.6892
# 3 20.7634 71.5211 101.2348 22.0505 -4.7244 8.1279
# 4 -1.9387 19.1916 22.0505 40.4298 6.1905 -4.8006
# 5 -1.4522 -14.7147 -4.7244 6.1905 41.2893 5.1011
# 6 5.9902 -14.6892 8.1279 -4.8006 5.1011 33.0840
#
#
#
# Elastic Compliance Matrix: (Units=1/GPa)
#
#
# Indices 1 2 3 4 5 6 
#
# 1 0.020213 -0.005393 -0.000736 0.003495 -0.001179 -0.005185
# 2 -0.005393 0.012848 -0.008209 -0.001324 0.002648 0.008097
# 3 -0.000736 -0.008209 0.018253 -0.007410 0.001396 -0.009286
# 4 0.003495 -0.001324 -0.007410 0.031324 -0.006656 0.006171
# 5 -0.001179 0.002648 0.001396 -0.006656 0.026779 -0.004048
# 6 -0.005185 0.008097 -0.009286 0.006171 -0.004048 0.038561
#
#
# Mechanical properties :
#
#
# Convention : Reuss Voigt Hill
#
# Bulk Modulus (GPa) = 44.17159 63.41059 53.79109
# Shear Modulus (GPa) = 27.14442 35.47219 31.30831
#
# Velocity S-wave (km/s) = 3.27074 3.73895 3.51266
# Velocity P-wave (km/s) = 5.62778 6.60531 6.13604
#
# Compressibility (1/GPa) = 0.02263899
#
# Stress axis : x y z
#
# Youngs Moduli (GPa) = 49.47197 77.83440 54.78557
#
# Poissons Ratio (x) = 0.41979 0.04030
# Poissons Ratio (y) = 0.26682 0.44972
# Poissons Ratio (z) = 0.03639 0.63892
#
# Static dielectric constant tensor:
#      x y z
#    x 2.023750 0.020650 -0.011010 
#    y 0.020650 1.976400 0.003540 
#    z -0.011010 0.003540 1.965800 
# 
# From -- ./inp_files/402918.got.cif
#   From: 2010.05.17/outbox.cif.g08.bks.cpg/sg2_202_cif.got.tgz:402918.got - 2010.06.03 11:33:40.
