data_PCOD9054978
_publ_section_title
;
Structure prediction by ZEFSAII (Michael W. Deem and Ramdas Pophale) SiO2 
 PCOD9054978
Probable space group: P -1
;
_chemical_formula_sum "Si O2"
_cell_formula_units_Z 14
_cell_length_a 8.605643
_cell_length_b 11.903038
_cell_length_c 8.654330
_cell_angle_alpha 59.159520
_cell_angle_beta 57.628523
_cell_angle_gamma 61.122534
_cell_volume 615.719853
_symmetry_space_group_name_H-M "P -1"
_symmetry_group_IT_number 2
_symmetry_cell_setting 'triclinic'
loop_
_space_group_symop_operation_xyz
x,y,z
-x,-y,-z
loop_
_atom_site_type_symbol
_atom_site_label
_atom_site_fract_x
_atom_site_fract_y
_atom_site_fract_z
Si Si1 0.219506 0.954501 0.855205
Si Si2 0.472571 0.527040 0.815347
Si Si3 0.833181 0.544055 0.433829
Si Si4 0.398129 0.175396 0.748467
Si Si5 0.978177 0.639254 0.803887
Si Si6 0.448493 0.249105 0.998240
Si Si7 0.225888 0.806079 0.646172
O O1 0.210248 0.920015 0.704041
O O2 0.329047 0.065081 0.765277
O O3 0.362172 0.820713 0.955587
O O4 0.000000 0.000000 0.000000
O O5 0.647550 0.564861 0.621156
O O6 0.467653 0.391845 0.822623
O O7 0.293645 0.656315 0.795780
O O8 0.500000 0.500000 0.000000
O O9 0.782590 0.688179 0.271236
O O10 0.000000 0.500000 0.500000
O O11 0.881700 0.425498 0.365507
O O12 0.422287 0.157850 0.932476
O O13 0.604960 0.184744 0.567743
O O14 0.027475 0.783463 0.709822
O O15 0.751897 0.695235 0.842658
O O16 0.000000 0.500000 0.000000
#
# Coordination Sequence:
#
# PCOD9054978 Si02
#       7
#     2   2   2   2   2   2   2
#     4  12  28  46  71  95 136 191 235 277 341 416
#     4  11  21  39  69 102 136 173 226 287 344 402
#     4  11  25  39  71 106 138 179 228 286 353 402
#     4  11  25  47  66 103 142 180 234 280 337 420
#     4  12  23  42  72 106 142 172 225 292 350 410
#     4  12  24  43  73  99 140 178 229 286 347 403
#     4  11  24  45  68 100 139 178 224 287 346 404
#
# _framework density 22.737613
#
# number of rings (size 3 to 8) (size 9 to 14) (size 15 to 20)
#    0.000    0.571    4.286    3.429    4.000    2.286 
#    0.000    1.429    0.000    0.000    0.000    0.000 
#    0.000    0.000    0.000    0.000    0.000    0.000 
#
# Total GULP energy -78052.732935 kJ/mol
# GULP energy per Si atom -5575.195210 kJ/mol
# Density = 2.268586 g / cm^3
# Si number density = 22.737613 Si / 1000 Ang^3
#
#
#
# Elastic Constant Matrix: (Units=GPa)
#
#
# Indices 1 2 3 4 5 6 
#
# 1 72.3730 10.7136 1.1598 0.1796 -13.1586 1.7950
# 2 10.7136 81.9273 -1.1825 11.9294 -0.8955 12.9475
# 3 1.1598 -1.1825 41.3241 19.1671 -2.3716 0.5201
# 4 0.1796 11.9294 19.1671 31.2728 10.8393 -6.3288
# 5 -13.1586 -0.8955 -2.3716 10.8393 31.5063 7.0980
# 6 1.7950 12.9475 0.5201 -6.3288 7.0980 57.5425
#
#
#
# Elastic Compliance Matrix: (Units=1/GPa)
#
#
# Indices 1 2 3 4 5 6 
#
# 1 0.015528 -0.001012 0.002003 -0.004225 0.008463 -0.001783
# 2 -0.001012 0.015477 0.007395 -0.013939 0.006693 -0.005876
# 3 0.002003 0.007395 0.042976 -0.037547 0.019138 -0.008605
# 4 -0.004225 -0.013939 -0.037547 0.075620 -0.034652 0.016199
# 5 0.008463 0.006693 0.019138 -0.034652 0.051556 -0.012114
# 6 -0.001783 -0.005876 -0.008605 0.016199 -0.012114 0.022110
#
#
# Mechanical properties :
#
#
# Convention : Reuss Voigt Hill
#
# Bulk Modulus (GPa) = 11.01910 24.11181 17.56545
# Shear Modulus (GPa) = 21.11964 36.39323 28.75643
#
# Velocity S-wave (km/s) = 3.05100 4.00506 3.56013
# Velocity P-wave (km/s) = 4.15550 5.65815 4.96401
#
# Compressibility (1/GPa) = 0.09075153
#
# Stress axis : x y z
#
# Youngs Moduli (GPa) = 64.39818 64.61377 23.26868
#
# Poissons Ratio (x) = 0.06541 -0.04660
# Poissons Ratio (y) = 0.06519 -0.17207
# Poissons Ratio (z) = -0.12897 -0.47780
#
# Static dielectric constant tensor:
#      x y z
#    x 1.563750 0.213180 -0.058680 
#    y 0.213180 1.891010 -0.081820 
#    z -0.058680 -0.081820 1.905440 
# 
# From -- ./inp_files/157108.got.cif
#   From: 2010.05.17/outbox.cif.g08.bks.cpg/sg2_79_cif.got.tgz:157108.got - 2010.06.03 11:33:40.
