data_PCOD9054891
_publ_section_title
;
Structure prediction by ZEFSAII (Michael W. Deem and Ramdas Pophale) SiO2 
 PCOD9054891
Probable space group: P -1
;
_chemical_formula_sum "Si O2"
_cell_formula_units_Z 16
_cell_length_a 9.435399
_cell_length_b 19.188228
_cell_length_c 6.716958
_cell_angle_alpha 48.179530
_cell_angle_beta 52.782059
_cell_angle_gamma 71.003941
_cell_volume 715.478028
_symmetry_space_group_name_H-M "P -1"
_symmetry_group_IT_number 2
_symmetry_cell_setting 'triclinic'
loop_
_space_group_symop_operation_xyz
x,y,z
-x,-y,-z
loop_
_atom_site_type_symbol
_atom_site_label
_atom_site_fract_x
_atom_site_fract_y
_atom_site_fract_z
Si Si1 0.994544 0.936558 0.926840
Si Si2 0.064861 0.600389 0.847401
Si Si3 0.511928 0.204388 0.911145
Si Si4 0.505533 0.441354 0.909692
Si Si5 0.720669 0.305718 0.192260
Si Si6 0.832758 0.233331 0.852461
Si Si7 0.309459 0.384196 0.826529
Si Si8 0.310386 0.030238 0.193075
O O1 0.816524 0.944817 0.930858
O O2 0.169870 0.961918 0.582913
O O3 0.014877 0.832411 0.188728
O O4 0.000000 0.000000 0.000000
O O5 0.198238 0.606247 0.908105
O O6 0.143721 0.670041 0.475459
O O7 0.000000 0.500000 0.000000
O O8 0.895303 0.643827 0.997486
O O9 0.639190 0.228544 0.565289
O O10 0.639162 0.184337 0.026401
O O11 0.425328 0.300941 0.837943
O O12 0.370621 0.118413 0.121445
O O13 0.328227 0.407838 0.999449
O O14 0.625793 0.515990 0.524557
O O15 0.500000 0.500000 0.000000
O O16 0.581824 0.346563 0.086768
O O17 0.845320 0.260111 0.021569
O O18 0.500000 0.000000 0.000000
#
# Coordination Sequence:
#
# PCOD9054891 Si02
#       8
#     2   2   2   2   2   2   2   2
#     4  11  27  48  76 107 141 181 229 289 352 421
#     4  11  26  42  62  95 139 179 223 282 332 393
#     4  11  24  42  68  99 132 173 222 283 336 407
#     4  11  21  39  63  88 130 176 225 276 327 396
#     4  11  23  42  65  93 134 179 225 273 340 396
#     4  11  25  45  67  99 138 176 226 277 340 410
#     4  11  24  38  62  95 129 171 229 277 330 393
#     4  11  26  49  76 105 142 178 228 288 355 419
#
# _framework density 22.362673000000001
#
# number of rings (size 3 to 8) (size 9 to 14) (size 15 to 20)
#    0.000    1.000    2.500    3.000    7.000    9.000 
#    0.000    0.000    0.000    0.000    0.000    0.000 
#    0.000    0.000    0.000    0.000    0.000    0.000 
#
# Total GULP energy -89282.568717 kJ/mol
# GULP energy per Si atom -5580.160545 kJ/mol
# Density = 2.231177 g / cm^3
# Si number density = 22.362673 Si / 1000 Ang^3
#
#
#
# Elastic Constant Matrix: (Units=GPa)
#
#
# Indices 1 2 3 4 5 6 
#
# 1 133.4785 31.9761 33.4734 -0.8767 9.8176 8.1017
# 2 31.9761 101.1149 17.9144 0.8540 14.1073 8.5545
# 3 33.4734 17.9144 38.8053 10.1919 5.1218 9.8626
# 4 -0.8767 0.8540 10.1919 31.3204 2.3150 -5.1584
# 5 9.8176 14.1073 5.1218 2.3150 30.6624 3.9761
# 6 8.1017 8.5545 9.8626 -5.1584 3.9761 41.3869
#
#
#
# Elastic Compliance Matrix: (Units=1/GPa)
#
#
# Indices 1 2 3 4 5 6 
#
# 1 0.010212 -0.001532 -0.009125 0.003582 -0.001451 0.001078
# 2 -0.001532 0.011654 -0.003575 0.000998 -0.004256 -0.000724
# 3 -0.009125 -0.003575 0.041663 -0.015244 -0.000036 -0.009300
# 4 0.003582 0.000998 -0.015244 0.038467 -0.002976 0.007806
# 5 -0.001451 -0.004256 -0.000036 -0.002976 0.035606 -0.002619
# 6 0.001078 -0.000724 -0.009300 0.007806 -0.002619 0.027542
#
#
# Mechanical properties :
#
#
# Convention : Reuss Voigt Hill
#
# Bulk Modulus (GPa) = 28.51784 48.90296 38.71040
# Shear Modulus (GPa) = 24.35498 33.34292 28.84895
#
# Velocity S-wave (km/s) = 3.30372 3.86555 3.59562
# Velocity P-wave (km/s) = 5.22808 6.46830 5.88097
#
# Compressibility (1/GPa) = 0.03506577
#
# Stress axis : x y z
#
# Youngs Moduli (GPa) = 97.92512 85.80652 24.00186
#
# Poissons Ratio (x) = 0.13143 0.21901
# Poissons Ratio (y) = 0.15000 0.08582
# Poissons Ratio (z) = 0.89354 0.30679
#
# Static dielectric constant tensor:
#      x y z
#    x 1.807860 -0.033830 -0.047660 
#    y -0.033830 1.867410 0.071770 
#    z -0.047660 0.071770 1.734610 
# 
# From -- ./inp_files/52174.got.cif
#   From: 2010.05.17/outbox.cif.g08.bks.cpg/sg2_27_cif.got.tgz:52174.got - 2010.06.03 11:33:40.
