data_PCOD9054554
_publ_section_title
;
Structure prediction by ZEFSAII (Michael W. Deem and Ramdas Pophale) SiO2 
 PCOD9054554
Probable space group: P -1
;
_chemical_formula_sum "Si O2"
_cell_formula_units_Z 16
_cell_length_a 10.962343
_cell_length_b 14.377366
_cell_length_c 8.219693
_cell_angle_alpha 57.241199
_cell_angle_beta 116.704995
_cell_angle_gamma 70.185721
_cell_volume 615.180959
_symmetry_space_group_name_H-M "P -1"
_symmetry_group_IT_number 2
_symmetry_cell_setting 'triclinic'
loop_
_space_group_symop_operation_xyz
x,y,z
-x,-y,-z
loop_
_atom_site_type_symbol
_atom_site_label
_atom_site_fract_x
_atom_site_fract_y
_atom_site_fract_z
Si Si1 0.013720 0.904276 0.326717
Si Si2 0.743796 0.047501 0.464231
Si Si3 0.053060 0.346315 0.612900
Si Si4 0.558074 0.400415 0.296378
Si Si5 0.701183 0.616112 0.654356
Si Si6 0.362944 0.969556 0.227257
Si Si7 0.942201 0.743423 0.652130
Si Si8 0.393400 0.415180 0.723979
O O1 0.196161 0.791413 0.403553
O O2 0.063340 0.774180 0.608241
O O3 0.045350 0.004253 0.335171
O O4 0.209767 0.995007 0.985405
O O5 0.675012 0.046953 0.598424
O O6 0.777845 0.921617 0.487029
O O7 0.558573 0.241964 0.095840
O O8 0.086571 0.314282 0.470861
O O9 0.835277 0.424212 0.472162
O O10 0.000000 0.500000 0.500000
O O11 0.265660 0.153709 0.990311
O O12 0.419230 0.383261 0.281386
O O13 0.527236 0.509672 0.315244
O O14 0.500000 0.500000 0.000000
O O15 0.632010 0.630045 0.417959
O O16 0.605544 0.795803 0.474938
O O17 0.937615 0.415861 0.003419
#
# Coordination Sequence:
#
# PCOD9054554 Si02
#       8
#     2   2   2   2   2   2   2   2
#     4  11  21  36  60  92 139 175 210 249 309 378
#     4  12  23  39  64  96 134 173 208 256 315 384
#     4  11  25  49  72  90 120 162 214 278 331 372
#     4  12  19  37  60  94 135 181 208 247 311 382
#     4  12  24  38  64  97 136 171 208 253 315 388
#     4  11  23  41  62  95 129 170 216 259 314 380
#     4  11  23  41  62  94 131 170 216 259 309 379
#     4  12  23  41  62  94 131 174 215 262 310 375
#
# _framework density 26.008603999999998
#
# number of rings (size 3 to 8) (size 9 to 14) (size 15 to 20)
#    0.000    0.500    6.250    4.125    0.000    1.000 
#    0.000    7.500    0.000    0.000    0.000    0.000 
#    0.000    0.000    0.000    0.000    0.000    0.000 
#
# Total GULP energy -89500.835627 kJ/mol
# GULP energy per Si atom -5593.802227 kJ/mol
# Density = 2.594941 g / cm^3
# Si number density = 26.008604 Si / 1000 Ang^3
#
#
#
# Elastic Constant Matrix: (Units=GPa)
#
#
# Indices 1 2 3 4 5 6 
#
# 1 40.2910 36.9006 14.4298 -4.3552 11.0825 0.1245
# 2 36.9006 196.9155 55.3735 -33.5438 -21.2454 -0.3997
# 3 14.4298 55.3735 131.6503 -23.1149 -5.6635 -6.1158
# 4 -4.3552 -33.5438 -23.1149 59.0801 -6.8604 -11.8291
# 5 11.0825 -21.2454 -5.6635 -6.8604 34.2063 -11.9356
# 6 0.1245 -0.3997 -6.1158 -11.8291 -11.9356 44.1065
#
#
#
# Elastic Compliance Matrix: (Units=1/GPa)
#
#
# Indices 1 2 3 4 5 6 
#
# 1 0.043771 -0.012134 -0.003259 -0.010444 -0.028234 -0.011127
# 2 -0.012134 0.010337 -0.000875 0.007355 0.013662 0.005676
# 3 -0.003259 -0.000875 0.009385 0.004119 0.004122 0.003523
# 4 -0.010444 0.007355 0.004119 0.026650 0.018447 0.012807
# 5 -0.028234 0.013662 0.004122 0.018447 0.058798 0.021634
# 6 -0.011127 0.005676 0.003523 0.012807 0.021634 0.032533
#
#
# Mechanical properties :
#
#
# Convention : Reuss Voigt Hill
#
# Bulk Modulus (GPa) = 32.30304 64.69607 48.49956
# Shear Modulus (GPa) = 22.28873 44.95545 33.62209
#
# Velocity S-wave (km/s) = 2.93059 4.16201 3.59936
# Velocity P-wave (km/s) = 4.88858 6.93003 5.99682
#
# Compressibility (1/GPa) = 0.03095684
#
# Stress axis : x y z
#
# Youngs Moduli (GPa) = 22.84614 96.74385 106.55015
#
# Poissons Ratio (x) = 1.17387 0.34727
# Poissons Ratio (y) = 0.27721 0.09323
# Poissons Ratio (z) = 0.07446 0.08465
#
# Static dielectric constant tensor:
#      x y z
#    x 2.240110 0.132730 0.050580 
#    y 0.132730 2.030240 0.000980 
#    z 0.050580 0.000980 2.083880 
# 
# From -- ./inp_files/311204.got.cif
#   From: 2010.05.17/outbox.cif.g08.bks.cpg/sg2_156_cif.got.tgz:311204.got - 2010.06.03 11:33:40.
