data_PCOD9054672
_publ_section_title
;
Structure prediction by ZEFSAII (Michael W. Deem and Ramdas Pophale) SiO2 
 PCOD9054672
Probable space group: P -1
;
_chemical_formula_sum "Si O2"
_cell_formula_units_Z 16
_cell_length_a 6.497094
_cell_length_b 22.593513
_cell_length_c 10.923606
_cell_angle_alpha 148.055753
_cell_angle_beta 63.488474
_cell_angle_gamma 121.379584
_cell_volume 724.275182
_symmetry_space_group_name_H-M "P -1"
_symmetry_group_IT_number 2
_symmetry_cell_setting 'triclinic'
loop_
_space_group_symop_operation_xyz
x,y,z
-x,-y,-z
loop_
_atom_site_type_symbol
_atom_site_label
_atom_site_fract_x
_atom_site_fract_y
_atom_site_fract_z
Si Si1 0.936665 0.765614 0.585542
Si Si2 0.304994 0.391700 0.013310
Si Si3 0.364743 0.293870 0.212088
Si Si4 0.345789 0.041296 0.715755
Si Si5 0.178404 0.564693 0.171836
Si Si6 0.424914 0.951345 0.798667
Si Si7 0.153668 0.163316 0.533077
Si Si8 0.236367 0.473717 0.432204
O O1 0.081091 0.673449 0.414299
O O2 0.139208 0.887182 0.771354
O O3 0.858793 0.767607 0.469020
O O4 0.707841 0.741902 0.692062
O O5 0.551727 0.399601 0.890689
O O6 0.148048 0.255772 0.803726
O O7 0.176911 0.476816 0.128956
O O8 0.362567 0.440178 0.219366
O O9 0.173749 0.356285 0.322684
O O10 0.600852 0.406007 0.339533
O O11 0.363837 0.177742 0.937087
O O12 0.500000 0.000000 0.500000
O O13 0.441429 0.027269 0.803303
O O14 0.074025 0.953707 0.617859
O O15 0.000000 0.500000 0.000000
O O16 0.600784 0.871703 0.586268
O O17 0.500000 0.000000 0.000000
O O18 0.000000 0.500000 0.500000
#
# Coordination Sequence:
#
# PCOD9054672 Si02
#       8
#     2   2   2   2   2   2   2   2
#     4  11  22  42  68  99 135 172 220 277 344 388
#     4  11  24  39  65 102 134 169 230 270 340 406
#     4  11  26  47  67  97 138 175 230 276 331 412
#     4  11  28  47  70 100 138 186 224 281 342 398
#     4  11  21  37  64  99 132 173 208 279 338 392
#     4  11  24  44  70 100 132 176 226 277 340 400
#     4  11  24  42  68 103 133 173 222 283 332 412
#     4  11  27  45  68  97 133 185 221 280 334 401
#
# _framework density 22.091051
#
# number of rings (size 3 to 8) (size 9 to 14) (size 15 to 20)
#    0.000    1.000    2.500    3.000    5.250    7.500 
#    0.000    0.000    0.000    0.000    0.000    0.000 
#    0.000    0.000    0.000    0.000    0.000    0.000 
#
# Total GULP energy -89380.737912 kJ/mol
# GULP energy per Si atom -5586.296119 kJ/mol
# Density = 2.204077 g / cm^3
# Si number density = 22.091051 Si / 1000 Ang^3
#
#
#
# Elastic Constant Matrix: (Units=GPa)
#
#
# Indices 1 2 3 4 5 6 
#
# 1 85.8488 14.6622 28.6598 19.2542 -0.9612 -13.6743
# 2 14.6622 70.6794 49.1847 8.1040 1.7848 -9.7058
# 3 28.6598 49.1847 137.6725 25.2989 -2.0964 -2.7639
# 4 19.2542 8.1040 25.2989 28.7692 -5.4205 -1.9362
# 5 -0.9612 1.7848 -2.0964 -5.4205 41.9442 -0.7065
# 6 -13.6743 -9.7058 -2.7639 -1.9362 -0.7065 24.5664
#
#
#
# Elastic Compliance Matrix: (Units=1/GPa)
#
#
# Indices 1 2 3 4 5 6 
#
# 1 0.015263 -0.000143 -0.001413 -0.008552 -0.000692 0.007586
# 2 -0.000143 0.020071 -0.007212 0.001081 -0.000959 0.007096
# 3 -0.001413 -0.007212 0.011411 -0.007282 -0.000146 -0.002930
# 4 -0.008552 0.001081 -0.007282 0.047538 0.005516 -0.001248
# 5 -0.000692 -0.000959 -0.000146 0.005516 0.024578 0.000361
# 6 0.007586 0.007096 -0.002930 -0.001248 0.000361 0.047315
#
#
# Mechanical properties :
#
#
# Convention : Reuss Voigt Hill
#
# Bulk Modulus (GPa) = 34.23426 53.24600 43.74013
# Shear Modulus (GPa) = 25.84662 32.50223 29.17442
#
# Velocity S-wave (km/s) = 3.42424 3.83989 3.63801
# Velocity P-wave (km/s) = 5.58251 6.61929 6.12289
#
# Compressibility (1/GPa) = 0.02921051
#
# Stress axis : x y z
#
# Youngs Moduli (GPa) = 65.51673 49.82250 87.63229
#
# Poissons Ratio (x) = 0.00714 0.12382
# Poissons Ratio (y) = 0.00939 0.63196
# Poissons Ratio (z) = 0.09257 0.35930
#
# Static dielectric constant tensor:
#      x y z
#    x 1.831030 -0.020520 0.007820 
#    y -0.020520 1.871780 0.019000 
#    z 0.007820 0.019000 1.943720 
# 
# From -- ./inp_files/371090.got.cif
#   From: 2010.05.17/outbox.cif.g08.bks.cpg/sg2_186_cif.got.tgz:371090.got - 2010.06.03 11:33:40.
