data_PCOD9054756
_publ_section_title
;
Structure prediction by ZEFSAII (Michael W. Deem and Ramdas Pophale) SiO2 
 PCOD9054756
Probable space group: P -1
;
_chemical_formula_sum "Si O2"
_cell_formula_units_Z 14
_cell_length_a 14.714918
_cell_length_b 11.662408
_cell_length_c 15.427080
_cell_angle_alpha 131.426299
_cell_angle_beta 161.014151
_cell_angle_gamma 56.180641
_cell_volume 619.377061
_symmetry_space_group_name_H-M "P -1"
_symmetry_group_IT_number 2
_symmetry_cell_setting 'triclinic'
loop_
_space_group_symop_operation_xyz
x,y,z
-x,-y,-z
loop_
_atom_site_type_symbol
_atom_site_label
_atom_site_fract_x
_atom_site_fract_y
_atom_site_fract_z
Si Si1 0.641133 0.461326 0.699752
Si Si2 0.324360 0.961640 0.550628
Si Si3 0.740442 0.079419 0.825569
Si Si4 0.175741 0.144235 0.667724
Si Si5 0.667240 0.808169 0.889747
Si Si6 0.958156 0.599719 0.823687
Si Si7 0.326848 0.727174 0.699156
O O1 0.500000 0.500000 0.500000
O O2 0.724835 0.647205 0.897025
O O3 0.343361 0.353473 0.418020
O O4 0.897650 0.407832 0.954143
O O5 0.425938 0.808134 0.598836
O O6 0.568954 0.042826 0.743117
O O7 0.319478 0.075831 0.684312
O O8 0.982687 0.908909 0.190726
O O9 0.500000 0.000000 0.500000
O O10 0.839115 0.267166 0.986745
O O11 0.000000 0.000000 0.000000
O O12 0.920295 0.218401 0.446624
O O13 0.422393 0.275085 0.007954
O O14 0.000000 0.000000 0.500000
O O15 0.509555 0.853391 0.855218
O O16 0.846960 0.427571 0.590783
#
# Coordination Sequence:
#
# PCOD9054756 Si02
#       7
#     2   2   2   2   2   2   2
#     4  11  24  39  68  97 132 174 227 288 353 404
#     4  12  25  40  67  99 138 175 237 274 333 412
#     4  12  29  50  71  92 134 196 237 285 330 399
#     4  12  21  38  67 106 141 173 220 278 356 412
#     4  11  21  38  63 101 138 167 216 283 346 410
#     4  11  25  46  65  96 138 180 232 275 346 415
#     4  11  21  40  66 101 141 178 206 283 358 407
#
# _framework density 22.603356000000002
#
# number of rings (size 3 to 8) (size 9 to 14) (size 15 to 20)
#    0.000    0.571    2.857    6.857    6.000    0.000 
#    0.000    1.429    0.000    0.000    0.000    0.000 
#    0.000    0.000    0.000    0.000    0.000    0.000 
#
# Total GULP energy -77954.575380 kJ/mol
# GULP energy per Si atom -5568.183956 kJ/mol
# Density = 2.255191 g / cm^3
# Si number density = 22.603356 Si / 1000 Ang^3
#
#
#
# Elastic Constant Matrix: (Units=GPa)
#
#
# Indices 1 2 3 4 5 6 
#
# 1 138.1639 35.4804 43.1570 -2.2736 27.8757 -2.4327
# 2 35.4804 64.8798 51.1609 -10.1803 11.3100 3.1678
# 3 43.1570 51.1609 172.0578 -24.2585 17.8309 6.5399
# 4 -2.2736 -10.1803 -24.2585 42.5623 -1.6121 10.4725
# 5 27.8757 11.3100 17.8309 -1.6121 36.8426 -0.7164
# 6 -2.4327 3.1678 6.5399 10.4725 -0.7164 25.6939
#
#
#
# Elastic Compliance Matrix: (Units=1/GPa)
#
#
# Indices 1 2 3 4 5 6 
#
# 1 0.009717 -0.003902 -0.001019 -0.001756 -0.005695 0.002217
# 2 -0.003902 0.022343 -0.004973 0.003017 -0.001429 -0.003128
# 3 -0.001019 -0.004973 0.008468 0.004372 -0.001677 -0.003468
# 4 -0.001756 0.003017 0.004372 0.030010 -0.000671 -0.013902
# 5 -0.005695 -0.001429 -0.001677 -0.000671 0.032697 0.001249
# 6 0.002217 -0.003128 -0.003468 -0.013902 0.001249 0.046099
#
#
# Mechanical properties :
#
#
# Convention : Reuss Voigt Hill
#
# Bulk Modulus (GPa) = 48.21059 70.52202 59.36631
# Shear Modulus (GPa) = 28.40354 37.37332 32.88843
#
# Velocity S-wave (km/s) = 3.54871 4.07066 3.81862
# Velocity P-wave (km/s) = 6.17790 7.30488 6.76490
#
# Compressibility (1/GPa) = 0.02074233
#
# Stress axis : x y z
#
# Youngs Moduli (GPa) = 102.91117 44.75640 118.08799
#
# Poissons Ratio (x) = 0.17462 0.12032
# Poissons Ratio (y) = 0.40151 0.58721
# Poissons Ratio (z) = 0.10486 0.22256
#
# Static dielectric constant tensor:
#      x y z
#    x 2.002130 0.141060 0.032760 
#    y 0.141060 2.355980 0.201660 
#    z 0.032760 0.201660 1.926570 
# 
# From -- ./inp_files/531918.got.cif
#   From: 2010.05.17/outbox.cif.g08.bks.cpg/sg2_266_cif.got.tgz:531918.got - 2010.06.03 11:33:40.
