data_PCOD9054180
_publ_section_title
;
Structure prediction by ZEFSAII (Michael W. Deem and Ramdas Pophale) SiO2 
 PCOD9054180
Probable space group: P -1
;
_chemical_formula_sum "Si O2"
_cell_formula_units_Z 14
_cell_length_a 6.684603
_cell_length_b 8.760703
_cell_length_c 12.308758
_cell_angle_alpha 100.071261
_cell_angle_beta 94.314810
_cell_angle_gamma 96.413981
_cell_volume 701.957531
_symmetry_space_group_name_H-M "P -1"
_symmetry_group_IT_number 2
_symmetry_cell_setting 'triclinic'
loop_
_space_group_symop_operation_xyz
x,y,z
-x,-y,-z
loop_
_atom_site_type_symbol
_atom_site_label
_atom_site_fract_x
_atom_site_fract_y
_atom_site_fract_z
Si Si1 0.120156 0.472500 0.891952
Si Si2 0.479521 0.737643 0.943523
Si Si3 0.788936 0.136381 0.239442
Si Si4 0.544461 0.419847 0.646554
Si Si5 0.784190 0.408404 0.449876
Si Si6 0.168364 0.319121 0.201479
Si Si7 0.363337 0.211785 0.809192
O O1 0.341302 0.570947 0.921386
O O2 0.170244 0.302331 0.841526
O O3 0.987143 0.554527 0.810642
O O4 0.000000 0.500000 0.000000
O O5 0.354179 0.831327 0.865337
O O6 0.698558 0.720064 0.900584
O O7 0.511283 0.797115 0.074768
O O8 0.779929 0.266055 0.348104
O O9 0.022995 0.166838 0.214360
O O10 0.715961 0.962209 0.253432
O O11 0.669880 0.349805 0.548513
O O12 0.337002 0.462091 0.593903
O O13 0.668457 0.589216 0.700793
O O14 0.497213 0.313451 0.737183
O O15 0.000000 0.500000 0.500000
#
# Coordination Sequence:
#
# PCOD9054180 Si02
#       7
#     2   2   2   2   2   2   2
#     4  11  21  36  63  92 127 172 218 258 302 385
#     4  11  22  43  66  92 134 180 212 250 326 406
#     4  11  25  42  64 100 135 168 213 271 328 376
#     4  11  23  42  73  93 121 172 226 263 315 386
#     4  11  23  45  73  92 122 174 225 263 318 391
#     4  11  20  41  66  91 126 176 217 253 317 392
#     4  12  24  42  63 103 138 162 212 277 325 372
#
# _framework density 19.944229
#
# number of rings (size 3 to 8) (size 9 to 14) (size 15 to 20)
#    0.000    0.857    5.714    2.571    0.000    1.143 
#    5.143    0.714    0.000    0.000    0.000    0.000 
#    0.000    0.000    0.000    0.000    0.000    0.000 
#
# Total GULP energy -78168.063304 kJ/mol
# GULP energy per Si atom -5583.433093 kJ/mol
# Density = 1.989883 g / cm^3
# Si number density = 19.944229 Si / 1000 Ang^3
#
#
#
# Elastic Constant Matrix: (Units=GPa)
#
#
# Indices 1 2 3 4 5 6 
#
# 1 120.5201 37.1014 50.0247 4.5945 -2.9838 15.8336
# 2 37.1014 84.8804 34.3529 10.4437 -7.0054 16.1477
# 3 50.0247 34.3529 117.6874 1.8920 -13.2179 13.7245
# 4 4.5945 10.4437 1.8920 13.8501 1.9896 1.5707
# 5 -2.9838 -7.0054 -13.2179 1.9896 47.6560 -2.3232
# 6 15.8336 16.1477 13.7245 1.5707 -2.3232 14.7617
#
#
#
# Elastic Compliance Matrix: (Units=1/GPa)
#
#
# Indices 1 2 3 4 5 6 
#
# 1 0.011294 -0.002296 -0.003467 -0.000685 -0.000877 -0.006445
# 2 -0.002296 0.017749 -0.002281 -0.011027 0.001640 -0.013402
# 3 -0.003467 -0.002281 0.011357 0.001452 0.002336 -0.004133
# 4 -0.000685 -0.011027 0.001452 0.080957 -0.004538 0.002119
# 5 -0.000877 0.001640 0.002336 -0.004538 0.022052 0.000929
# 6 -0.006445 -0.013402 -0.004133 0.002119 0.000929 0.093080
#
#
# Mechanical properties :
#
#
# Convention : Reuss Voigt Hill
#
# Bulk Modulus (GPa) = 41.12746 62.89400 52.01073
# Shear Modulus (GPa) = 19.18054 28.69413 23.93733
#
# Velocity S-wave (km/s) = 3.10451 3.79716 3.46817
# Velocity P-wave (km/s) = 5.78935 7.12937 6.49402
#
# Compressibility (1/GPa) = 0.02431466
#
# Stress axis : x y z
#
# Youngs Moduli (GPa) = 88.54184 56.33978 88.04880
#
# Poissons Ratio (x) = 0.12934 0.30522
# Poissons Ratio (y) = 0.20326 0.20083
# Poissons Ratio (z) = 0.30693 0.12851
#
# Static dielectric constant tensor:
#      x y z
#    x 1.720860 -0.006310 -0.013860 
#    y -0.006310 1.704830 -0.029600 
#    z -0.013860 -0.029600 1.759370 
# 
# From -- ./inp_files/34642.got.cif
#   From: 2010.05.17/outbox.cif.g08.bks.cpg/sg2_18_cif.got.tgz:34642.got - 2010.06.03 11:33:40.
