data_PCOD9054273
_publ_section_title
;
Structure prediction by ZEFSAII (Michael W. Deem and Ramdas Pophale) SiO2 
 PCOD9054273
Probable space group: P -1
;
_chemical_formula_sum "Si O2"
_cell_formula_units_Z 16
_cell_length_a 21.251893
_cell_length_b 9.559558
_cell_length_c 12.558422
_cell_angle_alpha 36.853392
_cell_angle_beta 28.100561
_cell_angle_gamma 48.069189
_cell_volume 714.348187
_symmetry_space_group_name_H-M "P -1"
_symmetry_group_IT_number 2
_symmetry_cell_setting 'triclinic'
loop_
_space_group_symop_operation_xyz
x,y,z
-x,-y,-z
loop_
_atom_site_type_symbol
_atom_site_label
_atom_site_fract_x
_atom_site_fract_y
_atom_site_fract_z
Si Si1 0.575652 0.958496 0.741861
Si Si2 0.060544 0.545625 0.730459
Si Si3 0.638393 0.488462 0.626264
Si Si4 0.486084 0.582605 0.350925
Si Si5 0.827977 0.279658 0.763628
Si Si6 0.234929 0.297974 0.263172
Si Si7 0.992681 0.097779 0.229337
Si Si8 0.517411 0.129958 0.283568
O O1 0.706412 0.832302 0.643974
O O2 0.548429 0.024714 0.621080
O O3 0.575584 0.174557 0.688845
O O4 0.447813 0.766444 0.076372
O O5 0.208836 0.523984 0.568364
O O6 0.077257 0.616695 0.539052
O O7 0.007191 0.750173 0.755260
O O8 0.983700 0.289042 0.032217
O O9 0.611293 0.564998 0.498718
O O10 0.569351 0.655092 0.706765
O O11 0.500000 0.500000 0.500000
O O12 0.633583 0.623603 0.052551
O O13 0.825065 0.476361 0.739328
O O14 0.675797 0.220736 0.981479
O O15 0.878421 0.043472 0.877207
O O16 0.131472 0.109199 0.470953
O O17 0.500000 0.000000 0.500000
#
# Coordination Sequence:
#
# PCOD9054273 Si02
#       8
#     2   2   2   2   2   2   2   2
#     4  11  21  38  68  92 131 172 210 272 335 393
#     4  11  24  46  72  97 130 180 231 279 335 392
#     4  11  20  42  65  95 132 164 219 275 336 397
#     4  11  23  40  63 102 133 172 215 272 344 394
#     4  12  24  45  68 100 140 176 227 276 334 404
#     4  11  24  45  66  96 138 177 222 273 332 410
#     4  11  26  47  67  97 136 181 232 273 328 402
#     4  12  23  38  65 105 134 165 214 281 342 394
#
# _framework density 22.398040999999999
#
# number of rings (size 3 to 8) (size 9 to 14) (size 15 to 20)
#    0.000    0.750    3.750    6.375    0.000    0.500 
#    6.750    0.000    0.000    0.000    0.000    0.000 
#    0.000    0.000    0.000    0.000    0.000    0.000 
#
# Total GULP energy -89496.326450 kJ/mol
# GULP energy per Si atom -5593.520403 kJ/mol
# Density = 2.234706 g / cm^3
# Si number density = 22.398041 Si / 1000 Ang^3
#
#
#
# Elastic Constant Matrix: (Units=GPa)
#
#
# Indices 1 2 3 4 5 6 
#
# 1 77.8609 24.5930 7.6333 3.8392 11.2074 7.5014
# 2 24.5930 150.6416 27.9649 -7.5325 8.9632 8.1591
# 3 7.6333 27.9649 44.2025 4.1924 2.8067 6.0721
# 4 3.8392 -7.5325 4.1924 17.3817 5.4984 0.7791
# 5 11.2074 8.9632 2.8067 5.4984 38.3275 4.1011
# 6 7.5014 8.1591 6.0721 0.7791 4.1011 33.7505
#
#
#
# Elastic Compliance Matrix: (Units=1/GPa)
#
#
# Indices 1 2 3 4 5 6 
#
# 1 0.014338 -0.002124 -0.000363 -0.002949 -0.003014 -0.002174
# 2 -0.002124 0.008407 -0.005336 0.005978 -0.001756 -0.000525
# 3 -0.000363 -0.005336 0.027325 -0.008988 0.001013 -0.003461
# 4 -0.002949 0.005978 -0.008988 0.065888 -0.009378 0.000446
# 5 -0.003014 -0.001756 0.001013 -0.009378 0.028909 -0.002384
# 6 -0.002174 -0.000525 -0.003461 0.000446 -0.002384 0.031141
#
#
# Mechanical properties :
#
#
# Convention : Reuss Voigt Hill
#
# Bulk Modulus (GPa) = 29.04745 43.67640 36.36192
# Shear Modulus (GPa) = 24.61486 32.05952 28.33719
#
# Velocity S-wave (km/s) = 3.31867 3.78743 3.56077
# Velocity P-wave (km/s) = 5.26134 6.21841 5.75979
#
# Compressibility (1/GPa) = 0.03442644
#
# Stress axis : x y z
#
# Youngs Moduli (GPa) = 69.74234 118.94369 36.59660
#
# Poissons Ratio (x) = 0.25262 0.01327
# Poissons Ratio (y) = 0.14813 0.19526
# Poissons Ratio (z) = 0.02530 0.63463
#
# Static dielectric constant tensor:
#      x y z
#    x 1.844710 -0.023640 0.045410 
#    y -0.023640 1.864100 -0.033530 
#    z 0.045410 -0.033530 1.849740 
# 
# From -- ./inp_files/405652.got.cif
#   From: 2010.05.17/outbox.cif.g08.bks.cpg/sg2_203_cif.got.tgz:405652.got - 2010.06.03 11:33:40.
