data_PCOD9054528
_publ_section_title
;
Structure prediction by ZEFSAII (Michael W. Deem and Ramdas Pophale) SiO2 
 PCOD9054528
Probable space group: P -1
;
_chemical_formula_sum "Si O2"
_cell_formula_units_Z 15
_cell_length_a 13.992784
_cell_length_b 8.366524
_cell_length_c 12.374340
_cell_angle_alpha 78.431103
_cell_angle_beta 75.196260
_cell_angle_gamma 23.864311
_cell_volume 564.604567
_symmetry_space_group_name_H-M "P -1"
_symmetry_group_IT_number 2
_symmetry_cell_setting 'triclinic'
loop_
_space_group_symop_operation_xyz
x,y,z
-x,-y,-z
loop_
_atom_site_type_symbol
_atom_site_label
_atom_site_fract_x
_atom_site_fract_y
_atom_site_fract_z
Si Si1 0.635792 0.330910 0.591274
Si Si2 0.500000 0.500000 0.000000
Si Si3 0.785887 0.422175 0.427724
Si Si4 0.414586 0.286434 0.920038
Si Si5 0.005654 0.772159 0.814131
Si Si6 0.299350 0.293195 0.362642
Si Si7 0.120341 0.323437 0.269698
Si Si8 0.505609 0.665659 0.800914
O O1 0.500000 0.500000 0.500000
O O2 0.786397 0.256649 0.516705
O O3 0.472815 0.630924 0.699328
O O4 0.795321 0.943062 0.636593
O O5 0.386758 0.495505 0.965547
O O6 0.330747 0.882798 0.918223
O O7 0.966427 0.159923 0.310881
O O8 0.772718 0.568251 0.510957
O O9 0.535657 0.826723 0.378634
O O10 0.181566 0.576659 0.879459
O O11 0.640978 0.982247 0.819326
O O12 0.500000 0.000000 0.000000
O O13 0.047272 0.527109 0.785001
O O14 0.718418 0.225432 0.859863
O O15 0.079610 0.540828 0.327774
O O16 0.397179 0.302171 0.263220
#
# Coordination Sequence:
#
# PCOD9054528 Si02
#       8
#     2   1   2   2   2   2   2   2
#     4  10  17  35  65  94 130 180 216 269 333 412
#     4  12  24  48  70 100 134 186 236 286 358 408
#     4  10  21  36  68  98 137 183 224 278 341 407
#     4  12  26  48  73  99 137 180 231 300 349 411
#     4  11  24  46  67 101 135 179 231 281 350 418
#     4  10  20  40  64 103 139 177 227 283 338 412
#     4  11  22  43  66 101 137 177 231 280 352 410
#     4  10  24  41  66  99 137 175 234 285 337 415
#
# _framework density 26.567264999999999
#
# number of rings (size 3 to 8) (size 9 to 14) (size 15 to 20)
#    0.000    1.333    5.333    0.800    0.000    6.400 
#    2.400    0.000    0.000    0.000    0.000    0.000 
#    0.000    0.000    0.000    0.000    0.000    0.000 
#
# Total GULP energy -83575.176364 kJ/mol
# GULP energy per Si atom -5571.678424 kJ/mol
# Density = 2.650680 g / cm^3
# Si number density = 26.567265 Si / 1000 Ang^3
#
#
#
# Elastic Constant Matrix: (Units=GPa)
#
#
# Indices 1 2 3 4 5 6 
#
# 1 186.5345 29.6197 90.1589 -25.5888 31.1663 -10.0739
# 2 29.6197 50.3122 34.3152 -20.6668 -8.2150 -9.9239
# 3 90.1589 34.3152 195.2858 -31.0066 -0.2938 -0.7645
# 4 -25.5888 -20.6668 -31.0066 46.2865 9.3530 -7.9709
# 5 31.1663 -8.2150 -0.2938 9.3530 74.1499 -11.4874
# 6 -10.0739 -9.9239 -0.7645 -7.9709 -11.4874 33.3289
#
#
#
# Elastic Compliance Matrix: (Units=1/GPa)
#
#
# Indices 1 2 3 4 5 6 
#
# 1 0.008205 -0.002174 -0.003010 0.002507 -0.003858 0.001034
# 2 -0.002174 0.031372 -0.002472 0.012454 0.004867 0.013283
# 3 -0.003010 -0.002472 0.007228 0.001798 0.000666 -0.000821
# 4 0.002507 0.012454 0.001798 0.032131 -0.001934 0.011525
# 5 -0.003858 0.004867 0.000666 -0.001934 0.016763 0.005613
# 6 0.001034 0.013283 -0.000821 0.011525 0.005613 0.038944
#
#
# Mechanical properties :
#
#
# Convention : Reuss Voigt Hill
#
# Bulk Modulus (GPa) = 31.75294 82.25778 57.00536
# Shear Modulus (GPa) = 31.16169 49.28897 40.22533
#
# Velocity S-wave (km/s) = 3.42853 4.31194 3.89536
# Velocity P-wave (km/s) = 5.25842 7.47126 6.46029
#
# Compressibility (1/GPa) = 0.03149315
#
# Stress axis : x y z
#
# Youngs Moduli (GPa) = 121.87494 31.87518 138.35034
#
# Poissons Ratio (x) = 0.06930 0.41642
# Poissons Ratio (y) = 0.26495 0.34205
# Poissons Ratio (z) = 0.36683 0.07881
#
# Static dielectric constant tensor:
#      x y z
#    x 4.339100 -0.639380 0.481950 
#    y -0.639380 2.518870 -0.058880 
#    z 0.481950 -0.058880 2.243830 
# 
# From -- ./inp_files/444475.got.cif
#   From: 2010.05.17/outbox.cif.g08.bks.cpg/sg2_223_cif.got.tgz:444475.got - 2010.06.03 11:33:40.
