data_PCOD9054744
_publ_section_title
;
Structure prediction by ZEFSAII (Michael W. Deem and Ramdas Pophale) SiO2 
 PCOD9054744
Probable space group: P -1
;
_chemical_formula_sum "Si O2"
_cell_formula_units_Z 16
_cell_length_a 22.788930
_cell_length_b 5.013004
_cell_length_c 19.630598
_cell_angle_alpha 83.268017
_cell_angle_beta 20.645400
_cell_angle_gamma 85.141523
_cell_volume 783.253912
_symmetry_space_group_name_H-M "P -1"
_symmetry_group_IT_number 2
_symmetry_cell_setting 'triclinic'
loop_
_space_group_symop_operation_xyz
x,y,z
-x,-y,-z
loop_
_atom_site_type_symbol
_atom_site_label
_atom_site_fract_x
_atom_site_fract_y
_atom_site_fract_z
Si Si1 0.160332 0.348467 0.264399
Si Si2 0.032435 0.233891 0.013401
Si Si3 0.833163 0.193607 0.370972
Si Si4 0.420876 0.220807 0.624985
Si Si5 0.298336 0.459125 0.976267
Si Si6 0.066244 0.326224 0.654613
Si Si7 0.932416 0.829893 0.491378
Si Si8 0.536425 0.987742 0.262896
O O1 0.190954 0.223411 0.309023
O O2 0.080150 0.633060 0.351993
O O3 0.308252 0.407118 0.048125
O O4 0.020716 0.131690 0.388822
O O5 0.221663 0.223550 0.834168
O O6 0.000000 0.500000 0.000000
O O7 0.911236 0.234291 0.210065
O O8 0.000000 0.000000 0.000000
O O9 0.841352 0.455973 0.402221
O O10 0.642612 0.083855 0.573485
O O11 0.937000 0.962668 0.297896
O O12 0.500000 0.500000 0.500000
O O13 0.464192 0.134331 0.656998
O O14 0.500000 0.000000 0.500000
O O15 0.327264 0.175928 0.919305
O O16 0.419306 0.694027 0.803975
O O17 0.115554 0.562829 0.160093
O O18 0.134930 0.267528 0.506050
#
# Coordination Sequence:
#
# PCOD9054744 Si02
#       8
#     2   2   2   2   2   2   2   2
#     4   9  17  31  55  88 120 151 195 251 301 348
#     4  12  25  44  66  91 120 155 199 247 300 357
#     4  12  25  41  60  87 123 161 198 243 301 359
#     4  12  25  44  66  91 120 155 199 247 300 357
#     4  11  21  38  62  89 118 155 203 251 297 352
#     4  11  21  38  62  89 118 155 203 251 297 352
#     4   9  17  31  55  88 120 151 195 251 301 348
#     4  12  25  41  60  87 123 161 198 243 301 359
#
# _framework density 20.427602
#
# number of rings (size 3 to 8) (size 9 to 14) (size 15 to 20)
#    0.000    1.000    0.000    9.750    0.000    0.000 
#    0.000    0.000    0.000    4.500    0.000    0.000 
#    0.000    0.000    0.000    0.000    0.000    0.000 
#
# Total GULP energy -89342.264484 kJ/mol
# GULP energy per Si atom -5583.891530 kJ/mol
# Density = 2.038111 g / cm^3
# Si number density = 20.427602 Si / 1000 Ang^3
#
#
#
# Elastic Constant Matrix: (Units=GPa)
#
#
# Indices 1 2 3 4 5 6 
#
# 1 98.2076 13.2071 21.9351 -9.2042 25.3846 4.1236
# 2 13.2071 111.1345 -2.5262 -1.1035 3.9608 1.6920
# 3 21.9351 -2.5262 38.9716 -2.7411 1.3786 -4.4168
# 4 -9.2042 -1.1035 -2.7411 35.6344 1.1268 4.5613
# 5 25.3846 3.9608 1.3786 1.1268 32.9832 -8.5626
# 6 4.1236 1.6920 -4.4168 4.5613 -8.5626 35.2551
#
#
#
# Elastic Compliance Matrix: (Units=1/GPa)
#
#
# Indices 1 2 3 4 5 6 
#
# 1 0.017138 -0.001572 -0.009709 0.005038 -0.014678 -0.007362
# 2 -0.001572 0.009219 0.001474 0.000001 0.000024 -0.000068
# 3 -0.009709 0.001474 0.031662 -0.001183 0.007853 0.007092
# 4 0.005038 0.000001 -0.001183 0.030275 -0.006479 -0.006228
# 5 -0.014678 0.000024 0.007853 -0.006479 0.045279 0.014535
# 6 -0.007362 -0.000068 0.007092 -0.006228 0.014535 0.034453
#
#
# Mechanical properties :
#
#
# Convention : Reuss Voigt Hill
#
# Bulk Modulus (GPa) = 26.03815 34.83842 30.43828
# Shear Modulus (GPa) = 24.94499 35.15441 30.04970
#
# Velocity S-wave (km/s) = 3.49827 4.15291 3.83957
# Velocity P-wave (km/s) = 5.39365 6.33144 5.88127
#
# Compressibility (1/GPa) = 0.03840518
#
# Stress axis : x y z
#
# Youngs Moduli (GPa) = 58.35111 108.47593 31.58318
#
# Poissons Ratio (x) = 0.17053 0.30663
# Poissons Ratio (y) = 0.09173 -0.04655
# Poissons Ratio (z) = 0.56651 -0.15988
#
# Static dielectric constant tensor:
#      x y z
#    x 1.849190 -0.017360 0.056670 
#    y -0.017360 1.692120 -0.021490 
#    z 0.056670 -0.021490 1.750920 
# 
# From -- ./inp_files/576782.got.cif
#   From: 2010.05.17/outbox.cif.g08.bks.cpg/sg2_289_cif.got.tgz:576782.got - 2010.06.03 11:33:40.
