data_PCOD9054191
_publ_section_title
;
Structure prediction by ZEFSAII (Michael W. Deem and Ramdas Pophale) SiO2 
 PCOD9054191
Probable space group: P -1
;
_chemical_formula_sum "Si O2"
_cell_formula_units_Z 14
_cell_length_a 11.049502
_cell_length_b 11.195962
_cell_length_c 9.404424
_cell_angle_alpha 118.123325
_cell_angle_beta 120.325491
_cell_angle_gamma 41.714313
_cell_volume 659.131188
_symmetry_space_group_name_H-M "P -1"
_symmetry_group_IT_number 2
_symmetry_cell_setting 'triclinic'
loop_
_space_group_symop_operation_xyz
x,y,z
-x,-y,-z
loop_
_atom_site_type_symbol
_atom_site_label
_atom_site_fract_x
_atom_site_fract_y
_atom_site_fract_z
Si Si1 0.626146 0.029704 0.010428
Si Si2 0.901529 0.889147 0.558941
Si Si3 0.016232 0.905433 0.108687
Si Si4 0.600408 0.218198 0.366651
Si Si5 0.607077 0.040318 0.678936
Si Si6 0.442236 0.605367 0.172021
Si Si7 0.281432 0.570041 0.505061
O O1 0.852252 0.903225 0.044014
O O2 0.590458 0.181356 0.176416
O O3 0.562064 0.055014 0.824891
O O4 0.500000 0.000000 0.000000
O O5 0.818279 0.887151 0.656423
O O6 0.062934 0.693847 0.477611
O O7 0.993012 0.973403 0.706645
O O8 0.731311 0.030925 0.428483
O O9 0.224514 0.707119 0.126982
O O10 0.000000 0.000000 0.000000
O O11 0.389052 0.375580 0.387852
O O12 0.691693 0.307644 0.496913
O O13 0.500000 0.000000 0.500000
O O14 0.564806 0.226240 0.734330
O O15 0.600875 0.473078 0.307145
O O16 0.500000 0.500000 0.000000
#
# Coordination Sequence:
#
# PCOD9054191 Si02
#       7
#     2   2   2   2   2   2   2
#     4  12  25  40  68  98 141 183 226 280 354 421
#     4  11  21  42  71  98 133 182 231 284 341 415
#     4  11  20  41  67  99 132 178 236 282 342 409
#     4  11  23  40  62 103 144 172 218 283 355 408
#     4  11  24  46  68  96 138 187 229 284 361 414
#     4  11  22  39  71 106 131 171 245 302 328 404
#     4  11  22  37  67 105 133 171 230 288 342 401
#
# _framework density 21.240082000000001
#
# number of rings (size 3 to 8) (size 9 to 14) (size 15 to 20)
#    0.000    0.857    7.143    3.000    0.000    0.000 
#    0.000    2.143    0.000    3.429    0.000    0.000 
#    0.000    0.000    0.000    0.000    0.000    0.000 
#
# Total GULP energy -78007.171987 kJ/mol
# GULP energy per Si atom -5571.940856 kJ/mol
# Density = 2.119174 g / cm^3
# Si number density = 21.240082 Si / 1000 Ang^3
#
#
#
# Elastic Constant Matrix: (Units=GPa)
#
#
# Indices 1 2 3 4 5 6 
#
# 1 134.7094 48.6933 26.7527 0.9720 -1.5858 -16.6334
# 2 48.6933 112.4862 43.3573 7.2390 -20.6101 -39.6757
# 3 26.7527 43.3573 136.7082 13.6197 -13.7717 -15.2092
# 4 0.9720 7.2390 13.6197 28.7229 -1.1929 -11.9066
# 5 -1.5858 -20.6101 -13.7717 -1.1929 44.4769 6.2751
# 6 -16.6334 -39.6757 -15.2092 -11.9066 6.2751 26.2622
#
#
#
# Elastic Compliance Matrix: (Units=1/GPa)
#
#
# Indices 1 2 3 4 5 6 
#
# 1 0.008986 -0.003869 -0.000781 0.001095 -0.001728 0.000304
# 2 -0.003869 0.025740 -0.003746 0.011458 0.005557 0.038134
# 3 -0.000781 -0.003746 0.008868 -0.004598 0.001342 -0.003423
# 4 0.001095 0.011458 -0.004598 0.049794 -0.000092 0.037939
# 5 -0.001728 0.005557 0.001342 -0.000092 0.025123 0.002034
# 6 0.000304 0.038134 -0.003423 0.037939 0.002034 0.110614
#
#
# Mechanical properties :
#
#
# Convention : Reuss Voigt Hill
#
# Bulk Modulus (GPa) = 37.30870 69.05669 53.18270
# Shear Modulus (GPa) = 19.61938 37.56576 28.59257
#
# Velocity S-wave (km/s) = 3.04253 4.21007 3.67299
# Velocity P-wave (km/s) = 5.47230 7.49773 6.56361
#
# Compressibility (1/GPa) = 0.02680340
#
# Stress axis : x y z
#
# Youngs Moduli (GPa) = 111.28151 38.85044 112.76461
#
# Poissons Ratio (x) = 0.15031 0.08806
# Poissons Ratio (y) = 0.43053 0.42236
# Poissons Ratio (z) = 0.08690 0.14552
#
# Static dielectric constant tensor:
#      x y z
#    x 1.905850 0.029190 -0.038680 
#    y 0.029190 1.817050 -0.035710 
#    z -0.038680 -0.035710 1.797130 
# 
# From -- ./inp_files/260264.got.cif
#   From: 2010.05.17/outbox.cif.g08.bks.cpg/sg2_131_cif.got.tgz:260264.got - 2010.06.03 11:33:40.
