data_PCOD9054017
_publ_section_title
;
Structure prediction by ZEFSAII (Michael W. Deem and Ramdas Pophale) SiO2 
 PCOD9054017
Probable space group: P -1
;
_chemical_formula_sum "Si O2"
_cell_formula_units_Z 16
_cell_length_a 14.396376
_cell_length_b 5.490842
_cell_length_c 18.728297
_cell_angle_alpha 127.320654
_cell_angle_beta 142.875192
_cell_angle_gamma 67.678138
_cell_volume 693.833405
_symmetry_space_group_name_H-M "P -1"
_symmetry_group_IT_number 2
_symmetry_cell_setting 'triclinic'
loop_
_space_group_symop_operation_xyz
x,y,z
-x,-y,-z
loop_
_atom_site_type_symbol
_atom_site_label
_atom_site_fract_x
_atom_site_fract_y
_atom_site_fract_z
Si Si1 0.840320 0.331623 0.298071
Si Si2 0.600796 0.238729 0.016325
Si Si3 0.860062 0.672538 0.920183
Si Si4 0.601303 0.605244 0.865593
Si Si5 0.277315 0.184058 0.591480
Si Si6 0.841900 0.684093 0.157512
Si Si7 0.163116 0.452348 0.429145
Si Si8 0.919341 0.666355 0.797704
O O1 0.670446 0.243499 0.138936
O O2 0.826149 0.606578 0.391690
O O3 0.988573 0.424899 0.351834
O O4 0.856329 0.984760 0.270662
O O5 0.756279 0.376568 0.090867
O O6 0.500000 0.500000 0.000000
O O7 0.524763 0.911748 0.874915
O O8 0.703573 0.570470 0.852930
O O9 0.823976 0.629116 0.806173
O O10 0.000000 0.500000 0.000000
O O11 0.937544 0.037862 0.046494
O O12 0.462299 0.312468 0.744204
O O13 0.730612 0.693102 0.023103
O O14 0.254689 0.284895 0.513348
O O15 0.231056 0.822012 0.521665
O O16 0.007313 0.639040 0.222461
O O17 0.154609 0.292495 0.317164
#
# Coordination Sequence:
#
# PCOD9054017 Si02
#       8
#     2   2   2   2   2   2   2   2
#     4  11  24  42  67 104 134 189 245 284 340 410
#     4  11  22  37  69  99 143 175 219 298 355 410
#     4  11  23  42  78 105 129 168 229 312 364 415
#     4  11  24  43  64 107 142 180 233 288 362 415
#     4  12  29  44  69  99 149 199 235 276 338 427
#     4  11  20  39  71  98 142 171 224 309 352 400
#     4  12  27  47  69  97 146 195 238 285 331 422
#     4  11  23  43  71 107 127 174 236 296 361 404
#
# _framework density 23.060292
#
# number of rings (size 3 to 8) (size 9 to 14) (size 15 to 20)
#    0.000    0.750    3.750    3.750    7.000    2.000 
#    0.000    1.250    0.000    0.000    0.000    0.000 
#    0.000    0.000    0.000    0.000    0.000    0.000 
#
# Total GULP energy -89420.612983 kJ/mol
# GULP energy per Si atom -5588.788311 kJ/mol
# Density = 2.300781 g / cm^3
# Si number density = 23.060292 Si / 1000 Ang^3
#
#
#
# Elastic Constant Matrix: (Units=GPa)
#
#
# Indices 1 2 3 4 5 6 
#
# 1 122.1471 4.2673 18.4355 9.3757 -7.3181 9.4744
# 2 4.2673 65.4197 8.2402 3.9941 2.3582 4.3544
# 3 18.4355 8.2402 56.3824 8.6279 -0.5307 9.6349
# 4 9.3757 3.9941 8.6279 36.0100 11.0737 4.1711
# 5 -7.3181 2.3582 -0.5307 11.0737 43.1691 0.8700
# 6 9.4744 4.3544 9.6349 4.1711 0.8700 33.3965
#
#
#
# Elastic Compliance Matrix: (Units=1/GPa)
#
#
# Indices 1 2 3 4 5 6 
#
# 1 0.008959 -0.000129 -0.002268 -0.002231 0.002103 -0.001647
# 2 -0.000129 0.015700 -0.001892 -0.000902 -0.000645 -0.001335
# 3 -0.002268 -0.001892 0.020111 -0.003820 0.001036 -0.004462
# 4 -0.002231 -0.000902 -0.003820 0.032239 -0.008606 -0.001950
# 5 0.002103 -0.000645 0.001036 -0.008606 0.025785 -0.000408
# 6 -0.001647 -0.001335 -0.004462 -0.001950 -0.000408 0.032126
#
#
# Mechanical properties :
#
#
# Convention : Reuss Voigt Hill
#
# Bulk Modulus (GPa) = 27.63082 33.98167 30.80625
# Shear Modulus (GPa) = 32.14183 36.71555 34.42869
#
# Velocity S-wave (km/s) = 3.73744 3.99451 3.86811
# Velocity P-wave (km/s) = 5.53467 6.00357 5.77388
#
# Compressibility (1/GPa) = 0.03619146
#
# Stress axis : x y z
#
# Youngs Moduli (GPa) = 111.62453 63.69498 49.72441
#
# Poissons Ratio (x) = 0.00820 0.11277
# Poissons Ratio (y) = 0.01437 0.09410
# Poissons Ratio (z) = 0.25315 0.12053
#
# Static dielectric constant tensor:
#      x y z
#    x 1.907060 0.010120 -0.018260 
#    y 0.010120 1.963080 -0.042990 
#    z -0.018260 -0.042990 1.910850 
# 
# From -- ./inp_files/38725.got.cif
#   From: 2010.05.17/outbox.cif.g08.bks.cpg/sg2_20_cif.got.tgz:38725.got - 2010.06.03 11:33:40.
