data_PCOD9054568
_publ_section_title
;
Structure prediction by ZEFSAII (Michael W. Deem and Ramdas Pophale) SiO2 
 PCOD9054568
Probable space group: P -1
;
_chemical_formula_sum "Si O2"
_cell_formula_units_Z 16
_cell_length_a 9.833663
_cell_length_b 15.417937
_cell_length_c 14.771925
_cell_angle_alpha 35.922095
_cell_angle_beta 35.779696
_cell_angle_gamma 37.440153
_cell_volume 704.292798
_symmetry_space_group_name_H-M "P -1"
_symmetry_group_IT_number 2
_symmetry_cell_setting 'triclinic'
loop_
_space_group_symop_operation_xyz
x,y,z
-x,-y,-z
loop_
_atom_site_type_symbol
_atom_site_label
_atom_site_fract_x
_atom_site_fract_y
_atom_site_fract_z
Si Si1 0.050305 0.161858 0.833283
Si Si2 0.617374 0.282263 0.658494
Si Si3 0.748567 0.949986 0.847950
Si Si4 0.031997 0.340622 0.279269
Si Si5 0.181734 0.699794 0.752837
Si Si6 0.357899 0.983313 0.362625
Si Si7 0.696487 0.433588 0.660563
Si Si8 0.911663 0.605130 0.250012
O O1 0.879369 0.290750 0.744136
O O2 0.347594 0.107106 0.697440
O O3 0.001033 0.260882 0.870530
O O4 0.000000 0.000000 0.000000
O O5 0.574411 0.353910 0.720319
O O6 0.360752 0.304038 0.728222
O O7 0.763627 0.362398 0.450608
O O8 0.820406 0.098310 0.708438
O O9 0.980178 0.778179 0.875282
O O10 0.668254 0.971574 0.767824
O O11 0.500000 0.000000 0.000000
O O12 0.960705 0.362691 0.193362
O O13 0.090762 0.470637 0.196719
O O14 0.232120 0.155988 0.334261
O O15 0.226332 0.856813 0.557042
O O16 0.461638 0.565414 0.729808
O O17 0.848044 0.516495 0.447665
#
# Coordination Sequence:
#
# PCOD9054568 Si02
#       8
#     2   2   2   2   2   2   2   2
#     4  12  27  44  60  92 141 189 217 269 347 398
#     4  11  18  36  65 106 130 159 217 285 334 385
#     4  11  22  35  64 102 140 168 210 275 350 394
#     4  10  17  35  66 104 122 161 220 288 325 378
#     4  11  18  39  69 104 129 165 230 284 323 396
#     4  11  21  40  67  94 138 178 225 271 332 401
#     4  11  22  38  70  98 133 169 228 276 329 397
#     4  11  20  39  69 101 130 169 232 277 326 396
#
# _framework density 22.717825999999999
#
# number of rings (size 3 to 8) (size 9 to 14) (size 15 to 20)
#    0.000    1.000    7.500    1.875    1.750    0.000 
#    0.000    6.250    0.000    0.000    0.000    0.000 
#    0.000    0.000    0.000    0.000    0.000    0.000 
#
# Total GULP energy -89350.079805 kJ/mol
# GULP energy per Si atom -5584.379988 kJ/mol
# Density = 2.266612 g / cm^3
# Si number density = 22.717826 Si / 1000 Ang^3
#
#
#
# Elastic Constant Matrix: (Units=GPa)
#
#
# Indices 1 2 3 4 5 6 
#
# 1 88.4012 65.7767 37.8597 -17.8394 -10.7984 4.4093
# 2 65.7767 220.4316 49.0779 -10.7477 6.0412 10.3458
# 3 37.8597 49.0779 73.1931 -3.8266 4.8028 4.8827
# 4 -17.8394 -10.7477 -3.8266 36.8103 5.4525 -3.4862
# 5 -10.7984 6.0412 4.8028 5.4525 13.4786 -12.4855
# 6 4.4093 10.3458 4.8827 -3.4862 -12.4855 51.8267
#
#
#
# Elastic Compliance Matrix: (Units=1/GPa)
#
#
# Indices 1 2 3 4 5 6 
#
# 1 0.025401 -0.006050 -0.011518 0.005282 0.032800 0.008389
# 2 -0.006050 0.006950 -0.000549 0.000360 -0.011135 -0.003479
# 3 -0.011518 -0.000549 0.021847 -0.000760 -0.022402 -0.006417
# 4 0.005282 0.000360 -0.000760 0.030984 -0.008597 -0.000437
# 5 0.032800 -0.011135 -0.022402 -0.008597 0.151658 0.037500
# 6 0.008389 -0.003479 -0.006417 -0.000437 0.037500 0.028885
#
#
# Mechanical properties :
#
#
# Convention : Reuss Voigt Hill
#
# Bulk Modulus (GPa) = 55.66862 76.38384 66.02623
# Shear Modulus (GPa) = 16.23658 35.71055 25.97356
#
# Velocity S-wave (km/s) = 2.67630 3.96904 3.38496
# Velocity P-wave (km/s) = 5.84018 7.39596 6.66363
#
# Compressibility (1/GPa) = 0.01796344
#
# Stress axis : x y z
#
# Youngs Moduli (GPa) = 39.36915 143.87942 45.77388
#
# Poissons Ratio (x) = 0.87052 0.52720
# Poissons Ratio (y) = 0.23820 0.02514
# Poissons Ratio (z) = 0.45343 0.07901
#
# Static dielectric constant tensor:
#      x y z
#    x 1.848180 0.035190 0.010980 
#    y 0.035190 1.923680 -0.101360 
#    z 0.010980 -0.101360 2.151170 
# 
# From -- ./inp_files/505223.got.cif
#   From: 2010.05.17/outbox.cif.g08.bks.cpg/sg2_253_cif.got.tgz:505223.got - 2010.06.03 11:33:40.
