data_PCOD9054340
_publ_section_title
;
Structure prediction by ZEFSAII (Michael W. Deem and Ramdas Pophale) SiO2 
 PCOD9054340
Probable space group: P -1
;
_chemical_formula_sum "Si O2"
_cell_formula_units_Z 12
_cell_length_a 17.173845
_cell_length_b 6.921780
_cell_length_c 8.927179
_cell_angle_alpha 95.590560
_cell_angle_beta 138.044875
_cell_angle_gamma 56.916433
_cell_volume 496.156525
_symmetry_space_group_name_H-M "P -1"
_symmetry_group_IT_number 2
_symmetry_cell_setting 'triclinic'
loop_
_space_group_symop_operation_xyz
x,y,z
-x,-y,-z
loop_
_atom_site_type_symbol
_atom_site_label
_atom_site_fract_x
_atom_site_fract_y
_atom_site_fract_z
Si Si1 0.536179 0.788303 0.914760
Si Si2 0.366108 0.673106 0.459886
Si Si3 0.068587 0.257969 0.969403
Si Si4 0.065963 0.108189 0.510019
Si Si5 0.763219 0.371423 0.463319
Si Si6 0.228330 0.243795 0.924478
O O1 0.416011 0.785709 0.655700
O O2 0.655995 0.515287 0.169511
O O3 0.613598 0.821325 0.894132
O O4 0.500000 0.000000 0.000000
O O5 0.500000 0.500000 0.500000
O O6 0.342173 0.517917 0.526544
O O7 0.181509 0.943712 0.158768
O O8 0.196071 0.220081 0.043568
O O9 0.901628 0.375165 0.661769
O O10 0.000000 0.500000 0.000000
O O11 0.207473 0.068390 0.789286
O O12 0.917846 0.433962 0.303394
O O13 0.132441 0.949215 0.436703
O O14 0.000000 0.000000 0.500000
#
# Coordination Sequence:
#
# PCOD9054340 Si02
#       6
#     2   2   2   2   2   2
#     4  12  27  48  75 109 156 202 249 315 384 454
#     4  12  31  47  73 114 157 200 247 319 396 447
#     4  12  27  48  75 109 156 202 249 315 384 454
#     4  11  20  42  73 115 137 183 257 318 351 427
#     4  12  25  49  81 104 148 203 266 301 370 466
#     4  11  24  41  76 110 146 186 256 310 368 444
#
# _framework density 24.185917
#
# number of rings (size 3 to 8) (size 9 to 14) (size 15 to 20)
#    0.000    0.333    3.333    5.000    9.333    0.667 
#    0.000    0.000    0.000    0.000    0.000    0.000 
#    0.000    0.000    0.000    0.000    0.000    0.000 
#
# Total GULP energy -67028.675299 kJ/mol
# GULP energy per Si atom -5585.722942 kJ/mol
# Density = 2.413087 g / cm^3
# Si number density = 24.185917 Si / 1000 Ang^3
#
#
#
# Elastic Constant Matrix: (Units=GPa)
#
#
# Indices 1 2 3 4 5 6 
#
# 1 154.2320 3.4468 -0.9901 -0.6357 -5.3419 0.1678
# 2 3.4468 99.1935 2.3622 7.4884 -1.4846 -10.6302
# 3 -0.9901 2.3622 55.5028 9.2336 4.5046 3.3631
# 4 -0.6357 7.4884 9.2336 25.6795 5.0453 -9.3818
# 5 -5.3419 -1.4846 4.5046 5.0453 28.9434 4.5458
# 6 0.1678 -10.6302 3.3631 -9.3818 4.5458 43.2264
#
#
#
# Elastic Compliance Matrix: (Units=1/GPa)
#
#
# Indices 1 2 3 4 5 6 
#
# 1 0.006532 -0.000226 0.000061 -0.000128 0.001245 -0.000245
# 2 -0.000226 0.010499 -0.000230 -0.002370 0.000628 0.002020
# 3 0.000061 -0.000230 0.019634 -0.007922 -0.001176 -0.003180
# 4 -0.000128 -0.002370 -0.007922 0.048490 -0.009175 0.011523
# 5 0.001245 0.000628 -0.001176 -0.009175 0.037489 -0.005692
# 6 -0.000245 0.002020 -0.003180 0.011523 -0.005692 0.026979
#
#
# Mechanical properties :
#
#
# Convention : Reuss Voigt Hill
#
# Bulk Modulus (GPa) = 27.87427 35.39624 31.63525
# Shear Modulus (GPa) = 30.79347 39.84381 35.31864
#
# Velocity S-wave (km/s) = 3.57206 4.06322 3.82553
# Velocity P-wave (km/s) = 5.34442 6.05639 5.71151
#
# Compressibility (1/GPa) = 0.03587538
#
# Stress axis : x y z
#
# Youngs Moduli (GPa) = 153.09114 95.24274 50.93198
#
# Poissons Ratio (x) = 0.02156 -0.00312
# Poissons Ratio (y) = 0.03465 0.01172
# Poissons Ratio (z) = -0.00938 0.02191
#
# Static dielectric constant tensor:
#      x y z
#    x 2.064350 0.151230 0.012880 
#    y 0.151230 2.815700 0.038430 
#    z 0.012880 0.038430 1.993150 
# 
# From -- ./inp_files/321895.got.cif
#   From: 2010.05.17/outbox.cif.g08.bks.cpg/sg2_161_cif.got.tgz:321895.got - 2010.06.03 11:33:40.
