data_PCOD9054039
_publ_section_title
;
Structure prediction by ZEFSAII (Michael W. Deem and Ramdas Pophale) SiO2 
 PCOD9054039
Probable space group: P -1
;
_chemical_formula_sum "Si O2"
_cell_formula_units_Z 16
_cell_length_a 10.005599
_cell_length_b 25.628697
_cell_length_c 15.360963
_cell_angle_alpha 21.292665
_cell_angle_beta 35.725691
_cell_angle_gamma 27.052308
_cell_volume 646.678819
_symmetry_space_group_name_H-M "P -1"
_symmetry_group_IT_number 2
_symmetry_cell_setting 'triclinic'
loop_
_space_group_symop_operation_xyz
x,y,z
-x,-y,-z
loop_
_atom_site_type_symbol
_atom_site_label
_atom_site_fract_x
_atom_site_fract_y
_atom_site_fract_z
Si Si1 0.730909 0.192341 0.992710
Si Si2 0.318137 0.267373 0.943698
Si Si3 0.624948 0.000183 0.061341
Si Si4 0.656847 0.382383 0.482598
Si Si5 0.793858 0.335067 0.289585
Si Si6 0.646826 0.044214 0.428774
Si Si7 0.160252 0.390977 0.251307
Si Si8 0.696821 0.686331 0.408820
O O1 0.494443 0.198683 0.049314
O O2 0.602646 0.402813 0.734880
O O3 0.057662 0.059270 0.987907
O O4 0.747735 0.135317 0.171858
O O5 0.503329 0.316427 0.717342
O O6 0.975402 0.450886 0.847418
O O7 0.391613 0.100438 0.106850
O O8 0.706033 0.807223 0.288300
O O9 0.478407 0.155354 0.820917
O O10 0.816820 0.291367 0.447984
O O11 0.902687 0.373965 0.416751
O O12 0.492496 0.374801 0.363047
O O13 0.826932 0.491541 0.014181
O O14 0.063274 0.149496 0.388787
O O15 0.443688 0.185898 0.392865
O O16 0.500000 0.000000 0.500000
O O17 0.000000 0.500000 0.500000
#
# Coordination Sequence:
#
# PCOD9054039 Si02
#       8
#     2   2   2   2   2   2   2   2
#     4  11  21  38  65  98 139 172 209 275 329 401
#     4  11  24  42  64 102 144 175 210 270 342 403
#     4  11  24  43  66  99 128 169 229 274 329 387
#     4  11  20  40  62  97 140 179 214 259 329 400
#     4  12  22  42  67  96 129 174 227 275 325 386
#     4  12  22  36  64  97 138 176 214 257 332 403
#     4  11  24  39  61  96 142 174 210 265 331 403
#     4  11  25  45  72  95 124 173 236 285 316 375
#
# _framework density 24.741803000000001
#
# number of rings (size 3 to 8) (size 9 to 14) (size 15 to 20)
#    0.000    0.750    5.000    4.500    0.000    0.000 
#    6.750    0.625    0.000    1.500    0.000    0.000 
#    0.000    0.000    0.000    0.000    0.000    0.000 
#
# Total GULP energy -89334.740994 kJ/mol
# GULP energy per Si atom -5583.421312 kJ/mol
# Density = 2.468549 g / cm^3
# Si number density = 24.741803 Si / 1000 Ang^3
#
#
#
# Elastic Constant Matrix: (Units=GPa)
#
#
# Indices 1 2 3 4 5 6 
#
# 1 44.3464 24.9091 4.6949 -9.1312 -15.6451 11.9477
# 2 24.9091 202.7329 30.0984 -48.0589 -17.0785 22.8134
# 3 4.6949 30.0984 99.0598 -9.3668 5.5475 8.6748
# 4 -9.1312 -48.0589 -9.3668 57.2871 9.3681 -5.9339
# 5 -15.6451 -17.0785 5.5475 9.3681 23.6448 -8.3121
# 6 11.9477 22.8134 8.6748 -5.9339 -8.3121 36.6037
#
#
#
# Elastic Compliance Matrix: (Units=1/GPa)
#
#
# Indices 1 2 3 4 5 6 
#
# 1 0.031326 -0.001542 -0.001637 -0.000060 0.018364 -0.004715
# 2 -0.001542 0.006861 -0.001447 0.004778 0.001573 -0.002298
# 3 -0.001637 -0.001447 0.011270 0.001108 -0.006066 -0.002433
# 4 -0.000060 0.004778 0.001108 0.022536 -0.006114 -0.000956
# 5 0.018364 0.001573 -0.006066 -0.006114 0.062087 0.007571
# 6 -0.004715 -0.002298 -0.002433 -0.000956 0.007571 0.032432
#
#
# Mechanical properties :
#
#
# Convention : Reuss Voigt Hill
#
# Bulk Modulus (GPa) = 24.87315 51.72709 38.30012
# Shear Modulus (GPa) = 26.43194 42.60290 34.51742
#
# Velocity S-wave (km/s) = 3.27205 4.15408 3.73916
# Velocity P-wave (km/s) = 4.93457 6.63028 5.84425
#
# Compressibility (1/GPa) = 0.04020399
#
# Stress axis : x y z
#
# Youngs Moduli (GPa) = 31.92218 145.76042 88.73442
#
# Poissons Ratio (x) = 0.22483 0.14527
# Poissons Ratio (y) = 0.04924 0.12836
# Poissons Ratio (z) = 0.05226 0.21085
#
# Static dielectric constant tensor:
#      x y z
#    x 2.066720 0.050520 -0.023670 
#    y 0.050520 1.999360 0.001680 
#    z -0.023670 0.001680 2.052240 
# 
# From -- ./inp_files/571220.got.cif
#   From: 2010.05.17/outbox.cif.g08.bks.cpg/sg2_286_cif.got.tgz:571220.got - 2010.06.03 11:33:40.
