data_PCOD9054918
_publ_section_title
;
Structure prediction by ZEFSAII (Michael W. Deem and Ramdas Pophale) SiO2 
 PCOD9054918
Probable space group: P -1
;
_chemical_formula_sum "Si O2"
_cell_formula_units_Z 16
_cell_length_a 12.398349
_cell_length_b 16.531493
_cell_length_c 9.604612
_cell_angle_alpha 45.129679
_cell_angle_beta 139.628146
_cell_angle_gamma 137.642739
_cell_volume 812.026551
_symmetry_space_group_name_H-M "P -1"
_symmetry_group_IT_number 2
_symmetry_cell_setting 'triclinic'
loop_
_space_group_symop_operation_xyz
x,y,z
-x,-y,-z
loop_
_atom_site_type_symbol
_atom_site_label
_atom_site_fract_x
_atom_site_fract_y
_atom_site_fract_z
Si Si1 0.163781 0.563966 0.696462
Si Si2 0.196410 0.895523 0.154667
Si Si3 0.797378 0.846754 0.167059
Si Si4 0.828039 0.686757 0.930365
Si Si5 0.796466 0.878296 0.445720
Si Si6 0.150530 0.797705 0.528193
Si Si7 0.412117 0.030642 0.661147
Si Si8 0.432653 0.249984 0.210265
O O1 0.126169 0.656197 0.653861
O O2 0.352393 0.653649 0.692435
O O3 0.000000 0.500000 0.500000
O O4 0.195957 0.454715 0.940516
O O5 0.241895 0.868933 0.387073
O O6 0.376073 0.943980 0.175492
O O7 0.034941 0.769023 0.090339
O O8 0.121130 0.001625 0.959430
O O9 0.744930 0.829530 0.297758
O O10 0.954069 0.801224 0.345254
O O11 0.632284 0.784235 0.970936
O O12 0.802532 0.765222 0.681364
O O13 0.688211 0.688564 0.909846
O O14 0.654946 0.925108 0.320316
O O15 0.000000 0.000000 0.500000
O O16 0.280162 0.884657 0.672096
O O17 0.390051 0.121648 0.409438
#
# Coordination Sequence:
#
# PCOD9054918 Si02
#       8
#     2   2   2   2   2   2   2   2
#     4  12  23  39  62  95 125 157 206 258 308 364
#     4  12  20  36  63  95 123 152 204 263 308 357
#     4  12  22  38  64  92 123 165 204 251 311 362
#     4  11  23  40  62  90 124 165 208 249 304 366
#     4  11  23  42  62  89 128 166 205 250 303 370
#     4  12  21  36  61  95 127 154 200 261 310 361
#     4  11  22  37  64  97 124 155 203 262 313 353
#     4  11  21  39  65  92 122 160 204 260 309 360
#
# _framework density 19.703787999999999
#
# number of rings (size 3 to 8) (size 9 to 14) (size 15 to 20)
#    0.000    0.500    7.500    2.625    0.000    0.500 
#    0.000    1.250    0.000    0.000    0.000    0.000 
#    0.000    0.000    0.000    0.000    0.000    0.000 
#
# Total GULP energy -89456.980913 kJ/mol
# GULP energy per Si atom -5591.061307 kJ/mol
# Density = 1.965894 g / cm^3
# Si number density = 19.703788 Si / 1000 Ang^3
#
#
#
# Elastic Constant Matrix: (Units=GPa)
#
#
# Indices 1 2 3 4 5 6 
#
# 1 112.7570 44.7949 43.7192 7.4943 4.5602 -18.7199
# 2 44.7949 115.9554 38.5666 -16.7492 13.0288 -14.3705
# 3 43.7192 38.5666 54.7445 -13.0710 -0.0765 -15.2608
# 4 7.4943 -16.7492 -13.0710 44.3231 0.0151 18.3700
# 5 4.5602 13.0288 -0.0765 0.0151 39.4333 -1.0216
# 6 -18.7199 -14.3705 -15.2608 18.3700 -1.0216 25.4026
#
#
#
# Elastic Compliance Matrix: (Units=1/GPa)
#
#
# Indices 1 2 3 4 5 6 
#
# 1 0.017755 -0.003266 -0.011114 -0.013413 -0.000622 0.014235
# 2 -0.003266 0.012643 -0.005833 0.004514 -0.003869 -0.002179
# 3 -0.011114 -0.005833 0.034121 0.008492 0.003353 0.003003
# 4 -0.013413 0.004514 0.008492 0.042807 -0.000801 -0.033218
# 5 -0.000622 -0.003869 0.003353 -0.000801 0.026743 0.001022
# 6 0.014235 -0.002179 0.003003 -0.033218 0.001022 0.074490
#
#
# Mechanical properties :
#
#
# Convention : Reuss Voigt Hill
#
# Bulk Modulus (GPa) = 41.50710 59.73537 50.62124
# Shear Modulus (GPa) = 19.45407 32.25688 25.85547
#
# Velocity S-wave (km/s) = 3.14558 4.05049 3.62637
# Velocity P-wave (km/s) = 5.85698 7.22895 6.57883
#
# Compressibility (1/GPa) = 0.02409226
#
# Stress axis : x y z
#
# Youngs Moduli (GPa) = 56.32158 79.09803 29.30767
#
# Poissons Ratio (x) = 0.25834 0.32572
# Poissons Ratio (y) = 0.18395 0.17096
# Poissons Ratio (z) = 0.62594 0.46140
#
# Static dielectric constant tensor:
#      x y z
#    x 1.690450 -0.004520 0.009070 
#    y -0.004520 1.678380 -0.007670 
#    z 0.009070 -0.007670 1.738150 
# 
# From -- ./inp_files/208418.got.cif
#   From: 2010.05.17/outbox.cif.g08.bks.cpg/sg2_105_cif.got.tgz:208418.got - 2010.06.03 11:33:40.
