data_PCOD9054347
_publ_section_title
;
Structure prediction by ZEFSAII (Michael W. Deem and Ramdas Pophale) SiO2 
 PCOD9054347
Probable space group: P -1
;
_chemical_formula_sum "Si O2"
_cell_formula_units_Z 14
_cell_length_a 6.601442
_cell_length_b 12.870195
_cell_length_c 8.145995
_cell_angle_alpha 98.167463
_cell_angle_beta 74.005892
_cell_angle_gamma 125.221081
_cell_volume 543.386557
_symmetry_space_group_name_H-M "P -1"
_symmetry_group_IT_number 2
_symmetry_cell_setting 'triclinic'
loop_
_space_group_symop_operation_xyz
x,y,z
-x,-y,-z
loop_
_atom_site_type_symbol
_atom_site_label
_atom_site_fract_x
_atom_site_fract_y
_atom_site_fract_z
Si Si1 0.513614 0.189589 0.080630
Si Si2 0.215956 0.831899 0.676848
Si Si3 0.041079 0.008825 0.693148
Si Si4 0.504007 0.741091 0.389624
Si Si5 0.382201 0.528303 0.879460
Si Si6 0.879293 0.330111 0.779957
Si Si7 0.273182 0.354409 0.435390
O O1 0.683032 0.181067 0.177710
O O2 0.555424 0.328787 0.098163
O O3 0.223869 0.076152 0.166491
O O4 0.654542 0.197806 0.881431
O O5 0.207474 0.953275 0.683645
O O6 0.384266 0.815080 0.504157
O O7 0.920057 0.722370 0.688614
O O8 0.220880 0.158125 0.730324
O O9 0.000000 0.000000 0.500000
O O10 0.288699 0.638202 0.289718
O O11 0.568693 0.694607 0.527617
O O12 0.513201 0.520626 0.680350
O O13 0.080469 0.425556 0.893054
O O14 0.500000 0.500000 0.000000
O O15 0.067290 0.329854 0.609296
#
# Coordination Sequence:
#
# PCOD9054347 Si02
#       7
#     2   2   2   2   2   2   2
#     4  12  26  46  70 107 136 184 239 286 337 417
#     4  11  20  42  75 102 137 176 243 276 340 411
#     4  12  22  42  76 105 138 181 236 286 336 414
#     4  11  24  44  70 105 143 182 227 287 356 409
#     4  12  25  50  75  98 137 188 238 289 338 409
#     4  11  29  43  70 104 146 183 226 286 359 408
#     4  11  23  47  70 107 143 177 229 291 350 410
#
# _framework density 25.764348999999999
#
# number of rings (size 3 to 8) (size 9 to 14) (size 15 to 20)
#    0.000    0.571    5.714    2.143    2.000    1.143 
#    0.000    1.429    0.000    0.000    0.000    0.000 
#    0.000    0.000    0.000    0.000    0.000    0.000 
#
# Total GULP energy -78166.674391 kJ/mol
# GULP energy per Si atom -5583.333885 kJ/mol
# Density = 2.570571 g / cm^3
# Si number density = 25.764349 Si / 1000 Ang^3
#
#
#
# Elastic Constant Matrix: (Units=GPa)
#
#
# Indices 1 2 3 4 5 6 
#
# 1 201.7767 63.6707 94.6405 -17.0002 38.9150 29.7564
# 2 63.6707 55.3749 24.8029 -22.5847 12.3852 25.5566
# 3 94.6405 24.8029 166.6493 -29.9800 -4.4519 11.7560
# 4 -17.0002 -22.5847 -29.9800 32.6874 3.2970 -4.5151
# 5 38.9150 12.3852 -4.4519 3.2970 63.1734 -6.2266
# 6 29.7564 25.5566 11.7560 -4.5151 -6.2266 49.5295
#
#
#
# Elastic Compliance Matrix: (Units=1/GPa)
#
#
# Indices 1 2 3 4 5 6 
#
# 1 0.013038 -0.014137 -0.007026 -0.008943 -0.005323 -0.000355
# 2 -0.014137 0.055894 0.007400 0.035914 -0.005527 -0.019525
# 3 -0.007026 0.007400 0.011036 0.011165 0.002991 -0.000823
# 4 -0.008943 0.035914 0.011165 0.059982 -0.004956 -0.010964
# 5 -0.005323 -0.005527 0.002991 -0.004956 0.021409 0.007579
# 6 -0.000355 -0.019525 -0.000823 -0.010964 0.007579 0.030627
#
#
# Mechanical properties :
#
#
# Convention : Reuss Voigt Hill
#
# Bulk Modulus (GPa) = 19.06879 87.78101 53.42490
# Shear Modulus (GPa) = 21.09768 45.12384 33.11076
#
# Velocity S-wave (km/s) = 2.86470 4.18952 3.58877
# Velocity P-wave (km/s) = 4.28477 7.58600 6.16063
#
# Compressibility (1/GPa) = 0.05244172
#
# Stress axis : x y z
#
# Youngs Moduli (GPa) = 76.69802 17.89096 90.61178
#
# Poissons Ratio (x) = 0.25293 0.63667
# Poissons Ratio (y) = 1.08430 -0.67056
# Poissons Ratio (z) = 0.53891 -0.13240
#
# Static dielectric constant tensor:
#      x y z
#    x 1.994240 -0.030720 -0.053400 
#    y -0.030720 2.207790 0.130520 
#    z -0.053400 0.130520 2.170680 
# 
# From -- ./inp_files/134998.got.cif
#   From: 2010.05.17/outbox.cif.g08.bks.cpg/sg2_68_cif.got.tgz:134998.got - 2010.06.03 11:33:40.
