data_PCOD9054130
_publ_section_title
;
Structure prediction by ZEFSAII (Michael W. Deem and Ramdas Pophale) SiO2 
 PCOD9054130
Probable space group: P -1
;
_chemical_formula_sum "Si O2"
_cell_formula_units_Z 16
_cell_length_a 21.018589
_cell_length_b 9.652852
_cell_length_c 12.490552
_cell_angle_alpha 62.035663
_cell_angle_beta 38.011137
_cell_angle_gamma 33.876339
_cell_volume 732.375033
_symmetry_space_group_name_H-M "P -1"
_symmetry_group_IT_number 2
_symmetry_cell_setting 'triclinic'
loop_
_space_group_symop_operation_xyz
x,y,z
-x,-y,-z
loop_
_atom_site_type_symbol
_atom_site_label
_atom_site_fract_x
_atom_site_fract_y
_atom_site_fract_z
Si Si1 0.081244 0.269059 0.392703
Si Si2 0.431106 0.220121 0.633231
Si Si3 0.046004 0.758294 0.023585
Si Si4 0.870021 0.668137 0.328962
Si Si5 0.511081 0.672943 0.941551
Si Si6 0.474806 0.804337 0.701442
Si Si7 0.069730 0.863903 0.338504
Si Si8 0.069642 0.171751 0.088700
O O1 0.000000 0.500000 0.500000
O O2 0.935797 0.475567 0.410009
O O3 0.049568 0.137727 0.531863
O O4 0.303005 0.995820 0.150584
O O5 0.402253 0.358560 0.512438
O O6 0.276174 0.456405 0.843495
O O7 0.645806 0.963990 0.487236
O O8 0.397570 0.081684 0.699148
O O9 0.997865 0.763950 0.965217
O O10 0.944069 0.749377 0.226820
O O11 0.000000 0.000000 0.000000
O O12 0.971037 0.447782 0.175882
O O13 0.551477 0.687950 0.762742
O O14 0.698230 0.466249 0.841741
O O15 0.500000 0.500000 0.000000
O O16 0.299239 0.909721 0.884009
O O17 0.030325 0.062948 0.244191
O O18 0.000000 0.000000 0.500000
#
# Coordination Sequence:
#
# PCOD9054130 Si02
#       8
#     2   2   2   2   2   2   2   2
#     4  12  28  46  69 104 144 182 224 287 351 407
#     4  11  24  39  72  96 127 179 224 275 339 399
#     4  12  28  45  64 100 143 176 218 285 348 397
#     4  12  23  48  70  97 135 176 231 279 327 414
#     4  12  22  43  70 102 139 176 231 289 332 403
#     4  11  20  40  70 104 125 169 231 281 324 389
#     4  12  24  43  72 103 133 184 235 280 334 409
#     4  12  22  44  72  99 134 174 231 283 323 404
#
# _framework density 21.846731999999999
#
# number of rings (size 3 to 8) (size 9 to 14) (size 15 to 20)
#    0.000    0.250    7.500    2.625    3.500    1.000 
#    2.250    0.000    0.000    0.000    0.000    0.000 
#    0.000    0.000    0.000    0.000    0.000    0.000 
#
# Total GULP energy -89388.153473 kJ/mol
# GULP energy per Si atom -5586.759592 kJ/mol
# Density = 2.179701 g / cm^3
# Si number density = 21.846732 Si / 1000 Ang^3
#
#
#
# Elastic Constant Matrix: (Units=GPa)
#
#
# Indices 1 2 3 4 5 6 
#
# 1 51.5216 14.5395 12.4988 9.3901 1.3082 2.4337
# 2 14.5395 83.6378 30.1133 -22.9709 -3.4825 7.4252
# 3 12.4988 30.1133 85.4604 -6.1737 -18.4854 -2.8679
# 4 9.3901 -22.9709 -6.1737 44.4113 -2.5444 -4.2224
# 5 1.3082 -3.4825 -18.4854 -2.5444 20.5058 -1.2280
# 6 2.4337 7.4252 -2.8679 -4.2224 -1.2280 46.1579
#
#
#
# Elastic Compliance Matrix: (Units=1/GPa)
#
#
# Indices 1 2 3 4 5 6 
#
# 1 0.023708 -0.005333 -0.003807 -0.008859 -0.007047 -0.001627
# 2 -0.005333 0.017285 -0.004693 0.009235 0.000075 -0.001944
# 3 -0.003807 -0.004693 0.017526 0.001962 0.015647 0.002640
# 4 -0.008859 0.009235 0.001962 0.030080 0.007758 0.002061
# 5 -0.007047 0.000075 0.015647 0.007758 0.064522 0.003758
# 6 -0.001627 -0.001944 0.002640 0.002061 0.003758 0.022516
#
#
# Mechanical properties :
#
#
# Convention : Reuss Voigt Hill
#
# Bulk Modulus (GPa) = 32.40985 37.21368 34.81177
# Shear Modulus (GPa) = 23.40970 33.11289 28.26129
#
# Velocity S-wave (km/s) = 3.27699 3.89741 3.60059
# Velocity P-wave (km/s) = 5.40237 6.10934 5.76670
#
# Compressibility (1/GPa) = 0.03085481
#
# Stress axis : x y z
#
# Youngs Moduli (GPa) = 42.17973 57.85380 57.05648
#
# Poissons Ratio (x) = 0.30851 0.21722
# Poissons Ratio (y) = 0.22493 0.26774
# Poissons Ratio (z) = 0.16058 0.27149
#
# Static dielectric constant tensor:
#      x y z
#    x 1.820850 0.005360 0.019220 
#    y 0.005360 1.824200 -0.001560 
#    z 0.019220 -0.001560 1.873860 
# 
# From -- ./inp_files/542653.got.cif
#   From: 2010.05.17/outbox.cif.g08.bks.cpg/sg2_272_cif.got.tgz:542653.got - 2010.06.03 11:33:40.
