data_PCOD9054063
_publ_section_title
;
Structure prediction by ZEFSAII (Michael W. Deem and Ramdas Pophale) SiO2 
 PCOD9054063
Probable space group: P -1
;
_chemical_formula_sum "Si O2"
_cell_formula_units_Z 12
_cell_length_a 8.539631
_cell_length_b 17.985984
_cell_length_c 12.240757
_cell_angle_alpha 24.923487
_cell_angle_beta 144.905752
_cell_angle_gamma 142.014819
_cell_volume 447.161339
_symmetry_space_group_name_H-M "P -1"
_symmetry_group_IT_number 2
_symmetry_cell_setting 'triclinic'
loop_
_space_group_symop_operation_xyz
x,y,z
-x,-y,-z
loop_
_atom_site_type_symbol
_atom_site_label
_atom_site_fract_x
_atom_site_fract_y
_atom_site_fract_z
Si Si1 0.911653 0.198572 0.432716
Si Si2 0.338713 0.713261 0.475819
Si Si3 0.629772 0.780257 0.781522
Si Si4 0.868314 0.183305 0.201698
Si Si5 0.744763 0.914621 0.044901
Si Si6 0.899491 0.423591 0.684023
O O1 0.657595 0.263727 0.259480
O O2 0.011881 0.273813 0.271723
O O3 0.158771 0.211950 0.642126
O O4 0.785261 0.984438 0.622729
O O5 0.557594 0.730948 0.677565
O O6 0.049525 0.630072 0.485339
O O7 0.340467 0.616779 0.488648
O O8 0.335367 0.914757 0.166676
O O9 0.841594 0.660413 0.100954
O O10 0.541142 0.150434 0.094311
O O11 0.000000 0.000000 0.500000
O O12 0.856837 0.315982 0.916259
O O13 0.000000 0.000000 0.000000
#
# Coordination Sequence:
#
# PCOD9054063 Si02
#       6
#     2   2   2   2   2   2
#     4  11  22  37  68  98 123 165 220 269 317 375
#     4  11  22  41  66  93 127 176 219 256 326 390
#     4  11  20  40  66  93 124 174 216 261 316 391
#     4  12  24  42  64 102 132 163 217 278 319 372
#     4  12  22  41  72  93 126 171 219 264 319 385
#     4  11  25  40  63  96 133 169 216 269 320 385
#
# _framework density 26.835951000000001
#
# number of rings (size 3 to 8) (size 9 to 14) (size 15 to 20)
#    0.000    0.667    6.667    1.500    0.000    4.000 
#    0.000    1.667    0.000    0.000    0.000    0.000 
#    0.000    0.000    0.000    0.000    0.000    0.000 
#
# Total GULP energy -66976.599515 kJ/mol
# GULP energy per Si atom -5581.383293 kJ/mol
# Density = 2.677487 g / cm^3
# Si number density = 26.835951 Si / 1000 Ang^3
#
#
#
# Elastic Constant Matrix: (Units=GPa)
#
#
# Indices 1 2 3 4 5 6 
#
# 1 88.3445 11.0376 51.9656 25.0694 -22.1782 -2.1269
# 2 11.0376 86.4724 21.9090 36.1142 -0.4301 -1.7000
# 3 51.9656 21.9090 95.7193 27.5935 -21.8361 -3.5672
# 4 25.0694 36.1142 27.5935 47.7622 -2.0810 0.1165
# 5 -22.1782 -0.4301 -21.8361 -2.0810 48.4872 15.5169
# 6 -2.1269 -1.7000 -3.5672 0.1165 15.5169 36.4288
#
#
#
# Elastic Compliance Matrix: (Units=1/GPa)
#
#
# Indices 1 2 3 4 5 6 
#
# 1 0.018809 0.002487 -0.007526 -0.007160 0.005521 -0.001852
# 2 0.002487 0.017293 -0.001412 -0.013578 -0.000234 0.000957
# 3 -0.007526 -0.001412 0.017166 -0.004712 0.004275 -0.000630
# 4 -0.007160 -0.013578 -0.004712 0.037513 -0.003919 0.000036
# 5 0.005521 -0.000234 0.004275 -0.003919 0.028560 -0.011423
# 6 -0.001852 0.000957 -0.000630 0.000036 -0.011423 0.032191
#
#
# Mechanical properties :
#
#
# Convention : Reuss Voigt Hill
#
# Bulk Modulus (GPa) = 24.77273 48.92893 36.85083
# Shear Modulus (GPa) = 28.10744 38.91057 33.50901
#
# Velocity S-wave (km/s) = 3.23984 3.81194 3.53747
# Velocity P-wave (km/s) = 4.82147 6.13569 5.51785
#
# Compressibility (1/GPa) = 0.04036696
#
# Stress axis : x y z
#
# Youngs Moduli (GPa) = 53.16695 57.82698 58.25365
#
# Poissons Ratio (x) = -0.14384 0.43841
# Poissons Ratio (y) = -0.13225 0.08225
# Poissons Ratio (z) = 0.40013 0.08165
#
# Static dielectric constant tensor:
#      x y z
#    x 2.195320 0.051230 -0.038770 
#    y 0.051230 2.254660 -0.103050 
#    z -0.038770 -0.103050 2.095850 
# 
# From -- ./inp_files/401743.got.cif
#   From: 2010.05.17/outbox.cif.g08.bks.cpg/sg2_201_cif.got.tgz:401743.got - 2010.06.03 11:33:40.
