data_PCOD9054359
_publ_section_title
;
Structure prediction by ZEFSAII (Michael W. Deem and Ramdas Pophale) SiO2 
 PCOD9054359
Probable space group: P -1
;
_chemical_formula_sum "Si O2"
_cell_formula_units_Z 16
_cell_length_a 9.495820
_cell_length_b 14.372867
_cell_length_c 11.805463
_cell_angle_alpha 151.445386
_cell_angle_beta 86.256199
_cell_angle_gamma 108.303252
_cell_volume 647.737927
_symmetry_space_group_name_H-M "P -1"
_symmetry_group_IT_number 2
_symmetry_cell_setting 'triclinic'
loop_
_space_group_symop_operation_xyz
x,y,z
-x,-y,-z
loop_
_atom_site_type_symbol
_atom_site_label
_atom_site_fract_x
_atom_site_fract_y
_atom_site_fract_z
Si Si1 0.701727 0.503893 0.906615
Si Si2 0.743798 0.873220 0.980886
Si Si3 0.457001 0.985117 0.700807
Si Si4 0.090273 0.253630 0.433782
Si Si5 0.691133 0.049915 0.939069
Si Si6 0.021900 0.417678 0.183497
Si Si7 0.617560 0.489817 0.147253
Si Si8 0.260006 0.532870 0.499030
O O1 0.878035 0.629776 0.966255
O O2 0.562189 0.540287 0.895404
O O3 0.632233 0.230069 0.608786
O O4 0.709730 0.570171 0.107442
O O5 0.664365 0.966009 0.169819
O O6 0.732546 0.944312 0.929472
O O7 0.653378 0.597183 0.689898
O O8 0.935136 0.994990 0.144904
O O9 0.544100 0.909924 0.708484
O O10 0.583158 0.237112 0.909930
O O11 0.259807 0.325877 0.567899
O O12 0.139492 0.364379 0.424526
O O13 0.024435 0.398799 0.656713
O O14 0.643399 0.223902 0.184792
O O15 0.856002 0.204528 0.019312
O O16 0.151709 0.538872 0.410049
#
# Coordination Sequence:
#
# PCOD9054359 Si02
#       8
#     2   2   2   2   2   2   2   2
#     4  11  26  47  69  92 128 172 222 277 319 380
#     4  12  24  38  66 102 135 175 213 257 325 398
#     4  12  24  42  67  97 132 172 219 266 326 384
#     4  11  21  43  65  97 132 170 214 263 320 388
#     4  11  23  40  61  99 139 172 209 261 322 394
#     4  11  20  43  67  91 133 173 208 264 326 379
#     4  11  26  48  67  94 129 170 222 275 327 372
#     4  11  21  38  66  92 140 169 204 262 324 382
#
# _framework density 24.701349
#
# number of rings (size 3 to 8) (size 9 to 14) (size 15 to 20)
#    0.000    0.750    6.250    2.625    1.750    1.000 
#    0.000    0.000    0.000    3.750    0.000    0.000 
#    0.000    0.000    0.000    0.000    0.000    0.000 
#
# Total GULP energy -89597.842079 kJ/mol
# GULP energy per Si atom -5599.865130 kJ/mol
# Density = 2.464513 g / cm^3
# Si number density = 24.701349 Si / 1000 Ang^3
#
#
#
# Elastic Constant Matrix: (Units=GPa)
#
#
# Indices 1 2 3 4 5 6 
#
# 1 109.7321 30.3708 20.8341 0.3267 -12.6903 -2.6513
# 2 30.3708 103.3699 21.1844 -9.3761 2.4551 8.2473
# 3 20.8341 21.1844 63.6257 10.6738 -3.7657 -2.5253
# 4 0.3267 -9.3761 10.6738 33.7552 0.8131 -7.5194
# 5 -12.6903 2.4551 -3.7657 0.8131 43.9052 1.4041
# 6 -2.6513 8.2473 -2.5253 -7.5194 1.4041 39.0161
#
#
#
# Elastic Compliance Matrix: (Units=1/GPa)
#
#
# Indices 1 2 3 4 5 6 
#
# 1 0.010715 -0.002821 -0.002352 0.000022 0.003019 0.001068
# 2 -0.002821 0.011894 -0.003924 0.004149 -0.001827 -0.002094
# 3 -0.002352 -0.003924 0.019067 -0.007015 0.001289 0.000505
# 4 0.000022 0.004149 -0.007015 0.034221 -0.001631 0.005324
# 5 0.003019 -0.001827 0.001289 -0.001631 0.023908 -0.000500
# 6 0.001068 -0.002094 0.000505 0.005324 -0.000500 0.027223
#
#
# Mechanical properties :
#
#
# Convention : Reuss Voigt Hill
#
# Bulk Modulus (GPa) = 42.58549 46.83404 44.70976
# Shear Modulus (GPa) = 32.66956 36.95787 34.81371
#
# Velocity S-wave (km/s) = 3.64068 3.87226 3.75825
# Velocity P-wave (km/s) = 5.91188 6.24450 6.08046
#
# Compressibility (1/GPa) = 0.02348218
#
# Stress axis : x y z
#
# Youngs Moduli (GPa) = 93.32440 84.07741 52.44791
#
# Poissons Ratio (x) = 0.23720 0.12336
# Poissons Ratio (y) = 0.26328 0.20578
# Poissons Ratio (z) = 0.21950 0.32989
#
# Static dielectric constant tensor:
#      x y z
#    x 2.014410 0.029310 -0.057410 
#    y 0.029310 1.956180 0.051730 
#    z -0.057410 0.051730 1.945140 
# 
# From -- ./inp_files/400022.got.cif
#   From: 2010.05.17/outbox.cif.g08.bks.cpg/sg2_201_cif.got.tgz:400022.got - 2010.06.03 11:33:40.
