data_PCOD9054325
_publ_section_title
;
Structure prediction by ZEFSAII (Michael W. Deem and Ramdas Pophale) SiO2 
 PCOD9054325
Probable space group: P -1
;
_chemical_formula_sum "Si O2"
_cell_formula_units_Z 12
_cell_length_a 12.976564
_cell_length_b 7.760088
_cell_length_c 19.235186
_cell_angle_alpha 76.814899
_cell_angle_beta 164.060681
_cell_angle_gamma 107.381355
_cell_volume 494.542816
_symmetry_space_group_name_H-M "P -1"
_symmetry_group_IT_number 2
_symmetry_cell_setting 'triclinic'
loop_
_space_group_symop_operation_xyz
x,y,z
-x,-y,-z
loop_
_atom_site_type_symbol
_atom_site_label
_atom_site_fract_x
_atom_site_fract_y
_atom_site_fract_z
Si Si1 0.619241 0.696371 0.896857
Si Si2 0.104819 0.628026 0.865634
Si Si3 0.199228 0.096590 0.262924
Si Si4 0.852961 0.953480 0.331503
Si Si5 0.395391 0.704519 0.901094
Si Si6 0.757507 0.234570 0.488826
O O1 0.927944 0.576639 0.109581
O O2 0.365940 0.638074 0.808498
O O3 0.365878 0.662376 0.665899
O O4 0.832235 0.917383 0.022626
O O5 0.080630 0.628416 0.765644
O O6 0.882678 0.750275 0.752616
O O7 0.558866 0.747151 0.161785
O O8 0.408065 0.195974 0.320257
O O9 0.500000 0.000000 0.500000
O O10 0.194597 0.951439 0.499591
O O11 0.617325 0.086368 0.136951
O O12 0.000000 0.000000 0.500000
O O13 0.823779 0.696187 0.205244
#
# Coordination Sequence:
#
# PCOD9054325 Si02
#       6
#     2   2   2   2   2   2
#     4  12  25  43  69 100 131 173 224 270 329 387
#     4  11  25  42  69  98 136 171 221 271 329 391
#     4  12  23  46  69  95 135 178 217 269 330 395
#     4  11  20  42  71  98 129 175 219 270 328 383
#     4  11  22  45  68  99 132 173 221 274 327 386
#     4  11  23  41  70  94 135 176 218 271 326 392
#
# _framework density 24.264835999999999
#
# number of rings (size 3 to 8) (size 9 to 14) (size 15 to 20)
#    0.000    0.667    5.000    4.000    0.000    4.000 
#    3.000    0.000    0.000    0.000    0.000    0.000 
#    0.000    0.000    0.000    0.000    0.000    0.000 
#
# Total GULP energy -67033.853530 kJ/mol
# GULP energy per Si atom -5586.154461 kJ/mol
# Density = 2.420961 g / cm^3
# Si number density = 24.264836 Si / 1000 Ang^3
#
#
#
# Elastic Constant Matrix: (Units=GPa)
#
#
# Indices 1 2 3 4 5 6 
#
# 1 237.7729 70.0532 71.1411 -21.3130 3.7278 -5.7473
# 2 70.0532 106.2961 40.2736 -28.2893 7.7637 -12.1008
# 3 71.1411 40.2736 96.7385 -14.6727 -6.5907 9.1287
# 4 -21.3130 -28.2893 -14.6727 39.1349 -2.7828 1.7807
# 5 3.7278 7.7637 -6.5907 -2.7828 45.7149 -18.5238
# 6 -5.7473 -12.1008 9.1287 1.7807 -18.5238 41.3751
#
#
#
# Elastic Compliance Matrix: (Units=1/GPa)
#
#
# Indices 1 2 3 4 5 6 
#
# 1 0.006010 -0.002528 -0.003438 0.000105 -0.000251 0.000737
# 2 -0.002528 0.015106 -0.003674 0.007924 -0.000694 0.004226
# 3 -0.003438 -0.003674 0.015117 0.001437 0.001424 -0.004312
# 4 0.000105 0.007924 0.001437 0.031913 0.001289 0.001219
# 5 -0.000251 -0.000694 0.001424 0.001289 0.026937 0.011452
# 6 0.000737 0.004226 -0.004312 0.001219 0.011452 0.031533
#
#
# Mechanical properties :
#
#
# Convention : Reuss Voigt Hill
#
# Bulk Modulus (GPa) = 58.98649 89.30482 74.14565
# Shear Modulus (GPa) = 32.99245 42.53428 37.76336
#
# Velocity S-wave (km/s) = 3.69139 4.19133 3.94928
# Velocity P-wave (km/s) = 6.52155 7.76576 7.17070
#
# Compressibility (1/GPa) = 0.01695304
#
# Stress axis : x y z
#
# Youngs Moduli (GPa) = 166.37673 66.19667 66.15051
#
# Poissons Ratio (x) = 0.16735 0.22744
# Poissons Ratio (y) = 0.42062 0.24304
# Poissons Ratio (z) = 0.57205 0.24321
#
# Static dielectric constant tensor:
#      x y z
#    x 1.959760 -0.016450 0.030730 
#    y -0.016450 2.014200 0.053260 
#    z 0.030730 0.053260 1.978350 
# 
# From -- ./inp_files/376782.got.cif
#   From: 2010.05.17/outbox.cif.g08.bks.cpg/sg2_189_cif.got.tgz:376782.got - 2010.06.03 11:33:40.
