data_PCOD9054658
_publ_section_title
;
Structure prediction by ZEFSAII (Michael W. Deem and Ramdas Pophale) SiO2 
 PCOD9054658
Probable space group: P -1
;
_chemical_formula_sum "Si O2"
_cell_formula_units_Z 12
_cell_length_a 11.285100
_cell_length_b 7.571327
_cell_length_c 11.475632
_cell_angle_alpha 89.102984
_cell_angle_beta 45.551896
_cell_angle_gamma 57.789644
_cell_volume 477.293628
_symmetry_space_group_name_H-M "P -1"
_symmetry_group_IT_number 2
_symmetry_cell_setting 'triclinic'
loop_
_space_group_symop_operation_xyz
x,y,z
-x,-y,-z
loop_
_atom_site_type_symbol
_atom_site_label
_atom_site_fract_x
_atom_site_fract_y
_atom_site_fract_z
Si Si1 0.272122 0.278955 0.211579
Si Si2 0.942007 0.246311 0.383498
Si Si3 0.547863 0.489097 0.328098
Si Si4 0.151819 0.311429 0.651748
Si Si5 0.672098 0.781525 0.220708
Si Si6 0.312692 0.905944 0.937849
O O1 0.096765 0.248774 0.367473
O O2 0.407475 0.297443 0.209422
O O3 0.105985 0.520101 0.234484
O O4 0.500000 0.000000 0.000000
O O5 0.715637 0.295410 0.558688
O O6 0.815957 0.503918 0.394612
O O7 0.135223 0.002364 0.166405
O O8 0.500000 0.500000 0.500000
O O9 0.690207 0.558659 0.205862
O O10 0.692095 0.219519 0.167174
O O11 0.185596 0.255927 0.764975
O O12 0.384185 0.039825 0.436255
O O13 0.747383 0.847076 0.062336
#
# Coordination Sequence:
#
# PCOD9054658 Si02
#       6
#     2   2   2   2   2   2
#     4   8  17  38  62  85 118 161 199 243 301 359
#     4   9  20  40  64  82 120 163 194 245 304 352
#     4  12  22  41  57  90 130 158 194 249 307 361
#     4   9  18  40  61  84 122 165 188 251 308 350
#     4  11  21  37  63  92 120 155 204 252 296 356
#     4  11  22  40  65  90 116 162 207 245 298 358
#
# _framework density 25.141755
#
# number of rings (size 3 to 8) (size 9 to 14) (size 15 to 20)
#    1.000    1.000    3.333    1.000    0.000    4.000 
#    3.000    3.333    0.000    5.000    0.000    0.000 
#    0.000    0.000    0.000    0.000    0.000    0.000 
#
# Total GULP energy -66966.429001 kJ/mol
# GULP energy per Si atom -5580.535750 kJ/mol
# Density = 2.508453 g / cm^3
# Si number density = 25.141755 Si / 1000 Ang^3
#
#
#
# Elastic Constant Matrix: (Units=GPa)
#
#
# Indices 1 2 3 4 5 6 
#
# 1 103.1804 31.5336 41.2342 11.7495 14.0235 -5.4248
# 2 31.5336 61.4629 17.3697 14.7238 0.9989 -8.5985
# 3 41.2342 17.3697 99.0053 14.0781 -6.0701 8.4398
# 4 11.7495 14.7238 14.0781 25.2125 -2.5254 -5.2683
# 5 14.0235 0.9989 -6.0701 -2.5254 46.7792 9.5592
# 6 -5.4248 -8.5985 8.4398 -5.2683 9.5592 41.5247
#
#
#
# Elastic Compliance Matrix: (Units=1/GPa)
#
#
# Indices 1 2 3 4 5 6 
#
# 1 0.014557 -0.005202 -0.005710 -0.000450 -0.005679 0.003235
# 2 -0.005202 0.021728 -0.000548 -0.009389 -0.000044 0.002750
# 3 -0.005710 -0.000548 0.014101 -0.005593 0.004363 -0.005439
# 4 -0.000450 -0.009389 -0.005593 0.049679 0.001239 0.005151
# 5 -0.005679 -0.000044 0.004363 0.001239 0.025202 -0.007282
# 6 0.003235 0.002750 -0.005439 0.005151 -0.007282 0.028510
#
#
# Mechanical properties :
#
#
# Convention : Reuss Voigt Hill
#
# Bulk Modulus (GPa) = 36.40736 49.32484 42.86610
# Shear Modulus (GPa) = 26.90334 34.27068 30.58701
#
# Velocity S-wave (km/s) = 3.27474 3.69602 3.49174
# Velocity P-wave (km/s) = 5.36757 6.15430 5.77435
#
# Compressibility (1/GPa) = 0.02746698
#
# Stress axis : x y z
#
# Youngs Moduli (GPa) = 68.69722 46.02323 70.91680
#
# Poissons Ratio (x) = 0.23941 0.40493
# Poissons Ratio (y) = 0.35735 0.03884
# Poissons Ratio (z) = 0.39226 0.02521
#
# Static dielectric constant tensor:
#      x y z
#    x 2.042090 -0.020070 0.002600 
#    y -0.020070 1.930740 0.001800 
#    z 0.002600 0.001800 2.057620 
# 
# From -- ./inp_files/417541.got.cif
#   From: 2010.05.17/outbox.cif.g08.bks.cpg/sg2_209_cif.got.tgz:417541.got - 2010.06.03 11:33:40.
