data_PCOD9054505
_publ_section_title
;
Structure prediction by ZEFSAII (Michael W. Deem and Ramdas Pophale) SiO2 
 PCOD9054505
Probable space group: P -1
;
_chemical_formula_sum "Si O2"
_cell_formula_units_Z 16
_cell_length_a 5.100816
_cell_length_b 18.490726
_cell_length_c 15.904711
_cell_angle_alpha 142.092641
_cell_angle_beta 78.493819
_cell_angle_gamma 86.803204
_cell_volume 844.619788
_symmetry_space_group_name_H-M "P -1"
_symmetry_group_IT_number 2
_symmetry_cell_setting 'triclinic'
loop_
_space_group_symop_operation_xyz
x,y,z
-x,-y,-z
loop_
_atom_site_type_symbol
_atom_site_label
_atom_site_fract_x
_atom_site_fract_y
_atom_site_fract_z
Si Si1 0.923527 0.219399 0.913286
Si Si2 0.569200 0.590049 0.674641
Si Si3 0.079801 0.635912 0.208683
Si Si4 0.388171 0.211228 0.013597
Si Si5 0.322129 0.511056 0.897332
Si Si6 0.167513 0.089765 0.601340
Si Si7 0.194354 0.083053 0.063596
Si Si8 0.080398 0.652111 0.628021
O O1 0.064745 0.146715 0.752864
O O2 0.715638 0.153269 0.906913
O O3 0.721047 0.362791 0.035956
O O4 0.171156 0.231892 0.969022
O O5 0.593538 0.669112 0.825752
O O6 0.265119 0.627759 0.681685
O O7 0.705822 0.439890 0.536338
O O8 0.792760 0.619389 0.623844
O O9 0.360457 0.589554 0.205767
O O10 0.871318 0.566812 0.191618
O O11 0.920207 0.784417 0.336728
O O12 0.201417 0.570538 0.050993
O O13 0.265007 0.136823 0.020419
O O14 0.500000 0.000000 0.500000
O O15 0.000000 0.000000 0.500000
O O16 0.032820 0.200417 0.241441
O O17 0.500000 0.000000 0.000000
O O18 0.000000 0.000000 0.000000
#
# Coordination Sequence:
#
# PCOD9054505 Si02
#       8
#     2   2   2   2   2   2   2   2
#     4  11  22  36  58  84 112 145 188 244 297 341
#     4   9  17  31  53  78 104 132 170 223 283 327
#     4   9  17  31  53  78 105 134 176 231 273 319
#     4  11  21  36  56  83 114 146 187 242 296 338
#     4   9  17  31  52  79 105 133 172 227 288 328
#     4  11  22  37  58  85 114 154 202 233 269 338
#     4  11  21  35  56  82 112 152 198 230 267 336
#     4   9  17  31  52  79 104 132 175 227 270 316
#
# _framework density 18.943435999999998
#
# number of rings (size 3 to 8) (size 9 to 14) (size 15 to 20)
#    0.000    2.000    0.000    6.000    0.000    4.000 
#    0.000    0.000    0.000   15.000    0.000    0.000 
#    0.000    0.000    0.000    0.000    0.000    0.000 
#
# Total GULP energy -89101.063803 kJ/mol
# GULP energy per Si atom -5568.816488 kJ/mol
# Density = 1.890032 g / cm^3
# Si number density = 18.943436 Si / 1000 Ang^3
#
#
#
# Elastic Constant Matrix: (Units=GPa)
#
#
# Indices 1 2 3 4 5 6 
#
# 1 147.3807 35.1567 41.9106 11.5754 -1.8060 -7.5114
# 2 35.1567 54.5388 50.8571 6.2962 1.0208 -1.4845
# 3 41.9106 50.8571 106.7245 24.2980 -4.2327 -4.3724
# 4 11.5754 6.2962 24.2980 35.5855 -5.4900 -0.0729
# 5 -1.8060 1.0208 -4.2327 -5.4900 32.2596 4.6783
# 6 -7.5114 -1.4845 -4.3724 -0.0729 4.6783 34.2041
#
#
#
# Elastic Compliance Matrix: (Units=1/GPa)
#
#
# Indices 1 2 3 4 5 6 
#
# 1 0.008237 -0.004401 -0.000762 -0.001370 0.000048 0.001511
# 2 -0.004401 0.036586 -0.017311 0.006405 -0.002404 -0.001249
# 3 -0.000762 -0.017311 0.020402 -0.010434 0.001188 0.001505
# 4 -0.001370 0.006405 -0.010434 0.035248 0.004628 -0.001915
# 5 0.000048 -0.002404 0.001188 0.004628 0.032659 -0.004399
# 6 0.001511 -0.001249 0.001505 -0.001915 -0.004399 0.030304
#
#
# Mechanical properties :
#
#
# Convention : Reuss Voigt Hill
#
# Bulk Modulus (GPa) = 49.31306 62.72142 56.01724
# Shear Modulus (GPa) = 23.24036 32.45782 27.84909
#
# Velocity S-wave (km/s) = 3.50641 4.14382 3.83837
# Velocity P-wave (km/s) = 6.51778 7.48844 7.01991
#
# Compressibility (1/GPa) = 0.02027860
#
# Stress axis : x y z
#
# Youngs Moduli (GPa) = 121.40695 27.33251 49.01377
#
# Poissons Ratio (x) = 0.12029 0.03733
# Poissons Ratio (y) = 0.53430 0.84847
# Poissons Ratio (z) = 0.09247 0.47315
#
# Static dielectric constant tensor:
#      x y z
#    x 1.678070 0.031940 -0.018070 
#    y 0.031940 1.713370 -0.004820 
#    z -0.018070 -0.004820 1.715800 
# 
# From -- ./inp_files/485258.got.cif
#   From: 2010.05.17/outbox.cif.g08.bks.cpg/sg2_243_cif.got.tgz:485258.got - 2010.06.03 11:33:40.
