data_PCOD9054860
_publ_section_title
;
Structure prediction by ZEFSAII (Michael W. Deem and Ramdas Pophale) SiO2 
 PCOD9054860
Probable space group: P -1
;
_chemical_formula_sum "Si O2"
_cell_formula_units_Z 16
_cell_length_a 5.381910
_cell_length_b 8.747129
_cell_length_c 21.975708
_cell_angle_alpha 128.811153
_cell_angle_beta 63.336445
_cell_angle_gamma 99.292277
_cell_volume 709.661137
_symmetry_space_group_name_H-M "P -1"
_symmetry_group_IT_number 2
_symmetry_cell_setting 'triclinic'
loop_
_space_group_symop_operation_xyz
x,y,z
-x,-y,-z
loop_
_atom_site_type_symbol
_atom_site_label
_atom_site_fract_x
_atom_site_fract_y
_atom_site_fract_z
Si Si1 0.710740 0.565285 0.199794
Si Si2 0.330277 0.596477 0.711903
Si Si3 0.129808 0.805449 0.286770
Si Si4 0.181549 0.463017 0.532952
Si Si5 0.780143 0.831043 0.708022
Si Si6 0.799148 0.173208 0.029302
Si Si7 0.236806 0.098661 0.136829
Si Si8 0.735944 0.809990 0.441322
O O1 0.562672 0.463594 0.246424
O O2 0.456116 0.703346 0.227935
O O3 0.856731 0.389054 0.095730
O O4 0.933218 0.683493 0.237620
O O5 0.502882 0.746814 0.697898
O O6 0.369260 0.388383 0.621202
O O7 0.022663 0.719120 0.790370
O O8 0.004852 0.821512 0.372584
O O9 0.113677 0.020950 0.313009
O O10 0.500000 0.500000 0.500000
O O11 0.190773 0.249277 0.511515
O O12 0.000000 0.500000 0.500000
O O13 0.015441 0.633567 0.638024
O O14 0.703841 0.935091 0.807061
O O15 0.486849 0.163589 0.086410
O O16 0.825797 0.100353 0.938806
O O17 0.000000 0.000000 0.000000
O O18 0.500000 0.000000 0.500000
#
# Coordination Sequence:
#
# PCOD9054860 Si02
#       8
#     2   2   2   2   2   2   2   2
#     4  11  23  45  67 107 140 186 236 300 357 431
#     4  11  22  43  75  99 142 190 251 294 357 438
#     4  11  28  44  72 100 153 192 237 296 378 432
#     4  12  27  46  75 107 143 188 253 311 355 435
#     4  12  25  46  71 103 142 198 245 297 368 439
#     4  11  21  38  72 111 137 183 250 302 354 437
#     4  11  22  39  73 105 141 183 248 300 354 421
#     4  11  24  48  74 108 148 193 242 310 379 438
#
# _framework density 22.545970000000001
#
# number of rings (size 3 to 8) (size 9 to 14) (size 15 to 20)
#    0.000    0.750    3.750    3.750    3.500    3.000 
#    0.000    6.875    0.000    0.000    0.000    0.000 
#    0.000    0.000    0.000    0.000    0.000    0.000 
#
# Total GULP energy -89475.983992 kJ/mol
# GULP energy per Si atom -5592.248999 kJ/mol
# Density = 2.249465 g / cm^3
# Si number density = 22.545970 Si / 1000 Ang^3
#
#
#
# Elastic Constant Matrix: (Units=GPa)
#
#
# Indices 1 2 3 4 5 6 
#
# 1 113.5465 34.9905 50.0594 9.2520 -11.0981 -5.0275
# 2 34.9905 121.8914 30.1092 9.8888 4.7916 -4.8096
# 3 50.0594 30.1092 124.5584 9.7472 -1.9789 -4.3055
# 4 9.2520 9.8888 9.7472 33.0005 -10.5760 -4.4425
# 5 -11.0981 4.7916 -1.9789 -10.5760 46.5700 1.9615
# 6 -5.0275 -4.8096 -4.3055 -4.4425 1.9615 36.0443
#
#
#
# Elastic Compliance Matrix: (Units=1/GPa)
#
#
# Indices 1 2 3 4 5 6 
#
# 1 0.011639 -0.002403 -0.004000 -0.000401 0.002733 0.000627
# 2 -0.002403 0.009486 -0.001149 -0.002445 -0.002179 0.000610
# 3 -0.004000 -0.001149 0.010047 -0.001718 -0.000812 0.000321
# 4 -0.000401 -0.002445 -0.001718 0.034594 0.007802 0.003252
# 5 0.002733 -0.002179 -0.000812 0.007802 0.024101 -0.000356
# 6 0.000627 0.000610 0.000321 0.003252 -0.000356 0.028371
#
#
# Mechanical properties :
#
#
# Convention : Reuss Voigt Hill
#
# Bulk Modulus (GPa) = 62.24393 65.59048 63.91720
# Shear Modulus (GPa) = 36.04977 39.44544 37.74761
#
# Velocity S-wave (km/s) = 4.00302 4.18731 4.09620
# Velocity P-wave (km/s) = 7.00236 7.24797 7.12622
#
# Compressibility (1/GPa) = 0.01606582
#
# Stress axis : x y z
#
# Youngs Moduli (GPa) = 85.92066 105.41986 99.53703
#
# Poissons Ratio (x) = 0.25334 0.39816
# Poissons Ratio (y) = 0.20648 0.11440
# Poissons Ratio (z) = 0.34369 0.12116
#
# Static dielectric constant tensor:
#      x y z
#    x 1.958630 -0.019300 0.060170 
#    y -0.019300 1.836900 -0.015960 
#    z 0.060170 -0.015960 1.895080 
# 
# From -- ./inp_files/604049.got.cif
#   From: 2010.05.17/outbox.cif.g08.bks.cpg/sg2_303_cif.got.tgz:604049.got - 2010.06.03 11:33:40.
