data_PCOD9054043
_publ_section_title
;
Structure prediction by ZEFSAII (Michael W. Deem and Ramdas Pophale) SiO2 
 PCOD9054043
Probable space group: P -1
;
_chemical_formula_sum "Si O2"
_cell_formula_units_Z 16
_cell_length_a 12.372461
_cell_length_b 21.845698
_cell_length_c 8.538307
_cell_angle_alpha 46.572341
_cell_angle_beta 128.832886
_cell_angle_gamma 151.502897
_cell_volume 797.898121
_symmetry_space_group_name_H-M "P -1"
_symmetry_group_IT_number 2
_symmetry_cell_setting 'triclinic'
loop_
_space_group_symop_operation_xyz
x,y,z
-x,-y,-z
loop_
_atom_site_type_symbol
_atom_site_label
_atom_site_fract_x
_atom_site_fract_y
_atom_site_fract_z
Si Si1 0.189961 0.731296 0.866358
Si Si2 0.500143 0.307168 0.277722
Si Si3 0.615060 0.520923 0.412373
Si Si4 0.916198 0.777047 0.018201
Si Si5 0.748452 0.278020 0.423812
Si Si6 0.212385 0.393356 0.090580
Si Si7 0.774613 0.423623 0.634565
Si Si8 0.404636 0.973234 0.133432
O O1 0.196031 0.708691 0.731084
O O2 0.964609 0.673080 0.816026
O O3 0.401536 0.891211 0.824712
O O4 0.201243 0.651845 0.119691
O O5 0.249396 0.225379 0.172839
O O6 0.548354 0.248953 0.318421
O O7 0.592421 0.328926 0.496022
O O8 0.666732 0.461755 0.099875
O O9 0.500000 0.500000 0.500000
O O10 0.416352 0.430348 0.261357
O O11 0.693610 0.462917 0.598984
O O12 0.810603 0.676687 0.248571
O O13 0.904550 0.704203 0.993635
O O14 0.180439 0.924097 0.017227
O O15 0.677761 0.155320 0.646770
O O16 0.973090 0.424524 0.453877
O O17 0.500000 0.000000 0.000000
#
# Coordination Sequence:
#
# PCOD9054043 Si02
#       8
#     2   2   2   2   2   2   2   2
#     4  12  27  41  66 100 136 167 222 273 329 387
#     4  11  22  39  66  98 131 164 219 275 321 385
#     4  11  22  36  66 100 135 166 213 274 335 381
#     4  11  22  43  65  95 132 176 219 265 323 392
#     4  12  25  43  65  99 134 169 217 279 326 382
#     4  11  20  40  63  97 133 170 214 273 324 377
#     4  12  22  41  67 102 129 170 220 269 326 389
#     4  12  25  47  69  91 129 185 223 260 325 399
#
# _framework density 20.052686000000001
#
# number of rings (size 3 to 8) (size 9 to 14) (size 15 to 20)
#    0.000    0.500    6.250    3.375    3.500    0.000 
#    0.000    4.375    0.000    0.000    0.000    0.000 
#    0.000    0.000    0.000    0.000    0.000    0.000 
#
# Total GULP energy -89479.942914 kJ/mol
# GULP energy per Si atom -5592.496432 kJ/mol
# Density = 2.000705 g / cm^3
# Si number density = 20.052686 Si / 1000 Ang^3
#
#
#
# Elastic Constant Matrix: (Units=GPa)
#
#
# Indices 1 2 3 4 5 6 
#
# 1 125.5452 16.8392 19.8287 6.8604 4.6377 16.2596
# 2 16.8392 74.8387 18.7239 3.4147 4.2145 19.6746
# 3 19.8287 18.7239 79.8277 -9.3286 8.2237 8.6035
# 4 6.8604 3.4147 -9.3286 15.8258 0.3916 1.5898
# 5 4.6377 4.2145 8.2237 0.3916 38.9205 6.6790
# 6 16.2596 19.6746 8.6035 1.5898 6.6790 35.4982
#
#
#
# Elastic Compliance Matrix: (Units=1/GPa)
#
#
# Indices 1 2 3 4 5 6 
#
# 1 0.009074 -0.000389 -0.002409 -0.004955 0.000060 -0.003146
# 2 -0.000389 0.016643 -0.003532 -0.004705 0.000421 -0.008058
# 3 -0.002409 -0.003532 0.015603 0.011142 -0.002615 -0.000728
# 4 -0.004955 -0.004705 0.011142 0.073039 -0.001862 -0.000744
# 5 0.000060 0.000421 -0.002615 -0.001862 0.027006 -0.004624
# 6 -0.003146 -0.008058 -0.000728 -0.000744 -0.004624 0.035158
#
#
# Mechanical properties :
#
#
# Convention : Reuss Voigt Hill
#
# Bulk Modulus (GPa) = 34.89061 43.44391 39.16726
# Shear Modulus (GPa) = 25.15912 33.03689 29.09800
#
# Velocity S-wave (km/s) = 3.54595 4.06335 3.81343
# Velocity P-wave (km/s) = 5.84827 6.61259 6.24214
#
# Compressibility (1/GPa) = 0.02866100
#
# Stress axis : x y z
#
# Youngs Moduli (GPa) = 110.20624 60.08648 64.08838
#
# Poissons Ratio (x) = 0.02339 0.15437
# Poissons Ratio (y) = 0.04290 0.22633
# Poissons Ratio (z) = 0.26545 0.21220
#
# Static dielectric constant tensor:
#      x y z
#    x 1.717950 0.018630 -0.004250 
#    y 0.018630 1.714800 0.041730 
#    z -0.004250 0.041730 1.705910 
# 
# From -- ./inp_files/175205.got.cif
#   From: 2010.05.17/outbox.cif.g08.bks.cpg/sg2_88_cif.got.tgz:175205.got - 2010.06.03 11:33:40.
