data_PCOD9054140
_publ_section_title
;
Structure prediction by ZEFSAII (Michael W. Deem and Ramdas Pophale) SiO2 
 PCOD9054140
Probable space group: P -1
;
_chemical_formula_sum "Si O2"
_cell_formula_units_Z 14
_cell_length_a 9.437472
_cell_length_b 10.040026
_cell_length_c 8.855411
_cell_angle_alpha 105.971923
_cell_angle_beta 45.474571
_cell_angle_gamma 109.801724
_cell_volume 561.950145
_symmetry_space_group_name_H-M "P -1"
_symmetry_group_IT_number 2
_symmetry_cell_setting 'triclinic'
loop_
_space_group_symop_operation_xyz
x,y,z
-x,-y,-z
loop_
_atom_site_type_symbol
_atom_site_label
_atom_site_fract_x
_atom_site_fract_y
_atom_site_fract_z
Si Si1 0.638904 0.658612 0.407971
Si Si2 0.923590 0.566529 0.933050
Si Si3 0.722121 0.735585 0.721911
Si Si4 0.856455 0.942511 0.237109
Si Si5 0.835555 0.052511 0.745564
Si Si6 0.318123 0.671643 0.161340
Si Si7 0.856653 0.251514 0.413555
O O1 0.500000 0.500000 0.500000
O O2 0.717577 0.697059 0.535971
O O3 0.650423 0.822790 0.389977
O O4 0.747103 0.625777 0.161065
O O5 0.850348 0.450133 0.825271
O O6 0.098078 0.683113 0.764186
O O7 0.000000 0.500000 0.000000
O O8 0.928797 0.718773 0.644395
O O9 0.694068 0.897698 0.823064
O O10 0.528626 0.650334 0.929539
O O11 0.031945 0.893287 0.189810
O O12 0.800135 0.084100 0.388723
O O13 0.000000 0.000000 0.000000
O O14 0.737795 0.177879 0.797120
O O15 0.000000 0.000000 0.500000
O O16 0.297075 0.674874 0.357589
#
# Coordination Sequence:
#
# PCOD9054140 Si02
#       7
#     2   2   2   2   2   2   2
#     4  12  23  44  66 104 146 183 229 292 356 412
#     4  12  26  43  68 100 143 191 231 285 362 431
#     4  11  23  43  72 101 137 183 237 289 351 420
#     4  11  21  40  72  96 133 192 233 279 358 419
#     4  11  20  40  71  96 134 183 230 292 346 416
#     4  12  23  42  68 105 137 180 237 293 350 424
#     4  11  24  46  71 101 138 186 238 297 345 414
#
# _framework density 24.913239999999998
#
# number of rings (size 3 to 8) (size 9 to 14) (size 15 to 20)
#    0.000    0.571    7.143    2.571    0.000    0.571 
#    2.571    0.000    0.000    3.429    0.000    0.000 
#    0.000    0.000    0.000    0.000    0.000    0.000 
#
# Total GULP energy -77951.950944 kJ/mol
# GULP energy per Si atom -5567.996496 kJ/mol
# Density = 2.485654 g / cm^3
# Si number density = 24.913240 Si / 1000 Ang^3
#
#
#
# Elastic Constant Matrix: (Units=GPa)
#
#
# Indices 1 2 3 4 5 6 
#
# 1 40.5410 26.9921 18.0058 -2.5551 10.1137 -7.1095
# 2 26.9921 141.8197 27.9183 -13.0789 9.2367 7.0638
# 3 18.0058 27.9183 146.5762 -7.0658 22.5705 -13.6548
# 4 -2.5551 -13.0789 -7.0658 51.5193 -2.6146 8.4045
# 5 10.1137 9.2367 22.5705 -2.6146 31.7000 -3.3973
# 6 -7.1095 7.0638 -13.6548 8.4045 -3.3973 21.1299
#
#
#
# Elastic Compliance Matrix: (Units=1/GPa)
#
#
# Indices 1 2 3 4 5 6 
#
# 1 0.033206 -0.006608 -0.000665 -0.002574 -0.007031 0.012846
# 2 -0.006608 0.009262 -0.001493 0.003039 -0.000082 -0.007507
# 3 -0.000665 -0.001493 0.008383 -0.000330 -0.004808 0.005051
# 4 -0.002574 0.003039 -0.000330 0.021785 0.000829 -0.010627
# 5 -0.007031 -0.000082 -0.004808 0.000829 0.037328 0.000227
# 6 0.012846 -0.007507 0.005051 -0.010627 0.000227 0.061686
#
#
# Mechanical properties :
#
#
# Convention : Reuss Voigt Hill
#
# Bulk Modulus (GPa) = 30.01266 52.75213 41.38240
# Shear Modulus (GPa) = 24.96389 37.93788 31.45088
#
# Velocity S-wave (km/s) = 3.16892 3.90654 3.55690
# Velocity P-wave (km/s) = 5.04604 6.44735 5.78925
#
# Compressibility (1/GPa) = 0.03331927
#
# Stress axis : x y z
#
# Youngs Moduli (GPa) = 30.11497 107.96475 119.28393
#
# Poissons Ratio (x) = 0.71347 0.07935
# Poissons Ratio (y) = 0.19901 0.17805
# Poissons Ratio (z) = 0.02003 0.16115
#
# Static dielectric constant tensor:
#      x y z
#    x 1.984830 0.099570 -0.007020 
#    y 0.099570 1.534860 -0.178190 
#    z -0.007020 -0.178190 2.016990 
# 
# From -- ./inp_files/259321.got.cif
#   From: 2010.05.17/outbox.cif.g08.bks.cpg/sg2_130_cif.got.tgz:259321.got - 2010.06.03 11:33:40.
