data_PCOD9054667
_publ_section_title
;
Structure prediction by ZEFSAII (Michael W. Deem and Ramdas Pophale) SiO2 
 PCOD9054667
Probable space group: P -1
;
_chemical_formula_sum "Si O2"
_cell_formula_units_Z 10
_cell_length_a 14.041282
_cell_length_b 7.292496
_cell_length_c 19.355926
_cell_angle_alpha 142.980496
_cell_angle_beta 157.839132
_cell_angle_gamma 42.166971
_cell_volume 450.116121
_symmetry_space_group_name_H-M "P -1"
_symmetry_group_IT_number 2
_symmetry_cell_setting 'triclinic'
loop_
_space_group_symop_operation_xyz
x,y,z
-x,-y,-z
loop_
_atom_site_type_symbol
_atom_site_label
_atom_site_fract_x
_atom_site_fract_y
_atom_site_fract_z
Si Si1 0.268228 0.205786 0.934795
Si Si2 0.851087 0.581726 0.311527
Si Si3 0.556215 0.001533 0.876735
Si Si4 0.221932 0.213006 0.518814
Si Si5 0.731574 0.107377 0.878792
O O1 0.245163 0.530822 0.981453
O O2 0.002671 0.032401 0.701466
O O3 0.500000 0.000000 0.000000
O O4 0.353563 0.251424 0.085166
O O5 0.735622 0.880861 0.286631
O O6 0.775799 0.630944 0.356496
O O7 0.135132 0.455444 0.475002
O O8 0.705804 0.298527 0.095067
O O9 0.648112 0.942541 0.843405
O O10 0.500819 0.073819 0.659569
O O11 0.000000 0.000000 0.000000
#
# Coordination Sequence:
#
# PCOD9054667 Si02
#       5
#     2   2   2   2   2
#     4  11  21  37  64  89 112 148 188 237 297 336
#     4   8  13  30  55  80 114 138 167 244 291 302
#     4   9  18  34  57  86 117 144 190 238 276 347
#     4   9  18  34  57  86 117 144 190 238 276 347
#     4  11  24  41  57  79 120 162 189 231 286 330
#
# _framework density 22.21649
#
# number of rings (size 3 to 8) (size 9 to 14) (size 15 to 20)
#    0.000    2.400    0.000    7.200    0.000    1.600 
#    0.000   26.000    0.000    0.000    0.000    0.000 
#    0.000    0.000    0.000    0.000    0.000    0.000 
#
# Total GULP energy -55732.197518 kJ/mol
# GULP energy per Si atom -5573.219752 kJ/mol
# Density = 2.216592 g / cm^3
# Si number density = 22.216490 Si / 1000 Ang^3
#
#
#
# Elastic Constant Matrix: (Units=GPa)
#
#
# Indices 1 2 3 4 5 6 
#
# 1 50.9048 18.2733 28.1515 -21.9653 -4.5594 6.8503
# 2 18.2733 47.1346 33.7754 -18.7978 10.3239 -2.1802
# 3 28.1515 33.7754 177.4111 -35.1191 19.1257 -12.3296
# 4 -21.9653 -18.7978 -35.1191 46.2836 2.6625 8.6989
# 5 -4.5594 10.3239 19.1257 2.6625 35.9741 -12.3525
# 6 6.8503 -2.1802 -12.3296 8.6989 -12.3525 25.4224
#
#
#
# Elastic Compliance Matrix: (Units=1/GPa)
#
#
# Indices 1 2 3 4 5 6 
#
# 1 0.030517 -0.005980 -0.002227 0.012870 0.001120 -0.013676
# 2 -0.005980 0.031260 -0.002233 0.009861 -0.011196 -0.005605
# 3 -0.002227 -0.002233 0.007640 0.003849 -0.003634 0.001031
# 4 0.012870 0.009861 0.003849 0.039277 -0.013234 -0.020626
# 5 0.001120 -0.011196 -0.003634 -0.013234 0.041506 0.021671
# 6 -0.013676 -0.005605 0.001031 -0.020626 0.021671 0.060628
#
#
# Mechanical properties :
#
#
# Convention : Reuss Voigt Hill
#
# Bulk Modulus (GPa) = 20.60280 48.42786 34.51533
# Shear Modulus (GPa) = 20.17044 34.55270 27.36157
#
# Velocity S-wave (km/s) = 3.01641 3.94797 3.51321
# Velocity P-wave (km/s) = 4.62876 6.52897 5.65919
#
# Compressibility (1/GPa) = 0.04853710
#
# Stress axis : x y z
#
# Youngs Moduli (GPa) = 32.76864 31.98965 130.88151
#
# Poissons Ratio (x) = 0.19130 0.29154
# Poissons Ratio (y) = 0.19596 0.29223
# Poissons Ratio (z) = 0.07299 0.07143
#
# Static dielectric constant tensor:
#      x y z
#    x 1.872900 0.035500 0.024790 
#    y 0.035500 1.870080 -0.025090 
#    z 0.024790 -0.025090 1.891810 
# 
# From -- ./inp_files/146013.got.cif
#   From: 2010.05.17/outbox.cif.g08.bks.cpg/sg2_74_cif.got.tgz:146013.got - 2010.06.03 11:33:40.
