data_PCOD9054339
_publ_section_title
;
Structure prediction by ZEFSAII (Michael W. Deem and Ramdas Pophale) SiO2 
 PCOD9054339
Probable space group: P -1
;
_chemical_formula_sum "Si O2"
_cell_formula_units_Z 14
_cell_length_a 8.997336
_cell_length_b 9.838084
_cell_length_c 13.091507
_cell_angle_alpha 131.757555
_cell_angle_beta 45.405750
_cell_angle_gamma 102.741624
_cell_volume 544.961353
_symmetry_space_group_name_H-M "P -1"
_symmetry_group_IT_number 2
_symmetry_cell_setting 'triclinic'
loop_
_space_group_symop_operation_xyz
x,y,z
-x,-y,-z
loop_
_atom_site_type_symbol
_atom_site_label
_atom_site_fract_x
_atom_site_fract_y
_atom_site_fract_z
Si Si1 0.692600 0.453267 0.967410
Si Si2 0.250975 0.296396 0.771792
Si Si3 0.186233 0.988446 0.320431
Si Si4 0.548849 0.805014 0.602447
Si Si5 0.780176 0.878483 0.831363
Si Si6 0.027137 0.560829 0.727923
Si Si7 0.067909 0.075063 0.888898
O O1 0.608615 0.634555 0.181694
O O2 0.500000 0.500000 0.000000
O O3 0.741353 0.232728 0.877162
O O4 0.906757 0.445097 0.791540
O O5 0.345560 0.253670 0.591587
O O6 0.202761 0.116675 0.749756
O O7 0.990764 0.270934 0.096262
O O8 0.000000 0.500000 0.000000
O O9 0.098272 0.155419 0.355721
O O10 0.000000 0.000000 0.500000
O O11 0.274196 0.888736 0.757882
O O12 0.698984 0.605768 0.500430
O O13 0.604559 0.983927 0.710670
O O14 0.881621 0.678528 0.755976
O O15 0.500000 0.000000 0.000000
O O16 0.866750 0.024157 0.921304
#
# Coordination Sequence:
#
# PCOD9054339 Si02
#       7
#     2   2   2   2   2   2   2
#     4  11  22  41  71 105 144 195 243 303 367 436
#     4  11  20  42  73 107 148 197 252 302 368 450
#     4  12  24  45  74 108 150 188 251 310 363 442
#     4  12  24  45  72 111 150 195 254 309 371 448
#     4  12  27  48  75 109 150 202 246 313 391 446
#     4  11  25  47  71 105 151 195 246 310 377 453
#     4  11  24  44  75 105 147 200 251 305 375 452
#
# _framework density 25.689895
#
# number of rings (size 3 to 8) (size 9 to 14) (size 15 to 20)
#    0.000    0.571    4.286    6.000    0.000    2.286 
#    0.000    0.000    0.000    0.000    0.000    0.000 
#    0.000    0.000    0.000    0.000    0.000    0.000 
#
# Total GULP energy -78369.235780 kJ/mol
# GULP energy per Si atom -5597.802556 kJ/mol
# Density = 2.563142 g / cm^3
# Si number density = 25.689895 Si / 1000 Ang^3
#
#
#
# Elastic Constant Matrix: (Units=GPa)
#
#
# Indices 1 2 3 4 5 6 
#
# 1 193.5423 54.6764 36.9324 9.7219 -3.1414 -19.0921
# 2 54.6764 160.7997 38.8541 4.0491 1.3567 -25.6249
# 3 36.9324 38.8541 59.2562 -5.5736 12.1012 0.6119
# 4 9.7219 4.0491 -5.5736 48.4562 -18.6870 1.5318
# 5 -3.1414 1.3567 12.1012 -18.6870 38.9852 4.4906
# 6 -19.0921 -25.6249 0.6119 1.5318 4.4906 38.7018
#
#
#
# Elastic Compliance Matrix: (Units=1/GPa)
#
#
# Indices 1 2 3 4 5 6 
#
# 1 0.006477 -0.000822 -0.003811 -0.001478 0.000715 0.002687
# 2 -0.000822 0.008710 -0.005387 -0.001347 0.000024 0.005497
# 3 -0.003811 -0.005387 0.024271 0.001777 -0.006205 -0.005181
# 4 -0.001478 -0.001347 0.001777 0.026159 0.012390 -0.004122
# 5 0.000715 0.000024 -0.006205 0.012390 0.034030 -0.003972
# 6 0.002687 0.005497 -0.005181 -0.004122 -0.003972 0.031509
#
#
# Mechanical properties :
#
#
# Convention : Reuss Voigt Hill
#
# Bulk Modulus (GPa) = 51.49813 74.94711 63.22262
# Shear Modulus (GPa) = 31.71202 44.10434 37.90818
#
# Velocity S-wave (km/s) = 3.51724 4.14792 3.84553
# Velocity P-wave (km/s) = 6.04849 7.22339 6.66189
#
# Compressibility (1/GPa) = 0.01941818
#
# Stress axis : x y z
#
# Youngs Moduli (GPa) = 154.38791 114.81252 41.20172
#
# Poissons Ratio (x) = 0.09441 0.15701
# Poissons Ratio (y) = 0.12696 0.22195
# Poissons Ratio (z) = 0.58832 0.61847
#
# Static dielectric constant tensor:
#      x y z
#    x 2.185280 0.132020 0.071570 
#    y 0.132020 2.253690 0.095840 
#    z 0.071570 0.095840 2.162340 
# 
# From -- ./inp_files/444435.got.cif
#   From: 2010.05.17/outbox.cif.g08.bks.cpg/sg2_223_cif.got.tgz:444435.got - 2010.06.03 11:33:40.
