data_PCOD9054785
_publ_section_title
;
Structure prediction by ZEFSAII (Michael W. Deem and Ramdas Pophale) SiO2 
 PCOD9054785
Probable space group: P -1
;
_chemical_formula_sum "Si O2"
_cell_formula_units_Z 16
_cell_length_a 9.117661
_cell_length_b 9.850950
_cell_length_c 12.874723
_cell_angle_alpha 103.381188
_cell_angle_beta 49.575850
_cell_angle_gamma 127.552776
_cell_volume 671.709742
_symmetry_space_group_name_H-M "P -1"
_symmetry_group_IT_number 2
_symmetry_cell_setting 'triclinic'
loop_
_space_group_symop_operation_xyz
x,y,z
-x,-y,-z
loop_
_atom_site_type_symbol
_atom_site_label
_atom_site_fract_x
_atom_site_fract_y
_atom_site_fract_z
Si Si1 0.760262 0.983221 0.579627
Si Si2 0.632040 0.381838 0.203148
Si Si3 0.869937 0.010199 0.884411
Si Si4 0.812445 0.192069 0.383996
Si Si5 0.411189 0.159316 0.669760
Si Si6 0.153736 0.696839 0.098399
Si Si7 0.568614 0.174520 0.808116
Si Si8 0.652004 0.614651 0.848248
O O1 0.546902 0.775388 0.662582
O O2 0.797012 0.073605 0.466605
O O3 0.694020 0.085893 0.700647
O O4 0.000000 0.000000 0.500000
O O5 0.866662 0.541763 0.186576
O O6 0.502114 0.437789 0.197132
O O7 0.726539 0.311938 0.062061
O O8 0.164741 0.137319 0.770261
O O9 0.795771 0.116967 0.880233
O O10 0.762973 0.820922 0.852513
O O11 0.720362 0.962351 0.051726
O O12 0.627881 0.236012 0.500030
O O13 0.094087 0.356160 0.272253
O O14 0.706048 0.052036 0.312978
O O15 0.554330 0.258445 0.726023
O O16 0.283126 0.696382 0.140896
O O17 0.500000 0.500000 0.000000
#
# Coordination Sequence:
#
# PCOD9054785 Si02
#       8
#     2   2   2   2   2   2   2   2
#     4  11  21  39  76  95 134 184 230 274 340 413
#     4  11  23  44  66 106 136 178 226 289 342 398
#     4  11  21  41  69  99 132 179 230 283 341 403
#     4   9  20  41  64  99 132 179 227 271 344 413
#     4   9  21  37  64  95 134 172 226 274 334 414
#     4  11  24  41  68 100 142 170 235 290 337 396
#     4  11  21  38  65 102 129 183 225 280 337 403
#     4  11  23  41  72 100 136 179 229 283 342 415
#
# _framework density 23.819811000000001
#
# number of rings (size 3 to 8) (size 9 to 14) (size 15 to 20)
#    0.000    1.500    3.750    1.500    1.750    3.000 
#    9.000    0.625    2.750    3.000    0.000    0.000 
#    0.000    0.000    0.000    0.000    0.000    0.000 
#
# Total GULP energy -89309.581090 kJ/mol
# GULP energy per Si atom -5581.848818 kJ/mol
# Density = 2.376560 g / cm^3
# Si number density = 23.819811 Si / 1000 Ang^3
#
#
#
# Elastic Constant Matrix: (Units=GPa)
#
#
# Indices 1 2 3 4 5 6 
#
# 1 111.8541 48.7417 57.1589 -5.0220 -22.3956 12.4066
# 2 48.7417 82.2285 41.1008 -16.3294 -1.1600 4.7192
# 3 57.1589 41.1008 133.0398 -18.8615 -18.7556 13.4979
# 4 -5.0220 -16.3294 -18.8615 38.5343 5.9799 -2.9517
# 5 -22.3956 -1.1600 -18.7556 5.9799 58.1186 -0.5106
# 6 12.4066 4.7192 13.4979 -2.9517 -0.5106 44.7524
#
#
#
# Elastic Compliance Matrix: (Units=1/GPa)
#
#
# Indices 1 2 3 4 5 6 
#
# 1 0.015383 -0.007812 -0.003833 -0.004140 0.004939 -0.002502
# 2 -0.007812 0.019145 -0.002306 0.006689 -0.004050 0.001237
# 3 -0.003833 -0.002306 0.010754 0.003412 0.001582 -0.001695
# 4 -0.004140 0.006689 0.003412 0.030565 -0.003493 0.001389
# 5 0.004939 -0.004050 0.001582 -0.003493 0.019886 -0.001423
# 6 -0.002502 0.001237 -0.001695 0.001389 -0.001423 0.023495
#
#
# Mechanical properties :
#
#
# Convention : Reuss Voigt Hill
#
# Bulk Modulus (GPa) = 57.53486 69.01391 63.27438
# Shear Modulus (GPa) = 32.69619 40.28913 36.49266
#
# Velocity S-wave (km/s) = 3.70894 4.11714 3.91836
# Velocity P-wave (km/s) = 6.52291 7.18591 6.86242
#
# Compressibility (1/GPa) = 0.01738077
#
# Stress axis : x y z
#
# Youngs Moduli (GPa) = 65.00543 52.23372 92.98506
#
# Poissons Ratio (x) = 0.40803 0.35639
# Poissons Ratio (y) = 0.50780 0.21446
# Poissons Ratio (z) = 0.24915 0.12047
#
# Static dielectric constant tensor:
#      x y z
#    x 1.951260 0.013010 0.000550 
#    y 0.013010 1.917690 0.012590 
#    z 0.000550 0.012590 1.951700 
# 
# From -- ./inp_files/390379.got.cif
#   From: 2010.05.17/outbox.cif.g08.bks.cpg/sg2_196_cif.got.tgz:390379.got - 2010.06.03 11:33:40.
