data_PCOD9054187
_publ_section_title
;
Structure prediction by ZEFSAII (Michael W. Deem and Ramdas Pophale) SiO2 
 PCOD9054187
Probable space group: P -1
;
_chemical_formula_sum "Si O2"
_cell_formula_units_Z 16
_cell_length_a 14.925173
_cell_length_b 11.761197
_cell_length_c 12.211584
_cell_angle_alpha 122.955765
_cell_angle_beta 77.601128
_cell_angle_gamma 147.877818
_cell_volume 797.893857
_symmetry_space_group_name_H-M "P -1"
_symmetry_group_IT_number 2
_symmetry_cell_setting 'triclinic'
loop_
_space_group_symop_operation_xyz
x,y,z
-x,-y,-z
loop_
_atom_site_type_symbol
_atom_site_label
_atom_site_fract_x
_atom_site_fract_y
_atom_site_fract_z
Si Si1 0.639425 0.198963 0.675492
Si Si2 0.795286 0.977280 0.309551
Si Si3 0.532968 0.190622 0.152392
Si Si4 0.683577 0.066750 0.252013
Si Si5 0.432932 0.300955 0.073827
Si Si6 0.167764 0.753934 0.183642
Si Si7 0.943005 0.621079 0.343064
Si Si8 0.973019 0.115900 0.106908
O O1 0.770711 0.255641 0.730700
O O2 0.810397 0.531086 0.774633
O O3 0.500000 0.000000 0.500000
O O4 0.480175 0.041729 0.724238
O O5 0.580610 0.623026 0.201045
O O6 0.786253 0.125069 0.357223
O O7 0.895852 0.034507 0.209037
O O8 0.925725 0.143138 0.471342
O O9 0.502642 0.278962 0.128328
O O10 0.758892 0.476232 0.285984
O O11 0.372570 0.011604 0.195505
O O12 0.500000 0.000000 0.000000
O O13 0.836100 0.342012 0.273150
O O14 0.566372 0.785448 0.082798
O O15 0.199779 0.041112 0.005387
O O16 0.074925 0.761407 0.274550
O O17 0.000000 0.500000 0.000000
O O18 0.000000 0.000000 0.000000
#
# Coordination Sequence:
#
# PCOD9054187 Si02
#       8
#     2   2   2   2   2   2   2   2
#     4  12  23  37  65 103 133 165 223 288 338 389
#     4  11  24  42  65  96 137 171 218 282 348 391
#     4  12  23  44  68  96 131 177 229 274 324 403
#     4  11  20  41  67  94 131 174 215 275 339 401
#     4  11  23  44  65  92 130 178 225 267 332 412
#     4  12  23  40  67  99 132 179 228 269 333 410
#     4  12  24  42  68  99 134 175 221 283 337 388
#     4  11  23  41  66  98 132 175 222 271 339 411
#
# _framework density 20.052792
#
# number of rings (size 3 to 8) (size 9 to 14) (size 15 to 20)
#    0.000    0.500    3.750    7.125    0.000    0.500 
#    2.250    0.625    0.000    0.000    0.000    0.000 
#    0.000    0.000    0.000    0.000    0.000    0.000 
#
# Total GULP energy -89211.844507 kJ/mol
# GULP energy per Si atom -5575.740282 kJ/mol
# Density = 2.000715 g / cm^3
# Si number density = 20.052792 Si / 1000 Ang^3
#
#
#
# Elastic Constant Matrix: (Units=GPa)
#
#
# Indices 1 2 3 4 5 6 
#
# 1 113.8728 34.4443 38.5499 -3.7895 24.0537 10.0663
# 2 34.4443 103.9446 29.0707 1.3702 -0.8037 19.3598
# 3 38.5499 29.0707 109.2364 8.0567 28.2840 -1.5977
# 4 -3.7895 1.3702 8.0567 23.2136 -7.3915 -3.2672
# 5 24.0537 -0.8037 28.2840 -7.3915 27.9221 -0.7220
# 6 10.0663 19.3598 -1.5977 -3.2672 -0.7220 44.3201
#
#
#
# Elastic Compliance Matrix: (Units=1/GPa)
#
#
# Indices 1 2 3 4 5 6 
#
# 1 0.012439 -0.003748 -0.000603 -0.001102 -0.010542 -0.001463
# 2 -0.003748 0.013096 -0.004715 0.002422 0.008901 -0.004716
# 3 -0.000603 -0.004715 0.016493 -0.011465 -0.019316 0.001631
# 4 -0.001102 0.002422 -0.011465 0.055975 0.027537 0.003354
# 5 -0.010542 0.008901 -0.019316 0.027537 0.072034 0.001013
# 6 -0.001463 -0.004716 0.001631 0.003354 0.001013 0.025278
#
#
# Mechanical properties :
#
#
# Convention : Reuss Voigt Hill
#
# Bulk Modulus (GPa) = 41.84639 59.02039 50.43339
# Shear Modulus (GPa) = 22.58241 34.09041 28.33641
#
# Velocity S-wave (km/s) = 3.35945 4.12762 3.76319
# Velocity P-wave (km/s) = 5.99678 7.22584 6.63981
#
# Compressibility (1/GPa) = 0.02389692
#
# Stress axis : x y z
#
# Youngs Moduli (GPa) = 80.39226 76.35734 60.63269
#
# Poissons Ratio (x) = 0.28618 0.03655
# Poissons Ratio (y) = 0.30130 0.28588
# Poissons Ratio (z) = 0.04846 0.36002
#
# Static dielectric constant tensor:
#      x y z
#    x 1.758930 -0.020490 0.059980 
#    y -0.020490 1.756630 -0.030690 
#    z 0.059980 -0.030690 1.746380 
# 
# From -- ./inp_files/280202.got.cif
#   From: 2010.05.17/outbox.cif.g08.bks.cpg/sg2_141_cif.got.tgz:280202.got - 2010.06.03 11:33:40.
