data_PCOD9054092
_publ_section_title
;
Structure prediction by ZEFSAII (Michael W. Deem and Ramdas Pophale) SiO2 
 PCOD9054092
Probable space group: P -1
;
_chemical_formula_sum "Si O2"
_cell_formula_units_Z 16
_cell_length_a 15.037468
_cell_length_b 8.272926
_cell_length_c 22.196140
_cell_angle_alpha 90.822712
_cell_angle_beta 161.414572
_cell_angle_gamma 80.614419
_cell_volume 777.191341
_symmetry_space_group_name_H-M "P -1"
_symmetry_group_IT_number 2
_symmetry_cell_setting 'triclinic'
loop_
_space_group_symop_operation_xyz
x,y,z
-x,-y,-z
loop_
_atom_site_type_symbol
_atom_site_label
_atom_site_fract_x
_atom_site_fract_y
_atom_site_fract_z
Si Si1 0.258328 0.575653 0.000399
Si Si2 0.769482 0.181097 0.816943
Si Si3 0.695722 0.871419 0.571602
Si Si4 0.251695 0.477717 0.776096
Si Si5 0.192261 0.357240 0.068025
Si Si6 0.149276 0.998580 0.529795
Si Si7 0.811038 0.183590 0.198768
Si Si8 0.632468 0.685794 0.327365
O O1 0.523778 0.470014 0.120658
O O2 0.205457 0.466698 0.019099
O O3 0.407582 0.694714 0.128593
O O4 0.940232 0.687531 0.760618
O O5 0.549377 0.144012 0.630517
O O6 0.552194 0.311635 0.730672
O O7 0.979211 0.257451 0.919820
O O8 0.000000 0.000000 0.000000
O O9 0.919807 0.931140 0.677668
O O10 0.500000 0.000000 0.500000
O O11 0.127279 0.641224 0.745687
O O12 0.965999 0.501895 0.549716
O O13 0.468850 0.285151 0.947260
O O14 0.556319 0.193167 0.304988
O O15 0.000000 0.500000 0.000000
O O16 0.284479 0.146618 0.620234
O O17 0.000000 0.000000 0.500000
O O18 0.885436 0.070084 0.307512
#
# Coordination Sequence:
#
# PCOD9054092 Si02
#       8
#     2   2   2   2   2   2   2   2
#     4  11  24  39  64 100 128 168 220 277 324 391
#     4  12  22  43  68  93 129 181 218 261 333 404
#     4  11  23  38  67  95 124 172 222 267 322 392
#     4   9  18  35  64  95 125 161 221 265 332 383
#     4  12  25  39  66  99 136 171 220 277 325 391
#     4  11  23  41  68  97 131 177 222 268 333 395
#     4   9  18  37  61  92 126 169 209 273 323 392
#     4  11  20  40  68  93 130 173 220 266 331 405
#
# _framework density 20.586950999999999
#
# number of rings (size 3 to 8) (size 9 to 14) (size 15 to 20)
#    0.000    1.250    5.000    2.625    1.750    0.500 
#    0.000    0.000    0.000    8.250    0.000    0.000 
#    0.000    0.000    0.000    0.000    0.000    0.000 
#
# Total GULP energy -89181.267294 kJ/mol
# GULP energy per Si atom -5573.829206 kJ/mol
# Density = 2.054009 g / cm^3
# Si number density = 20.586951 Si / 1000 Ang^3
#
#
#
# Elastic Constant Matrix: (Units=GPa)
#
#
# Indices 1 2 3 4 5 6 
#
# 1 138.8846 24.9041 52.9750 -24.6774 -1.4488 4.9517
# 2 24.9041 35.2930 33.1002 -5.7850 -3.3321 5.3309
# 3 52.9750 33.1002 163.3175 -19.5812 -16.5381 -0.8206
# 4 -24.6774 -5.7850 -19.5812 25.4296 -3.8040 0.6482
# 5 -1.4488 -3.3321 -16.5381 -3.8040 43.7660 -3.2597
# 6 4.9517 5.3309 -0.8206 0.6482 -3.2597 38.6274
#
#
#
# Elastic Compliance Matrix: (Units=1/GPa)
#
#
# Indices 1 2 3 4 5 6 
#
# 1 0.009883 -0.004259 -0.001437 0.007544 0.000054 -0.000832
# 2 -0.004259 0.038006 -0.006385 -0.000287 -0.000045 -0.004834
# 3 -0.001437 -0.006385 0.008739 0.004332 0.003253 0.001453
# 4 0.007544 -0.000287 0.004332 0.050873 0.006200 -0.001166
# 5 0.000054 -0.000045 0.003253 0.006200 0.024768 0.002055
# 6 -0.000832 -0.004834 0.001453 -0.001166 0.002055 0.026886
#
#
# Mechanical properties :
#
#
# Convention : Reuss Voigt Hill
#
# Bulk Modulus (GPa) = 30.79965 62.16154 46.48059
# Shear Modulus (GPa) = 25.75478 36.66567 31.21022
#
# Velocity S-wave (km/s) = 3.54082 4.22479 3.89783
# Velocity P-wave (km/s) = 5.63114 7.35246 6.54860
#
# Compressibility (1/GPa) = 0.03246790
#
# Stress axis : x y z
#
# Youngs Moduli (GPa) = 101.18789 26.31144 114.42654
#
# Poissons Ratio (x) = 0.11206 0.16439
# Poissons Ratio (y) = 0.43094 0.73057
# Poissons Ratio (z) = 0.14537 0.16799
#
# Static dielectric constant tensor:
#      x y z
#    x 1.817470 -0.096050 0.047740 
#    y -0.096050 1.806060 -0.058820 
#    z 0.047740 -0.058820 1.832830 
# 
# From -- ./inp_files/597384.got.cif
#   From: 2010.05.17/outbox.cif.g08.bks.cpg/sg2_299_cif.got.tgz:597384.got - 2010.06.03 11:33:40.
