data_PCOD9054859
_publ_section_title
;
Structure prediction by ZEFSAII (Michael W. Deem and Ramdas Pophale) SiO2 
 PCOD9054859
Probable space group: P -1
;
_chemical_formula_sum "Si O2"
_cell_formula_units_Z 10
_cell_length_a 7.419306
_cell_length_b 10.692622
_cell_length_c 9.907720
_cell_angle_alpha 132.891790
_cell_angle_beta 133.424363
_cell_angle_gamma 41.605783
_cell_volume 355.704308
_symmetry_space_group_name_H-M "P -1"
_symmetry_group_IT_number 2
_symmetry_cell_setting 'triclinic'
loop_
_space_group_symop_operation_xyz
x,y,z
-x,-y,-z
loop_
_atom_site_type_symbol
_atom_site_label
_atom_site_fract_x
_atom_site_fract_y
_atom_site_fract_z
Si Si1 0.171723 0.729023 0.107620
Si Si2 0.522880 0.649166 0.839238
Si Si3 0.113780 0.875215 0.604003
Si Si4 0.951215 0.692521 0.696266
Si Si5 0.420336 0.145685 0.739306
O O1 0.288348 0.580561 0.185739
O O2 0.426615 0.755399 0.192425
O O3 0.934730 0.950998 0.191211
O O4 0.038538 0.653411 0.870726
O O5 0.443891 0.701122 0.679920
O O6 0.204174 0.723864 0.792267
O O7 0.633259 0.766521 0.072127
O O8 0.879415 0.807710 0.446810
O O9 0.000000 0.000000 0.500000
O O10 0.000000 0.500000 0.500000
O O11 0.644047 0.903906 0.680311
#
# Coordination Sequence:
#
# PCOD9054859 Si02
#       5
#     2   2   2   2   2
#     4  11  23  44  68 105 132 168 226 279 331 395
#     4  11  24  41  70 103 133 168 227 275 331 394
#     4  12  27  45  66  95 138 185 222 265 331 401
#     4  11  21  38  72 107 130 168 218 283 338 385
#     4  11  22  44  71  97 134 173 218 288 332 379
#
# _framework density 28.113237999999999
#
# number of rings (size 3 to 8) (size 9 to 14) (size 15 to 20)
#    0.000    0.800    4.000    5.400    5.600    1.600 
#    0.000    1.000    0.000    0.000    0.000    0.000 
#    0.000    0.000    0.000    0.000    0.000    0.000 
#
# Total GULP energy -56062.432170 kJ/mol
# GULP energy per Si atom -5606.243217 kJ/mol
# Density = 2.804925 g / cm^3
# Si number density = 28.113238 Si / 1000 Ang^3
#
#
#
# Elastic Constant Matrix: (Units=GPa)
#
#
# Indices 1 2 3 4 5 6 
#
# 1 63.3936 33.3655 25.9957 -6.9034 29.5572 14.8851
# 2 33.3655 225.7269 94.7721 -8.5859 -5.1093 30.3063
# 3 25.9957 94.7721 196.2560 2.4381 -6.5980 17.6248
# 4 -6.9034 -8.5859 2.4381 58.4546 -3.4576 -9.3566
# 5 29.5572 -5.1093 -6.5980 -3.4576 36.0255 -8.2517
# 6 14.8851 30.3063 17.6248 -9.3566 -8.2517 36.4370
#
#
#
# Elastic Compliance Matrix: (Units=1/GPa)
#
#
# Indices 1 2 3 4 5 6 
#
# 1 0.044507 -0.002755 -0.003829 -0.001424 -0.043290 -0.024208
# 2 -0.002755 0.006199 -0.002355 0.000452 0.002232 -0.002269
# 3 -0.003829 -0.002355 0.006799 -0.000669 0.004221 0.001019
# 4 -0.001424 0.000452 -0.000669 0.018278 0.004283 0.006193
# 5 -0.043290 0.002232 0.004221 0.004283 0.071916 0.031172
# 6 -0.024208 -0.002269 0.001019 0.006193 0.031172 0.047378
#
#
# Mechanical properties :
#
#
# Convention : Reuss Voigt Hill
#
# Bulk Modulus (GPa) = 25.23556 88.18258 56.70907
# Shear Modulus (GPa) = 22.10790 48.26630 35.18710
#
# Velocity S-wave (km/s) = 2.80730 4.14799 3.54166
# Velocity P-wave (km/s) = 4.41631 7.37401 6.07782
#
# Compressibility (1/GPa) = 0.03962663
#
# Stress axis : x y z
#
# Youngs Moduli (GPa) = 22.46822 161.32656 147.09004
#
# Poissons Ratio (x) = 0.44449 0.56314
# Poissons Ratio (y) = 0.06191 0.34642
# Poissons Ratio (z) = 0.08602 0.37995
#
# Static dielectric constant tensor:
#      x y z
#    x 2.377120 0.162030 -0.109960 
#    y 0.162030 2.151090 -0.072460 
#    z -0.109960 -0.072460 2.214850 
# 
# From -- ./inp_files/166867.got.cif
#   From: 2010.05.17/outbox.cif.g08.bks.cpg/sg2_84_cif.got.tgz:166867.got - 2010.06.03 11:33:40.
