data_PCOD9054384
_publ_section_title
;
Structure prediction by ZEFSAII (Michael W. Deem and Ramdas Pophale) SiO2 
 PCOD9054384
Probable space group: P -1
;
_chemical_formula_sum "Si O2"
_cell_formula_units_Z 16
_cell_length_a 8.837033
_cell_length_b 15.362132
_cell_length_c 8.037164
_cell_angle_alpha 104.416989
_cell_angle_beta 83.495902
_cell_angle_gamma 138.917404
_cell_volume 689.666717
_symmetry_space_group_name_H-M "P -1"
_symmetry_group_IT_number 2
_symmetry_cell_setting 'triclinic'
loop_
_space_group_symop_operation_xyz
x,y,z
-x,-y,-z
loop_
_atom_site_type_symbol
_atom_site_label
_atom_site_fract_x
_atom_site_fract_y
_atom_site_fract_z
Si Si1 0.311620 0.769588 0.173244
Si Si2 0.037747 0.804005 0.334590
Si Si3 0.981863 0.042327 0.795716
Si Si4 0.743842 0.364893 0.538607
Si Si5 0.246434 0.284013 0.114728
Si Si6 0.498577 0.551475 0.347900
Si Si7 0.502186 0.770000 0.828637
Si Si8 0.178462 0.931564 0.706555
O O1 0.117470 0.759932 0.184675
O O2 0.268607 0.694631 0.313428
O O3 0.554593 0.931506 0.227901
O O4 0.338811 0.722897 0.980706
O O5 0.107722 0.933586 0.325543
O O6 0.154656 0.850330 0.521756
O O7 0.765409 0.680502 0.332396
O O8 0.757886 0.929278 0.887805
O O9 0.070877 0.983709 0.707631
O O10 0.185058 0.192771 0.923713
O O11 0.619198 0.404500 0.603019
O O12 0.608307 0.258417 0.349895
O O13 0.000000 0.500000 0.500000
O O14 0.363746 0.432497 0.170288
O O15 0.427140 0.303120 0.205650
O O16 0.996750 0.182079 0.185608
O O17 0.500000 0.500000 0.500000
#
# Coordination Sequence:
#
# PCOD9054384 Si02
#       8
#     2   2   2   2   2   2   2   2
#     4  12  26  46  70 108 145 186 234 292 357 417
#     4  12  26  41  69 106 142 185 236 287 351 429
#     4  11  22  44  71 107 132 185 237 291 359 406
#     4  12  28  48  74 104 142 190 235 290 358 419
#     4  11  22  42  77  98 138 184 233 295 345 415
#     4  12  23  46  70  99 140 187 236 286 349 423
#     4  11  23  47  75 102 144 185 233 298 351 418
#     4  11  20  43  72  99 139 178 236 296 346 412
#
# _framework density 23.199611000000001
#
# number of rings (size 3 to 8) (size 9 to 14) (size 15 to 20)
#    0.000    0.500    5.000    4.500    0.000    2.500 
#    0.000    0.000    0.000    0.000    0.000    0.000 
#    0.000    0.000    0.000    0.000    0.000    0.000 
#
# Total GULP energy -89440.454355 kJ/mol
# GULP energy per Si atom -5590.028397 kJ/mol
# Density = 2.314681 g / cm^3
# Si number density = 23.199611 Si / 1000 Ang^3
#
#
#
# Elastic Constant Matrix: (Units=GPa)
#
#
# Indices 1 2 3 4 5 6 
#
# 1 79.9554 32.6229 6.2205 -10.7342 -19.8963 24.0169
# 2 32.6229 86.1664 31.4619 -6.5150 -14.4867 13.2554
# 3 6.2205 31.4619 99.9157 3.5284 -11.4569 -5.4681
# 4 -10.7342 -6.5150 3.5284 40.5240 0.4145 -2.9520
# 5 -19.8963 -14.4867 -11.4569 0.4145 28.9358 -8.7475
# 6 24.0169 13.2554 -5.4681 -2.9520 -8.7475 25.9315
#
#
#
# Elastic Compliance Matrix: (Units=1/GPa)
#
#
# Indices 1 2 3 4 5 6 
#
# 1 0.020937 -0.004120 0.000004 0.003770 0.008002 -0.014156
# 2 -0.004120 0.016104 -0.004911 0.001568 0.001858 -0.004646
# 3 0.000004 -0.004911 0.012472 -0.001448 0.004460 0.006477
# 4 0.003770 0.001568 -0.001448 0.025965 0.002155 -0.000916
# 5 0.008002 0.001858 0.004460 0.002155 0.045163 0.008060
# 6 -0.014156 -0.004646 0.006477 -0.000916 0.008060 0.058030
#
#
# Mechanical properties :
#
#
# Convention : Reuss Voigt Hill
#
# Bulk Modulus (GPa) = 31.78865 45.18312 38.48588
# Shear Modulus (GPa) = 24.12985 32.12709 28.12847
#
# Velocity S-wave (km/s) = 3.22855 3.72534 3.48581
# Velocity P-wave (km/s) = 5.25643 6.16622 5.72941
#
# Compressibility (1/GPa) = 0.03145777
#
# Stress axis : x y z
#
# Youngs Moduli (GPa) = 47.76169 62.09548 80.18145
#
# Poissons Ratio (x) = 0.25584 -0.00028
# Poissons Ratio (y) = 0.19679 0.39378
# Poissons Ratio (z) = -0.00017 0.30496
#
# Static dielectric constant tensor:
#      x y z
#    x 1.886800 -0.046490 0.082590 
#    y -0.046490 1.859330 -0.049290 
#    z 0.082590 -0.049290 1.968450 
# 
# From -- ./inp_files/208334.got.cif
#   From: 2010.05.17/outbox.cif.g08.bks.cpg/sg2_105_cif.got.tgz:208334.got - 2010.06.03 11:33:40.
