data_PCOD9054342
_publ_section_title
;
Structure prediction by ZEFSAII (Michael W. Deem and Ramdas Pophale) SiO2 
 PCOD9054342
Probable space group: P -1
;
_chemical_formula_sum "Si O2"
_cell_formula_units_Z 12
_cell_length_a 8.887270
_cell_length_b 21.208382
_cell_length_c 11.353303
_cell_angle_alpha 147.904483
_cell_angle_beta 127.917643
_cell_angle_gamma 30.458380
_cell_volume 520.451179
_symmetry_space_group_name_H-M "P -1"
_symmetry_group_IT_number 2
_symmetry_cell_setting 'triclinic'
loop_
_space_group_symop_operation_xyz
x,y,z
-x,-y,-z
loop_
_atom_site_type_symbol
_atom_site_label
_atom_site_fract_x
_atom_site_fract_y
_atom_site_fract_z
Si Si1 0.352961 0.200150 0.282444
Si Si2 0.393015 0.276889 0.830699
Si Si3 0.383447 0.419208 0.529199
Si Si4 0.330013 0.644083 0.034045
Si Si5 0.565152 0.005175 0.306840
Si Si6 0.634727 0.167338 0.038213
O O1 0.525049 0.234505 0.377737
O O2 0.339261 0.193925 0.405780
O O3 0.008696 0.379618 0.335269
O O4 0.500000 0.000000 0.000000
O O5 0.484033 0.100778 0.546295
O O6 0.561748 0.216144 0.942207
O O7 0.557507 0.281201 0.821766
O O8 0.000000 0.500000 0.000000
O O9 0.468498 0.497753 0.757884
O O10 0.451295 0.359597 0.331575
O O11 0.500000 0.500000 0.000000
O O12 0.940337 0.834859 0.174779
O O13 0.484926 0.905881 0.105287
O O14 0.000000 0.000000 0.000000
#
# Coordination Sequence:
#
# PCOD9054342 Si02
#       6
#     2   2   2   2   2   2
#     4  11  20  42  74 108 138 189 241 314 363 427
#     4  12  29  50  73 107 156 204 247 307 387 452
#     4  11  24  43  72 110 151 181 255 305 371 442
#     4  12  27  46  79 108 147 198 258 313 368 448
#     4  12  25  49  78 105 151 197 258 304 376 451
#     4  12  29  45  75 113 154 199 247 313 382 452
#
# _framework density 23.056919000000001
#
# number of rings (size 3 to 8) (size 9 to 14) (size 15 to 20)
#    0.000    0.333    3.333    5.000    9.333    0.667 
#    0.000    0.000    0.000    0.000    0.000    0.000 
#    0.000    0.000    0.000    0.000    0.000    0.000 
#
# Total GULP energy -67039.794625 kJ/mol
# GULP energy per Si atom -5586.649552 kJ/mol
# Density = 2.300444 g / cm^3
# Si number density = 23.056919 Si / 1000 Ang^3
#
#
#
# Elastic Constant Matrix: (Units=GPa)
#
#
# Indices 1 2 3 4 5 6 
#
# 1 93.7576 41.7776 12.7161 6.8718 3.9863 -5.2968
# 2 41.7776 107.0968 32.1578 -4.2092 -0.4478 8.9964
# 3 12.7161 32.1578 149.2906 -24.1481 -16.5091 -8.3074
# 4 6.8718 -4.2092 -24.1481 46.6654 7.9132 -9.0071
# 5 3.9863 -0.4478 -16.5091 7.9132 32.4137 -1.2390
# 6 -5.2968 8.9964 -8.3074 -9.0071 -1.2390 52.3792
#
#
#
# Elastic Compliance Matrix: (Units=1/GPa)
#
#
# Indices 1 2 3 4 5 6 
#
# 1 0.013418 -0.005365 -0.000368 -0.002070 -0.001336 0.001832
# 2 -0.005365 0.012417 -0.002423 0.000164 -0.000559 -0.003045
# 3 -0.000368 -0.002423 0.008431 0.004105 0.003399 0.002502
# 4 -0.002070 0.000164 0.004105 0.025402 -0.003674 0.004695
# 5 -0.001336 -0.000559 0.003399 -0.003674 0.033662 0.000664
# 6 0.001832 -0.003045 0.002502 0.004695 0.000664 0.021020
#
#
# Mechanical properties :
#
#
# Convention : Reuss Voigt Hill
#
# Bulk Modulus (GPa) = 55.69262 58.16088 56.92675
# Shear Modulus (GPa) = 36.59107 43.85788 40.22447
#
# Velocity S-wave (km/s) = 3.98802 4.36610 4.18134
# Velocity P-wave (km/s) = 6.73889 7.12017 6.93215
#
# Compressibility (1/GPa) = 0.01795570
#
# Stress axis : x y z
#
# Youngs Moduli (GPa) = 74.52538 80.53253 118.61506
#
# Poissons Ratio (x) = 0.43204 0.04365
# Poissons Ratio (y) = 0.39981 0.28735
# Poissons Ratio (z) = 0.02742 0.19509
#
# Static dielectric constant tensor:
#      x y z
#    x 1.958780 -0.074510 -0.104160 
#    y -0.074510 2.007090 0.081470 
#    z -0.104160 0.081470 2.070690 
# 
# From -- ./inp_files/118763.got.cif
#   From: 2010.05.17/outbox.cif.g08.bks.cpg/sg2_60_cif.got.tgz:118763.got - 2010.06.03 11:33:40.
