data_PCOD9054035
_publ_section_title
;
Structure prediction by ZEFSAII (Michael W. Deem and Ramdas Pophale) SiO2 
 PCOD9054035
Probable space group: P -1
;
_chemical_formula_sum "Si O2"
_cell_formula_units_Z 16
_cell_length_a 21.983349
_cell_length_b 18.869264
_cell_length_c 8.380708
_cell_angle_alpha 149.044791
_cell_angle_beta 137.277583
_cell_angle_gamma 25.603420
_cell_volume 760.919421
_symmetry_space_group_name_H-M "P -1"
_symmetry_group_IT_number 2
_symmetry_cell_setting 'triclinic'
loop_
_space_group_symop_operation_xyz
x,y,z
-x,-y,-z
loop_
_atom_site_type_symbol
_atom_site_label
_atom_site_fract_x
_atom_site_fract_y
_atom_site_fract_z
Si Si1 0.414314 0.304325 0.621379
Si Si2 0.008654 0.570205 0.483772
Si Si3 0.150150 0.692295 0.045114
Si Si4 0.794547 0.896459 0.141000
Si Si5 0.533882 0.045926 0.812889
Si Si6 0.278216 0.399869 0.221246
Si Si7 0.018312 0.854792 0.448196
Si Si8 0.268014 0.080818 0.581507
O O1 0.347624 0.396540 0.496073
O O2 0.414101 0.139507 0.330264
O O3 0.579977 0.144652 0.633898
O O4 0.313691 0.500256 0.933012
O O5 0.858804 0.787420 0.534409
O O6 0.000000 0.500000 0.500000
O O7 0.099811 0.597633 0.734509
O O8 0.093159 0.363442 0.136352
O O9 0.112948 0.764743 0.297720
O O10 0.050465 0.918927 0.195429
O O11 0.881832 0.919128 0.279469
O O12 0.749552 0.972339 0.384356
O O13 0.661015 0.004726 0.985569
O O14 0.500000 0.000000 0.500000
O O15 0.387446 0.282599 0.056617
O O16 0.123389 0.648026 0.368634
O O17 0.270507 0.243936 0.930226
#
# Coordination Sequence:
#
# PCOD9054035 Si02
#       8
#     2   2   2   2   2   2   2   2
#     4  11  22  39  63  91 133 166 214 266 322 386
#     4  12  23  39  68 101 127 160 223 269 317 377
#     4  11  24  46  60  96 127 173 214 264 326 385
#     4  12  22  41  63 101 123 170 210 268 322 374
#     4  11  22  35  66  99 132 163 212 272 322 378
#     4  11  20  40  60  99 128 170 211 259 333 376
#     4  11  26  41  67  87 136 171 212 267 323 391
#     4  11  22  39  63  98 133 161 211 277 317 373
#
# _framework density 21.027193
#
# number of rings (size 3 to 8) (size 9 to 14) (size 15 to 20)
#    0.000    0.750    6.250    1.875    5.250    0.500 
#    0.000    1.875    0.000    3.750    0.000    0.000 
#    0.000    0.000    0.000    0.000    0.000    0.000 
#
# Total GULP energy -89370.105717 kJ/mol
# GULP energy per Si atom -5585.631607 kJ/mol
# Density = 2.097933 g / cm^3
# Si number density = 21.027193 Si / 1000 Ang^3
#
#
#
# Elastic Constant Matrix: (Units=GPa)
#
#
# Indices 1 2 3 4 5 6 
#
# 1 62.3455 30.4560 26.6663 10.7784 -21.5987 -11.1372
# 2 30.4560 95.8236 6.4601 2.9884 -16.5692 -8.2403
# 3 26.6663 6.4601 51.1688 25.4397 -4.5086 -6.3574
# 4 10.7784 2.9884 25.4397 34.4487 1.1076 -10.1030
# 5 -21.5987 -16.5692 -4.5086 1.1076 23.5597 7.3074
# 6 -11.1372 -8.2403 -6.3574 -10.1030 7.3074 27.1298
#
#
#
# Elastic Compliance Matrix: (Units=1/GPa)
#
#
# Indices 1 2 3 4 5 6 
#
# 1 0.033291 -0.005405 -0.014837 0.001082 0.022971 0.002763
# 2 -0.005405 0.012844 0.002123 -0.000934 0.004321 0.000668
# 3 -0.014837 0.002123 0.039080 -0.025959 -0.001705 -0.005496
# 4 0.001082 -0.000934 -0.025959 0.053432 -0.012526 0.017349
# 5 0.022971 0.004321 -0.001705 -0.012526 0.070975 -0.013439
# 6 0.002763 0.000668 -0.005496 0.017349 -0.013439 0.046990
#
#
# Mechanical properties :
#
#
# Convention : Reuss Voigt Hill
#
# Bulk Modulus (GPa) = 20.41732 37.38920 28.90326
# Shear Modulus (GPa) = 16.17202 26.74467 21.45835
#
# Velocity S-wave (km/s) = 2.77627 3.57025 3.19800
# Velocity P-wave (km/s) = 4.47303 5.90047 5.23562
#
# Compressibility (1/GPa) = 0.04897803
#
# Stress axis : x y z
#
# Youngs Moduli (GPa) = 30.03829 77.85546 25.58823
#
# Poissons Ratio (x) = 0.42079 0.37966
# Poissons Ratio (y) = 0.16235 -0.05433
# Poissons Ratio (z) = 0.44569 -0.16530
#
# Static dielectric constant tensor:
#      x y z
#    x 1.833850 0.011910 -0.046160 
#    y 0.011910 1.815450 -0.013610 
#    z -0.046160 -0.013610 1.742360 
# 
# From -- ./inp_files/203685.got.cif
#   From: 2010.05.17/outbox.cif.g08.bks.cpg/sg2_102_cif.got.tgz:203685.got - 2010.06.03 11:33:40.
