data_PCOD9054012
_publ_section_title
;
Structure prediction by ZEFSAII (Michael W. Deem and Ramdas Pophale) SiO2 
 PCOD9054012
Probable space group: P -1
;
_chemical_formula_sum "Si O2"
_cell_formula_units_Z 16
_cell_length_a 13.010422
_cell_length_b 16.932157
_cell_length_c 11.384134
_cell_angle_alpha 67.809472
_cell_angle_beta 125.439352
_cell_angle_gamma 155.776192
_cell_volume 747.814155
_symmetry_space_group_name_H-M "P -1"
_symmetry_group_IT_number 2
_symmetry_cell_setting 'triclinic'
loop_
_space_group_symop_operation_xyz
x,y,z
-x,-y,-z
loop_
_atom_site_type_symbol
_atom_site_label
_atom_site_fract_x
_atom_site_fract_y
_atom_site_fract_z
Si Si1 0.238847 0.845681 0.556809
Si Si2 0.293957 0.232437 0.708046
Si Si3 0.953553 0.319755 0.720143
Si Si4 0.915838 0.068591 0.145606
Si Si5 0.342560 0.430260 0.056006
Si Si6 0.890791 0.109488 0.355874
Si Si7 0.239839 0.606701 0.190748
Si Si8 0.737063 0.312255 0.217955
O O1 0.020394 0.709293 0.373146
O O2 0.086905 0.795658 0.597965
O O3 0.321457 0.798700 0.665789
O O4 0.575252 0.100435 0.608227
O O5 0.594081 0.372834 0.766169
O O6 0.899143 0.834335 0.478131
O O7 0.091945 0.030542 0.747622
O O8 0.411352 0.368399 0.810447
O O9 0.073091 0.331853 0.895465
O O10 0.159583 0.533619 0.744403
O O11 0.965943 0.162889 0.237342
O O12 0.178653 0.252332 0.119452
O O13 0.571134 0.867736 0.968637
O O14 0.500000 0.500000 0.000000
O O15 0.527467 0.851018 0.263997
O O16 0.036113 0.468032 0.250049
O O17 0.000000 0.500000 0.000000
#
# Coordination Sequence:
#
# PCOD9054012 Si02
#       8
#     2   2   2   2   2   2   2   2
#     4  11  25  41  70  98 137 183 231 284 340 405
#     4  11  25  47  67 101 151 177 224 294 340 410
#     4  11  23  47  64  98 141 177 233 288 333 401
#     4  11  24  43  73 101 136 183 230 281 349 411
#     4  12  26  46  70  97 137 186 235 280 346 418
#     4  11  24  46  67 106 147 178 229 288 346 404
#     4  11  20  39  71 102 136 180 219 276 348 404
#     4  12  22  42  71 104 132 182 230 281 343 408
#
# _framework density 21.395690999999999
#
# number of rings (size 3 to 8) (size 9 to 14) (size 15 to 20)
#    0.000    0.750    6.250    2.625    1.750    1.500 
#    6.750    0.000    0.000    0.000    0.000    0.000 
#    0.000    0.000    0.000    0.000    0.000    0.000 
#
# Total GULP energy -89474.612801 kJ/mol
# GULP energy per Si atom -5592.163300 kJ/mol
# Density = 2.134699 g / cm^3
# Si number density = 21.395691 Si / 1000 Ang^3
#
#
#
# Elastic Constant Matrix: (Units=GPa)
#
#
# Indices 1 2 3 4 5 6 
#
# 1 83.3400 33.8884 27.5736 17.4177 -19.5890 4.8498
# 2 33.8884 85.0807 26.8147 2.2383 -13.1411 5.5692
# 3 27.5736 26.8147 135.3725 7.0426 -10.9127 -7.3189
# 4 17.4177 2.2383 7.0426 12.0773 -5.8669 -4.4972
# 5 -19.5890 -13.1411 -10.9127 -5.8669 39.9323 -8.7896
# 6 4.8498 5.5692 -7.3189 -4.4972 -8.7896 31.5616
#
#
#
# Elastic Compliance Matrix: (Units=1/GPa)
#
#
# Indices 1 2 3 4 5 6 
#
# 1 0.023158 -0.007000 -0.001821 -0.032415 0.002318 -0.006719
# 2 -0.007000 0.015271 -0.001898 0.009574 0.002479 -0.000005
# 3 -0.001821 -0.001898 0.008414 -0.000153 0.001405 0.002935
# 4 -0.032415 0.009574 -0.000153 0.145503 0.014770 0.028102
# 5 0.002318 0.002479 0.001405 0.014770 0.031863 0.010510
# 6 -0.006719 -0.000005 0.002935 0.028102 0.010510 0.040329
#
#
# Mechanical properties :
#
#
# Convention : Reuss Voigt Hill
#
# Bulk Modulus (GPa) = 39.35915 53.37183 46.36549
# Shear Modulus (GPa) = 16.98122 31.08201 24.03162
#
# Velocity S-wave (km/s) = 2.82028 3.81560 3.35505
# Velocity P-wave (km/s) = 5.38898 6.66416 6.06020
#
# Compressibility (1/GPa) = 0.02540705
#
# Stress axis : x y z
#
# Youngs Moduli (GPa) = 43.18127 65.48385 118.85404
#
# Poissons Ratio (x) = 0.45837 0.21638
# Poissons Ratio (y) = 0.30226 0.22554
# Poissons Ratio (z) = 0.07861 0.12426
#
# Static dielectric constant tensor:
#      x y z
#    x 1.805520 0.005140 -0.004530 
#    y 0.005140 1.758250 0.000650 
#    z -0.004530 0.000650 1.760940 
# 
# From -- ./inp_files/456966.got.cif
#   From: 2010.05.17/outbox.cif.g08.bks.cpg/sg2_229_cif.got.tgz:456966.got - 2010.06.03 11:33:40.
