data_PCOD9054112
_publ_section_title
;
Structure prediction by ZEFSAII (Michael W. Deem and Ramdas Pophale) SiO2 
 PCOD9054112
Probable space group: P -1
;
_chemical_formula_sum "Si O2"
_cell_formula_units_Z 16
_cell_length_a 7.901247
_cell_length_b 8.905575
_cell_length_c 12.540685
_cell_angle_alpha 130.528933
_cell_angle_beta 93.714142
_cell_angle_gamma 93.210859
_cell_volume 663.682252
_symmetry_space_group_name_H-M "P -1"
_symmetry_group_IT_number 2
_symmetry_cell_setting 'triclinic'
loop_
_space_group_symop_operation_xyz
x,y,z
-x,-y,-z
loop_
_atom_site_type_symbol
_atom_site_label
_atom_site_fract_x
_atom_site_fract_y
_atom_site_fract_z
Si Si1 0.811057 0.500402 0.659144
Si Si2 0.213295 0.098925 0.250554
Si Si3 0.360479 0.079283 0.611623
Si Si4 0.405364 0.522392 0.150414
Si Si5 0.316195 0.622472 0.793139
Si Si6 0.873624 0.749560 0.462854
Si Si7 0.620287 0.225604 0.352010
Si Si8 0.164226 0.620432 0.006569
O O1 0.846676 0.740358 0.760575
O O2 0.726605 0.449458 0.746620
O O3 0.685528 0.418529 0.517658
O O4 0.972281 0.380476 0.599169
O O5 0.120476 0.144011 0.376031
O O6 0.416458 0.168320 0.304710
O O7 0.181468 0.861064 0.125319
O O8 0.452387 0.287354 0.753366
O O9 0.181145 0.098684 0.556782
O O10 0.500000 0.000000 0.500000
O O11 0.323097 0.943278 0.649078
O O12 0.506346 0.345967 0.118516
O O13 0.313949 0.532608 0.038632
O O14 0.295885 0.416769 0.630151
O O15 0.306913 0.771685 0.764136
O O16 0.178031 0.589723 0.866295
O O17 0.000000 0.500000 0.000000
#
# Coordination Sequence:
#
# PCOD9054112 Si02
#       8
#     2   2   2   2   2   2   2   2
#     4  12  24  42  75 117 156 192 242 318 375 442
#     4  12  24  47  75 108 150 202 247 300 384 445
#     4  11  20  40  69 110 150 196 244 301 371 445
#     4  11  22  45  72 102 147 199 245 306 366 446
#     4  11  25  47  75 106 150 195 249 307 381 445
#     4  11  24  44  71 114 156 191 250 307 371 448
#     4  12  22  43  76 112 153 186 250 309 371 442
#     4  12  28  53  73 104 150 199 255 316 372 445
#
# _framework density 24.107923
#
# number of rings (size 3 to 8) (size 9 to 14) (size 15 to 20)
#    0.000    0.500    6.250    2.625    0.000    1.000 
#    4.500    2.500    0.000    0.000    0.000    0.000 
#    0.000    0.000    0.000    0.000    0.000    0.000 
#
# Total GULP energy -89376.968626 kJ/mol
# GULP energy per Si atom -5586.060539 kJ/mol
# Density = 2.405305 g / cm^3
# Si number density = 24.107923 Si / 1000 Ang^3
#
#
#
# Elastic Constant Matrix: (Units=GPa)
#
#
# Indices 1 2 3 4 5 6 
#
# 1 104.5622 38.6546 29.4256 -2.5319 2.8042 -3.8532
# 2 38.6546 194.2823 53.0838 -27.4576 -6.2416 -1.0517
# 3 29.4256 53.0838 104.5653 -17.2648 -8.1228 8.3422
# 4 -2.5319 -27.4576 -17.2648 38.2455 10.1382 -11.7030
# 5 2.8042 -6.2416 -8.1228 10.1382 27.5121 -3.6842
# 6 -3.8532 -1.0517 8.3422 -11.7030 -3.6842 31.4960
#
#
#
# Elastic Compliance Matrix: (Units=1/GPa)
#
#
# Indices 1 2 3 4 5 6 
#
# 1 0.010993 -0.001608 -0.002652 -0.000674 -0.001815 0.001531
# 2 -0.001608 0.006767 -0.002461 0.004435 -0.000355 0.002287
# 3 -0.002652 -0.002461 0.012304 0.002248 0.002171 -0.002576
# 4 -0.000674 0.004435 0.002248 0.036637 -0.010169 0.011894
# 5 -0.001815 -0.000355 0.002171 -0.010169 0.040866 0.000193
# 6 0.001531 0.002287 -0.002576 0.011894 0.000193 0.037138
#
#
# Mechanical properties :
#
#
# Convention : Reuss Voigt Hill
#
# Bulk Modulus (GPa) = 60.15482 71.74866 65.95174
# Shear Modulus (GPa) = 30.54606 38.26709 34.40657
#
# Velocity S-wave (km/s) = 3.56343 3.98845 3.78191
# Velocity P-wave (km/s) = 6.47589 7.14397 6.81812
#
# Compressibility (1/GPa) = 0.01662377
#
# Stress axis : x y z
#
# Youngs Moduli (GPa) = 90.96620 147.77117 81.27276
#
# Poissons Ratio (x) = 0.23761 0.21551
# Poissons Ratio (y) = 0.14627 0.19999
# Poissons Ratio (z) = 0.24121 0.36363
#
# Static dielectric constant tensor:
#      x y z
#    x 2.028030 -0.053180 0.001860 
#    y -0.053180 2.090640 0.039650 
#    z 0.001860 0.039650 1.888390 
# 
# From -- ./inp_files/383598.got.cif
#   From: 2010.05.17/outbox.cif.g08.bks.cpg/sg2_192_cif.got.tgz:383598.got - 2010.06.03 11:33:40.
