data_PCOD9054044
_publ_section_title
;
Structure prediction by ZEFSAII (Michael W. Deem and Ramdas Pophale) SiO2 
 PCOD9054044
Probable space group: P -1
;
_chemical_formula_sum "Si O2"
_cell_formula_units_Z 16
_cell_length_a 11.351999
_cell_length_b 8.859656
_cell_length_c 13.457641
_cell_angle_alpha 49.955664
_cell_angle_beta 118.939074
_cell_angle_gamma 142.183653
_cell_volume 634.450404
_symmetry_space_group_name_H-M "P -1"
_symmetry_group_IT_number 2
_symmetry_cell_setting 'triclinic'
loop_
_space_group_symop_operation_xyz
x,y,z
-x,-y,-z
loop_
_atom_site_type_symbol
_atom_site_label
_atom_site_fract_x
_atom_site_fract_y
_atom_site_fract_z
Si Si1 0.886374 0.280011 0.179347
Si Si2 0.217060 0.799767 0.480036
Si Si3 0.305212 0.495008 0.730553
Si Si4 0.383834 0.141574 0.893876
Si Si5 0.276763 0.501259 0.250178
Si Si6 0.149671 0.065676 0.209943
Si Si7 0.794370 0.897030 0.472891
Si Si8 0.342790 0.565719 0.940545
O O1 0.802645 0.405273 0.114451
O O2 0.108571 0.480542 0.211964
O O3 0.821871 0.161111 0.090811
O O4 0.776353 0.000129 0.320438
O O5 0.328902 0.714453 0.581625
O O6 0.000000 0.500000 0.500000
O O7 0.258294 0.982356 0.325827
O O8 0.214745 0.941498 0.515053
O O9 0.382549 0.373232 0.769861
O O10 0.385856 0.605506 0.826319
O O11 0.075328 0.218053 0.769121
O O12 0.543375 0.219008 0.851913
O O13 0.468428 0.217035 0.006241
O O14 0.180946 0.254851 0.232777
O O15 0.327819 0.415764 0.401318
O O16 0.233832 0.257419 0.066414
O O17 0.000000 0.000000 0.500000
#
# Coordination Sequence:
#
# PCOD9054044 Si02
#       8
#     2   2   2   2   2   2   2   2
#     4  11  21  41  66  88 125 171 202 257 313 359
#     4   9  18  34  63  91 121 157 210 246 308 374
#     4  11  20  40  64  90 124 170 200 256 319 359
#     4  11  24  39  63  89 128 165 207 254 306 372
#     4   9  20  40  62  93 123 157 214 251 307 367
#     4   9  19  37  62  91 122 158 206 256 301 373
#     4   9  18  35  63  90 123 160 203 261 305 358
#     4  11  23  39  62  91 127 159 214 256 303 371
#
# _framework density 25.218678000000001
#
# number of rings (size 3 to 8) (size 9 to 14) (size 15 to 20)
#    0.000    2.000    2.500    1.125    1.750    2.500 
#    2.250    5.625    0.000    0.000    0.000    0.000 
#    0.000    0.000    0.000    0.000    0.000    0.000 
#
# Total GULP energy -89520.152770 kJ/mol
# GULP energy per Si atom -5595.009548 kJ/mol
# Density = 2.516128 g / cm^3
# Si number density = 25.218678 Si / 1000 Ang^3
#
#
#
# Elastic Constant Matrix: (Units=GPa)
#
#
# Indices 1 2 3 4 5 6 
#
# 1 82.1717 19.0640 37.5522 -2.2403 29.1926 -0.7548
# 2 19.0640 68.7026 38.0394 -4.8325 7.7082 9.8325
# 3 37.5522 38.0394 178.9609 -8.8100 16.0584 4.4391
# 4 -2.2403 -4.8325 -8.8100 35.9986 -1.5055 7.3232
# 5 29.1926 7.7082 16.0584 -1.5055 46.8782 -6.8816
# 6 -0.7548 9.8325 4.4391 7.3232 -6.8816 26.2282
#
#
#
# Elastic Compliance Matrix: (Units=1/GPa)
#
#
# Indices 1 2 3 4 5 6 
#
# 1 0.017145 -0.002339 -0.002217 -0.000035 -0.009648 -0.000776
# 2 -0.002339 0.018322 -0.002916 0.003106 -0.001592 -0.007727
# 3 -0.002217 -0.002916 0.006795 0.001234 -0.000516 -0.000600
# 4 -0.000035 0.003106 0.001234 0.030526 -0.001439 -0.010275
# 5 -0.009648 -0.001592 -0.000516 -0.001439 0.028966 0.008408
# 6 -0.000776 -0.007727 -0.000600 -0.010275 0.008408 0.046178
#
#
# Mechanical properties :
#
#
# Convention : Reuss Voigt Hill
#
# Bulk Modulus (GPa) = 36.60706 57.68293 47.14500
# Shear Modulus (GPa) = 29.07275 37.49964 33.28619
#
# Velocity S-wave (km/s) = 3.39901 3.86032 3.63699
# Velocity P-wave (km/s) = 5.47282 6.54157 6.03092
#
# Compressibility (1/GPa) = 0.02731713
#
# Stress axis : x y z
#
# Youngs Moduli (GPa) = 58.32644 54.57872 147.16946
#
# Poissons Ratio (x) = 0.12765 0.32631
# Poissons Ratio (y) = 0.13641 0.42920
# Poissons Ratio (z) = 0.12932 0.15917
#
# Static dielectric constant tensor:
#      x y z
#    x 1.996080 0.060060 0.011950 
#    y 0.060060 1.987490 -0.017500 
#    z 0.011950 -0.017500 2.015890 
# 
# From -- ./inp_files/515101.got.cif
#   From: 2010.05.17/outbox.cif.g08.bks.cpg/sg2_258_cif.got.tgz:515101.got - 2010.06.03 11:33:40.
