data_PCOD9054748
_publ_section_title
;
Structure prediction by ZEFSAII (Michael W. Deem and Ramdas Pophale) SiO2 
 PCOD9054748
Probable space group: P -1
;
_chemical_formula_sum "Si O2"
_cell_formula_units_Z 15
_cell_length_a 9.655171
_cell_length_b 9.360758
_cell_length_c 10.966070
_cell_angle_alpha 56.816461
_cell_angle_beta 74.334755
_cell_angle_gamma 46.565653
_cell_volume 593.056617
_symmetry_space_group_name_H-M "P -1"
_symmetry_group_IT_number 2
_symmetry_cell_setting 'triclinic'
loop_
_space_group_symop_operation_xyz
x,y,z
-x,-y,-z
loop_
_atom_site_type_symbol
_atom_site_label
_atom_site_fract_x
_atom_site_fract_y
_atom_site_fract_z
Si Si1 0.332767 0.502243 0.379501
Si Si2 0.018434 0.161385 0.345181
Si Si3 0.584559 0.213597 0.899666
Si Si4 0.456009 0.889546 0.293205
Si Si5 0.000000 0.000000 0.000000
Si Si6 0.263701 0.634918 0.911727
Si Si7 0.443367 0.853176 0.704897
Si Si8 0.969221 0.701947 0.480631
O O1 0.425330 0.602583 0.265057
O O2 0.418254 0.353925 0.551548
O O3 0.382443 0.324347 0.346830
O O4 0.105287 0.716154 0.357682
O O5 0.965594 0.345585 0.372772
O O6 0.884791 0.258275 0.214847
O O7 0.235676 0.020035 0.317335
O O8 0.000000 0.000000 0.500000
O O9 0.533764 0.119696 0.850473
O O10 0.416224 0.366084 0.968666
O O11 0.801271 0.048427 0.980144
O O12 0.514734 0.022668 0.275710
O O13 0.143685 0.748089 0.011719
O O14 0.380072 0.720553 0.833912
O O15 0.250035 0.062269 0.580290
O O16 0.000000 0.500000 0.500000
#
# Coordination Sequence:
#
# PCOD9054748 Si02
#       8
#     2   2   2   2   1   2   2   2
#     4  11  21  38  62  94 135 172 206 254 325 395
#     4  12  21  38  63  96 134 169 212 258 316 388
#     4  11  24  41  67  95 120 170 223 268 317 380
#     4  12  21  39  63  98 140 164 205 269 330 382
#     4  12  24  48  70  92 124 168 234 274 310 372
#     4  11  24  44  69  92 127 172 222 266 320 382
#     4  11  23  40  58  96 136 171 207 263 326 391
#     4  12  21  33  57  92 136 176 199 246 321 388
#
# _framework density 25.292694999999998
#
# number of rings (size 3 to 8) (size 9 to 14) (size 15 to 20)
#    0.000    0.533    5.333    5.200    0.000    0.000 
#    0.000    0.667    0.000    4.000    0.000    0.000 
#    0.000    0.000    0.000    0.000    0.000    0.000 
#
# Total GULP energy -83759.549298 kJ/mol
# GULP energy per Si atom -5583.969953 kJ/mol
# Density = 2.523513 g / cm^3
# Si number density = 25.292695 Si / 1000 Ang^3
#
#
#
# Elastic Constant Matrix: (Units=GPa)
#
#
# Indices 1 2 3 4 5 6 
#
# 1 81.9351 33.8848 30.6051 5.1235 26.8373 -8.2612
# 2 33.8848 137.1726 47.2957 36.6308 15.0225 -25.5091
# 3 30.6051 47.2957 82.9920 13.1753 27.5295 2.9431
# 4 5.1235 36.6308 13.1753 43.0958 14.2194 12.2158
# 5 26.8373 15.0225 27.5295 14.2194 57.1053 4.4305
# 6 -8.2612 -25.5091 2.9431 12.2158 4.4305 44.2229
#
#
#
# Elastic Compliance Matrix: (Units=1/GPa)
#
#
# Indices 1 2 3 4 5 6 
#
# 1 0.016576 -0.003074 -0.002748 0.003296 -0.006575 0.001254
# 2 -0.003074 0.017977 -0.008093 -0.017962 0.003934 0.014901
# 3 -0.002748 -0.008093 0.019265 0.005605 -0.006693 -0.007341
# 4 0.003296 -0.017962 0.005605 0.045572 -0.009183 -0.021787
# 5 -0.006575 0.003934 -0.006693 -0.009183 0.024962 0.001522
# 6 0.001254 0.014901 -0.007341 -0.021787 0.001522 0.037797
#
#
# Mechanical properties :
#
#
# Convention : Reuss Voigt Hill
#
# Bulk Modulus (GPa) = 38.47744 58.40787 48.44265
# Shear Modulus (GPa) = 25.17094 41.57241 33.37168
#
# Velocity S-wave (km/s) = 3.15808 4.05860 3.63632
# Velocity P-wave (km/s) = 5.34264 6.71609 6.06835
#
# Compressibility (1/GPa) = 0.02598926
#
# Stress axis : x y z
#
# Youngs Moduli (GPa) = 60.32648 55.62728 51.90689
#
# Poissons Ratio (x) = 0.17102 0.14262
# Poissons Ratio (y) = 0.18546 0.42006
# Poissons Ratio (z) = 0.16576 0.45017
#
# Static dielectric constant tensor:
#      x y z
#    x 2.012150 0.005130 0.021790 
#    y 0.005130 2.020400 -0.021340 
#    z 0.021790 -0.021340 2.184240 
# 
# From -- ./inp_files/236724.got.cif
#   From: 2010.05.17/outbox.cif.g08.bks.cpg/sg2_119_cif.got.tgz:236724.got - 2010.06.03 11:33:40.
