data_PCOD9054287
_publ_section_title
;
Structure prediction by ZEFSAII (Michael W. Deem and Ramdas Pophale) SiO2 
 PCOD9054287
Probable space group: P -1
;
_chemical_formula_sum "Si O2"
_cell_formula_units_Z 16
_cell_length_a 17.368981
_cell_length_b 20.278229
_cell_length_c 10.924745
_cell_angle_alpha 142.543832
_cell_angle_beta 149.488921
_cell_angle_gamma 20.673217
_cell_volume 688.071188
_symmetry_space_group_name_H-M "P -1"
_symmetry_group_IT_number 2
_symmetry_cell_setting 'triclinic'
loop_
_space_group_symop_operation_xyz
x,y,z
-x,-y,-z
loop_
_atom_site_type_symbol
_atom_site_label
_atom_site_fract_x
_atom_site_fract_y
_atom_site_fract_z
Si Si1 0.755761 0.578640 0.431427
Si Si2 0.714323 0.962388 0.783294
Si Si3 0.169313 0.007927 0.258101
Si Si4 0.605112 0.248082 0.193389
Si Si5 0.040872 0.159290 0.578039
Si Si6 0.093595 0.590779 0.879513
Si Si7 0.554951 0.797504 0.872896
Si Si8 0.096003 0.563170 0.328624
O O1 0.471403 0.796874 0.359578
O O2 0.818954 0.488206 0.255405
O O3 0.787342 0.478909 0.441189
O O4 0.955450 0.562838 0.699440
O O5 0.886505 0.807531 0.897730
O O6 0.500000 0.000000 0.500000
O O7 0.872966 0.896324 0.779849
O O8 0.609079 0.137946 0.949732
O O9 0.104261 0.094951 0.428578
O O10 0.000000 0.000000 0.000000
O O11 0.572161 0.220616 0.243150
O O12 0.859822 0.171613 0.405021
O O13 0.348835 0.465047 0.122987
O O14 0.887827 0.360759 0.647589
O O15 0.314940 0.006654 0.800070
O O16 0.729745 0.641056 0.775196
O O17 0.784079 0.724507 0.153647
#
# Coordination Sequence:
#
# PCOD9054287 Si02
#       8
#     2   2   2   2   2   2   2   2
#     4  11  20  42  68  95 136 171 215 279 327 391
#     4  12  24  41  70 102 134 180 220 269 339 398
#     4  12  23  42  67 102 139 168 215 277 338 399
#     4  12  26  45  66 102 137 176 225 275 328 405
#     4  12  26  45  69  97 139 178 218 277 341 393
#     4  11  22  39  68  99 132 172 219 270 329 396
#     4  11  26  46  69  96 134 175 234 277 320 399
#     4  11  25  45  72  99 129 178 227 277 335 387
#
# _framework density 23.253408
#
# number of rings (size 3 to 8) (size 9 to 14) (size 15 to 20)
#    0.000    0.500    6.250    2.250    1.750    3.500 
#    0.000    2.500    0.000    0.000    0.000    0.000 
#    0.000    0.000    0.000    0.000    0.000    0.000 
#
# Total GULP energy -89532.713237 kJ/mol
# GULP energy per Si atom -5595.794577 kJ/mol
# Density = 2.320048 g / cm^3
# Si number density = 23.253408 Si / 1000 Ang^3
#
#
#
# Elastic Constant Matrix: (Units=GPa)
#
#
# Indices 1 2 3 4 5 6 
#
# 1 103.8542 -1.8375 5.1606 -7.1813 3.6095 13.7544
# 2 -1.8375 67.5179 7.2824 -17.3442 -8.9233 18.8164
# 3 5.1606 7.2824 49.1156 -17.2909 10.7888 3.3103
# 4 -7.1813 -17.3442 -17.2909 24.6371 7.0146 -5.7194
# 5 3.6095 -8.9233 10.7888 7.0146 38.4065 -7.4623
# 6 13.7544 18.8164 3.3103 -5.7194 -7.4623 42.6501
#
#
#
# Elastic Compliance Matrix: (Units=1/GPa)
#
#
# Indices 1 2 3 4 5 6 
#
# 1 0.010651 0.002412 0.001331 0.005488 -0.002659 -0.004331
# 2 0.002412 0.020776 0.002858 0.015619 -0.000645 -0.008184
# 3 0.001331 0.002858 0.033691 0.029606 -0.014904 -0.002943
# 4 0.005488 0.015619 0.029606 0.078845 -0.020371 -0.003950
# 5 -0.002659 -0.000645 -0.014904 -0.020371 0.035156 0.005718
# 6 -0.004331 -0.008184 -0.002943 -0.003950 0.005718 0.029153
#
#
# Mechanical properties :
#
#
# Convention : Reuss Voigt Hill
#
# Bulk Modulus (GPa) = 12.76808 26.85543 19.81176
# Shear Modulus (GPa) = 22.60629 35.13089 28.86859
#
# Velocity S-wave (km/s) = 3.12135 3.89110 3.52728
# Velocity P-wave (km/s) = 4.30037 5.63575 5.01272
#
# Compressibility (1/GPa) = 0.07832033
#
# Stress axis : x y z
#
# Youngs Moduli (GPa) = 93.88829 48.13268 29.68119
#
# Poissons Ratio (x) = -0.11609 -0.03952
# Poissons Ratio (y) = -0.22645 -0.08482
# Poissons Ratio (z) = -0.12500 -0.13756
#
# Static dielectric constant tensor:
#      x y z
#    x 1.951540 0.022930 0.057520 
#    y 0.022930 1.894200 0.049420 
#    z 0.057520 0.049420 1.867150 
# 
# From -- ./inp_files/307068.got.cif
#   From: 2010.05.17/outbox.cif.g08.bks.cpg/sg2_154_cif.got.tgz:307068.got - 2010.06.03 11:33:40.
