data_PCOD9054851
_publ_section_title
;
Structure prediction by ZEFSAII (Michael W. Deem and Ramdas Pophale) SiO2 
 PCOD9054851
Probable space group: P -1
;
_chemical_formula_sum "Si O2"
_cell_formula_units_Z 14
_cell_length_a 8.174226
_cell_length_b 9.841273
_cell_length_c 12.649123
_cell_angle_alpha 46.631186
_cell_angle_beta 108.742082
_cell_angle_gamma 128.534440
_cell_volume 568.390041
_symmetry_space_group_name_H-M "P -1"
_symmetry_group_IT_number 2
_symmetry_cell_setting 'triclinic'
loop_
_space_group_symop_operation_xyz
x,y,z
-x,-y,-z
loop_
_atom_site_type_symbol
_atom_site_label
_atom_site_fract_x
_atom_site_fract_y
_atom_site_fract_z
Si Si1 0.681068 0.259541 0.419961
Si Si2 0.294953 0.246215 0.078788
Si Si3 0.301202 0.229110 0.627379
Si Si4 0.769789 0.698358 0.199222
Si Si5 0.998146 0.714542 0.840995
Si Si6 0.882442 0.588448 0.655210
Si Si7 0.776346 0.198978 0.703099
O O1 0.606480 0.422900 0.301618
O O2 0.761304 0.296181 0.537741
O O3 0.878693 0.340174 0.342926
O O4 0.500000 0.000000 0.500000
O O5 0.117741 0.222792 0.131611
O O6 0.359941 0.071976 0.199389
O O7 0.500000 0.500000 0.000000
O O8 0.216810 0.205322 0.963450
O O9 0.500000 0.500000 0.500000
O O10 0.296197 0.224930 0.755427
O O11 0.130234 0.243550 0.516503
O O12 0.224313 0.965825 0.727128
O O13 0.993132 0.745262 0.254913
O O14 0.857936 0.621614 0.754290
O O15 0.000000 0.500000 0.000000
O O16 0.738178 0.327082 0.718277
#
# Coordination Sequence:
#
# PCOD9054851 Si02
#       7
#     2   2   2   2   2   2   2
#     4  11  21  38  71 103 136 180 239 300 354 431
#     4  12  27  45  72 106 143 194 249 300 365 439
#     4  12  27  45  74 106 145 194 243 300 370 429
#     4  11  22  43  69  98 142 185 240 292 358 430
#     4  12  28  49  71 107 152 193 238 306 371 434
#     4  11  24  45  70 105 146 186 241 303 364 434
#     4  11  21  44  71 103 137 187 242 296 360 430
#
# _framework density 24.630973000000001
#
# number of rings (size 3 to 8) (size 9 to 14) (size 15 to 20)
#    0.000    0.571    4.286    4.286    6.000    1.143 
#    0.000    1.429    0.000    0.000    0.000    0.000 
#    0.000    0.000    0.000    0.000    0.000    0.000 
#
# Total GULP energy -78164.248815 kJ/mol
# GULP energy per Si atom -5583.160630 kJ/mol
# Density = 2.457491 g / cm^3
# Si number density = 24.630973 Si / 1000 Ang^3
#
#
#
# Elastic Constant Matrix: (Units=GPa)
#
#
# Indices 1 2 3 4 5 6 
#
# 1 61.0705 29.0949 23.2722 -0.4208 -0.6417 -13.3958
# 2 29.0949 154.5817 80.9809 -22.0441 -12.7617 -22.0258
# 3 23.2722 80.9809 139.9594 -3.6502 6.3304 -26.1658
# 4 -0.4208 -22.0441 -3.6502 80.7499 -8.1339 -12.0998
# 5 -0.6417 -12.7617 6.3304 -8.1339 28.3330 -6.4880
# 6 -13.3958 -22.0258 -26.1658 -12.0998 -6.4880 40.2024
#
#
#
# Elastic Compliance Matrix: (Units=1/GPa)
#
#
# Indices 1 2 3 4 5 6 
#
# 1 0.018851 -0.002305 -0.000978 0.000177 0.000700 0.004548
# 2 -0.002305 0.012218 -0.006068 0.004717 0.009282 0.004894
# 3 -0.000978 -0.006068 0.011509 -0.001257 -0.005083 0.002642
# 4 0.000177 0.004717 -0.001257 0.015688 0.008735 0.007957
# 5 0.000700 0.009282 -0.005083 0.008735 0.045893 0.012046
# 6 0.004548 0.004894 0.002642 0.007957 0.012046 0.035129
#
#
# Mechanical properties :
#
#
# Convention : Reuss Voigt Hill
#
# Bulk Modulus (GPa) = 41.87953 69.14529 55.51241
# Shear Modulus (GPa) = 30.12960 44.67463 37.40212
#
# Velocity S-wave (km/s) = 3.50128 4.26344 3.90102
# Velocity P-wave (km/s) = 5.77797 7.23667 6.54807
#
# Compressibility (1/GPa) = 0.02387801
#
# Stress axis : x y z
#
# Youngs Moduli (GPa) = 53.04629 81.84557 86.88518
#
# Poissons Ratio (x) = 0.18865 0.08494
# Poissons Ratio (y) = 0.12227 0.52721
# Poissons Ratio (z) = 0.05186 0.49663
#
# Static dielectric constant tensor:
#      x y z
#    x 2.039900 0.027660 -0.049950 
#    y 0.027660 2.035450 -0.095190 
#    z -0.049950 -0.095190 1.866630 
# 
# From -- ./inp_files/183023.got.cif
#   From: 2010.05.17/outbox.cif.g08.bks.cpg/sg2_92_cif.got.tgz:183023.got - 2010.06.03 11:33:40.
