data_PCOD9054360
_publ_section_title
;
Structure prediction by ZEFSAII (Michael W. Deem and Ramdas Pophale) SiO2 
 PCOD9054360
Probable space group: P -1
;
_chemical_formula_sum "Si O2"
_cell_formula_units_Z 16
_cell_length_a 8.818561
_cell_length_b 12.657150
_cell_length_c 12.553399
_cell_angle_alpha 44.658537
_cell_angle_beta 120.958567
_cell_angle_gamma 96.110948
_cell_volume 762.309751
_symmetry_space_group_name_H-M "P -1"
_symmetry_group_IT_number 2
_symmetry_cell_setting 'triclinic'
loop_
_space_group_symop_operation_xyz
x,y,z
-x,-y,-z
loop_
_atom_site_type_symbol
_atom_site_label
_atom_site_fract_x
_atom_site_fract_y
_atom_site_fract_z
Si Si1 0.019828 0.278244 0.765072
Si Si2 0.553921 0.610391 0.019799
Si Si3 0.540402 0.008199 0.831721
Si Si4 0.714546 0.160530 0.066299
Si Si5 0.948508 0.396724 0.412464
Si Si6 0.528309 0.098316 0.340967
Si Si7 0.936094 0.096333 0.518752
Si Si8 0.366189 0.693737 0.293878
O O1 0.979526 0.457962 0.674251
O O2 0.011861 0.311106 0.611607
O O3 0.837520 0.244055 0.759804
O O4 0.232581 0.131408 0.976467
O O5 0.714775 0.505481 0.239378
O O6 0.500000 0.500000 0.000000
O O7 0.368087 0.730740 0.935133
O O8 0.624620 0.722394 0.889338
O O9 0.411881 0.947328 0.905146
O O10 0.452301 0.009782 0.680844
O O11 0.530395 0.187152 0.724345
O O12 0.681157 0.272908 0.871650
O O13 0.939369 0.034848 0.252450
O O14 0.986011 0.253859 0.440564
O O15 0.709427 0.137746 0.412495
O O16 0.500000 0.000000 0.500000
O O17 0.000000 0.000000 0.500000
O O18 0.500000 0.500000 0.500000
#
# Coordination Sequence:
#
# PCOD9054360 Si02
#       8
#     2   2   2   2   2   2   2   2
#     4  11  25  43  68 100 130 182 221 274 333 394
#     4  11  20  43  67  95 124 176 220 264 318 402
#     4  11  24  47  66  93 136 181 222 259 336 412
#     4  11  24  43  68  97 134 174 217 270 339 393
#     4  11  23  40  72  95 135 171 230 267 330 403
#     4  11  25  39  68  96 130 169 220 266 326 390
#     4  12  23  43  67 101 129 176 218 274 333 392
#     4  12  28  41  67 101 138 165 222 285 332 378
#
# _framework density 20.988844
#
# number of rings (size 3 to 8) (size 9 to 14) (size 15 to 20)
#    0.000    0.750    6.250    2.250    7.000    1.000 
#    0.000    0.000    0.000    3.750    0.000    0.000 
#    0.000    0.000    0.000    0.000    0.000    0.000 
#
# Total GULP energy -89278.155603 kJ/mol
# GULP energy per Si atom -5579.884725 kJ/mol
# Density = 2.094107 g / cm^3
# Si number density = 20.988844 Si / 1000 Ang^3
#
#
#
# Elastic Constant Matrix: (Units=GPa)
#
#
# Indices 1 2 3 4 5 6 
#
# 1 35.3137 -4.9092 20.2187 -0.8621 -6.4567 7.6426
# 2 -4.9092 123.5804 26.5308 -15.0446 -9.1337 20.9528
# 3 20.2187 26.5308 145.9814 0.5884 -3.6137 1.2917
# 4 -0.8621 -15.0446 0.5884 32.1744 4.4320 -0.0934
# 5 -6.4567 -9.1337 -3.6137 4.4320 37.2916 1.9542
# 6 7.6426 20.9528 1.2917 -0.0934 1.9542 21.5569
#
#
#
# Elastic Compliance Matrix: (Units=1/GPa)
#
#
# Indices 1 2 3 4 5 6 
#
# 1 0.039587 0.007783 -0.006498 0.003534 0.008863 -0.021998
# 2 0.007783 0.012654 -0.003159 0.005550 0.004279 -0.015233
# 3 -0.006498 -0.003159 0.008258 -0.001627 -0.001166 0.004978
# 4 0.003534 0.005550 -0.001627 0.034045 -0.001906 -0.006229
# 5 0.008863 0.004279 -0.001166 -0.001906 0.030034 -0.009963
# 6 -0.021998 -0.015233 0.004978 -0.006229 -0.009963 0.069572
#
#
# Mechanical properties :
#
#
# Convention : Reuss Voigt Hill
#
# Bulk Modulus (GPa) = 17.62088 43.17291 30.39689
# Shear Modulus (GPa) = 23.06110 35.74027 29.40068
#
# Velocity S-wave (km/s) = 3.31831 4.13100 3.74676
# Velocity P-wave (km/s) = 4.80574 6.58542 5.76467
#
# Compressibility (1/GPa) = 0.05675084
#
# Stress axis : x y z
#
# Youngs Moduli (GPa) = 25.26055 79.02678 121.09576
#
# Poissons Ratio (x) = -0.61503 0.78682
# Poissons Ratio (y) = -0.19659 0.38258
# Poissons Ratio (z) = 0.16413 0.24967
#
# Static dielectric constant tensor:
#      x y z
#    x 1.744700 -0.000720 0.021390 
#    y -0.000720 1.795770 -0.015720 
#    z 0.021390 -0.015720 1.787130 
# 
# From -- ./inp_files/392163.got.cif
#   From: 2010.05.17/outbox.cif.g08.bks.cpg/sg2_197_cif.got.tgz:392163.got - 2010.06.03 11:33:40.
