data_PCOD9054732
_publ_section_title
;
Structure prediction by ZEFSAII (Michael W. Deem and Ramdas Pophale) SiO2 
 PCOD9054732
Probable space group: P -1
;
_chemical_formula_sum "Si O2"
_cell_formula_units_Z 14
_cell_length_a 7.721774
_cell_length_b 16.441891
_cell_length_c 6.680584
_cell_angle_alpha 99.767101
_cell_angle_beta 41.033627
_cell_angle_gamma 98.027636
_cell_volume 548.665235
_symmetry_space_group_name_H-M "P -1"
_symmetry_group_IT_number 2
_symmetry_cell_setting 'triclinic'
loop_
_space_group_symop_operation_xyz
x,y,z
-x,-y,-z
loop_
_atom_site_type_symbol
_atom_site_label
_atom_site_fract_x
_atom_site_fract_y
_atom_site_fract_z
Si Si1 0.461295 0.658542 0.261413
Si Si2 0.526319 0.707477 0.699627
Si Si3 0.270390 0.853321 0.803101
Si Si4 0.032746 0.615343 0.208163
Si Si5 0.035791 0.431721 0.221893
Si Si6 0.779971 0.985577 0.850266
Si Si7 0.721125 0.825170 0.083623
O O1 0.495825 0.682043 0.479027
O O2 0.579762 0.741831 0.093420
O O3 0.161096 0.627112 0.504886
O O4 0.660215 0.585772 0.010329
O O5 0.407492 0.799025 0.834442
O O6 0.828274 0.686728 0.468432
O O7 0.332637 0.648084 0.970462
O O8 0.498028 0.861103 0.440754
O O9 0.999665 0.808335 0.944991
O O10 0.188618 0.943408 0.981320
O O11 0.968384 0.527763 0.330623
O O12 0.000790 0.594143 0.990038
O O13 0.790974 0.894367 0.890940
O O14 0.000000 0.000000 0.500000
O O15 0.500000 0.000000 0.000000
#
# Coordination Sequence:
#
# PCOD9054732 Si02
#       7
#     2   2   2   2   2   2   2
#     4   9  16  26  43  69 100 138 180 217 256 315
#     4   9  16  26  43  69 100 138 180 217 256 315
#     4  11  21  38  61  83 111 149 190 226 272 334
#     4   9  15  23  37  63 103 143 172 208 265 318
#     4   9  15  23  37  63 103 143 172 208 265 318
#     4  12  26  42  60  86 116 142 180 234 288 336
#     4  11  21  38  61  83 111 149 190 226 272 334
#
# _framework density 25.516469000000001
#
# number of rings (size 3 to 8) (size 9 to 14) (size 15 to 20)
#    0.000    2.000    0.000    7.714    0.000    3.429 
#    0.000    0.000    0.000    0.000    0.000    0.000 
#    0.000   22.857    0.000    0.000    0.000    2.571 
#
# Total GULP energy -78437.760450 kJ/mol
# GULP energy per Si atom -5602.697175 kJ/mol
# Density = 2.545839 g / cm^3
# Si number density = 25.516469 Si / 1000 Ang^3
#
#
#
# Elastic Constant Matrix: (Units=GPa)
#
#
# Indices 1 2 3 4 5 6 
#
# 1 75.3297 32.4793 32.2898 -4.6045 -22.1124 1.2413
# 2 32.4793 159.7905 57.7374 -17.5081 -4.2259 -16.1836
# 3 32.2898 57.7374 178.8388 -15.7535 -14.2194 -8.9493
# 4 -4.6045 -17.5081 -15.7535 47.6712 -6.4775 3.2435
# 5 -22.1124 -4.2259 -14.2194 -6.4775 50.4978 -2.3648
# 6 1.2413 -16.1836 -8.9493 3.2435 -2.3648 41.5991
#
#
#
# Elastic Compliance Matrix: (Units=1/GPa)
#
#
# Indices 1 2 3 4 5 6 
#
# 1 0.017324 -0.002778 -0.001658 0.001163 0.006959 -0.001649
# 2 -0.002778 0.007920 -0.001828 0.001762 -0.000721 0.002592
# 3 -0.001658 -0.001828 0.006752 0.001519 0.001252 0.000744
# 4 0.001163 0.001762 0.001519 0.022819 0.003985 -0.000575
# 5 0.006959 -0.000721 0.001252 0.003985 0.023692 0.000817
# 6 -0.001649 0.002592 0.000744 -0.000575 0.000817 0.025348
#
#
# Mechanical properties :
#
#
# Convention : Reuss Voigt Hill
#
# Bulk Modulus (GPa) = 51.36445 73.21910 62.29177
# Shear Modulus (GPa) = 40.69303 47.38378 44.03840
#
# Velocity S-wave (km/s) = 3.99780 4.31395 4.15888
# Velocity P-wave (km/s) = 6.44076 7.31920 6.89399
#
# Compressibility (1/GPa) = 0.01946872
#
# Stress axis : x y z
#
# Youngs Moduli (GPa) = 57.72230 126.26576 148.11278
#
# Poissons Ratio (x) = 0.35075 0.24556
# Poissons Ratio (y) = 0.16035 0.27070
# Poissons Ratio (z) = 0.09570 0.23077
#
# Static dielectric constant tensor:
#      x y z
#    x 2.200090 0.013050 0.105780 
#    y 0.013050 1.970600 -0.004220 
#    z 0.105780 -0.004220 1.909370 
# 
# From -- ./inp_files/215037.got.cif
#   From: 2010.05.17/outbox.cif.g08.bks.cpg/sg2_108_cif.got.tgz:215037.got - 2010.06.03 11:33:40.
