data_PCOD9054508
_publ_section_title
;
Structure prediction by ZEFSAII (Michael W. Deem and Ramdas Pophale) SiO2 
 PCOD9054508
Probable space group: P -1
;
_chemical_formula_sum "Si O2"
_cell_formula_units_Z 16
_cell_length_a 18.522206
_cell_length_b 7.905752
_cell_length_c 9.419621
_cell_angle_alpha 90.074569
_cell_angle_beta 148.556456
_cell_angle_gamma 94.828299
_cell_volume 709.859875
_symmetry_space_group_name_H-M "P -1"
_symmetry_group_IT_number 2
_symmetry_cell_setting 'triclinic'
loop_
_space_group_symop_operation_xyz
x,y,z
-x,-y,-z
loop_
_atom_site_type_symbol
_atom_site_label
_atom_site_fract_x
_atom_site_fract_y
_atom_site_fract_z
Si Si1 0.544514 0.968229 0.317987
Si Si2 0.306815 0.982267 0.725936
Si Si3 0.842309 0.502419 0.782142
Si Si4 0.758089 0.790928 0.834635
Si Si5 0.645718 0.535465 0.891112
Si Si6 0.378739 0.692234 0.406810
Si Si7 0.014247 0.032033 0.193713
Si Si8 0.764182 0.654314 0.378906
O O1 0.547358 0.116947 0.438463
O O2 0.633991 0.047576 0.330049
O O3 0.625283 0.829253 0.522919
O O4 0.392880 0.911225 0.994463
O O5 0.329348 0.192328 0.775420
O O6 0.139836 0.930651 0.452007
O O7 0.836076 0.666016 0.871294
O O8 0.763863 0.345918 0.742662
O O9 0.751087 0.529921 0.490480
O O10 0.000000 0.500000 0.000000
O O11 0.713968 0.695710 0.906250
O O12 0.869435 0.964980 0.028371
O O13 0.485506 0.566953 0.640593
O O14 0.649457 0.368011 0.801876
O O15 0.728723 0.551046 0.176151
O O16 0.082101 0.227412 0.345091
O O17 0.000000 0.000000 0.000000
#
# Coordination Sequence:
#
# PCOD9054508 Si02
#       8
#     2   2   2   2   2   2   2   2
#     4  11  19  38  65  98 125 161 208 268 309 370
#     4   9  20  33  64  98 127 143 213 273 314 343
#     4  11  24  39  67  95 119 167 216 262 317 372
#     4  11  22  39  69  92 130 170 208 254 322 384
#     4  10  23  45  59  91 133 171 208 247 319 385
#     4  10  23  40  65  87 129 173 206 247 316 388
#     4  10  17  35  65  91 120 161 204 256 324 346
#     4  10  20  41  62  91 128 159 206 275 306 366
#
# _framework density 22.539659
#
# number of rings (size 3 to 8) (size 9 to 14) (size 15 to 20)
#    0.750    1.000    5.000    0.000    3.500    1.500 
#    0.000    3.750    5.500    0.000    0.000    0.000 
#    0.000    0.000    0.000    0.000    0.000    0.000 
#
# Total GULP energy -89362.116223 kJ/mol
# GULP energy per Si atom -5585.132264 kJ/mol
# Density = 2.248836 g / cm^3
# Si number density = 22.539659 Si / 1000 Ang^3
#
#
#
# Elastic Constant Matrix: (Units=GPa)
#
#
# Indices 1 2 3 4 5 6 
#
# 1 94.4257 18.5049 40.1694 5.6817 4.0047 0.0483
# 2 18.5049 52.5917 15.8946 12.8835 -6.4681 -13.2783
# 3 40.1694 15.8946 102.4057 12.3027 -0.9679 -5.0782
# 4 5.6817 12.8835 12.3027 34.6815 -14.3229 -4.0440
# 5 4.0047 -6.4681 -0.9679 -14.3229 34.3298 6.3907
# 6 0.0483 -13.2783 -5.0782 -4.0440 6.3907 27.0779
#
#
#
# Elastic Compliance Matrix: (Units=1/GPa)
#
#
# Indices 1 2 3 4 5 6 
#
# 1 0.013545 -0.004174 -0.004794 -0.000121 -0.002088 -0.002496
# 2 -0.004174 0.025314 -0.000895 -0.007006 0.000232 0.011152
# 3 -0.004794 -0.000895 0.012270 -0.003464 -0.001005 0.001591
# 4 -0.000121 -0.007006 -0.003464 0.038699 0.015090 -0.001867
# 5 -0.002088 0.000232 -0.001005 0.015090 0.036899 -0.006526
# 6 -0.002496 0.011152 0.001591 -0.001867 -0.006526 0.043963
#
#
# Mechanical properties :
#
#
# Convention : Reuss Voigt Hill
#
# Bulk Modulus (GPa) = 31.84431 44.28452 38.06441
# Shear Modulus (GPa) = 24.88996 30.87478 27.88237
#
# Velocity S-wave (km/s) = 3.32667 3.70509 3.52097
# Velocity P-wave (km/s) = 5.37721 6.16390 5.78395
#
# Compressibility (1/GPa) = 0.03140279
#
# Stress axis : x y z
#
# Youngs Moduli (GPa) = 73.82834 39.50376 81.49894
#
# Poissons Ratio (x) = 0.16490 0.39072
# Poissons Ratio (y) = 0.30817 0.07292
# Poissons Ratio (z) = 0.35395 0.03535
#
# Static dielectric constant tensor:
#      x y z
#    x 1.840990 0.005370 0.031330 
#    y 0.005370 1.877610 0.009930 
#    z 0.031330 0.009930 1.825990 
# 
# From -- ./inp_files/343605.got.cif
#   From: 2010.05.17/outbox.cif.g08.bks.cpg/sg2_172_cif.got.tgz:343605.got - 2010.06.03 11:33:40.
