data_PCOD9054362
_publ_section_title
;
Structure prediction by ZEFSAII (Michael W. Deem and Ramdas Pophale) SiO2 
 PCOD9054362
Probable space group: P -1
;
_chemical_formula_sum "Si O2"
_cell_formula_units_Z 16
_cell_length_a 8.524583
_cell_length_b 12.156973
_cell_length_c 10.613269
_cell_angle_alpha 117.285156
_cell_angle_beta 50.491711
_cell_angle_gamma 117.560306
_cell_volume 730.339643
_symmetry_space_group_name_H-M "P -1"
_symmetry_group_IT_number 2
_symmetry_cell_setting 'triclinic'
loop_
_space_group_symop_operation_xyz
x,y,z
-x,-y,-z
loop_
_atom_site_type_symbol
_atom_site_label
_atom_site_fract_x
_atom_site_fract_y
_atom_site_fract_z
Si Si1 0.179024 0.115115 0.522495
Si Si2 0.335959 0.687994 0.370023
Si Si3 0.706098 0.920747 0.265062
Si Si4 0.091712 0.253236 0.065036
Si Si5 0.152057 0.508811 0.043850
Si Si6 0.915900 0.646884 0.431624
Si Si7 0.626662 0.593250 0.784673
Si Si8 0.630930 0.178422 0.329806
O O1 0.218545 0.090201 0.636078
O O2 0.115199 0.245483 0.592531
O O3 0.408831 0.130877 0.350349
O O4 0.000000 0.000000 0.500000
O O5 0.497586 0.807076 0.286684
O O6 0.354405 0.546931 0.253576
O O7 0.384621 0.712125 0.505285
O O8 0.103586 0.698848 0.462547
O O9 0.667854 0.057438 0.326265
O O10 0.868101 0.879057 0.068904
O O11 0.183931 0.368817 0.983344
O O12 0.210854 0.301536 0.159934
O O13 0.843006 0.234663 0.178278
O O14 0.018186 0.550631 0.248118
O O15 0.385756 0.595907 0.937908
O O16 0.000000 0.500000 0.000000
O O17 0.709512 0.603182 0.602516
#
# Coordination Sequence:
#
# PCOD9054362 Si02
#       8
#     2   2   2   2   2   2   2   2
#     4  11  25  45  67  97 138 182 231 279 351 418
#     4  11  20  43  68  97 132 176 236 279 333 409
#     4  11  23  43  70  98 135 179 231 289 346 404
#     4  12  23  45  69 101 139 172 239 285 343 409
#     4  12  27  43  65 103 147 180 220 287 352 407
#     4  12  24  42  69 101 137 181 230 281 348 406
#     4  12  25  44  72 104 136 188 232 284 340 417
#     4  11  24  41  71 101 130 180 235 288 336 409
#
# _framework density 21.907615
#
# number of rings (size 3 to 8) (size 9 to 14) (size 15 to 20)
#    0.000    0.500    3.750    6.375    3.500    0.500 
#    0.000    0.625    0.000    0.000    0.000    0.000 
#    0.000    0.000    0.000    0.000    0.000    0.000 
#
# Total GULP energy -89343.081183 kJ/mol
# GULP energy per Si atom -5583.942574 kJ/mol
# Density = 2.185775 g / cm^3
# Si number density = 21.907615 Si / 1000 Ang^3
#
#
#
# Elastic Constant Matrix: (Units=GPa)
#
#
# Indices 1 2 3 4 5 6 
#
# 1 97.4086 28.2363 30.7747 -1.5654 -12.5729 13.9784
# 2 28.2363 84.0389 23.5779 1.5627 -4.6793 1.0536
# 3 30.7747 23.5779 97.5224 -5.6870 -12.0859 20.7624
# 4 -1.5654 1.5627 -5.6870 35.9325 5.4481 -12.7558
# 5 -12.5729 -4.6793 -12.0859 5.4481 32.1193 -5.0771
# 6 13.9784 1.0536 20.7624 -12.7558 -5.0771 41.4917
#
#
#
# Elastic Compliance Matrix: (Units=1/GPa)
#
#
# Indices 1 2 3 4 5 6 
#
# 1 0.012825 -0.003438 -0.002207 -0.001258 0.003413 -0.003098
# 2 -0.003438 0.013799 -0.002703 -0.000467 0.000046 0.002023
# 3 -0.002207 -0.002703 0.013109 -0.000284 0.002856 -0.005486
# 4 -0.001258 -0.000467 -0.000284 0.031930 -0.004528 0.009840
# 5 0.003413 0.000046 0.002856 -0.004528 0.034356 0.000232
# 6 -0.003098 0.002023 -0.005486 0.009840 0.000232 0.030892
#
#
# Mechanical properties :
#
#
# Convention : Reuss Voigt Hill
#
# Bulk Modulus (GPa) = 43.40828 49.34974 46.37901
# Shear Modulus (GPa) = 31.00098 35.00076 33.00087
#
# Velocity S-wave (km/s) = 3.76583 4.00140 3.88540
# Velocity P-wave (km/s) = 6.22623 6.62748 6.42998
#
# Compressibility (1/GPa) = 0.02303708
#
# Stress axis : x y z
#
# Youngs Moduli (GPa) = 77.97550 72.47110 76.28163
#
# Poissons Ratio (x) = 0.24912 0.16833
# Poissons Ratio (y) = 0.26804 0.20622
# Poissons Ratio (z) = 0.17207 0.19592
#
# Static dielectric constant tensor:
#      x y z
#    x 1.793110 0.018110 -0.011780 
#    y 0.018110 1.796960 -0.044530 
#    z -0.011780 -0.044530 1.899860 
# 
# From -- ./inp_files/390918.got.cif
#   From: 2010.05.17/outbox.cif.g08.bks.cpg/sg2_196_cif.got.tgz:390918.got - 2010.06.03 11:33:40.
