data_PCOD9054416
_publ_section_title
;
Structure prediction by ZEFSAII (Michael W. Deem and Ramdas Pophale) SiO2 
 PCOD9054416
Probable space group: P -1
;
_chemical_formula_sum "Si O2"
_cell_formula_units_Z 16
_cell_length_a 9.834299
_cell_length_b 9.667107
_cell_length_c 11.917931
_cell_angle_alpha 76.696690
_cell_angle_beta 90.781191
_cell_angle_gamma 134.636917
_cell_volume 766.458946
_symmetry_space_group_name_H-M "P -1"
_symmetry_group_IT_number 2
_symmetry_cell_setting 'triclinic'
loop_
_space_group_symop_operation_xyz
x,y,z
-x,-y,-z
loop_
_atom_site_type_symbol
_atom_site_label
_atom_site_fract_x
_atom_site_fract_y
_atom_site_fract_z
Si Si1 0.530606 0.692220 0.951556
Si Si2 0.780840 0.926969 0.688604
Si Si3 0.810050 0.628934 0.692481
Si Si4 0.148287 0.018175 0.924941
Si Si5 0.503078 0.171059 0.488138
Si Si6 0.148123 0.370222 0.557034
Si Si7 0.373460 0.272011 0.664701
Si Si8 0.894364 0.559493 0.945012
O O1 0.657233 0.816926 0.820229
O O2 0.500000 0.500000 0.000000
O O3 0.654544 0.846586 0.026918
O O4 0.315400 0.593142 0.968941
O O5 0.867037 0.835634 0.677894
O O6 0.631243 0.859233 0.602541
O O7 0.950594 0.172773 0.652377
O O8 0.901269 0.649527 0.571487
O O9 0.577176 0.455821 0.696855
O O10 0.858022 0.565502 0.811007
O O11 0.213601 0.130116 0.785974
O O12 0.032890 0.789287 0.944163
O O13 0.000000 0.000000 0.000000
O O14 0.724243 0.400578 0.443162
O O15 0.415111 0.166783 0.605496
O O16 0.500000 0.000000 0.500000
O O17 0.296674 0.347592 0.577183
O O18 0.000000 0.500000 0.000000
#
# Coordination Sequence:
#
# PCOD9054416 Si02
#       8
#     2   2   2   2   2   2   2   2
#     4  12  24  46  72 106 145 188 249 304 355 434
#     4  12  23  42  75 102 140 191 240 301 353 436
#     4  11  20  44  72 101 142 183 243 302 352 434
#     4  12  24  43  75 107 140 189 249 298 365 439
#     4  11  26  45  66 107 150 186 231 302 372 431
#     4  11  23  41  75 109 134 181 248 292 363 436
#     4  11  21  43  77 103 138 185 242 302 358 432
#     4  12  28  46  70 106 148 194 242 310 370 424
#
# _framework density 20.875222000000001
#
# number of rings (size 3 to 8) (size 9 to 14) (size 15 to 20)
#    0.000    0.500    6.250    2.625    1.750    3.000 
#    4.500    0.000    0.000    0.000    0.000    0.000 
#    0.000    0.000    0.000    0.000    0.000    0.000 
#
# Total GULP energy -89477.233811 kJ/mol
# GULP energy per Si atom -5592.327113 kJ/mol
# Density = 2.082771 g / cm^3
# Si number density = 20.875222 Si / 1000 Ang^3
#
#
#
# Elastic Constant Matrix: (Units=GPa)
#
#
# Indices 1 2 3 4 5 6 
#
# 1 88.0153 49.1338 47.9550 -3.9544 13.1263 -1.0797
# 2 49.1338 159.4967 77.3665 -6.9557 -1.0635 9.3294
# 3 47.9550 77.3665 120.9157 -13.7592 5.0450 2.2272
# 4 -3.9544 -6.9557 -13.7592 37.2605 14.3971 -1.0822
# 5 13.1263 -1.0635 5.0450 14.3971 31.2202 -4.0750
# 6 -1.0797 9.3294 2.2272 -1.0822 -4.0750 33.7299
#
#
#
# Elastic Compliance Matrix: (Units=1/GPa)
#
#
# Indices 1 2 3 4 5 6 
#
# 1 0.016522 -0.003170 -0.003924 0.002647 -0.007531 0.000840
# 2 -0.003170 0.009927 -0.005376 -0.001707 0.003042 -0.002179
# 3 -0.003924 -0.005376 0.013945 0.004902 -0.003017 0.000233
# 4 0.002647 -0.001707 0.004902 0.035759 -0.018566 -0.000862
# 5 -0.007531 0.003042 -0.003017 -0.018566 0.044864 0.003941
# 6 0.000840 -0.002179 0.000233 -0.000862 0.003941 0.030710
#
#
# Mechanical properties :
#
#
# Convention : Reuss Voigt Hill
#
# Bulk Modulus (GPa) = 64.70517 79.70427 72.20472
# Shear Modulus (GPa) = 27.49983 33.37362 30.43673
#
# Velocity S-wave (km/s) = 3.63346 4.00274 3.82256
# Velocity P-wave (km/s) = 6.97611 7.72183 7.35843
#
# Compressibility (1/GPa) = 0.01545471
#
# Stress axis : x y z
#
# Youngs Moduli (GPa) = 60.52579 100.73449 71.70781
#
# Poissons Ratio (x) = 0.31933 0.28140
# Poissons Ratio (y) = 0.19187 0.38547
# Poissons Ratio (z) = 0.23752 0.54150
#
# Static dielectric constant tensor:
#      x y z
#    x 1.781540 -0.009320 0.035520 
#    y -0.009320 1.729650 0.007010 
#    z 0.035520 0.007010 1.780930 
# 
# From -- ./inp_files/188157.got.cif
#   From: 2010.05.17/outbox.cif.g08.bks.cpg/sg2_95_cif.got.tgz:188157.got - 2010.06.03 11:33:40.
