data_PCOD9054646
_publ_section_title
;
Structure prediction by ZEFSAII (Michael W. Deem and Ramdas Pophale) SiO2 
 PCOD9054646
Probable space group: P -1
;
_chemical_formula_sum "Si O2"
_cell_formula_units_Z 16
_cell_length_a 9.887014
_cell_length_b 8.894241
_cell_length_c 15.634009
_cell_angle_alpha 107.442696
_cell_angle_beta 143.419543
_cell_angle_gamma 65.367163
_cell_volume 743.210623
_symmetry_space_group_name_H-M "P -1"
_symmetry_group_IT_number 2
_symmetry_cell_setting 'triclinic'
loop_
_space_group_symop_operation_xyz
x,y,z
-x,-y,-z
loop_
_atom_site_type_symbol
_atom_site_label
_atom_site_fract_x
_atom_site_fract_y
_atom_site_fract_z
Si Si1 0.687329 0.144060 0.199742
Si Si2 0.345391 0.008900 0.104139
Si Si3 0.854443 0.736274 0.515162
Si Si4 0.366479 0.691197 0.474343
Si Si5 0.978816 0.097749 0.797667
Si Si6 0.996816 0.386675 0.614202
Si Si7 0.618356 0.960850 0.674332
Si Si8 0.436373 0.330055 0.944367
O O1 0.560063 0.082166 0.201731
O O2 0.898241 0.220267 0.341668
O O3 0.493998 0.265222 0.059373
O O4 0.816644 0.983636 0.180848
O O5 0.313996 0.013761 0.189638
O O6 0.409967 0.824508 0.063520
O O7 0.111994 0.121694 0.954918
O O8 0.850327 0.692119 0.405048
O O9 0.869341 0.576097 0.552787
O O10 0.620271 0.887638 0.441506
O O11 0.500000 0.500000 0.500000
O O12 0.212530 0.754000 0.321471
O O13 0.543995 0.796984 0.597679
O O14 0.188042 0.707504 0.466940
O O15 0.836134 0.969622 0.727969
O O16 0.169639 0.374131 0.780316
O O17 0.500000 0.500000 0.000000
#
# Coordination Sequence:
#
# PCOD9054646 Si02
#       8
#     2   2   2   2   2   2   2   2
#     4  11  22  40  67  95 123 167 219 262 311 377
#     4  11  24  43  66  94 127 170 218 260 311 385
#     4  11  23  39  68  95 131 165 213 265 324 378
#     4  12  26  41  66  93 129 169 218 266 320 380
#     4  11  24  43  65  92 127 170 212 262 318 385
#     4  11  23  41  61  98 131 166 209 272 318 374
#     4  12  25  43  66  95 130 174 213 258 324 385
#     4  11  21  37  62  97 125 165 208 265 314 371
#
# _framework density 21.528219
#
# number of rings (size 3 to 8) (size 9 to 14) (size 15 to 20)
#    0.000    0.750    3.750    5.250    1.750    1.000 
#    0.000    0.625    0.000    0.000    0.000    0.000 
#    0.000    0.000    0.000    0.000    0.000    0.000 
#
# Total GULP energy -89511.198292 kJ/mol
# GULP energy per Si atom -5594.449893 kJ/mol
# Density = 2.147922 g / cm^3
# Si number density = 21.528219 Si / 1000 Ang^3
#
#
#
# Elastic Constant Matrix: (Units=GPa)
#
#
# Indices 1 2 3 4 5 6 
#
# 1 68.5302 4.4115 7.9567 1.3639 4.7094 19.4395
# 2 4.4115 83.7564 7.8802 -1.9033 3.0504 16.7408
# 3 7.9567 7.8802 91.9861 1.4164 -7.3693 14.7429
# 4 1.3639 -1.9033 1.4164 28.9430 8.6103 0.9067
# 5 4.7094 3.0504 -7.3693 8.6103 34.2046 7.1578
# 6 19.4395 16.7408 14.7429 0.9067 7.1578 27.9702
#
#
#
# Elastic Compliance Matrix: (Units=1/GPa)
#
#
# Indices 1 2 3 4 5 6 
#
# 1 0.018447 0.001808 0.000601 -0.000496 0.000555 -0.014345
# 2 0.001808 0.013781 0.000240 0.001007 0.000362 -0.009757
# 3 0.000601 0.000240 0.012548 -0.001792 0.004797 -0.008345
# 4 -0.000496 0.001007 -0.001792 0.037741 -0.010350 0.002111
# 5 0.000555 0.000362 0.004797 -0.010350 0.035238 -0.011813
# 6 -0.014345 -0.009757 -0.008345 0.002111 -0.011813 0.058915
#
#
# Mechanical properties :
#
#
# Convention : Reuss Voigt Hill
#
# Bulk Modulus (GPa) = 19.97060 31.64107 25.80583
# Shear Modulus (GPa) = 26.58671 33.15852 29.87262
#
# Velocity S-wave (km/s) = 3.51803 3.92884 3.72910
# Velocity P-wave (km/s) = 5.07924 5.94226 5.52762
#
# Compressibility (1/GPa) = 0.05007362
#
# Stress axis : x y z
#
# Youngs Moduli (GPa) = 54.20958 72.56160 79.69416
#
# Poissons Ratio (x) = -0.13117 -0.04788
# Poissons Ratio (y) = -0.09799 -0.01915
# Poissons Ratio (z) = -0.03257 -0.01743
#
# Static dielectric constant tensor:
#      x y z
#    x 1.776670 0.000710 0.007600 
#    y 0.000710 1.767910 -0.002410 
#    z 0.007600 -0.002410 1.801400 
# 
# From -- ./inp_files/209276.got.cif
#   From: 2010.05.17/outbox.cif.g08.bks.cpg/sg2_105_cif.got.tgz:209276.got - 2010.06.03 11:33:40.
