data_PCOD9054143
_publ_section_title
;
Structure prediction by ZEFSAII (Michael W. Deem and Ramdas Pophale) SiO2 
 PCOD9054143
Probable space group: P -1
;
_chemical_formula_sum "Si O2"
_cell_formula_units_Z 16
_cell_length_a 15.175981
_cell_length_b 12.681243
_cell_length_c 9.056702
_cell_angle_alpha 135.626490
_cell_angle_beta 147.922375
_cell_angle_gamma 46.184612
_cell_volume 629.452490
_symmetry_space_group_name_H-M "P -1"
_symmetry_group_IT_number 2
_symmetry_cell_setting 'triclinic'
loop_
_space_group_symop_operation_xyz
x,y,z
-x,-y,-z
loop_
_atom_site_type_symbol
_atom_site_label
_atom_site_fract_x
_atom_site_fract_y
_atom_site_fract_z
Si Si1 0.320290 0.686578 0.610107
Si Si2 0.084419 0.289750 0.953535
Si Si3 0.538596 0.151729 0.630011
Si Si4 0.190885 0.958781 0.899298
Si Si5 0.915427 0.352689 0.264020
Si Si6 0.302520 0.467004 0.608882
Si Si7 0.858174 0.864520 0.408557
Si Si8 0.665055 0.203315 0.561868
O O1 0.314011 0.847331 0.848529
O O2 0.388355 0.548231 0.682465
O O3 0.401713 0.695055 0.575427
O O4 0.118815 0.690362 0.306351
O O5 0.163168 0.260577 0.870774
O O6 0.174156 0.135712 0.018014
O O7 0.141976 0.424252 0.256965
O O8 0.423918 0.311184 0.688212
O O9 0.531465 0.189010 0.484629
O O10 0.500000 0.000000 0.500000
O O11 0.739427 0.104695 0.906485
O O12 0.005418 0.927639 0.596423
O O13 0.773949 0.416900 0.253439
O O14 0.000000 0.500000 0.500000
O O15 0.066620 0.223121 0.423719
O O16 0.817673 0.277324 0.921818
O O17 0.726528 0.024142 0.417081
#
# Coordination Sequence:
#
# PCOD9054143 Si02
#       8
#     2   2   2   2   2   2   2   2
#     4  11  22  41  72 101 129 173 225 293 345 387
#     4  11  20  40  72 104 131 175 223 285 347 397
#     4  12  28  46  67  95 138 198 227 267 337 419
#     4  11  20  44  69  98 132 180 227 272 341 410
#     4  12  27  40  68 111 138 173 219 294 355 390
#     4  12  26  45  66  98 146 181 227 272 340 419
#     4  11  22  42  72 105 133 172 229 291 350 387
#     4  12  25  44  71 102 139 177 231 283 338 408
#
# _framework density 25.418917
#
# number of rings (size 3 to 8) (size 9 to 14) (size 15 to 20)
#    0.000    0.500    7.500    2.250    3.500    2.500 
#    0.000    2.500    0.000    0.000    0.000    0.000 
#    0.000    0.000    0.000    0.000    0.000    0.000 
#
# Total GULP energy -89444.661316 kJ/mol
# GULP energy per Si atom -5590.291332 kJ/mol
# Density = 2.536106 g / cm^3
# Si number density = 25.418917 Si / 1000 Ang^3
#
#
#
# Elastic Constant Matrix: (Units=GPa)
#
#
# Indices 1 2 3 4 5 6 
#
# 1 84.6183 31.3350 14.0331 10.5195 -9.4653 26.6026
# 2 31.3350 166.6717 5.8168 10.4031 0.1066 28.6278
# 3 14.0331 5.8168 68.9812 4.9626 -4.9611 2.2925
# 4 10.5195 10.4031 4.9626 28.3848 0.6676 0.9190
# 5 -9.4653 0.1066 -4.9611 0.6676 30.3764 5.1391
# 6 26.6026 28.6278 2.2925 0.9190 5.1391 46.9256
#
#
#
# Elastic Compliance Matrix: (Units=1/GPa)
#
#
# Indices 1 2 3 4 5 6 
#
# 1 0.016986 -0.001168 -0.002181 -0.005337 0.006654 -0.009435
# 2 -0.001168 0.006959 -0.000069 -0.001996 0.000248 -0.003568
# 3 -0.002181 -0.000069 0.015197 -0.001877 0.001780 0.000378
# 4 -0.005337 -0.001996 -0.001877 0.038221 -0.003474 0.003967
# 5 0.006654 0.000248 0.001780 -0.003474 0.036707 -0.007962
# 6 -0.009435 -0.003568 0.000378 0.003967 -0.007962 0.029611
#
#
# Mechanical properties :
#
#
# Convention : Reuss Voigt Hill
#
# Bulk Modulus (GPa) = 30.95467 46.96009 38.95738
# Shear Modulus (GPa) = 31.00091 39.07646 35.03868
#
# Velocity S-wave (km/s) = 3.49607 3.92509 3.71677
# Velocity P-wave (km/s) = 5.33862 6.24951 5.81194
#
# Compressibility (1/GPa) = 0.03230530
#
# Stress axis : x y z
#
# Youngs Moduli (GPa) = 58.87275 143.69687 65.80370
#
# Poissons Ratio (x) = 0.16783 0.14352
# Poissons Ratio (y) = 0.06876 0.00456
# Poissons Ratio (z) = 0.12840 0.00995
#
# Static dielectric constant tensor:
#      x y z
#    x 2.002330 0.002450 0.014700 
#    y 0.002450 1.974470 0.021820 
#    z 0.014700 0.021820 2.241400 
# 
# From -- ./inp_files/308653.got.cif
#   From: 2010.05.17/outbox.cif.g08.bks.cpg/sg2_155_cif.got.tgz:308653.got - 2010.06.03 11:33:40.
