data_PCOD9054268
_publ_section_title
;
Structure prediction by ZEFSAII (Michael W. Deem and Ramdas Pophale) SiO2 
 PCOD9054268
Probable space group: P -1
;
_chemical_formula_sum "Si O2"
_cell_formula_units_Z 14
_cell_length_a 24.738765
_cell_length_b 5.073903
_cell_length_c 6.972013
_cell_angle_alpha 77.827548
_cell_angle_beta 131.734794
_cell_angle_gamma 88.828687
_cell_volume 622.673673
_symmetry_space_group_name_H-M "P -1"
_symmetry_group_IT_number 2
_symmetry_cell_setting 'triclinic'
loop_
_space_group_symop_operation_xyz
x,y,z
-x,-y,-z
loop_
_atom_site_type_symbol
_atom_site_label
_atom_site_fract_x
_atom_site_fract_y
_atom_site_fract_z
Si Si1 0.573271 0.365442 0.372711
Si Si2 0.697480 0.360741 0.953435
Si Si3 0.654860 0.652788 0.202461
Si Si4 0.838839 0.011195 0.247540
Si Si5 0.215772 0.508842 0.194682
Si Si6 0.485124 0.928517 0.253446
Si Si7 0.916921 0.477823 0.342542
O O1 0.637040 0.260668 0.696290
O O2 0.612618 0.485172 0.272803
O O3 0.517404 0.616878 0.311430
O O4 0.466472 0.870388 0.758068
O O5 0.732610 0.564156 0.864174
O O6 0.663189 0.521084 0.033133
O O7 0.768399 0.113596 0.201701
O O8 0.735778 0.615276 0.493846
O O9 0.601100 0.953839 0.014675
O O10 0.864095 0.557534 0.017854
O O11 0.876144 0.695851 0.368757
O O12 0.803995 0.155310 0.939273
O O13 0.097084 0.820235 0.589062
O O14 0.500000 0.000000 0.500000
O O15 0.000000 0.500000 0.500000
#
# Coordination Sequence:
#
# PCOD9054268 Si02
#       7
#     2   2   2   2   2   2   2
#     4  11  24  44  58  87 114 152 207 247 291 354
#     4   8  19  37  60  81 118 151 196 239 294 338
#     4  11  20  42  61  86 115 163 192 252 294 347
#     4   8  18  34  54  87 115 147 192 235 278 349
#     4   7  20  34  56  87 117 146 198 235 283 348
#     4  12  25  42  61  84 119 155 200 250 302 341
#     4   9  16  33  61  86 114 153 187 229 287 344
#
# _framework density 22.483689999999999
#
# number of rings (size 3 to 8) (size 9 to 14) (size 15 to 20)
#    1.714    0.571    1.429    1.714    0.000    3.429 
#    2.571    0.000    0.000    4.286    0.000    0.000 
#    0.000    0.000    0.000    0.000    0.000    0.000 
#
# Total GULP energy -78061.251345 kJ/mol
# GULP energy per Si atom -5575.803667 kJ/mol
# Density = 2.243252 g / cm^3
# Si number density = 22.483690 Si / 1000 Ang^3
#
#
#
# Elastic Constant Matrix: (Units=GPa)
#
#
# Indices 1 2 3 4 5 6 
#
# 1 58.5426 10.4448 42.0649 2.9969 20.4964 -3.2479
# 2 10.4448 69.0765 0.5465 8.1482 7.1968 -0.4380
# 3 42.0649 0.5465 78.0349 10.4607 18.2527 7.8926
# 4 2.9969 8.1482 10.4607 18.0864 1.7233 -2.2344
# 5 20.4964 7.1968 18.2527 1.7233 44.7649 5.9196
# 6 -3.2479 -0.4380 7.8926 -2.2344 5.9196 31.1905
#
#
#
# Elastic Compliance Matrix: (Units=1/GPa)
#
#
# Indices 1 2 3 4 5 6 
#
# 1 0.035130 -0.005293 -0.019164 0.009874 -0.009241 0.010894
# 2 -0.005293 0.016472 0.004505 -0.009238 -0.001462 -0.001844
# 3 -0.019164 0.004505 0.026304 -0.015164 -0.000833 -0.009517
# 4 0.009874 -0.009238 -0.015164 0.067861 -0.000753 0.009740
# 5 -0.009241 -0.001462 -0.000833 -0.000753 0.027985 -0.006137
# 6 0.010894 -0.001844 -0.009517 0.009740 -0.006137 0.037440
#
#
# Mechanical properties :
#
#
# Convention : Reuss Voigt Hill
#
# Bulk Modulus (GPa) = 26.31535 34.64072 30.47804
# Shear Modulus (GPa) = 18.95640 28.98156 23.96898
#
# Velocity S-wave (km/s) = 2.90680 3.59416 3.26860
# Velocity P-wave (km/s) = 4.79537 5.71529 5.27542
#
# Compressibility (1/GPa) = 0.03800063
#
# Stress axis : x y z
#
# Youngs Moduli (GPa) = 28.46563 60.71024 38.01767
#
# Poissons Ratio (x) = 0.32135 0.72857
# Poissons Ratio (y) = 0.15067 -0.17126
# Poissons Ratio (z) = 0.54551 -0.27348
#
# Static dielectric constant tensor:
#      x y z
#    x 1.911290 0.043240 -0.028490 
#    y 0.043240 1.862840 -0.014860 
#    z -0.028490 -0.014860 1.884300 
# 
# From -- ./inp_files/127991.got.cif
#   From: 2010.05.17/outbox.cif.g08.bks.cpg/sg2_64_cif.got.tgz:127991.got - 2010.06.03 11:33:40.
