data_PCOD9054977
_publ_section_title
;
Structure prediction by ZEFSAII (Michael W. Deem and Ramdas Pophale) SiO2 
 PCOD9054977
Probable space group: P -1
;
_chemical_formula_sum "Si O2"
_cell_formula_units_Z 12
_cell_length_a 14.677201
_cell_length_b 7.833207
_cell_length_c 7.579295
_cell_angle_alpha 35.604475
_cell_angle_beta 106.048369
_cell_angle_gamma 113.463873
_cell_volume 463.533796
_symmetry_space_group_name_H-M "P -1"
_symmetry_group_IT_number 2
_symmetry_cell_setting 'triclinic'
loop_
_space_group_symop_operation_xyz
x,y,z
-x,-y,-z
loop_
_atom_site_type_symbol
_atom_site_label
_atom_site_fract_x
_atom_site_fract_y
_atom_site_fract_z
Si Si1 0.917233 0.132142 0.423226
Si Si2 0.574299 0.723318 0.991164
Si Si3 0.709275 0.343586 0.391635
Si Si4 0.583782 0.394517 0.736841
Si Si5 0.288059 0.908984 0.776677
Si Si6 0.914730 0.738715 0.075908
O O1 0.828162 0.120617 0.251189
O O2 0.955506 0.480744 0.223602
O O3 0.000000 0.000000 0.500000
O O4 0.874641 0.915017 0.752238
O O5 0.660422 0.000526 0.721815
O O6 0.500000 0.500000 0.000000
O O7 0.635874 0.518578 0.284361
O O8 0.494051 0.822229 0.979699
O O9 0.703089 0.299484 0.212560
O O10 0.823322 0.544594 0.313129
O O11 0.500000 0.500000 0.500000
O O12 0.653958 0.738560 0.533801
O O13 0.665787 0.211364 0.928017
O O14 0.000000 0.000000 0.000000
#
# Coordination Sequence:
#
# PCOD9054977 Si02
#       6
#     2   2   2   2   2   2
#     4  11  24  45  77 106 140 197 249 292 362 452
#     4  12  21  38  67  97 134 175 236 283 336 441
#     4  11  21  39  69 102 128 181 236 283 350 426
#     4  12  25  40  63 100 144 183 223 290 364 415
#     4  11  21  42  68  96 137 183 237 284 349 435
#     4  11  24  45  74 108 149 183 236 318 375 416
#
# _framework density 25.888078
#
# number of rings (size 3 to 8) (size 9 to 14) (size 15 to 20)
#    0.000    0.667    3.333    7.000    0.000    0.000 
#    3.000    0.000   18.333    0.000    0.000    0.000 
#    0.000    0.000    0.000    0.000    0.000    0.000 
#
# Total GULP energy -67063.161626 kJ/mol
# GULP energy per Si atom -5588.596802 kJ/mol
# Density = 2.582916 g / cm^3
# Si number density = 25.888078 Si / 1000 Ang^3
#
#
#
# Elastic Constant Matrix: (Units=GPa)
#
#
# Indices 1 2 3 4 5 6 
#
# 1 185.4592 64.5321 32.6736 -14.1144 21.4521 32.0739
# 2 64.5321 106.0837 30.2816 -27.8265 0.3324 37.1322
# 3 32.6736 30.2816 149.8674 -21.4948 15.2159 28.3509
# 4 -14.1144 -27.8265 -21.4948 47.1021 12.0976 -0.9376
# 5 21.4521 0.3324 15.2159 12.0976 54.1159 -8.1499
# 6 32.0739 37.1322 28.3509 -0.9376 -8.1499 43.6752
#
#
#
# Elastic Compliance Matrix: (Units=1/GPa)
#
#
# Indices 1 2 3 4 5 6 
#
# 1 0.007646 -0.002800 0.000375 0.001791 -0.004154 -0.004214
# 2 -0.002800 0.019755 0.002127 0.012749 -0.004986 -0.016776
# 3 0.000375 0.002127 0.009485 0.006998 -0.005774 -0.009168
# 4 0.001791 0.012749 0.006998 0.035590 -0.013491 -0.018450
# 5 -0.004154 -0.004986 -0.005774 -0.013491 0.027178 0.015820
# 6 -0.004214 -0.016776 -0.009168 -0.018450 0.015820 0.048762
#
#
# Mechanical properties :
#
#
# Convention : Reuss Voigt Hill
#
# Bulk Modulus (GPa) = 27.55617 77.37610 52.46613
# Shear Modulus (GPa) = 31.03503 49.90683 40.47093
#
# Velocity S-wave (km/s) = 3.46615 4.39543 3.95815
# Velocity P-wave (km/s) = 5.16588 7.46413 6.41871
#
# Compressibility (1/GPa) = 0.03628952
#
# Stress axis : x y z
#
# Youngs Moduli (GPa) = 130.78717 50.62107 105.42620
#
# Poissons Ratio (x) = 0.14175 -0.03950
# Poissons Ratio (y) = 0.36623 -0.22428
# Poissons Ratio (z) = -0.04901 -0.10769
#
# Static dielectric constant tensor:
#      x y z
#    x 1.984140 -0.107490 0.005670 
#    y -0.107490 2.151740 0.136440 
#    z 0.005670 0.136440 2.027500 
# 
# From -- ./inp_files/201690.got.cif
#   From: 2010.05.17/outbox.cif.g08.bks.cpg/sg2_101_cif.got.tgz:201690.got - 2010.06.03 11:33:40.
