data_PCOD9054371
_publ_section_title
;
Structure prediction by ZEFSAII (Michael W. Deem and Ramdas Pophale) SiO2 
 PCOD9054371
Probable space group: P -1
;
_chemical_formula_sum "Si O2"
_cell_formula_units_Z 15
_cell_length_a 8.155526
_cell_length_b 11.629053
_cell_length_c 18.243569
_cell_angle_alpha 156.816744
_cell_angle_beta 70.554282
_cell_angle_gamma 110.710428
_cell_volume 636.988986
_symmetry_space_group_name_H-M "P -1"
_symmetry_group_IT_number 2
_symmetry_cell_setting 'triclinic'
loop_
_space_group_symop_operation_xyz
x,y,z
-x,-y,-z
loop_
_atom_site_type_symbol
_atom_site_label
_atom_site_fract_x
_atom_site_fract_y
_atom_site_fract_z
Si Si1 0.162001 0.183142 0.746882
Si Si2 0.177258 0.701602 0.568371
Si Si3 0.753779 0.127482 0.089560
Si Si4 0.208276 0.234662 0.989022
Si Si5 0.922660 0.663528 0.299769
Si Si6 0.500000 0.500000 0.000000
Si Si7 0.250903 0.785242 0.152274
Si Si8 0.356043 0.157579 0.211418
O O1 0.208355 0.303088 0.729244
O O2 0.951598 0.190470 0.787900
O O3 0.186207 0.859681 0.580122
O O4 0.262920 0.426903 0.930534
O O5 0.324560 0.489287 0.426636
O O6 0.000000 0.500000 0.500000
O O7 0.178774 0.968126 0.780339
O O8 0.838110 0.466510 0.264023
O O9 0.555496 0.137749 0.150883
O O10 0.822963 0.916964 0.016164
O O11 0.753748 0.973501 0.919789
O O12 0.399351 0.387512 0.027924
O O13 0.073967 0.472512 0.139825
O O14 0.000000 0.000000 0.500000
O O15 0.408102 0.823590 0.208320
O O16 0.293424 0.964330 0.177608
#
# Coordination Sequence:
#
# PCOD9054371 Si02
#       8
#     2   2   2   2   2   1   2   2
#     4  11  22  42  67  96 134 181 228 277 325 409
#     4  12  25  41  71 102 130 174 236 281 332 397
#     4  11  26  46  66  97 144 180 219 275 349 408
#     4  12  26  45  69 101 138 175 225 289 338 402
#     4  12  27  44  67  98 136 186 226 273 340 416
#     4  12  22  42  72 106 128 172 224 294 344 374
#     4  11  20  43  70  95 136 174 228 278 337 393
#     4  11  24  44  70  99 133 182 220 280 340 411
#
# _framework density 23.548287999999999
#
# number of rings (size 3 to 8) (size 9 to 14) (size 15 to 20)
#    0.000    0.533    6.667    2.000    3.733    1.600 
#    0.000    0.667    0.000    0.000    0.000    0.000 
#    0.000    0.000    0.000    0.000    0.000    0.000 
#
# Total GULP energy -83625.272307 kJ/mol
# GULP energy per Si atom -5575.018154 kJ/mol
# Density = 2.349469 g / cm^3
# Si number density = 23.548288 Si / 1000 Ang^3
#
#
#
# Elastic Constant Matrix: (Units=GPa)
#
#
# Indices 1 2 3 4 5 6 
#
# 1 38.5455 26.4685 21.8988 9.0478 -9.5470 2.0364
# 2 26.4685 160.7014 41.9123 56.5318 -7.7710 -9.4253
# 3 21.8988 41.9123 137.3808 26.4159 -7.3919 -17.1598
# 4 9.0478 56.5318 26.4159 45.8966 -1.7122 -11.6601
# 5 -9.5470 -7.7710 -7.3919 -1.7122 30.8612 10.1572
# 6 2.0364 -9.4253 -17.1598 -11.6601 10.1572 43.1301
#
#
#
# Elastic Compliance Matrix: (Units=1/GPa)
#
#
# Indices 1 2 3 4 5 6 
#
# 1 0.034532 -0.004306 -0.004416 -0.000328 0.010814 -0.006964
# 2 -0.004306 0.011899 -0.000378 -0.013898 0.001264 -0.001402
# 3 -0.004416 -0.000378 0.009049 -0.003130 -0.000450 0.002986
# 4 -0.000328 -0.013898 -0.003130 0.042730 -0.004746 0.008403
# 5 0.010814 0.001264 -0.000450 -0.004746 0.039300 -0.010952
# 6 -0.006964 -0.001402 0.002986 0.008403 -0.010952 0.029247
#
#
# Mechanical properties :
#
#
# Convention : Reuss Voigt Hill
#
# Bulk Modulus (GPa) = 26.82457 57.46523 42.14490
# Shear Modulus (GPa) = 25.33125 40.40078 32.86602
#
# Velocity S-wave (km/s) = 3.28337 4.14654 3.73994
# Velocity P-wave (km/s) = 5.07839 6.88340 6.04861
#
# Compressibility (1/GPa) = 0.03727926
#
# Stress axis : x y z
#
# Youngs Moduli (GPa) = 28.95828 84.04292 110.51082
#
# Poissons Ratio (x) = 0.36191 0.48799
# Poissons Ratio (y) = 0.12470 0.04181
# Poissons Ratio (z) = 0.12787 0.03180
#
# Static dielectric constant tensor:
#      x y z
#    x 1.065260 0.054280 -0.103570 
#    y 0.054280 1.947470 -0.033340 
#    z -0.103570 -0.033340 1.885250 
# 
# From -- ./inp_files/274557.got.cif
#   From: 2010.05.17/outbox.cif.g08.bks.cpg/sg2_138_cif.got.tgz:274557.got - 2010.06.03 11:33:40.
