data_PCOD9054961
_publ_section_title
;
Structure prediction by ZEFSAII (Michael W. Deem and Ramdas Pophale) SiO2 
 PCOD9054961
Probable space group: P -1
;
_chemical_formula_sum "Si O2"
_cell_formula_units_Z 16
_cell_length_a 11.765246
_cell_length_b 5.502488
_cell_length_c 11.489237
_cell_angle_alpha 72.405673
_cell_angle_beta 77.036297
_cell_angle_gamma 79.990893
_cell_volume 686.414295
_symmetry_space_group_name_H-M "P -1"
_symmetry_group_IT_number 2
_symmetry_cell_setting 'triclinic'
loop_
_space_group_symop_operation_xyz
x,y,z
-x,-y,-z
loop_
_atom_site_type_symbol
_atom_site_label
_atom_site_fract_x
_atom_site_fract_y
_atom_site_fract_z
Si Si1 0.224208 0.006380 0.158740
Si Si2 0.280290 0.547789 0.352381
Si Si3 0.567009 0.837177 0.744766
Si Si4 0.597178 0.255667 0.498054
Si Si5 0.910959 0.754256 0.496413
Si Si6 0.750649 0.412770 0.234507
Si Si7 0.686293 0.020931 0.119153
Si Si8 0.990246 0.171291 0.284106
O O1 0.202234 0.729377 0.256491
O O2 0.322097 0.105919 0.208095
O O3 0.096668 0.168529 0.170108
O O4 0.276634 0.973608 0.024222
O O5 0.398801 0.448956 0.271049
O O6 0.300084 0.701694 0.440428
O O7 0.220505 0.308222 0.446025
O O8 0.549845 0.011051 0.605851
O O9 0.450922 0.888294 0.839663
O O10 0.500000 0.500000 0.500000
O O11 0.660502 0.279582 0.357649
O O12 0.944886 0.845149 0.603538
O O13 0.000000 0.500000 0.500000
O O14 0.922491 0.920966 0.355011
O O15 0.709428 0.717361 0.190890
O O16 0.883199 0.387372 0.257447
O O17 0.750929 0.232932 0.145202
#
# Coordination Sequence:
#
# PCOD9054961 Si02
#       8
#     2   2   2   2   2   2   2   2
#     4  11  26  47  69 104 136 188 246 289 346 418
#     4  11  23  39  74 103 136 182 231 302 360 412
#     4  11  24  45  73 104 137 185 237 304 352 412
#     4  11  23  42  68 105 145 179 236 291 366 425
#     4  11  21  39  68 104 139 175 229 296 363 414
#     4  12  29  47  72 107 144 192 233 291 359 429
#     4  12  30  49  72 101 146 197 240 286 347 423
#     4  11  25  42  68 104 141 181 235 293 356 426
#
# _framework density 23.309538
#
# number of rings (size 3 to 8) (size 9 to 14) (size 15 to 20)
#    0.000    0.750    3.750    2.625   12.250    2.500 
#    0.000    0.000    0.000    0.000    0.000    0.000 
#    0.000    0.000    0.000    0.000    0.000    0.000 
#
# Total GULP energy -89347.865211 kJ/mol
# GULP energy per Si atom -5584.241576 kJ/mol
# Density = 2.325648 g / cm^3
# Si number density = 23.309538 Si / 1000 Ang^3
#
#
#
# Elastic Constant Matrix: (Units=GPa)
#
#
# Indices 1 2 3 4 5 6 
#
# 1 76.1623 -0.2025 14.9097 2.7886 -18.8377 -16.9726
# 2 -0.2025 65.5292 0.4105 7.4464 -2.4908 -11.6052
# 3 14.9097 0.4105 97.3264 28.5664 -11.0485 -2.2383
# 4 2.7886 7.4464 28.5664 28.7531 -2.3057 -3.4692
# 5 -18.8377 -2.4908 -11.0485 -2.3057 26.6484 10.5644
# 6 -16.9726 -11.6052 -2.2383 -3.4692 10.5644 39.6255
#
#
#
# Elastic Compliance Matrix: (Units=1/GPa)
#
#
# Indices 1 2 3 4 5 6 
#
# 1 0.016893 0.001189 -0.001747 0.001157 0.009416 0.005076
# 2 0.001189 0.016741 0.001483 -0.005286 0.000634 0.004864
# 3 -0.001747 0.001483 0.015616 -0.015592 0.004859 -0.002092
# 4 0.001157 -0.005286 -0.015592 0.051694 -0.003014 0.003396
# 5 0.009416 0.000634 0.004859 -0.003014 0.049556 -0.008982
# 6 0.005076 0.004864 -0.002092 0.003396 -0.008982 0.031409
#
#
# Mechanical properties :
#
#
# Convention : Reuss Voigt Hill
#
# Bulk Modulus (GPa) = 19.57002 29.91704 24.74353
# Shear Modulus (GPa) = 25.36883 33.93207 29.65045
#
# Velocity S-wave (km/s) = 3.30259 3.81952 3.57042
# Velocity P-wave (km/s) = 4.79132 5.68456 5.25694
#
# Compressibility (1/GPa) = 0.05109856
#
# Stress axis : x y z
#
# Youngs Moduli (GPa) = 59.19703 59.73377 64.03763
#
# Poissons Ratio (x) = -0.07100 0.11186
# Poissons Ratio (y) = -0.07036 -0.09495
# Poissons Ratio (z) = 0.10340 -0.08857
#
# Static dielectric constant tensor:
#      x y z
#    x 1.996250 0.082980 -0.011750 
#    y 0.082980 1.986480 -0.040490 
#    z -0.011750 -0.040490 1.861170 
# 
# From -- ./inp_files/70837.got.cif
#   From: 2010.05.17/outbox.cif.g08.bks.cpg/sg2_36_cif.got.tgz:70837.got - 2010.06.03 11:33:40.
