data_PCOD9054630
_publ_section_title
;
Structure prediction by ZEFSAII (Michael W. Deem and Ramdas Pophale) SiO2 
 PCOD9054630
Probable space group: P -1
;
_chemical_formula_sum "Si O2"
_cell_formula_units_Z 16
_cell_length_a 15.237573
_cell_length_b 10.008092
_cell_length_c 8.890996
_cell_angle_alpha 84.315265
_cell_angle_beta 37.191473
_cell_angle_gamma 66.878122
_cell_volume 695.804896
_symmetry_space_group_name_H-M "P -1"
_symmetry_group_IT_number 2
_symmetry_cell_setting 'triclinic'
loop_
_space_group_symop_operation_xyz
x,y,z
-x,-y,-z
loop_
_atom_site_type_symbol
_atom_site_label
_atom_site_fract_x
_atom_site_fract_y
_atom_site_fract_z
Si Si1 0.947444 0.834720 0.063041
Si Si2 0.885214 0.261823 0.839761
Si Si3 0.760916 0.140569 0.460523
Si Si4 0.437326 0.410408 0.703322
Si Si5 0.806490 0.618499 0.154646
Si Si6 0.922443 0.599508 0.447097
Si Si7 0.316950 0.461061 0.370282
Si Si8 0.709212 0.254295 0.817598
O O1 0.864310 0.735690 0.128211
O O2 0.087534 0.770903 0.016773
O O3 0.797770 0.997453 0.318446
O O4 0.060609 0.861395 0.786235
O O5 0.834579 0.177891 0.795982
O O6 0.060565 0.251705 0.565831
O O7 0.729689 0.443149 0.008950
O O8 0.593180 0.296896 0.609756
O O9 0.726212 0.131468 0.683544
O O10 0.500000 0.500000 0.500000
O O11 0.364504 0.318546 0.718436
O O12 0.771425 0.529942 0.349535
O O13 0.956343 0.500306 0.849056
O O14 0.740843 0.631643 0.648983
O O15 0.000000 0.500000 0.500000
O O16 0.265465 0.620424 0.331353
O O17 0.517698 0.358680 0.127685
#
# Coordination Sequence:
#
# PCOD9054630 Si02
#       8
#     2   2   2   2   2   2   2   2
#     4  11  25  44  64  93 128 180 219 262 322 391
#     4  11  22  38  64  96 124 161 217 267 323 379
#     4  11  25  44  64  90 135 173 221 266 321 387
#     4  11  21  38  67  97 123 159 213 272 321 380
#     4  11  24  38  68  93 133 173 216 265 324 388
#     4  11  22  36  61  99 130 161 210 275 325 378
#     4  11  21  37  61  98 130 163 211 273 331 375
#     4  11  23  37  63  93 132 169 210 272 329 377
#
# _framework density 22.994949999999999
#
# number of rings (size 3 to 8) (size 9 to 14) (size 15 to 20)
#    0.000    1.000    3.750    4.125    5.250    1.000 
#    0.000    0.625    0.000    0.000    0.000    0.000 
#    0.000    0.000    0.000    0.000    0.000    0.000 
#
# Total GULP energy -89206.804569 kJ/mol
# GULP energy per Si atom -5575.425286 kJ/mol
# Density = 2.294261 g / cm^3
# Si number density = 22.994950 Si / 1000 Ang^3
#
#
#
# Elastic Constant Matrix: (Units=GPa)
#
#
# Indices 1 2 3 4 5 6 
#
# 1 169.1731 27.3749 34.5839 4.0078 -10.5964 14.6099
# 2 27.3749 50.9315 29.8331 9.7966 -1.3514 11.7368
# 3 34.5839 29.8331 76.3968 -2.0582 10.2611 9.0100
# 4 4.0078 9.7966 -2.0582 32.1835 0.8373 -3.5872
# 5 -10.5964 -1.3514 10.2611 0.8373 37.6544 -8.5388
# 6 14.6099 11.7368 9.0100 -3.5872 -8.5388 32.0415
#
#
#
# Elastic Compliance Matrix: (Units=1/GPa)
#
#
# Indices 1 2 3 4 5 6 
#
# 1 0.007013 -0.001688 -0.002706 -0.000736 0.002379 -0.001267
# 2 -0.001688 0.030976 -0.010928 -0.010882 0.001999 -0.008189
# 3 -0.002706 -0.010928 0.019860 0.004930 -0.007055 -0.001676
# 4 -0.000736 -0.010882 0.004930 0.035558 -0.001238 0.006586
# 5 0.002379 0.001999 -0.007055 -0.001238 0.031137 0.008326
# 6 -0.001267 -0.008189 -0.001676 0.006586 0.008326 0.038214
#
#
# Mechanical properties :
#
#
# Convention : Reuss Voigt Hill
#
# Bulk Modulus (GPa) = 36.75674 53.34279 45.04976
# Shear Modulus (GPa) = 24.69504 34.02318 29.35911
#
# Velocity S-wave (km/s) = 3.28065 3.85072 3.57706
# Velocity P-wave (km/s) = 5.51086 6.55887 6.05757
#
# Compressibility (1/GPa) = 0.02720590
#
# Stress axis : x y z
#
# Youngs Moduli (GPa) = 142.58732 32.28305 50.35296
#
# Poissons Ratio (x) = 0.05450 0.13623
# Poissons Ratio (y) = 0.24071 0.55025
# Poissons Ratio (z) = 0.38578 0.35278
#
# Static dielectric constant tensor:
#      x y z
#    x 1.916320 0.019790 0.047510 
#    y 0.019790 1.991150 -0.060290 
#    z 0.047510 -0.060290 1.957500 
# 
# From -- ./inp_files/307472.got.cif
#   From: 2010.05.17/outbox.cif.g08.bks.cpg/sg2_154_cif.got.tgz:307472.got - 2010.06.03 11:33:40.
