data_PCOD9054106
_publ_section_title
;
Structure prediction by ZEFSAII (Michael W. Deem and Ramdas Pophale) SiO2 
 PCOD9054106
Probable space group: P -1
;
_chemical_formula_sum "Si O2"
_cell_formula_units_Z 16
_cell_length_a 17.354826
_cell_length_b 11.295733
_cell_length_c 9.084908
_cell_angle_alpha 40.294557
_cell_angle_beta 37.749487
_cell_angle_gamma 41.355786
_cell_volume 654.347985
_symmetry_space_group_name_H-M "P -1"
_symmetry_group_IT_number 2
_symmetry_cell_setting 'triclinic'
loop_
_space_group_symop_operation_xyz
x,y,z
-x,-y,-z
loop_
_atom_site_type_symbol
_atom_site_label
_atom_site_fract_x
_atom_site_fract_y
_atom_site_fract_z
Si Si1 0.969834 0.513067 0.203458
Si Si2 0.627129 0.393796 0.754913
Si Si3 0.984574 0.939899 0.404725
Si Si4 0.758745 0.206446 0.023325
Si Si5 0.585098 0.998475 0.606861
Si Si6 0.206953 0.655944 0.731010
Si Si7 0.357402 0.412873 0.989704
Si Si8 0.653974 0.772301 0.412897
O O1 0.999995 0.287034 0.415234
O O2 0.814654 0.663443 0.296331
O O3 0.000000 0.500000 0.000000
O O4 0.079356 0.596123 0.023338
O O5 0.744822 0.386041 0.470278
O O6 0.505089 0.377260 0.864437
O O7 0.588075 0.607252 0.683098
O O8 0.686392 0.241687 0.939444
O O9 0.094836 0.941303 0.112272
O O10 0.000000 0.000000 0.500000
O O11 0.844950 0.108140 0.405197
O O12 0.747742 0.420447 0.901447
O O13 0.675213 0.132858 0.338163
O O14 0.614652 0.905377 0.488455
O O15 0.420994 0.117064 0.728987
O O16 0.641806 0.808277 0.806094
O O17 0.328719 0.518896 0.776342
#
# Coordination Sequence:
#
# PCOD9054106 Si02
#       8
#     2   2   2   2   2   2   2   2
#     4  12  22  42  69  98 136 170 229 284 327 405
#     4  12  21  46  72  99 137 179 229 295 325 401
#     4  12  23  43  74 104 130 181 231 283 340 400
#     4  12  23  43  77  99 135 175 242 282 326 410
#     4  11  24  39  72 103 131 178 225 286 345 394
#     4  12  28  45  68 101 145 183 223 281 350 407
#     4  12  27  46  64 104 147 179 221 284 350 404
#     4  11  20  40  69 104 124 167 236 286 324 386
#
# _framework density 24.451820999999999
#
# number of rings (size 3 to 8) (size 9 to 14) (size 15 to 20)
#    0.000    0.250    7.500    3.000    0.000    2.500 
#    0.000    5.000    0.000    0.000    0.000    0.000 
#    0.000    0.000    0.000    0.000    0.000    0.000 
#
# Total GULP energy -89272.465332 kJ/mol
# GULP energy per Si atom -5579.529083 kJ/mol
# Density = 2.439617 g / cm^3
# Si number density = 24.451821 Si / 1000 Ang^3
#
#
#
# Elastic Constant Matrix: (Units=GPa)
#
#
# Indices 1 2 3 4 5 6 
#
# 1 48.5598 6.9159 22.3338 -9.2204 9.1995 -13.1854
# 2 6.9159 85.1040 26.8314 -25.9451 3.9774 -8.4030
# 3 22.3338 26.8314 78.3904 -19.4005 -0.0698 -5.9136
# 4 -9.2204 -25.9451 -19.4005 39.1008 -7.3453 5.8701
# 5 9.1995 3.9774 -0.0698 -7.3453 25.8808 -12.8887
# 6 -13.1854 -8.4030 -5.9136 5.8701 -12.8887 21.5505
#
#
#
# Elastic Compliance Matrix: (Units=1/GPa)
#
#
# Indices 1 2 3 4 5 6 
#
# 1 0.028318 0.002045 -0.007286 0.001777 -0.003000 0.013846
# 2 0.002045 0.015778 -0.003397 0.008848 0.001955 0.005230
# 3 -0.007286 -0.003397 0.017401 0.005524 0.004950 0.000448
# 4 0.001777 0.008848 0.005524 0.036063 0.009088 0.001665
# 5 -0.003000 0.001955 0.004950 0.009088 0.058258 0.032652
# 6 0.013846 0.005230 0.000448 0.001665 0.032652 0.076111
#
#
# Mechanical properties :
#
#
# Convention : Reuss Voigt Hill
#
# Bulk Modulus (GPa) = 22.61407 36.02405 29.31906
# Shear Modulus (GPa) = 18.94333 27.70463 23.32398
#
# Velocity S-wave (km/s) = 2.78640 3.36970 3.09184
# Velocity P-wave (km/s) = 4.42951 5.46850 4.97619
#
# Compressibility (1/GPa) = 0.04422026
#
# Stress axis : x y z
#
# Youngs Moduli (GPa) = 35.31261 63.38103 57.46931
#
# Poissons Ratio (x) = -0.12962 0.41874
# Poissons Ratio (y) = -0.07222 0.19522
# Poissons Ratio (z) = 0.25730 0.21530
#
# Static dielectric constant tensor:
#      x y z
#    x 1.874220 0.152600 -0.089150 
#    y 0.152600 1.793630 -0.001720 
#    z -0.089150 -0.001720 2.058770 
# 
# From -- ./inp_files/332694.got.cif
#   From: 2010.05.17/outbox.cif.g08.bks.cpg/sg2_167_cif.got.tgz:332694.got - 2010.06.03 11:33:40.
