data_PCOD9054278
_publ_section_title
;
Structure prediction by ZEFSAII (Michael W. Deem and Ramdas Pophale) SiO2 
 PCOD9054278
Probable space group: P -1
;
_chemical_formula_sum "Si O2"
_cell_formula_units_Z 14
_cell_length_a 8.040092
_cell_length_b 13.851980
_cell_length_c 13.359222
_cell_angle_alpha 31.533210
_cell_angle_beta 117.398977
_cell_angle_gamma 98.107737
_cell_volume 581.013414
_symmetry_space_group_name_H-M "P -1"
_symmetry_group_IT_number 2
_symmetry_cell_setting 'triclinic'
loop_
_space_group_symop_operation_xyz
x,y,z
-x,-y,-z
loop_
_atom_site_type_symbol
_atom_site_label
_atom_site_fract_x
_atom_site_fract_y
_atom_site_fract_z
Si Si1 0.706145 0.000710 0.100158
Si Si2 0.730021 0.931655 0.493500
Si Si3 0.374889 0.699922 0.992842
Si Si4 0.219560 0.102184 0.226048
Si Si5 0.189708 0.445801 0.275741
Si Si6 0.174724 0.700657 0.505499
Si Si7 0.377920 0.709455 0.351050
O O1 0.642767 0.160520 0.036487
O O2 0.769048 0.092908 0.939668
O O3 0.924369 0.766065 0.392677
O O4 0.500000 0.000000 0.000000
O O5 0.780386 0.883719 0.666045
O O6 0.863049 0.712763 0.657674
O O7 0.465644 0.024583 0.326110
O O8 0.750017 0.125705 0.283267
O O9 0.273557 0.557047 0.120983
O O10 0.630904 0.521446 0.194412
O O11 0.177248 0.910999 0.357947
O O12 0.021485 0.339893 0.922601
O O13 0.413137 0.295585 0.535860
O O14 0.245846 0.677080 0.430038
O O15 0.500000 0.500000 0.500000
#
# Coordination Sequence:
#
# PCOD9054278 Si02
#       7
#     2   2   2   2   2   2   2
#     4  12  25  41  65  99 132 173 227 273 327 400
#     4  11  25  43  68 102 130 177 225 271 328 400
#     4  11  24  44  66  98 137 169 225 277 328 397
#     4  11  23  45  69  96 134 174 224 272 336 392
#     4  11  22  45  67  95 138 171 220 276 325 398
#     4  11  23  45  67  95 137 178 218 275 334 395
#     4  11  20  42  67  90 129 178 216 263 335 391
#
# _framework density 24.095829999999999
#
# number of rings (size 3 to 8) (size 9 to 14) (size 15 to 20)
#    0.000    0.857    7.143    1.714    0.000    4.000 
#    0.000    0.000    0.000    0.000    0.000    0.000 
#    0.000    0.000    0.000    0.000    0.000    0.000 
#
# Total GULP energy -78364.797406 kJ/mol
# GULP energy per Si atom -5597.485529 kJ/mol
# Density = 2.404099 g / cm^3
# Si number density = 24.095830 Si / 1000 Ang^3
#
#
#
# Elastic Constant Matrix: (Units=GPa)
#
#
# Indices 1 2 3 4 5 6 
#
# 1 50.1043 -4.9143 16.2609 -2.0629 18.1467 6.4352
# 2 -4.9143 79.5978 25.8374 -12.6280 5.6337 -18.7635
# 3 16.2609 25.8374 138.7631 -9.6850 20.4796 2.2449
# 4 -2.0629 -12.6280 -9.6850 30.7914 -3.2171 7.1472
# 5 18.1467 5.6337 20.4796 -3.2171 49.0996 -0.9050
# 6 6.4352 -18.7635 2.2449 7.1472 -0.9050 20.1068
#
#
#
# Elastic Compliance Matrix: (Units=1/GPa)
#
#
# Indices 1 2 3 4 5 6 
#
# 1 0.024842 0.001175 -0.001541 0.002615 -0.008649 -0.008001
# 2 0.001175 0.017941 -0.003465 0.002619 -0.000585 0.015796
# 3 -0.001541 -0.003465 0.008624 0.001967 -0.002584 -0.004518
# 4 0.002615 0.002619 0.001967 0.037095 0.000126 -0.011793
# 5 -0.008649 -0.000585 -0.002584 0.000126 0.024783 0.003582
# 6 -0.008001 0.015796 -0.004518 -0.011793 0.003582 0.071893
#
#
# Mechanical properties :
#
#
# Convention : Reuss Voigt Hill
#
# Bulk Modulus (GPa) = 22.86002 38.09260 30.47631
# Shear Modulus (GPa) = 24.10559 35.41829 29.76194
#
# Velocity S-wave (km/s) = 3.16635 3.83808 3.51828
# Velocity P-wave (km/s) = 4.78283 5.95686 5.40184
#
# Compressibility (1/GPa) = 0.04374449
#
# Stress axis : x y z
#
# Youngs Moduli (GPa) = 40.25490 55.73914 115.95457
#
# Poissons Ratio (x) = -0.06550 0.17873
# Poissons Ratio (y) = -0.04730 0.40174
# Poissons Ratio (z) = 0.06205 0.19312
#
# Static dielectric constant tensor:
#      x y z
#    x 1.995640 0.037920 0.005920 
#    y 0.037920 1.890410 0.047890 
#    z 0.005920 0.047890 1.954050 
# 
# From -- ./inp_files/212081.got.cif
#   From: 2010.05.17/outbox.cif.g08.bks.cpg/sg2_107_cif.got.tgz:212081.got - 2010.06.03 11:33:40.
