data_PCOD9054168
_publ_section_title
;
Structure prediction by ZEFSAII (Michael W. Deem and Ramdas Pophale) SiO2 
 PCOD9054168
Probable space group: P -1
;
_chemical_formula_sum "Si O2"
_cell_formula_units_Z 16
_cell_length_a 6.827625
_cell_length_b 9.729528
_cell_length_c 13.064511
_cell_angle_alpha 97.990940
_cell_angle_beta 129.826281
_cell_angle_gamma 70.751749
_cell_volume 626.135826
_symmetry_space_group_name_H-M "P -1"
_symmetry_group_IT_number 2
_symmetry_cell_setting 'triclinic'
loop_
_space_group_symop_operation_xyz
x,y,z
-x,-y,-z
loop_
_atom_site_type_symbol
_atom_site_label
_atom_site_fract_x
_atom_site_fract_y
_atom_site_fract_z
Si Si1 0.862092 0.197604 0.022801
Si Si2 0.717178 0.806220 0.178307
Si Si3 0.543226 0.629001 0.596889
Si Si4 0.875744 0.475493 0.160578
Si Si5 0.553776 0.830942 0.476739
Si Si6 0.050431 0.623865 0.602693
Si Si7 0.068962 0.920557 0.177475
Si Si8 0.058856 0.826887 0.487337
O O1 0.600933 0.144914 0.917654
O O2 0.984824 0.163768 0.948640
O O3 0.784586 0.364177 0.047891
O O4 0.050426 0.086082 0.156986
O O5 0.790550 0.648049 0.132969
O O6 0.830384 0.923244 0.174263
O O7 0.873745 0.782833 0.335114
O O8 0.500000 0.500000 0.500000
O O9 0.745171 0.672138 0.574007
O O10 0.348647 0.797681 0.508442
O O11 0.800461 0.577305 0.751796
O O12 0.792698 0.444293 0.246528
O O13 0.874342 0.801039 0.524841
O O14 0.350334 0.831176 0.314789
O O15 0.500000 0.000000 0.500000
O O16 0.000000 0.500000 0.500000
O O17 0.282572 0.666864 0.603390
O O18 0.000000 0.000000 0.500000
#
# Coordination Sequence:
#
# PCOD9054168 Si02
#       8
#     2   2   2   2   2   2   2   2
#     4  11  27  46  67  96 134 184 235 278 335 402
#     4  12  24  47  68  97 139 176 232 288 329 408
#     4  11  20  41  64  95 134 166 213 279 338 407
#     4  11  24  44  68  94 137 180 223 273 345 411
#     4  11  21  38  67  93 131 173 212 276 341 399
#     4  11  22  39  64 101 136 169 211 278 347 401
#     4  11  24  45  69  95 133 182 230 282 342 400
#     4  12  24  38  66 106 134 170 222 281 350 406
#
# _framework density 25.553560999999998
#
# number of rings (size 3 to 8) (size 9 to 14) (size 15 to 20)
#    0.000    0.750    3.750    4.500    1.750    2.500 
#    2.250    0.000    0.000    0.000    0.000    0.000 
#    0.000    0.000    0.000    0.000    0.000    0.000 
#
# Total GULP energy -89302.426916 kJ/mol
# GULP energy per Si atom -5581.401682 kJ/mol
# Density = 2.549540 g / cm^3
# Si number density = 25.553561 Si / 1000 Ang^3
#
#
#
# Elastic Constant Matrix: (Units=GPa)
#
#
# Indices 1 2 3 4 5 6 
#
# 1 164.6563 2.5886 0.3098 -12.8796 12.1495 -2.9236
# 2 2.5886 100.3029 -1.0928 6.0970 -8.9779 -5.1397
# 3 0.3098 -1.0928 39.1342 -3.0739 17.5826 -1.8990
# 4 -12.8796 6.0970 -3.0739 38.4505 0.6045 -2.8779
# 5 12.1495 -8.9779 17.5826 0.6045 45.6086 -7.9706
# 6 -2.9236 -5.1397 -1.8990 -2.8779 -7.9706 73.5788
#
#
#
# Elastic Compliance Matrix: (Units=1/GPa)
#
#
# Indices 1 2 3 4 5 6 
#
# 1 0.006433 -0.000495 0.001144 0.002368 -0.002267 0.000098
# 2 -0.000495 0.010379 -0.001051 -0.001871 0.002763 0.000904
# 3 0.001144 -0.001051 0.031485 0.003232 -0.012775 -0.000473
# 4 0.002368 -0.001871 0.003232 0.027458 -0.002460 0.000854
# 5 -0.002267 0.002763 -0.012775 -0.002460 0.028514 0.002766
# 6 0.000098 0.000904 -0.000473 0.000854 0.002766 0.013979
#
#
# Mechanical properties :
#
#
# Convention : Reuss Voigt Hill
#
# Bulk Modulus (GPa) = 21.05546 34.18941 27.62243
# Shear Modulus (GPa) = 37.06920 51.68011 44.37465
#
# Velocity S-wave (km/s) = 3.81287 4.50201 4.17170
# Velocity P-wave (km/s) = 5.25753 6.35867 5.83414
#
# Compressibility (1/GPa) = 0.04749361
#
# Stress axis : x y z
#
# Youngs Moduli (GPa) = 155.44634 96.35287 31.76080
#
# Poissons Ratio (x) = 0.04773 -0.03635
# Poissons Ratio (y) = 0.07700 0.03337
# Poissons Ratio (z) = -0.17789 0.10123
#
# Static dielectric constant tensor:
#      x y z
#    x 2.302630 0.056730 0.018870 
#    y 0.056730 1.578810 0.035530 
#    z 0.018870 0.035530 2.010230 
# 
# From -- ./inp_files/208469.got.cif
#   From: 2010.05.17/outbox.cif.g08.bks.cpg/sg2_105_cif.got.tgz:208469.got - 2010.06.03 11:33:40.
