data_PCOD9054572
_publ_section_title
;
Structure prediction by ZEFSAII (Michael W. Deem and Ramdas Pophale) SiO2 
 PCOD9054572
Probable space group: P -1
;
_chemical_formula_sum "Si O2"
_cell_formula_units_Z 14
_cell_length_a 6.904973
_cell_length_b 13.296458
_cell_length_c 14.776941
_cell_angle_alpha 45.778618
_cell_angle_beta 74.806517
_cell_angle_gamma 45.287208
_cell_volume 617.422726
_symmetry_space_group_name_H-M "P -1"
_symmetry_group_IT_number 2
_symmetry_cell_setting 'triclinic'
loop_
_space_group_symop_operation_xyz
x,y,z
-x,-y,-z
loop_
_atom_site_type_symbol
_atom_site_label
_atom_site_fract_x
_atom_site_fract_y
_atom_site_fract_z
Si Si1 0.257101 0.418960 0.425424
Si Si2 0.433722 0.238015 0.197180
Si Si3 0.792503 0.833561 0.324585
Si Si4 0.903920 0.329781 0.104055
Si Si5 0.198341 0.758649 0.643258
Si Si6 0.366652 0.123642 0.032904
Si Si7 0.000564 0.564841 0.724242
O O1 0.385970 0.209038 0.587145
O O2 0.484305 0.383016 0.357006
O O3 0.113313 0.597271 0.405684
O O4 0.004285 0.488651 0.343501
O O5 0.171054 0.280807 0.152448
O O6 0.327593 0.292075 0.279578
O O7 0.745427 0.989779 0.298684
O O8 0.373692 0.420173 0.045246
O O9 0.642479 0.967583 0.166824
O O10 0.802046 0.276099 0.227628
O O11 0.080890 0.196094 0.072979
O O12 0.061455 0.694988 0.649234
O O13 0.000000 0.000000 0.500000
O O14 0.238383 0.346829 0.889504
O O15 0.500000 0.000000 0.000000
#
# Coordination Sequence:
#
# PCOD9054572 Si02
#       7
#     2   2   2   2   2   2   2
#     4  11  23  38  61  90 125 155 198 249 301 359
#     4   8  15  32  58  81 113 154 196 239 292 344
#     4  10  20  36  58  87 124 160 193 248 305 351
#     4   8  16  31  55  85 113 151 201 242 285 351
#     4  11  22  38  61  89 124 158 197 250 302 354
#     4  10  17  35  66  86 117 166 200 241 303 352
#     4  10  21  39  64  91 115 159 209 240 288 370
#
# _framework density 22.674901999999999
#
# number of rings (size 3 to 8) (size 9 to 14) (size 15 to 20)
#    0.000    2.286    1.429    5.143    0.000    2.286 
#    0.000    8.571    3.143    1.714    0.000    0.000 
#    0.000    0.000    0.000    0.000    0.000    0.000 
#
# Total GULP energy -78122.396759 kJ/mol
# GULP energy per Si atom -5580.171197 kJ/mol
# Density = 2.262329 g / cm^3
# Si number density = 22.674902 Si / 1000 Ang^3
#
#
#
# Elastic Constant Matrix: (Units=GPa)
#
#
# Indices 1 2 3 4 5 6 
#
# 1 41.0874 9.9983 30.3701 3.3955 -20.0207 -2.9404
# 2 9.9983 166.3404 56.7761 6.0013 -26.2732 1.0882
# 3 30.3701 56.7761 143.8749 -0.7837 -23.6154 -1.8118
# 4 3.3955 6.0013 -0.7837 48.2356 1.0478 -7.0821
# 5 -20.0207 -26.2732 -23.6154 1.0478 32.9389 6.3583
# 6 -2.9404 1.0882 -1.8118 -7.0821 6.3583 17.5252
#
#
#
# Elastic Compliance Matrix: (Units=1/GPa)
#
#
# Indices 1 2 3 4 5 6 
#
# 1 0.039381 0.003573 -0.005938 -0.004499 0.023559 -0.004594
# 2 0.003573 0.007994 -0.002761 -0.001986 0.007335 -0.003646
# 3 -0.005938 -0.002761 0.009448 0.000925 0.000893 0.000202
# 4 -0.004499 -0.001986 0.000925 0.023093 -0.006546 0.011171
# 5 0.023559 0.007335 0.000893 -0.006546 0.055051 -0.019029
# 6 -0.004594 -0.003646 0.000202 0.011171 -0.019029 0.067956
#
#
# Mechanical properties :
#
#
# Convention : Reuss Voigt Hill
#
# Bulk Modulus (GPa) = 21.47340 60.62130 41.04735
# Shear Modulus (GPa) = 21.86291 36.68381 29.27336
#
# Velocity S-wave (km/s) = 3.10851 4.02657 3.59695
# Velocity P-wave (km/s) = 4.73016 6.95778 5.94917
#
# Compressibility (1/GPa) = 0.04656924
#
# Stress axis : x y z
#
# Youngs Moduli (GPa) = 25.39311 125.10026 105.84341
#
# Poissons Ratio (x) = -0.44702 0.62853
# Poissons Ratio (y) = -0.09074 0.29229
# Poissons Ratio (z) = 0.15079 0.34546
#
# Static dielectric constant tensor:
#      x y z
#    x 1.915470 0.005170 0.009110 
#    y 0.005170 1.936280 0.012930 
#    z 0.009110 0.012930 1.838980 
# 
# From -- ./inp_files/331790.got.cif
#   From: 2010.05.17/outbox.cif.g08.bks.cpg/sg2_166_cif.got.tgz:331790.got - 2010.06.03 11:33:40.
