data_PCOD9054297
_publ_section_title
;
Structure prediction by ZEFSAII (Michael W. Deem and Ramdas Pophale) SiO2 
 PCOD9054297
Probable space group: P -1
;
_chemical_formula_sum "Si O2"
_cell_formula_units_Z 16
_cell_length_a 9.758418
_cell_length_b 14.775812
_cell_length_c 13.258199
_cell_angle_alpha 28.725601
_cell_angle_beta 121.321333
_cell_angle_gamma 109.494059
_cell_volume 749.342170
_symmetry_space_group_name_H-M "P -1"
_symmetry_group_IT_number 2
_symmetry_cell_setting 'triclinic'
loop_
_space_group_symop_operation_xyz
x,y,z
-x,-y,-z
loop_
_atom_site_type_symbol
_atom_site_label
_atom_site_fract_x
_atom_site_fract_y
_atom_site_fract_z
Si Si1 0.847318 0.238970 0.422008
Si Si2 0.524368 0.772421 0.711430
Si Si3 0.183342 0.523665 0.019838
Si Si4 0.688141 0.558387 0.179701
Si Si5 0.458451 0.496801 0.313572
Si Si6 0.474211 0.786684 0.204354
Si Si7 0.095777 0.270787 0.783041
Si Si8 0.903250 0.046502 0.070092
O O1 0.661834 0.228798 0.387303
O O2 0.851110 0.420744 0.318708
O O3 0.986548 0.046392 0.700293
O O4 0.852385 0.302580 0.246869
O O5 0.678784 0.662865 0.802297
O O6 0.500000 0.000000 0.500000
O O7 0.563806 0.657141 0.945615
O O8 0.286405 0.564484 0.116571
O O9 0.000000 0.500000 0.000000
O O10 0.606317 0.440997 0.341476
O O11 0.738535 0.725492 0.097339
O O12 0.517601 0.651773 0.253997
O O13 0.446757 0.328035 0.551889
O O14 0.500000 0.000000 0.000000
O O15 0.276942 0.814821 0.107555
O O16 0.124409 0.133793 0.829773
O O17 0.000000 0.500000 0.500000
O O18 0.993165 0.170205 0.915783
#
# Coordination Sequence:
#
# PCOD9054297 Si02
#       8
#     2   2   2   2   2   2   2   2
#     4  11  22  44  68 100 139 175 226 289 339 415
#     4  11  23  42  69 103 136 181 231 287 346 410
#     4  11  25  45  72 100 137 192 230 282 358 417
#     4  11  20  42  69  93 132 180 224 277 345 405
#     4  11  24  47  70  94 139 183 233 280 347 419
#     4  11  27  45  68  98 138 186 225 287 351 414
#     4  11  22  38  65  98 130 176 218 283 343 387
#     4  11  25  41  65 105 137 169 237 282 335 420
#
# _framework density 21.352060999999999
#
# number of rings (size 3 to 8) (size 9 to 14) (size 15 to 20)
#    0.000    1.000    3.750    3.000    3.500    6.000 
#    0.000    1.250    0.000    0.000    0.000    0.000 
#    0.000    0.000    0.000    0.000    0.000    0.000 
#
# Total GULP energy -89294.637509 kJ/mol
# GULP energy per Si atom -5580.914844 kJ/mol
# Density = 2.130346 g / cm^3
# Si number density = 21.352061 Si / 1000 Ang^3
#
#
#
# Elastic Constant Matrix: (Units=GPa)
#
#
# Indices 1 2 3 4 5 6 
#
# 1 80.7696 22.7955 4.0511 18.7225 -5.3990 -3.7562
# 2 22.7955 90.7531 49.0117 17.7318 -22.0767 4.8269
# 3 4.0511 49.0117 86.7974 18.2613 -8.2387 -12.3953
# 4 18.7225 17.7318 18.2613 39.6751 8.7703 -2.9204
# 5 -5.3990 -22.0767 -8.2387 8.7703 29.7139 3.7099
# 6 -3.7562 4.8269 -12.3953 -2.9204 3.7099 28.5798
#
#
#
# Elastic Compliance Matrix: (Units=1/GPa)
#
#
# Indices 1 2 3 4 5 6 
#
# 1 0.015413 -0.003937 0.003841 -0.007664 0.002802 0.003210
# 2 -0.003937 0.026372 -0.012847 -0.009442 0.019862 -0.014087
# 3 0.003841 -0.012847 0.020802 -0.004042 -0.003350 0.011718
# 4 -0.007664 -0.009442 -0.004042 0.040221 -0.022127 0.005816
# 5 0.002802 0.019862 -0.003350 -0.022127 0.056271 -0.014004
# 6 0.003210 -0.014087 0.011718 0.005816 -0.014004 0.045285
#
#
# Mechanical properties :
#
#
# Convention : Reuss Voigt Hill
#
# Bulk Modulus (GPa) = 27.24885 45.55964 36.40425
# Shear Modulus (GPa) = 20.61981 31.75789 26.18885
#
# Velocity S-wave (km/s) = 3.11095 3.86080 3.50598
# Velocity P-wave (km/s) = 5.06887 6.42324 5.78582
#
# Compressibility (1/GPa) = 0.03669880
#
# Stress axis : x y z
#
# Youngs Moduli (GPa) = 64.88208 37.91911 48.07153
#
# Poissons Ratio (x) = 0.14930 -0.18462
# Poissons Ratio (y) = 0.25545 0.61760
# Poissons Ratio (z) = -0.24919 0.48716
#
# Static dielectric constant tensor:
#      x y z
#    x 1.797180 -0.011630 0.009800 
#    y -0.011630 1.911870 -0.023680 
#    z 0.009800 -0.023680 1.803380 
# 
# From -- ./inp_files/398257.got.cif
#   From: 2010.05.17/outbox.cif.g08.bks.cpg/sg2_200_cif.got.tgz:398257.got - 2010.06.03 11:33:40.
