data_PCOD9054951
_publ_section_title
;
Structure prediction by ZEFSAII (Michael W. Deem and Ramdas Pophale) SiO2 
 PCOD9054951
Probable space group: P -1
;
_chemical_formula_sum "Si O2"
_cell_formula_units_Z 14
_cell_length_a 8.950501
_cell_length_b 9.292892
_cell_length_c 16.883249
_cell_angle_alpha 105.817318
_cell_angle_beta 116.802189
_cell_angle_gamma 32.112355
_cell_volume 648.355508
_symmetry_space_group_name_H-M "P -1"
_symmetry_group_IT_number 2
_symmetry_cell_setting 'triclinic'
loop_
_space_group_symop_operation_xyz
x,y,z
-x,-y,-z
loop_
_atom_site_type_symbol
_atom_site_label
_atom_site_fract_x
_atom_site_fract_y
_atom_site_fract_z
Si Si1 0.855247 0.173343 0.411834
Si Si2 0.663588 0.590900 0.160619
Si Si3 0.223901 0.195097 0.523549
Si Si4 0.236544 0.634595 0.111601
Si Si5 0.482226 0.836813 0.988504
Si Si6 0.768082 0.231355 0.695737
Si Si7 0.646156 0.006132 0.716910
O O1 0.035577 0.192819 0.454280
O O2 0.494632 0.486759 0.375583
O O3 0.940903 0.016270 0.329586
O O4 0.000000 0.000000 0.500000
O O5 0.472391 0.579699 0.122695
O O6 0.469428 0.856299 0.204423
O O7 0.679032 0.634054 0.080941
O O8 0.002503 0.316822 0.239980
O O9 0.395672 0.080484 0.631679
O O10 0.000000 0.500000 0.500000
O O11 0.500000 0.000000 0.500000
O O12 0.384622 0.364008 0.082007
O O13 0.200718 0.696260 0.205883
O O14 0.880489 0.922161 0.041191
O O15 0.500000 0.000000 0.000000
O O16 0.656186 0.151485 0.688238
#
# Coordination Sequence:
#
# PCOD9054951 Si02
#       7
#     2   2   2   2   2   2   2
#     4  12  24  42  63  96 132 173 214 264 316 385
#     4  11  23  41  69  96 127 163 222 262 310 384
#     4  12  22  40  67  93 130 172 216 260 323 373
#     4  11  23  43  72  93 123 175 217 262 315 387
#     4  12  25  45  66  98 136 165 205 263 336 389
#     4  11  22  42  67  93 127 166 223 263 313 374
#     4  11  21  39  67  98 124 164 221 274 304 364
#
# _framework density 21.593091000000001
#
# number of rings (size 3 to 8) (size 9 to 14) (size 15 to 20)
#    0.000    0.571    2.857    7.714    0.000    0.000 
#    7.714    0.000    0.000    0.000    0.000    0.000 
#    0.000    0.000    0.000    0.000    0.000    0.000 
#
# Total GULP energy -78255.478283 kJ/mol
# GULP energy per Si atom -5589.677020 kJ/mol
# Density = 2.154394 g / cm^3
# Si number density = 21.593091 Si / 1000 Ang^3
#
#
#
# Elastic Constant Matrix: (Units=GPa)
#
#
# Indices 1 2 3 4 5 6 
#
# 1 17.9568 22.8041 15.6369 7.8362 -8.8452 4.9870
# 2 22.8041 118.5547 16.1103 2.4538 5.0888 -2.7311
# 3 15.6369 16.1103 79.7112 3.6283 -4.1341 13.5882
# 4 7.8362 2.4538 3.6283 58.8947 -1.2174 3.3358
# 5 -8.8452 5.0888 -4.1341 -1.2174 27.7414 -7.0408
# 6 4.9870 -2.7311 13.5882 3.3358 -7.0408 22.8640
#
#
#
# Elastic Compliance Matrix: (Units=1/GPa)
#
#
# Indices 1 2 3 4 5 6 
#
# 1 0.128575 -0.024101 -0.016490 -0.013874 0.040683 -0.006571
# 2 -0.024101 0.013365 0.000911 0.002225 -0.009094 0.003187
# 3 -0.016490 0.000911 0.016621 0.001478 -0.004886 -0.007893
# 4 -0.013874 0.002225 0.001478 0.018646 -0.004200 -0.001600
# 5 0.040683 -0.009094 -0.004886 -0.004200 0.052221 0.009638
# 6 -0.006571 0.003187 -0.007893 -0.001600 0.009638 0.053443
#
#
# Mechanical properties :
#
#
# Convention : Reuss Voigt Hill
#
# Bulk Modulus (GPa) = 12.62633 36.14726 24.38679
# Shear Modulus (GPa) = 12.86572 32.67811 22.77192
#
# Velocity S-wave (km/s) = 2.44360 3.89441 3.25097
# Velocity P-wave (km/s) = 3.71775 6.08264 5.04084
#
# Compressibility (1/GPa) = 0.07919959
#
# Stress axis : x y z
#
# Youngs Moduli (GPa) = 7.77758 74.82361 60.16557
#
# Poissons Ratio (x) = 1.80333 0.99212
# Poissons Ratio (y) = 0.18745 -0.05478
# Poissons Ratio (z) = 0.12825 -0.06813
#
# Static dielectric constant tensor:
#      x y z
#    x 1.740930 0.007660 0.008410 
#    y 0.007660 1.732160 0.040040 
#    z 0.008410 0.040040 1.810860 
# 
# From -- ./inp_files/90951.got.cif
#   From: 2010.05.17/outbox.cif.g08.bks.cpg/sg2_46_cif.got.tgz:90951.got - 2010.06.03 11:33:40.
