data_PCOD9054390
_publ_section_title
;
Structure prediction by ZEFSAII (Michael W. Deem and Ramdas Pophale) SiO2 
 PCOD9054390
Probable space group: P -1
;
_chemical_formula_sum "Si O2"
_cell_formula_units_Z 14
_cell_length_a 8.950266
_cell_length_b 11.449457
_cell_length_c 9.573623
_cell_angle_alpha 98.910882
_cell_angle_beta 138.244421
_cell_angle_gamma 86.087943
_cell_volume 643.785770
_symmetry_space_group_name_H-M "P -1"
_symmetry_group_IT_number 2
_symmetry_cell_setting 'triclinic'
loop_
_space_group_symop_operation_xyz
x,y,z
-x,-y,-z
loop_
_atom_site_type_symbol
_atom_site_label
_atom_site_fract_x
_atom_site_fract_y
_atom_site_fract_z
Si Si1 0.449859 0.880397 0.528852
Si Si2 0.384547 0.641028 0.824429
Si Si3 0.979381 0.737216 0.208125
Si Si4 0.532962 0.882770 0.914533
Si Si5 0.298421 0.449406 0.196696
Si Si6 0.816722 0.602549 0.315990
Si Si7 0.375003 0.345037 0.520096
O O1 0.497676 0.902318 0.729552
O O2 0.602418 0.782450 0.553167
O O3 0.198585 0.817089 0.332257
O O4 0.500000 0.000000 0.500000
O O5 0.354712 0.779206 0.828343
O O6 0.490596 0.610219 0.741722
O O7 0.190546 0.540579 0.705598
O O8 0.586235 0.621659 0.070958
O O9 0.999888 0.674151 0.361708
O O10 0.774156 0.824724 0.087044
O O11 0.906972 0.623778 0.037071
O O12 0.500000 0.000000 0.000000
O O13 0.283726 0.422493 0.344724
O O14 0.381654 0.586804 0.258850
O O15 0.773270 0.655923 0.446137
#
# Coordination Sequence:
#
# PCOD9054390 Si02
#       7
#     2   2   2   2   2   2   2
#     4  12  27  41  61  89 123 166 210 253 296 360
#     4   8  14  32  59  88 118 154 192 240 306 352
#     4  10  22  44  63  88 124 161 205 249 307 364
#     4  10  22  43  63  86 124 167 201 250 302 358
#     4   8  16  34  65  87 123 161 185 253 312 357
#     4   8  16  31  64  91 112 154 194 246 303 359
#     4  10  17  35  64  93 122 154 200 246 310 355
#
# _framework density 21.746362999999999
#
# number of rings (size 3 to 8) (size 9 to 14) (size 15 to 20)
#    0.000    2.857    2.857    0.857    4.000    1.714 
#    0.000    0.714    0.000    0.000    0.000    0.000 
#    0.000    0.000    0.000    0.000    0.000    0.000 
#
# Total GULP energy -78131.010744 kJ/mol
# GULP energy per Si atom -5580.786482 kJ/mol
# Density = 2.169687 g / cm^3
# Si number density = 21.746363 Si / 1000 Ang^3
#
#
#
# Elastic Constant Matrix: (Units=GPa)
#
#
# Indices 1 2 3 4 5 6 
#
# 1 88.9506 41.3763 63.8608 4.2146 -13.6710 19.7413
# 2 41.3763 158.1861 46.9321 22.1445 -20.8912 23.0806
# 3 63.8608 46.9321 87.6111 18.3739 -20.3621 3.4518
# 4 4.2146 22.1445 18.3739 32.8193 -1.5344 -6.2291
# 5 -13.6710 -20.8912 -20.3621 -1.5344 45.1037 6.9172
# 6 19.7413 23.0806 3.4518 -6.2291 6.9172 46.5507
#
#
#
# Elastic Compliance Matrix: (Units=1/GPa)
#
#
# Indices 1 2 3 4 5 6 
#
# 1 0.029094 -0.000706 -0.021903 0.007225 0.000297 -0.009441
# 2 -0.000706 0.009244 -0.002132 -0.005814 0.003745 -0.005460
# 3 -0.021903 -0.002132 0.032249 -0.012505 0.005673 0.005438
# 4 0.007225 -0.005814 -0.012505 0.041555 -0.005835 0.007174
# 5 0.000297 0.003745 0.005673 -0.005835 0.027472 -0.007266
# 6 -0.009441 -0.005460 0.005438 0.007174 -0.007266 0.029830
#
#
# Mechanical properties :
#
#
# Convention : Reuss Voigt Hill
#
# Bulk Modulus (GPa) = 47.38508 71.00958 59.19733
# Shear Modulus (GPa) = 22.12755 37.06663 29.59709
#
# Velocity S-wave (km/s) = 3.19333 4.13304 3.69319
# Velocity P-wave (km/s) = 5.95262 7.44986 6.74293
#
# Compressibility (1/GPa) = 0.02110369
#
# Stress axis : x y z
#
# Youngs Moduli (GPa) = 34.37078 108.17551 31.00909
#
# Poissons Ratio (x) = 0.07641 0.67920
# Poissons Ratio (y) = 0.02428 0.06612
# Poissons Ratio (z) = 0.75283 0.23067
#
# Static dielectric constant tensor:
#      x y z
#    x 1.832400 0.003130 0.080480 
#    y 0.003130 1.792430 -0.020480 
#    z 0.080480 -0.020480 1.914420 
# 
# From -- ./inp_files/188905.got.cif
#   From: 2010.05.17/outbox.cif.g08.bks.cpg/sg2_95_cif.got.tgz:188905.got - 2010.06.03 11:33:40.
