data_PCOD9054391
_publ_section_title
;
Structure prediction by ZEFSAII (Michael W. Deem and Ramdas Pophale) SiO2 
 PCOD9054391
Probable space group: P -1
;
_chemical_formula_sum "Si O2"
_cell_formula_units_Z 16
_cell_length_a 7.480517
_cell_length_b 11.276588
_cell_length_c 9.021114
_cell_angle_alpha 63.445349
_cell_angle_beta 86.899730
_cell_angle_gamma 66.565781
_cell_volume 617.415967
_symmetry_space_group_name_H-M "P -1"
_symmetry_group_IT_number 2
_symmetry_cell_setting 'triclinic'
loop_
_space_group_symop_operation_xyz
x,y,z
-x,-y,-z
loop_
_atom_site_type_symbol
_atom_site_label
_atom_site_fract_x
_atom_site_fract_y
_atom_site_fract_z
Si Si1 0.298906 0.361436 0.609417
Si Si2 0.691123 0.120910 0.741103
Si Si3 0.089177 0.069329 0.641896
Si Si4 0.234369 0.711800 0.080907
Si Si5 0.166182 0.627211 0.667445
Si Si6 0.818414 0.580851 0.742510
Si Si7 0.206718 0.134841 0.923781
Si Si8 0.591416 0.230831 0.246813
O O1 0.500440 0.236356 0.604156
O O2 0.291293 0.505470 0.609474
O O3 0.165131 0.413617 0.440868
O O4 0.249917 0.270318 0.792172
O O5 0.726541 0.229462 0.796921
O O6 0.889822 0.045580 0.681683
O O7 0.655913 0.996854 0.903228
O O8 0.167210 0.076726 0.799698
O O9 0.999010 0.225482 0.479803
O O10 0.268624 0.937702 0.632668
O O11 0.248461 0.549905 0.160068
O O12 0.002099 0.805663 0.015881
O O13 0.373290 0.740677 0.941669
O O14 0.312261 0.673548 0.726670
O O15 0.029769 0.565776 0.798525
O O16 0.636658 0.720176 0.736988
#
# Coordination Sequence:
#
# PCOD9054391 Si02
#       8
#     2   2   2   2   2   2   2   2
#     4  12  24  44  68 103 131 169 234 283 333 390
#     4  11  22  40  73 100 129 179 226 280 328 390
#     4  11  22  45  69  95 136 179 224 273 335 397
#     4  11  22  45  69  95 136 179 224 273 335 397
#     4  12  26  45  70 100 136 179 221 283 334 395
#     4  12  26  45  70 100 136 179 221 283 334 395
#     4  11  20  43  73  95 131 177 223 281 332 382
#     4  12  26  46  66 102 140 180 222 264 344 410
#
# _framework density 25.914456000000001
#
# number of rings (size 3 to 8) (size 9 to 14) (size 15 to 20)
#    0.000    0.500    5.000    5.250    0.000    2.500 
#    4.500    0.000    0.000    0.000    0.000    0.000 
#    0.000    0.000    0.000    0.000    0.000    0.000 
#
# Total GULP energy -89539.880518 kJ/mol
# GULP energy per Si atom -5596.242532 kJ/mol
# Density = 2.585547 g / cm^3
# Si number density = 25.914456 Si / 1000 Ang^3
#
#
#
# Elastic Constant Matrix: (Units=GPa)
#
#
# Indices 1 2 3 4 5 6 
#
# 1 45.1891 20.8456 -7.9184 -0.8973 -7.9679 -22.1064
# 2 20.8456 103.1601 1.2633 -13.1954 -5.5985 -23.4197
# 3 -7.9184 1.2633 60.0419 -15.5440 -12.4429 7.0387
# 4 -0.8973 -13.1954 -15.5440 34.5684 3.3650 -5.6003
# 5 -7.9679 -5.5985 -12.4429 3.3650 28.6359 4.4116
# 6 -22.1064 -23.4197 7.0387 -5.6003 4.4116 36.0312
#
#
#
# Elastic Compliance Matrix: (Units=1/GPa)
#
#
# Indices 1 2 3 4 5 6 
#
# 1 0.034606 -0.001711 0.005349 0.004911 0.008139 0.018841
# 2 -0.001711 0.012671 0.000179 0.006174 0.000106 0.008098
# 3 0.005349 0.000179 0.021840 0.008932 0.010074 -0.000714
# 4 0.004911 0.006174 0.008932 0.037175 0.000390 0.011012
# 5 0.008139 0.000106 0.010074 0.000390 0.041841 -0.001968
# 6 0.018841 0.008098 -0.000714 0.011012 -0.001968 0.046669
#
#
# Mechanical properties :
#
#
# Convention : Reuss Voigt Hill
#
# Bulk Modulus (GPa) = 13.02921 26.30803 19.66862
# Shear Modulus (GPa) = 23.50153 32.79380 28.14767
#
# Velocity S-wave (km/s) = 3.01473 3.56119 3.29929
# Velocity P-wave (km/s) = 4.14208 5.20417 4.70320
#
# Compressibility (1/GPa) = 0.07675063
#
# Stress axis : x y z
#
# Youngs Moduli (GPa) = 28.89710 78.91906 45.78692
#
# Poissons Ratio (x) = 0.13503 -0.24492
# Poissons Ratio (y) = 0.04944 -0.00819
# Poissons Ratio (z) = -0.15457 -0.01411
#
# Static dielectric constant tensor:
#      x y z
#    x 2.062220 -0.012600 -0.039090 
#    y -0.012600 2.044900 -0.037470 
#    z -0.039090 -0.037470 2.077330 
# 
# From -- ./inp_files/185041.got.cif
#   From: 2010.05.17/outbox.cif.g08.bks.cpg/sg2_93_cif.got.tgz:185041.got - 2010.06.03 11:33:40.
