data_PCOD9054513
_publ_section_title
;
Structure prediction by ZEFSAII (Michael W. Deem and Ramdas Pophale) SiO2 
 PCOD9054513
Probable space group: P -1
;
_chemical_formula_sum "Si O2"
_cell_formula_units_Z 16
_cell_length_a 10.203427
_cell_length_b 9.648006
_cell_length_c 10.776635
_cell_angle_alpha 78.765607
_cell_angle_beta 72.116656
_cell_angle_gamma 43.062901
_cell_volume 688.659522
_symmetry_space_group_name_H-M "P -1"
_symmetry_group_IT_number 2
_symmetry_cell_setting 'triclinic'
loop_
_space_group_symop_operation_xyz
x,y,z
-x,-y,-z
loop_
_atom_site_type_symbol
_atom_site_label
_atom_site_fract_x
_atom_site_fract_y
_atom_site_fract_z
Si Si1 0.429609 0.607428 0.635148
Si Si2 0.610832 0.043089 0.389904
Si Si3 0.846216 0.814490 0.850359
Si Si4 0.287038 0.150239 0.861114
Si Si5 0.027652 0.852571 0.609020
Si Si6 0.037305 0.636531 0.432444
Si Si7 0.172525 0.489450 0.156104
Si Si8 0.313786 0.450674 0.863171
O O1 0.500000 0.500000 0.500000
O O2 0.191644 0.786031 0.666681
O O3 0.451644 0.469189 0.757490
O O4 0.480659 0.734664 0.606497
O O5 0.609160 0.007988 0.251411
O O6 0.833045 0.863226 0.410893
O O7 0.500000 0.000000 0.500000
O O8 0.788044 0.707203 0.827876
O O9 0.840987 0.937432 0.726292
O O10 0.080829 0.632856 0.853307
O O11 0.721752 0.922915 0.992379
O O12 0.364586 0.252424 0.842126
O O13 0.057526 0.330448 0.852232
O O14 0.100539 0.668332 0.534461
O O15 0.000000 0.000000 0.500000
O O16 0.174097 0.544330 0.286234
O O17 0.000000 0.500000 0.500000
O O18 0.300239 0.467230 0.014015
#
# Coordination Sequence:
#
# PCOD9054513 Si02
#       8
#     2   2   2   2   2   2   2   2
#     4  11  23  37  56  79 111 148 178 225 277 318
#     4  11  23  37  55  83 109 141 188 225 265 326
#     4   8  14  28  52  76 106 139 175 219 267 315
#     4   8  15  30  52  77 102 137 182 224 259 313
#     4  11  21  37  53  84 115 141 180 224 275 323
#     4  11  21  35  59  84 111 144 181 223 268 321
#     4   8  14  28  51  80 103 136 181 219 260 316
#     4   8  15  30  52  76 105 138 177 222 268 311
#
# _framework density 23.233543999999998
#
# number of rings (size 3 to 8) (size 9 to 14) (size 15 to 20)
#    0.000    2.500    2.500    2.250    3.500    0.000 
#    2.250    2.500    0.000    3.000    0.000    0.000 
#    0.000    0.000    0.000    0.000    0.000    0.000 
#
# Total GULP energy -89325.152780 kJ/mol
# GULP energy per Si atom -5582.822049 kJ/mol
# Density = 2.318066 g / cm^3
# Si number density = 23.233544 Si / 1000 Ang^3
#
#
#
# Elastic Constant Matrix: (Units=GPa)
#
#
# Indices 1 2 3 4 5 6 
#
# 1 61.9501 33.4726 29.6100 -3.5592 -3.0806 10.2208
# 2 33.4726 96.0752 64.3143 -7.5142 -9.4544 33.9457
# 3 29.6100 64.3143 194.7213 -12.4449 -19.6487 45.9469
# 4 -3.5592 -7.5142 -12.4449 39.2288 11.3029 -0.6728
# 5 -3.0806 -9.4544 -19.6487 11.3029 27.3895 -9.1547
# 6 10.2208 33.9457 45.9469 -0.6728 -9.1547 48.2555
#
#
#
# Elastic Compliance Matrix: (Units=1/GPa)
#
#
# Indices 1 2 3 4 5 6 
#
# 1 0.020120 -0.006771 -0.001230 0.000329 -0.000568 0.001570
# 2 -0.006771 0.017695 -0.002729 0.001816 -0.000176 -0.008423
# 3 -0.001230 -0.002729 0.007619 0.001002 0.002435 -0.004598
# 4 0.000329 0.001816 0.001002 0.029647 -0.012260 -0.004214
# 5 -0.000568 -0.000176 0.002435 -0.012260 0.045315 0.006352
# 6 0.001570 -0.008423 -0.004598 -0.004214 0.006352 0.031840
#
#
# Mechanical properties :
#
#
# Convention : Reuss Voigt Hill
#
# Bulk Modulus (GPa) = 41.71194 67.50451 54.60822
# Shear Modulus (GPa) = 27.51969 37.99808 32.75888
#
# Velocity S-wave (km/s) = 3.44536 4.04850 3.75905
# Velocity P-wave (km/s) = 5.81547 7.13944 6.51119
#
# Compressibility (1/GPa) = 0.02397395
#
# Stress axis : x y z
#
# Youngs Moduli (GPa) = 49.70137 56.51185 131.25787
#
# Poissons Ratio (x) = 0.38267 0.16140
# Poissons Ratio (y) = 0.33655 0.35821
# Poissons Ratio (z) = 0.06111 0.15422
#
# Static dielectric constant tensor:
#      x y z
#    x 2.028760 -0.053180 -0.037400 
#    y -0.053180 1.938010 -0.033820 
#    z -0.037400 -0.033820 1.898760 
# 
# From -- ./inp_files/244672.got.cif
#   From: 2010.05.17/outbox.cif.g08.bks.cpg/sg2_123_cif.got.tgz:244672.got - 2010.06.03 11:33:40.
