data_PCOD9054013
_publ_section_title
;
Structure prediction by ZEFSAII (Michael W. Deem and Ramdas Pophale) SiO2 
 PCOD9054013
Probable space group: P -1
;
_chemical_formula_sum "Si O2"
_cell_formula_units_Z 16
_cell_length_a 7.315914
_cell_length_b 8.335443
_cell_length_c 12.974220
_cell_angle_alpha 121.300612
_cell_angle_beta 94.903030
_cell_angle_gamma 83.854958
_cell_volume 671.731761
_symmetry_space_group_name_H-M "P -1"
_symmetry_group_IT_number 2
_symmetry_cell_setting 'triclinic'
loop_
_space_group_symop_operation_xyz
x,y,z
-x,-y,-z
loop_
_atom_site_type_symbol
_atom_site_label
_atom_site_fract_x
_atom_site_fract_y
_atom_site_fract_z
Si Si1 0.995232 0.275601 0.543179
Si Si2 0.834197 0.580013 0.946251
Si Si3 0.632493 0.817427 0.460878
Si Si4 0.511424 0.125694 0.938479
Si Si5 0.115501 0.803422 0.922911
Si Si6 0.160356 0.683375 0.657291
Si Si7 0.662079 0.427066 0.706603
Si Si8 0.441324 0.228399 0.322651
O O1 0.164964 0.156458 0.561909
O O2 0.170758 0.785363 0.800712
O O3 0.075607 0.483771 0.605252
O O4 0.954951 0.212575 0.404359
O O5 0.717158 0.434171 0.830623
O O6 0.962073 0.661224 0.891235
O O7 0.675121 0.734903 0.031485
O O8 0.000000 0.500000 0.000000
O O9 0.536133 0.651179 0.343732
O O10 0.645154 0.777860 0.570805
O O11 0.500000 0.000000 0.500000
O O12 0.533529 0.978947 0.796008
O O13 0.703153 0.222099 0.004085
O O14 0.500000 0.000000 0.000000
O O15 0.000000 0.000000 0.000000
O O16 0.186175 0.701486 0.390580
O O17 0.365299 0.679564 0.621326
O O18 0.658031 0.631038 0.718674
#
# Coordination Sequence:
#
# PCOD9054013 Si02
#       8
#     2   2   2   2   2   2   2   2
#     4  11  24  39  71 100 129 175 228 283 345 399
#     4  12  28  47  70 106 146 187 233 290 357 414
#     4  12  29  46  65 103 144 180 222 288 360 412
#     4  12  24  43  72 106 140 182 238 293 341 410
#     4  12  23  42  72 105 140 184 235 289 344 413
#     4  11  20  39  71 104 126 172 238 284 325 404
#     4  12  23  47  75  98 135 184 236 286 337 423
#     4  12  22  45  75 101 137 181 235 287 339 412
#
# _framework density 23.819033000000001
#
# number of rings (size 3 to 8) (size 9 to 14) (size 15 to 20)
#    0.000    0.250    7.500    1.875    1.750    3.000 
#    2.250    0.000    0.000    0.000    0.000    0.000 
#    0.000    0.000    0.000    0.000    0.000    0.000 
#
# Total GULP energy -89466.963925 kJ/mol
# GULP energy per Si atom -5591.685245 kJ/mol
# Density = 2.376482 g / cm^3
# Si number density = 23.819033 Si / 1000 Ang^3
#
#
#
# Elastic Constant Matrix: (Units=GPa)
#
#
# Indices 1 2 3 4 5 6 
#
# 1 126.3230 19.0186 12.8621 -6.3164 14.7985 -37.4187
# 2 19.0186 65.9176 29.0744 -7.8424 4.5866 -42.2448
# 3 12.8621 29.0744 119.6527 -13.7435 13.8185 -18.1198
# 4 -6.3164 -7.8424 -13.7435 22.9977 -9.1273 5.1550
# 5 14.7985 4.5866 13.8185 -9.1273 39.6973 -3.3108
# 6 -37.4187 -42.2448 -18.1198 5.1550 -3.3108 46.0350
#
#
#
# Elastic Compliance Matrix: (Units=1/GPa)
#
#
# Indices 1 2 3 4 5 6 
#
# 1 0.012060 0.007137 -0.000104 0.000590 -0.003817 0.015971
# 2 0.007137 0.043268 -0.004071 0.003877 -0.001736 0.043345
# 3 -0.000104 -0.004071 0.009968 0.003803 -0.002126 -0.000475
# 4 0.000590 0.003877 0.003803 0.051002 0.009779 0.000526
# 5 -0.003817 -0.001736 -0.002126 0.009779 0.029426 -0.004511
# 6 0.015971 0.043345 -0.000475 0.000526 -0.004511 0.073910
#
#
# Mechanical properties :
#
#
# Convention : Reuss Voigt Hill
#
# Bulk Modulus (GPa) = 14.04085 48.20038 31.12061
# Shear Modulus (GPa) = 21.05711 38.47522 29.76616
#
# Velocity S-wave (km/s) = 2.97652 4.02346 3.53892
# Velocity P-wave (km/s) = 4.20957 6.47026 5.45824
#
# Compressibility (1/GPa) = 0.07122075
#
# Stress axis : x y z
#
# Youngs Moduli (GPa) = 82.92185 23.11190 100.31827
#
# Poissons Ratio (x) = -0.16495 0.01039
# Poissons Ratio (y) = -0.59182 0.40839
# Poissons Ratio (z) = 0.00859 0.09409
#
# Static dielectric constant tensor:
#      x y z
#    x 1.981400 0.018090 0.042840 
#    y 0.018090 1.960800 0.024340 
#    z 0.042840 0.024340 1.884510 
# 
# From -- ./inp_files/493932.got.cif
#   From: 2010.05.17/outbox.cif.g08.bks.cpg/sg2_247_cif.got.tgz:493932.got - 2010.06.03 11:33:40.
