data_PCOD9054108
_publ_section_title
;
Structure prediction by ZEFSAII (Michael W. Deem and Ramdas Pophale) SiO2 
 PCOD9054108
Probable space group: P -1
;
_chemical_formula_sum "Si O2"
_cell_formula_units_Z 14
_cell_length_a 9.333700
_cell_length_b 10.603672
_cell_length_c 8.832350
_cell_angle_alpha 116.253759
_cell_angle_beta 66.191736
_cell_angle_gamma 69.973283
_cell_volume 554.099331
_symmetry_space_group_name_H-M "P -1"
_symmetry_group_IT_number 2
_symmetry_cell_setting 'triclinic'
loop_
_space_group_symop_operation_xyz
x,y,z
-x,-y,-z
loop_
_atom_site_type_symbol
_atom_site_label
_atom_site_fract_x
_atom_site_fract_y
_atom_site_fract_z
Si Si1 0.262164 0.239343 0.023434
Si Si2 0.835441 0.203248 0.238466
Si Si3 0.259314 0.615585 0.148953
Si Si4 0.457582 0.852919 0.576855
Si Si5 0.154069 0.531900 0.832354
Si Si6 0.052635 0.244353 0.414044
Si Si7 0.676553 0.106994 0.691655
O O1 0.451137 0.236502 0.929887
O O2 0.367903 0.032830 0.807278
O O3 0.166270 0.270026 0.248828
O O4 0.079509 0.369184 0.051549
O O5 0.628404 0.239186 0.360521
O O6 0.808441 0.361660 0.243736
O O7 0.934189 0.191798 0.346395
O O8 0.000000 0.000000 0.000000
O O9 0.206684 0.813038 0.286834
O O10 0.131766 0.599648 0.319183
O O11 0.500000 0.500000 0.000000
O O12 0.203320 0.578155 0.994114
O O13 0.696988 0.685148 0.374078
O O14 0.363979 0.906512 0.475010
O O15 0.210456 0.082837 0.372759
#
# Coordination Sequence:
#
# PCOD9054108 Si02
#       7
#     2   2   2   2   2   2   2
#     4  11  27  48  68 105 143 185 233 284 354 420
#     4  11  20  40  69 104 131 177 235 288 333 406
#     4  12  24  44  71 105 137 175 239 289 341 414
#     4  12  23  43  71 102 136 186 236 283 346 413
#     4  11  24  44  73  98 142 183 235 284 344 414
#     4  11  23  43  73  96 136 188 229 286 349 405
#     4  12  25  44  71 104 142 181 233 289 353 411
#
# _framework density 25.266228000000002
#
# number of rings (size 3 to 8) (size 9 to 14) (size 15 to 20)
#    0.000    0.571    5.714    3.429    0.000    1.714 
#    2.571    0.714    0.000    0.000    0.000    0.000 
#    0.000    0.000    0.000    0.000    0.000    0.000 
#
# Total GULP energy -78344.636467 kJ/mol
# GULP energy per Si atom -5596.045462 kJ/mol
# Density = 2.520872 g / cm^3
# Si number density = 25.266228 Si / 1000 Ang^3
#
#
#
# Elastic Constant Matrix: (Units=GPa)
#
#
# Indices 1 2 3 4 5 6 
#
# 1 113.8170 61.8612 56.2481 2.0404 -15.1455 17.7161
# 2 61.8612 107.2116 57.3491 -0.2496 3.9715 -11.7614
# 3 56.2481 57.3491 157.2563 -1.7580 -16.1465 -13.3259
# 4 2.0404 -0.2496 -1.7580 37.7499 4.9825 -14.8514
# 5 -15.1455 3.9715 -16.1465 4.9825 42.0055 -1.9755
# 6 17.7161 -11.7614 -13.3259 -14.8514 -1.9755 45.2681
#
#
#
# Elastic Compliance Matrix: (Units=1/GPa)
#
#
# Indices 1 2 3 4 5 6 
#
# 1 0.020139 -0.011579 -0.003525 -0.007872 0.007267 -0.014193
# 2 -0.011579 0.018735 -0.002493 0.005576 -0.007087 0.010186
# 3 -0.003525 -0.002493 0.009155 0.001914 0.002452 0.004162
# 4 -0.007872 0.005576 0.001914 0.034131 -0.005924 0.016032
# 5 0.007267 -0.007087 0.002452 -0.005924 0.028523 -0.004662
# 6 -0.014193 0.010186 0.004162 0.016032 -0.004662 0.036573
#
#
# Mechanical properties :
#
#
# Convention : Reuss Voigt Hill
#
# Bulk Modulus (GPa) = 77.91562 81.02243 79.46903
# Shear Modulus (GPa) = 26.77682 38.52648 32.65165
#
# Velocity S-wave (km/s) = 3.25897 3.90913 3.59876
# Velocity P-wave (km/s) = 6.71312 7.24653 6.98492
#
# Compressibility (1/GPa) = 0.01283440
#
# Stress axis : x y z
#
# Youngs Moduli (GPa) = 49.65463 53.37632 109.23030
#
# Poissons Ratio (x) = 0.61805 0.38507
# Poissons Ratio (y) = 0.57496 0.27230
# Poissons Ratio (z) = 0.17505 0.13306
#
# Static dielectric constant tensor:
#      x y z
#    x 2.215960 0.095840 0.698970 
#    y 0.095840 2.102940 0.241140 
#    z 0.698970 0.241140 4.130100 
# 
# From -- ./inp_files/189862.got.cif
#   From: 2010.05.17/outbox.cif.g08.bks.cpg/sg2_95_cif.got.tgz:189862.got - 2010.06.03 11:33:40.
