data_PCOD9054564
_publ_section_title
;
Structure prediction by ZEFSAII (Michael W. Deem and Ramdas Pophale) SiO2 
 PCOD9054564
Probable space group: P -1
;
_chemical_formula_sum "Si O2"
_cell_formula_units_Z 14
_cell_length_a 9.860526
_cell_length_b 12.433542
_cell_length_c 14.168502
_cell_angle_alpha 51.838684
_cell_angle_beta 46.547520
_cell_angle_gamma 32.078128
_cell_volume 666.911692
_symmetry_space_group_name_H-M "P -1"
_symmetry_group_IT_number 2
_symmetry_cell_setting 'triclinic'
loop_
_space_group_symop_operation_xyz
x,y,z
-x,-y,-z
loop_
_atom_site_type_symbol
_atom_site_label
_atom_site_fract_x
_atom_site_fract_y
_atom_site_fract_z
Si Si1 0.265450 0.922682 0.476650
Si Si2 0.824034 0.772641 0.736044
Si Si3 0.932672 0.124444 0.713797
Si Si4 0.177558 0.138171 0.100094
Si Si5 0.773800 0.483052 0.954466
Si Si6 0.319579 0.536439 0.483319
Si Si7 0.119850 0.794896 0.100200
O O1 0.961940 0.340964 0.392033
O O2 0.481153 0.314436 0.500816
O O3 0.157964 0.008486 0.586353
O O4 0.000000 0.000000 0.500000
O O5 0.907736 0.781945 0.794627
O O6 0.751770 0.655003 0.848646
O O7 0.626433 0.002495 0.671254
O O8 0.700464 0.346749 0.656347
O O9 0.014490 0.139272 0.767793
O O10 0.854081 0.007207 0.825424
O O11 0.974174 0.337473 0.024102
O O12 0.500000 0.000000 0.000000
O O13 0.901591 0.321762 0.896313
O O14 0.453116 0.619281 0.053375
O O15 0.500000 0.500000 0.500000
O O16 0.000000 0.000000 0.000000
#
# Coordination Sequence:
#
# PCOD9054564 Si02
#       7
#     2   2   2   2   2   2   2
#     4  11  21  36  61  93 128 173 208 266 326 391
#     4  11  24  40  62 100 136 161 215 269 338 393
#     4  11  23  40  65  96 127 169 226 260 326 394
#     4  12  24  38  66 103 138 167 206 279 342 397
#     4  11  27  42  66  98 131 181 220 266 334 387
#     4  11  21  37  65  92 132 173 206 270 330 395
#     4  11  25  47  68  90 132 184 227 269 312 391
#
# _framework density 20.992284000000001
#
# number of rings (size 3 to 8) (size 9 to 14) (size 15 to 20)
#    0.000    0.857    5.714    1.286    8.000    0.000 
#    0.000    2.857    0.000    5.143    0.000    0.000 
#    0.000    0.000    0.000    0.000    0.000    0.000 
#
# Total GULP energy -78061.836837 kJ/mol
# GULP energy per Si atom -5575.845488 kJ/mol
# Density = 2.094450 g / cm^3
# Si number density = 20.992284 Si / 1000 Ang^3
#
#
#
# Elastic Constant Matrix: (Units=GPa)
#
#
# Indices 1 2 3 4 5 6 
#
# 1 25.8338 17.3811 23.2880 1.3964 13.1050 8.9942
# 2 17.3811 117.8614 34.0071 -16.2273 10.5344 14.2619
# 3 23.2880 34.0071 110.7795 -13.7260 21.8040 11.3736
# 4 1.3964 -16.2273 -13.7260 47.0966 13.6345 2.2006
# 5 13.1050 10.5344 21.8040 13.6345 34.6922 3.3312
# 6 8.9942 14.2619 11.3736 2.2006 3.3312 40.6267
#
#
#
# Elastic Compliance Matrix: (Units=1/GPa)
#
#
# Indices 1 2 3 4 5 6 
#
# 1 0.058800 -0.004284 -0.007238 -0.000493 -0.015381 -0.008199
# 2 -0.004284 0.010519 -0.001099 0.004214 -0.002304 -0.002476
# 3 -0.007238 -0.001099 0.013227 0.005909 -0.007431 -0.001426
# 4 -0.000493 0.004214 0.005909 0.029197 -0.015965 -0.003297
# 5 -0.015381 -0.002304 -0.007431 -0.015965 0.045954 0.003391
# 6 -0.008199 -0.002476 -0.001426 -0.003297 0.003391 0.027598
#
#
# Mechanical properties :
#
#
# Convention : Reuss Voigt Hill
#
# Bulk Modulus (GPa) = 17.45063 44.86968 31.16015
# Shear Modulus (GPa) = 21.77349 36.46966 29.12157
#
# Velocity S-wave (km/s) = 3.22407 4.17260 3.72862
# Velocity P-wave (km/s) = 4.71068 6.68094 5.78037
#
# Compressibility (1/GPa) = 0.05730454
#
# Stress axis : x y z
#
# Youngs Moduli (GPa) = 17.00694 95.06615 75.60444
#
# Poissons Ratio (x) = 0.40724 0.54720
# Poissons Ratio (y) = 0.07285 0.08308
# Poissons Ratio (z) = 0.12309 0.10447
#
# Static dielectric constant tensor:
#      x y z
#    x 1.761310 -0.029170 -0.009360 
#    y -0.029170 1.886260 -0.004760 
#    z -0.009360 -0.004760 1.714850 
# 
# From -- ./inp_files/516782.got.cif
#   From: 2010.05.17/outbox.cif.g08.bks.cpg/sg2_259_cif.got.tgz:516782.got - 2010.06.03 11:33:40.
