data_PCOD9054041
_publ_section_title
;
Structure prediction by ZEFSAII (Michael W. Deem and Ramdas Pophale) SiO2 
 PCOD9054041
Probable space group: P -1
;
_chemical_formula_sum "Si O2"
_cell_formula_units_Z 16
_cell_length_a 14.660084
_cell_length_b 5.628766
_cell_length_c 23.313436
_cell_angle_alpha 97.552360
_cell_angle_beta 21.897737
_cell_angle_gamma 97.797266
_cell_volume 710.762999
_symmetry_space_group_name_H-M "P -1"
_symmetry_group_IT_number 2
_symmetry_cell_setting 'triclinic'
loop_
_space_group_symop_operation_xyz
x,y,z
-x,-y,-z
loop_
_atom_site_type_symbol
_atom_site_label
_atom_site_fract_x
_atom_site_fract_y
_atom_site_fract_z
Si Si1 0.475404 0.712954 0.796980
Si Si2 0.874575 0.683573 0.035637
Si Si3 0.282522 0.996003 0.758093
Si Si4 0.746435 0.883024 0.537812
Si Si5 0.182166 0.569728 0.243045
Si Si6 0.085627 0.886684 0.105403
Si Si7 0.244197 0.416954 0.071291
Si Si8 0.042225 0.289268 0.423446
O O1 0.350169 0.449628 0.869942
O O2 0.581761 0.712597 0.670615
O O3 0.692498 0.790434 0.715216
O O4 0.255404 0.879328 0.948433
O O5 0.765271 0.871455 0.149452
O O6 0.000000 0.500000 0.000000
O O7 0.092991 0.769042 0.868856
O O8 0.567070 0.945009 0.592897
O O9 0.186930 0.133389 0.762779
O O10 0.001992 0.787979 0.363443
O O11 0.825848 0.093305 0.542404
O O12 0.186679 0.482108 0.172804
O O13 0.059791 0.377101 0.351246
O O14 0.460547 0.608317 0.103689
O O15 0.158874 0.653828 0.092826
O O16 0.131986 0.149418 0.114601
O O17 0.000000 0.500000 0.500000
#
# Coordination Sequence:
#
# PCOD9054041 Si02
#       8
#     2   2   2   2   2   2   2   2
#     4  12  22  40  70 106 146 179 238 296 359 432
#     4  11  20  40  63 101 149 195 235 286 363 424
#     4  11  24  39  67 102 144 196 237 292 356 437
#     4  12  26  43  66 106 152 187 228 291 381 438
#     4  11  27  48  71 101 138 193 234 302 367 422
#     4  12  25  45  75 107 136 188 250 302 345 419
#     4  11  28  49  78 100 140 186 256 306 349 416
#     4  12  25  41  68 106 142 184 226 296 366 438
#
# _framework density 22.511019000000001
#
# number of rings (size 3 to 8) (size 9 to 14) (size 15 to 20)
#    0.000    0.500    5.000    3.375    3.500    1.000 
#    0.000    1.250    0.000    0.000    0.000    0.000 
#    0.000    0.000    0.000    0.000    0.000    0.000 
#
# Total GULP energy -89331.406603 kJ/mol
# GULP energy per Si atom -5583.212913 kJ/mol
# Density = 2.245978 g / cm^3
# Si number density = 22.511019 Si / 1000 Ang^3
#
#
#
# Elastic Constant Matrix: (Units=GPa)
#
#
# Indices 1 2 3 4 5 6 
#
# 1 135.8258 53.9147 49.7916 8.6119 -22.3271 -7.6160
# 2 53.9147 104.2181 40.7422 1.9070 -13.1020 7.5561
# 3 49.7916 40.7422 84.0760 9.7101 -24.5756 -8.0724
# 4 8.6119 1.9070 9.7101 32.1376 -1.9468 -10.3989
# 5 -22.3271 -13.1020 -24.5756 -1.9468 49.3157 3.5574
# 6 -7.6160 7.5561 -8.0724 -10.3989 3.5574 33.7336
#
#
#
# Elastic Compliance Matrix: (Units=1/GPa)
#
#
# Indices 1 2 3 4 5 6 
#
# 1 0.010753 -0.004070 -0.003574 -0.000786 0.001827 0.002049
# 2 -0.004070 0.013976 -0.004928 0.000059 -0.000209 -0.005189
# 3 -0.003574 -0.004928 0.018845 -0.003029 0.006111 0.003228
# 4 -0.000786 0.000059 -0.003029 0.035447 -0.001182 0.010136
# 5 0.001827 -0.000209 0.006111 -0.001182 0.024119 -0.000986
# 6 0.002049 -0.005189 0.003228 0.010136 -0.000986 0.035270
#
#
# Mechanical properties :
#
#
# Convention : Reuss Voigt Hill
#
# Bulk Modulus (GPa) = 54.26241 68.11299 61.18770
# Shear Modulus (GPa) = 29.46381 35.01547 32.23964
#
# Velocity S-wave (km/s) = 3.62174 3.94824 3.78851
# Velocity P-wave (km/s) = 6.45341 7.14899 6.81009
#
# Compressibility (1/GPa) = 0.01842896
#
# Stress axis : x y z
#
# Youngs Moduli (GPa) = 92.99406 71.54933 53.06398
#
# Poissons Ratio (x) = 0.29121 0.18967
# Poissons Ratio (y) = 0.37850 0.26152
# Poissons Ratio (z) = 0.33240 0.35262
#
# Static dielectric constant tensor:
#      x y z
#    x 1.864900 -0.048250 -0.053570 
#    y -0.048250 1.976070 0.011710 
#    z -0.053570 0.011710 1.860170 
# 
# From -- ./inp_files/611294.got.cif
#   From: 2010.05.17/outbox.cif.g08.bks.cpg/sg2_306_cif.got.tgz:611294.got - 2010.06.03 11:33:40.
