data_PCOD9054625
_publ_section_title
;
Structure prediction by ZEFSAII (Michael W. Deem and Ramdas Pophale) SiO2 
 PCOD9054625
Probable space group: P -1
;
_chemical_formula_sum "Si O2"
_cell_formula_units_Z 16
_cell_length_a 11.524727
_cell_length_b 14.580426
_cell_length_c 9.192251
_cell_angle_alpha 131.927376
_cell_angle_beta 39.729453
_cell_angle_gamma 127.317931
_cell_volume 720.533706
_symmetry_space_group_name_H-M "P -1"
_symmetry_group_IT_number 2
_symmetry_cell_setting 'triclinic'
loop_
_space_group_symop_operation_xyz
x,y,z
-x,-y,-z
loop_
_atom_site_type_symbol
_atom_site_label
_atom_site_fract_x
_atom_site_fract_y
_atom_site_fract_z
Si Si1 0.429983 0.605374 0.273431
Si Si2 0.365444 0.771283 0.953689
Si Si3 0.806911 0.501999 0.111895
Si Si4 0.685719 0.753222 0.432872
Si Si5 0.042314 0.557984 0.677594
Si Si6 0.207945 0.004452 0.859914
Si Si7 0.082708 0.834013 0.060151
Si Si8 0.577286 0.179762 0.711709
O O1 0.578300 0.690594 0.326483
O O2 0.255859 0.544650 0.479225
O O3 0.369336 0.698369 0.311668
O O4 0.500000 0.500000 0.000000
O O5 0.333808 0.619291 0.829174
O O6 0.549501 0.814865 0.728147
O O7 0.197763 0.809488 0.065242
O O8 0.378860 0.809673 0.148838
O O9 0.744876 0.634008 0.329858
O O10 0.000000 0.500000 0.000000
O O11 0.873342 0.492911 0.872220
O O12 0.875199 0.847552 0.312754
O O13 0.053473 0.705817 0.855395
O O14 0.000000 0.500000 0.500000
O O15 0.354528 0.134879 0.862186
O O16 0.189651 0.944524 0.974886
O O17 0.310013 0.919436 0.568556
O O18 0.000000 0.000000 0.000000
#
# Coordination Sequence:
#
# PCOD9054625 Si02
#       8
#     2   2   2   2   2   2   2   2
#     4  12  22  42  66 103 138 179 226 275 336 407
#     4  12  23  43  65  97 141 174 221 280 338 410
#     4  11  21  38  59  95 139 185 214 266 334 397
#     4  11  22  39  64  94 134 183 221 263 339 405
#     4  11  21  37  61  95 135 177 218 272 332 395
#     4  11  25  49  74  96 132 174 236 290 333 398
#     4  11  23  44  66  94 134 176 221 283 336 389
#     4  11  26  45  71 104 131 177 228 285 340 397
#
# _framework density 22.205760999999999
#
# number of rings (size 3 to 8) (size 9 to 14) (size 15 to 20)
#    0.000    0.750    5.000    4.125    0.000    3.500 
#    0.000    1.250    0.000    0.000    0.000    0.000 
#    0.000    0.000    0.000    0.000    0.000    0.000 
#
# Total GULP energy -89415.018073 kJ/mol
# GULP energy per Si atom -5588.438630 kJ/mol
# Density = 2.215522 g / cm^3
# Si number density = 22.205761 Si / 1000 Ang^3
#
#
#
# Elastic Constant Matrix: (Units=GPa)
#
#
# Indices 1 2 3 4 5 6 
#
# 1 113.7530 11.7279 21.0567 -3.5016 4.4210 5.5153
# 2 11.7279 40.0462 4.8247 -14.9646 1.3422 3.9878
# 3 21.0567 4.8247 86.2178 -27.1819 -6.5057 9.0615
# 4 -3.5016 -14.9646 -27.1819 27.1398 6.0797 -6.8455
# 5 4.4210 1.3422 -6.5057 6.0797 31.0333 -12.1063
# 6 5.5153 3.9878 9.0615 -6.8455 -12.1063 23.6574
#
#
#
# Elastic Compliance Matrix: (Units=1/GPa)
#
#
# Indices 1 2 3 4 5 6 
#
# 1 0.009916 -0.003845 -0.003525 -0.004580 -0.002158 -0.002743
# 2 -0.003845 0.035918 0.007408 0.027276 -0.006043 -0.003195
# 3 -0.003525 0.007408 0.019333 0.022763 -0.000888 -0.001700
# 4 -0.004580 0.027276 0.022763 0.077486 -0.008705 0.005717
# 5 -0.002158 -0.006043 -0.000888 -0.008705 0.042549 0.021117
# 6 -0.002743 -0.003195 -0.001700 0.005717 0.021117 0.056560
#
#
# Mechanical properties :
#
#
# Convention : Reuss Voigt Hill
#
# Bulk Modulus (GPa) = 15.32715 35.02618 25.17666
# Shear Modulus (GPa) = 18.98014 29.85994 24.42004
#
# Velocity S-wave (km/s) = 2.92676 3.67098 3.31979
# Velocity P-wave (km/s) = 4.28236 5.81170 5.10463
#
# Compressibility (1/GPa) = 0.06524370
#
# Stress axis : x y z
#
# Youngs Moduli (GPa) = 100.84935 27.84114 51.72491
#
# Poissons Ratio (x) = 0.10705 0.18232
# Poissons Ratio (y) = 0.38777 -0.38320
# Poissons Ratio (z) = 0.35548 -0.20626
#
# Static dielectric constant tensor:
#      x y z
#    x 2.016730 -0.206460 0.195170 
#    y -0.206460 2.119900 -0.280050 
#    z 0.195170 -0.280050 2.038740 
# 
# From -- ./inp_files/272047.got.cif
#   From: 2010.05.17/outbox.cif.g08.bks.cpg/sg2_137_cif.got.tgz:272047.got - 2010.06.03 11:33:40.
