data_PCOD9054005
_publ_section_title
;
Structure prediction by ZEFSAII (Michael W. Deem and Ramdas Pophale) SiO2 
 PCOD9054005
Probable space group: P -1
;
_chemical_formula_sum "Si O2"
_cell_formula_units_Z 16
_cell_length_a 10.554299
_cell_length_b 13.634711
_cell_length_c 9.675521
_cell_angle_alpha 118.791701
_cell_angle_beta 59.405107
_cell_angle_gamma 135.184084
_cell_volume 827.903352
_symmetry_space_group_name_H-M "P -1"
_symmetry_group_IT_number 2
_symmetry_cell_setting 'triclinic'
loop_
_space_group_symop_operation_xyz
x,y,z
-x,-y,-z
loop_
_atom_site_type_symbol
_atom_site_label
_atom_site_fract_x
_atom_site_fract_y
_atom_site_fract_z
Si Si1 0.304404 0.894257 0.958235
Si Si2 0.905025 0.074605 0.106095
Si Si3 0.750121 0.623797 0.817779
Si Si4 0.721065 0.284436 0.408665
Si Si5 0.034682 0.384196 0.537703
Si Si6 0.565516 0.345786 0.915051
Si Si7 0.870381 0.348768 0.896826
Si Si8 0.587483 0.916579 0.375261
O O1 0.228148 0.971698 0.984069
O O2 0.299916 0.813354 0.769782
O O3 0.173822 0.772103 0.057437
O O4 0.500000 0.000000 0.000000
O O5 0.069349 0.242491 0.114483
O O6 0.797792 0.035895 0.286860
O O7 0.000000 0.000000 0.000000
O O8 0.685151 0.478224 0.829764
O O9 0.826033 0.636159 0.630087
O O10 0.586267 0.638507 0.930150
O O11 0.857863 0.316309 0.484363
O O12 0.506956 0.193543 0.518895
O O13 0.833080 0.444737 0.404607
O O14 0.949050 0.330796 0.700109
O O15 0.693946 0.343871 0.952549
O O16 0.476091 0.198467 0.787054
O O17 0.000000 0.500000 0.000000
O O18 0.500000 0.000000 0.500000
#
# Coordination Sequence:
#
# PCOD9054005 Si02
#       8
#     2   2   2   2   2   2   2   2
#     4  12  26  41  65 101 142 178 218 284 351 405
#     4  12  25  42  66 100 134 181 227 280 335 410
#     4  11  22  40  69  97 134 168 242 275 336 390
#     4  11  21  38  66  99 130 170 239 282 323 397
#     4  11  20  39  69  99 126 174 236 285 321 407
#     4  11  23  40  65 103 129 179 220 291 329 409
#     4  12  24  41  66  97 140 174 224 275 355 397
#     4  12  21  37  67  99 129 167 234 281 325 386
#
# _framework density 19.325928000000001
#
# number of rings (size 3 to 8) (size 9 to 14) (size 15 to 20)
#    0.000    0.500    7.500    2.250    0.000    0.000 
#    0.000    0.625    2.750    1.500    0.000    0.000 
#    0.000    0.000    0.000    0.000    0.000    0.000 
#
# Total GULP energy -89114.053952 kJ/mol
# GULP energy per Si atom -5569.628372 kJ/mol
# Density = 1.928194 g / cm^3
# Si number density = 19.325928 Si / 1000 Ang^3
#
#
#
# Elastic Constant Matrix: (Units=GPa)
#
#
# Indices 1 2 3 4 5 6 
#
# 1 87.4509 22.7278 50.0883 -6.7711 -8.1016 -3.9216
# 2 22.7278 110.2787 27.7395 -7.8560 2.0376 -0.6948
# 3 50.0883 27.7395 125.4388 -17.8059 -4.0816 1.4789
# 4 -6.7711 -7.8560 -17.8059 52.5511 0.6567 0.5128
# 5 -8.1016 2.0376 -4.0816 0.6567 33.7080 -1.3344
# 6 -3.9216 -0.6948 1.4789 0.5128 -1.3344 23.2325
#
#
#
# Elastic Compliance Matrix: (Units=1/GPa)
#
#
# Indices 1 2 3 4 5 6 
#
# 1 0.015671 -0.001827 -0.005826 -0.000300 0.003302 0.003158
# 2 -0.001827 0.009870 -0.001381 0.000788 -0.001219 -0.000013
# 3 -0.005826 -0.001381 0.011018 0.002795 -0.000108 -0.001794
# 4 -0.000300 0.000788 0.002795 0.020064 -0.000198 -0.000659
# 5 0.003302 -0.001219 -0.000108 -0.000198 0.030615 0.002291
# 6 0.003158 -0.000013 -0.001794 -0.000659 0.002291 0.043836
#
#
# Mechanical properties :
#
#
# Convention : Reuss Voigt Hill
#
# Bulk Modulus (GPa) = 54.07715 58.25331 56.16523
# Shear Modulus (GPa) = 32.19450 36.73919 34.46684
#
# Velocity S-wave (km/s) = 4.08594 4.36481 4.22767
# Velocity P-wave (km/s) = 7.09241 7.45722 7.27710
#
# Compressibility (1/GPa) = 0.01849210
#
# Stress axis : x y z
#
# Youngs Moduli (GPa) = 63.81272 101.31364 90.75986
#
# Poissons Ratio (x) = 0.18507 0.52875
# Poissons Ratio (y) = 0.11657 0.12534
# Poissons Ratio (z) = 0.37176 0.13992
#
# Static dielectric constant tensor:
#      x y z
#    x 1.684410 0.013650 -0.030970 
#    y 0.013650 1.779350 0.003500 
#    z -0.030970 0.003500 1.694990 
# 
# From -- ./inp_files/274038.got.cif
#   From: 2010.05.17/outbox.cif.g08.bks.cpg/sg2_138_cif.got.tgz:274038.got - 2010.06.03 11:33:40.
