data_PCOD9054530
_publ_section_title
;
Structure prediction by ZEFSAII (Michael W. Deem and Ramdas Pophale) SiO2 
 PCOD9054530
Probable space group: P -1
;
_chemical_formula_sum "Si O2"
_cell_formula_units_Z 14
_cell_length_a 10.534501
_cell_length_b 5.162796
_cell_length_c 12.331150
_cell_angle_alpha 98.620596
_cell_angle_beta 123.236659
_cell_angle_gamma 71.293526
_cell_volume 531.032821
_symmetry_space_group_name_H-M "P -1"
_symmetry_group_IT_number 2
_symmetry_cell_setting 'triclinic'
loop_
_space_group_symop_operation_xyz
x,y,z
-x,-y,-z
loop_
_atom_site_type_symbol
_atom_site_label
_atom_site_fract_x
_atom_site_fract_y
_atom_site_fract_z
Si Si1 0.857877 0.395632 0.284373
Si Si2 0.733542 0.345457 0.752510
Si Si3 0.411173 0.684572 0.713040
Si Si4 0.602204 0.001290 0.941542
Si Si5 0.192545 0.598714 0.979487
Si Si6 0.848596 0.864744 0.466615
Si Si7 0.685528 0.835075 0.592442
O O1 0.681452 0.381126 0.229888
O O2 0.898455 0.350193 0.174170
O O3 0.862929 0.687739 0.352666
O O4 0.981304 0.174012 0.402519
O O5 0.551690 0.438286 0.718294
O O6 0.726111 0.591496 0.682615
O O7 0.762281 0.064022 0.686837
O O8 0.849322 0.314542 0.909477
O O9 0.497139 0.919474 0.793824
O O10 0.271308 0.835366 0.577036
O O11 0.748837 0.729020 0.004495
O O12 0.500000 0.000000 0.000000
O O13 0.667187 0.258074 0.969462
O O14 0.762380 0.724502 0.506768
O O15 0.500000 0.000000 0.500000
#
# Coordination Sequence:
#
# PCOD9054530 Si02
#       7
#     2   2   2   2   2   2   2
#     4  11  25  44  65 100 137 183 220 275 344 409
#     4  11  25  41  71 102 130 174 224 282 336 388
#     4  11  22  38  68  99 137 167 222 284 340 397
#     4  11  21  35  63  98 133 171 210 272 340 395
#     4  11  24  42  65 100 138 171 222 278 337 399
#     4  11  26  43  68  96 137 182 229 274 335 407
#     4  12  24  46  68  99 134 174 230 279 329 391
#
# _framework density 26.363721000000002
#
# number of rings (size 3 to 8) (size 9 to 14) (size 15 to 20)
#    0.000    0.857    2.857    4.714    8.000    0.000 
#    0.000    1.429    0.000    0.000    0.000    0.000 
#    0.000    0.000    0.000    0.000    0.000    0.000 
#
# Total GULP energy -78348.989875 kJ/mol
# GULP energy per Si atom -5596.356420 kJ/mol
# Density = 2.630372 g / cm^3
# Si number density = 26.363721 Si / 1000 Ang^3
#
#
#
# Elastic Constant Matrix: (Units=GPa)
#
#
# Indices 1 2 3 4 5 6 
#
# 1 71.8338 19.5851 15.8635 0.8816 0.7903 7.1589
# 2 19.5851 110.3805 55.9358 -0.1519 -4.2902 10.6075
# 3 15.8635 55.9358 148.4276 6.3947 -14.0921 2.1287
# 4 0.8816 -0.1519 6.3947 36.9015 -4.5996 -5.9943
# 5 0.7903 -4.2902 -14.0921 -4.5996 38.0142 -13.5125
# 6 7.1589 10.6075 2.1287 -5.9943 -13.5125 34.7578
#
#
#
# Elastic Compliance Matrix: (Units=1/GPa)
#
#
# Indices 1 2 3 4 5 6 
#
# 1 0.015054 -0.001911 -0.001010 -0.001049 -0.002283 -0.003524
# 2 -0.001911 0.011896 -0.004373 0.000095 -0.001482 -0.003529
# 3 -0.001010 -0.004373 0.008825 -0.000722 0.003508 0.002242
# 4 -0.001049 0.000095 -0.000722 0.029234 0.006007 0.007608
# 5 -0.002283 -0.001482 0.003508 0.006007 0.033457 0.014750
# 6 -0.003524 -0.003529 0.002242 0.007608 0.014750 0.037482
#
#
# Mechanical properties :
#
#
# Convention : Reuss Voigt Hill
#
# Bulk Modulus (GPa) = 47.19594 57.04566 52.12080
# Shear Modulus (GPa) = 31.72599 37.88521 34.80560
#
# Velocity S-wave (km/s) = 3.47276 3.79492 3.63741
# Velocity P-wave (km/s) = 5.83274 6.39428 6.11995
#
# Compressibility (1/GPa) = 0.02118826
#
# Stress axis : x y z
#
# Youngs Moduli (GPa) = 66.42665 84.05909 113.31055
#
# Poissons Ratio (x) = 0.16063 0.11442
# Poissons Ratio (y) = 0.12694 0.49552
# Poissons Ratio (z) = 0.06708 0.36760
#
# Static dielectric constant tensor:
#      x y z
#    x 2.149270 0.046750 -0.005220 
#    y 0.046750 2.035040 -0.014170 
#    z -0.005220 -0.014170 2.157350 
# 
# From -- ./inp_files/76750.got.cif
#   From: 2010.05.17/outbox.cif.g08.bks.cpg/sg2_39_cif.got.tgz:76750.got - 2010.06.03 11:33:40.
