data_PCOD9054794
_publ_section_title
;
Structure prediction by ZEFSAII (Michael W. Deem and Ramdas Pophale) SiO2 
 PCOD9054794
Probable space group: P -1
;
_chemical_formula_sum "Si O2"
_cell_formula_units_Z 16
_cell_length_a 14.121787
_cell_length_b 10.642730
_cell_length_c 16.901881
_cell_angle_alpha 51.707957
_cell_angle_beta 155.334410
_cell_angle_gamma 111.613908
_cell_volume 668.927199
_symmetry_space_group_name_H-M "P -1"
_symmetry_group_IT_number 2
_symmetry_cell_setting 'triclinic'
loop_
_space_group_symop_operation_xyz
x,y,z
-x,-y,-z
loop_
_atom_site_type_symbol
_atom_site_label
_atom_site_fract_x
_atom_site_fract_y
_atom_site_fract_z
Si Si1 0.642014 0.480596 0.699993
Si Si2 0.199006 0.147589 0.864590
Si Si3 0.162008 0.582062 0.816756
Si Si4 0.968172 0.905305 0.411086
Si Si5 0.792802 0.469539 0.527184
Si Si6 0.695108 0.831205 0.649083
Si Si7 0.438712 0.330792 0.888735
Si Si8 0.714636 0.925290 0.449412
O O1 0.500000 0.500000 0.500000
O O2 0.459969 0.458764 0.633908
O O3 0.623754 0.674325 0.638099
O O4 0.974484 0.298907 0.024340
O O5 0.246754 0.314870 0.810211
O O6 0.155630 0.087370 0.770745
O O7 0.926634 0.256769 0.670822
O O8 0.462743 0.975000 0.181907
O O9 0.043319 0.728093 0.593776
O O10 0.057890 0.445656 0.780039
O O11 0.995144 0.712934 0.717267
O O12 0.477344 0.521181 0.085662
O O13 0.226829 0.914694 0.588078
O O14 0.726514 0.108250 0.192373
O O15 0.674252 0.620414 0.304825
O O16 0.661417 0.926612 0.500380
O O17 0.500000 0.000000 0.500000
#
# Coordination Sequence:
#
# PCOD9054794 Si02
#       8
#     2   2   2   2   2   2   2   2
#     4  11  27  54  77 108 149 187 246 317 374 435
#     4  12  24  38  62 101 141 181 227 284 342 427
#     4  11  21  40  66  93 137 187 226 277 350 426
#     4  11  21  38  65  95 135 179 234 285 334 422
#     4  12  27  40  64 100 140 183 226 290 362 419
#     4  11  28  52  82 109 140 191 253 311 371 441
#     4  11  21  41  62  94 139 185 230 276 346 416
#     4  11  23  43  68 100 132 182 236 288 355 422
#
# _framework density 23.918894999999999
#
# number of rings (size 3 to 8) (size 9 to 14) (size 15 to 20)
#    0.000    0.750    3.750    4.500    3.500    4.000 
#    0.000    0.000    0.000    0.000    0.000    0.000 
#    0.000    0.000    0.000    0.000    0.000    0.000 
#
# Total GULP energy -89560.791780 kJ/mol
# GULP energy per Si atom -5597.549486 kJ/mol
# Density = 2.386445 g / cm^3
# Si number density = 23.918895 Si / 1000 Ang^3
#
#
#
# Elastic Constant Matrix: (Units=GPa)
#
#
# Indices 1 2 3 4 5 6 
#
# 1 164.1604 46.2973 53.0813 6.6963 6.4724 -30.5856
# 2 46.2973 102.4460 43.3813 16.7951 9.0702 -23.0226
# 3 53.0813 43.3813 85.3564 25.7263 -4.0690 -16.4816
# 4 6.6963 16.7951 25.7263 38.8519 -11.1901 0.4294
# 5 6.4724 9.0702 -4.0690 -11.1901 35.2571 1.5074
# 6 -30.5856 -23.0226 -16.4816 0.4294 1.5074 34.2520
#
#
#
# Elastic Compliance Matrix: (Units=1/GPa)
#
#
# Indices 1 2 3 4 5 6 
#
# 1 0.008768 -0.001017 -0.004439 0.001336 -0.001653 0.005066
# 2 -0.001017 0.015184 -0.004278 -0.005444 -0.006265 0.007583
# 3 -0.004439 -0.004278 0.020557 -0.010826 0.000717 0.003156
# 4 0.001336 -0.005444 -0.010826 0.038749 0.012577 -0.008715
# 5 -0.001653 -0.006265 0.000717 0.012577 0.034653 -0.007025
# 6 0.005066 0.007583 0.003156 -0.008715 -0.007025 0.040754
#
#
# Mechanical properties :
#
#
# Convention : Reuss Voigt Hill
#
# Bulk Modulus (GPa) = 39.93493 70.83140 55.38316
# Shear Modulus (GPa) = 26.81241 35.61904 31.21573
#
# Velocity S-wave (km/s) = 3.35172 3.86315 3.61649
# Velocity P-wave (km/s) = 5.63125 7.04102 6.37522
#
# Compressibility (1/GPa) = 0.02504074
#
# Stress axis : x y z
#
# Youngs Moduli (GPa) = 114.04563 65.85985 48.64488
#
# Poissons Ratio (x) = 0.06697 0.21594
# Poissons Ratio (y) = 0.11597 0.20811
# Poissons Ratio (z) = 0.50627 0.28176
#
# Static dielectric constant tensor:
#      x y z
#    x 1.862630 0.010930 0.017920 
#    y 0.010930 2.025650 0.019860 
#    z 0.017920 0.019860 1.940670 
# 
# From -- ./inp_files/519648.got.cif
#   From: 2010.05.17/outbox.cif.g08.bks.cpg/sg2_260_cif.got.tgz:519648.got - 2010.06.03 11:33:40.
