data_PCOD9054455
_publ_section_title
;
Structure prediction by ZEFSAII (Michael W. Deem and Ramdas Pophale) SiO2 
 PCOD9054455
Probable space group: P -1
;
_chemical_formula_sum "Si O2"
_cell_formula_units_Z 14
_cell_length_a 8.527503
_cell_length_b 10.499171
_cell_length_c 9.892169
_cell_angle_alpha 120.615308
_cell_angle_beta 42.912145
_cell_angle_gamma 115.073194
_cell_volume 517.015506
_symmetry_space_group_name_H-M "P -1"
_symmetry_group_IT_number 2
_symmetry_cell_setting 'triclinic'
loop_
_space_group_symop_operation_xyz
x,y,z
-x,-y,-z
loop_
_atom_site_type_symbol
_atom_site_label
_atom_site_fract_x
_atom_site_fract_y
_atom_site_fract_z
Si Si1 0.885872 0.001207 0.429274
Si Si2 0.378302 0.708697 0.250660
Si Si3 0.821754 0.266271 0.252155
Si Si4 0.240112 0.299218 0.787950
Si Si5 0.779624 0.621835 0.758542
Si Si6 0.693567 0.071409 0.016569
Si Si7 0.428282 0.608666 0.741394
O O1 0.738689 0.140105 0.605637
O O2 0.086826 0.017889 0.199365
O O3 0.790377 0.831555 0.371580
O O4 0.000000 0.000000 0.500000
O O5 0.516423 0.723557 0.310610
O O6 0.236734 0.546210 0.258753
O O7 0.575636 0.697527 0.006376
O O8 0.631723 0.375193 0.373685
O O9 0.965009 0.306640 0.320516
O O10 0.043717 0.280533 0.016757
O O11 0.698500 0.104555 0.194070
O O12 0.266995 0.467902 0.816201
O O13 0.678393 0.618829 0.666196
O O14 0.500000 0.000000 0.000000
O O15 0.687418 0.241466 0.059135
#
# Coordination Sequence:
#
# PCOD9054455 Si02
#       7
#     2   2   2   2   2   2   2
#     4  11  21  28  51  80 105 133 166 216 258 298
#     4   9  18  28  45  74 108 130 158 214 258 307
#     4   8  17  27  52  72  98 132 171 208 248 302
#     4   9  17  30  46  74 102 131 163 211 263 295
#     4   9  16  30  49  76 101 133 171 205 256 306
#     4   9  20  36  51  72 105 142 171 206 257 304
#     4   9  17  29  53  70  99 132 175 207 243 311
#
# _framework density 27.078491
#
# number of rings (size 3 to 8) (size 9 to 14) (size 15 to 20)
#    0.857    2.000    0.000    2.571    2.000    0.000 
#    0.000    0.714    0.000    6.857    0.000    0.000 
#    0.000    0.000    0.000    0.000    0.000    0.000 
#
# Total GULP energy -78090.560791 kJ/mol
# GULP energy per Si atom -5577.897199 kJ/mol
# Density = 2.701686 g / cm^3
# Si number density = 27.078491 Si / 1000 Ang^3
#
#
#
# Elastic Constant Matrix: (Units=GPa)
#
#
# Indices 1 2 3 4 5 6 
#
# 1 212.3488 51.6884 39.6441 25.7903 3.3447 29.7075
# 2 51.6884 91.6914 42.4700 30.1179 -6.4935 20.4608
# 3 39.6441 42.4700 120.6891 16.2462 -1.2815 7.3488
# 4 25.7903 30.1179 16.2462 41.6970 2.0190 1.8333
# 5 3.3447 -6.4935 -1.2815 2.0190 58.7570 12.9756
# 6 29.7075 20.4608 7.3488 1.8333 12.9756 48.0393
#
#
#
# Elastic Compliance Matrix: (Units=1/GPa)
#
#
# Indices 1 2 3 4 5 6 
#
# 1 0.005906 -0.001600 -0.000934 -0.002018 0.000153 -0.002792
# 2 -0.001600 0.019420 -0.004306 -0.011239 0.004145 -0.007313
# 3 -0.000934 -0.004306 0.010078 -0.000263 -0.000413 0.000991
# 4 -0.002018 -0.011239 -0.000263 0.033369 -0.003552 0.005761
# 5 0.000153 0.004145 -0.000413 -0.003552 0.019087 -0.006816
# 6 -0.002792 -0.007313 0.000991 0.005761 -0.006816 0.027128
#
#
# Mechanical properties :
#
#
# Convention : Reuss Voigt Hill
#
# Bulk Modulus (GPa) = 46.03060 76.92604 61.47832
# Shear Modulus (GPa) = 36.78912 49.09379 42.94145
#
# Velocity S-wave (km/s) = 3.68993 4.26257 3.98655
# Velocity P-wave (km/s) = 5.93211 7.25922 6.62896
#
# Compressibility (1/GPa) = 0.02172468
#
# Stress axis : x y z
#
# Youngs Moduli (GPa) = 169.30706 51.49404 99.22308
#
# Poissons Ratio (x) = 0.08241 0.09264
# Poissons Ratio (y) = 0.27095 0.42724
# Poissons Ratio (z) = 0.15808 0.22173
#
# Static dielectric constant tensor:
#      x y z
#    x 2.185260 0.018180 -0.017730 
#    y 0.018180 2.422460 0.271580 
#    z -0.017730 0.271580 2.118040 
# 
# From -- ./inp_files/431428.got.cif
#   From: 2010.05.17/outbox.cif.g08.bks.cpg/sg2_216_cif.got.tgz:431428.got - 2010.06.03 11:33:40.
