data_PCOD9054126
_publ_section_title
;
Structure prediction by ZEFSAII (Michael W. Deem and Ramdas Pophale) SiO2 
 PCOD9054126
Probable space group: P -1
;
_chemical_formula_sum "Si O2"
_cell_formula_units_Z 14
_cell_length_a 13.930885
_cell_length_b 14.808776
_cell_length_c 11.210308
_cell_angle_alpha 61.492233
_cell_angle_beta 146.699763
_cell_angle_gamma 142.854547
_cell_volume 629.998350
_symmetry_space_group_name_H-M "P -1"
_symmetry_group_IT_number 2
_symmetry_cell_setting 'triclinic'
loop_
_space_group_symop_operation_xyz
x,y,z
-x,-y,-z
loop_
_atom_site_type_symbol
_atom_site_label
_atom_site_fract_x
_atom_site_fract_y
_atom_site_fract_z
Si Si1 0.311772 0.578219 0.288031
Si Si2 0.957191 0.861244 0.014425
Si Si3 0.707794 0.047153 0.925977
Si Si4 0.462805 0.500265 0.099333
Si Si5 0.522963 0.161801 0.546740
Si Si6 0.134851 0.657427 0.460908
Si Si7 0.790181 0.700369 0.535177
O O1 0.520615 0.757388 0.471404
O O2 0.517246 0.638998 0.349315
O O3 0.246752 0.436644 0.372993
O O4 0.000000 0.500000 0.000000
O O5 0.054330 0.879129 0.972523
O O6 0.228058 0.952948 0.326720
O O7 0.640963 0.657878 0.852833
O O8 0.000000 0.000000 0.000000
O O9 0.692700 0.160391 0.806265
O O10 0.382181 0.835061 0.692218
O O11 0.873287 0.106024 0.186395
O O12 0.740501 0.677848 0.355682
O O13 0.500000 0.500000 0.000000
O O14 0.164753 0.427601 0.843349
O O15 0.687379 0.275112 0.522454
O O16 0.000000 0.500000 0.500000
#
# Coordination Sequence:
#
# PCOD9054126 Si02
#       7
#     2   2   2   2   2   2   2
#     4  11  21  37  70 105 142 171 222 290 349 393
#     4  11  21  38  67  99 131 176 229 279 336 399
#     4  11  21  44  71  98 136 171 234 296 329 399
#     4  12  26  44  65  98 141 180 225 282 343 422
#     4  11  20  40  70 101 129 176 233 284 336 398
#     4  11  25  44  68  97 140 187 226 279 347 414
#     4  11  24  42  66 105 139 174 230 287 341 406
#
# _framework density 22.222282
#
# number of rings (size 3 to 8) (size 9 to 14) (size 15 to 20)
#    0.000    0.857    4.286    5.143    6.000    0.000 
#    0.000    1.429    3.143    0.000    0.000    0.000 
#    0.000    0.000    0.000    0.000    0.000    0.000 
#
# Total GULP energy -78073.087549 kJ/mol
# GULP energy per Si atom -5576.649111 kJ/mol
# Density = 2.217170 g / cm^3
# Si number density = 22.222282 Si / 1000 Ang^3
#
#
#
# Elastic Constant Matrix: (Units=GPa)
#
#
# Indices 1 2 3 4 5 6 
#
# 1 78.8841 22.1280 45.4600 -2.0808 -21.7574 -23.2981
# 2 22.1280 99.9436 25.3897 -1.8187 -3.8927 -12.8152
# 3 45.4600 25.3897 146.6406 4.7228 -25.6549 -12.9005
# 4 -2.0808 -1.8187 4.7228 29.4216 -18.4508 2.2064
# 5 -21.7574 -3.8927 -25.6549 -18.4508 45.8022 -4.1482
# 6 -23.2981 -12.8152 -12.9005 2.2064 -4.1482 28.1893
#
#
#
# Elastic Compliance Matrix: (Units=1/GPa)
#
#
# Indices 1 2 3 4 5 6 
#
# 1 0.026229 -0.001364 -0.003452 0.011333 0.016884 0.021076
# 2 -0.001364 0.011055 -0.001186 0.000646 0.000190 0.003333
# 3 -0.003452 -0.001186 0.008777 0.000328 0.003407 0.001100
# 4 0.011333 0.000646 0.000328 0.051012 0.027059 0.009799
# 5 0.016884 0.000190 0.003407 0.027059 0.044492 0.020030
# 6 0.021076 0.003333 0.001100 0.009799 0.020030 0.057093
#
#
# Mechanical properties :
#
#
# Convention : Reuss Voigt Hill
#
# Bulk Modulus (GPa) = 29.36144 56.82487 43.09315
# Shear Modulus (GPa) = 22.52097 36.18200 29.35148
#
# Velocity S-wave (km/s) = 3.18691 4.03946 3.63824
# Velocity P-wave (km/s) = 5.17525 6.88352 6.08958
#
# Compressibility (1/GPa) = 0.03405828
#
# Stress axis : x y z
#
# Youngs Moduli (GPa) = 38.12522 90.45338 113.93060
#
# Poissons Ratio (x) = 0.12338 0.39331
# Poissons Ratio (y) = 0.05200 0.13508
# Poissons Ratio (z) = 0.13161 0.10725
#
# Static dielectric constant tensor:
#      x y z
#    x 1.829010 -0.034940 0.020680 
#    y -0.034940 1.769420 -0.026340 
#    z 0.020680 -0.026340 2.146400 
# 
# From -- ./inp_files/455658.got.cif
#   From: 2010.05.17/outbox.cif.g08.bks.cpg/sg2_228_cif.got.tgz:455658.got - 2010.06.03 11:33:40.
