data_PCOD9054751
_publ_section_title
;
Structure prediction by ZEFSAII (Michael W. Deem and Ramdas Pophale) SiO2 
 PCOD9054751
Probable space group: P -1
;
_chemical_formula_sum "Si O2"
_cell_formula_units_Z 14
_cell_length_a 5.834882
_cell_length_b 16.208620
_cell_length_c 14.051158
_cell_angle_alpha 34.938600
_cell_angle_beta 70.498337
_cell_angle_gamma 54.561334
_cell_volume 590.863326
_symmetry_space_group_name_H-M "P -1"
_symmetry_group_IT_number 2
_symmetry_cell_setting 'triclinic'
loop_
_space_group_symop_operation_xyz
x,y,z
-x,-y,-z
loop_
_atom_site_type_symbol
_atom_site_label
_atom_site_fract_x
_atom_site_fract_y
_atom_site_fract_z
Si Si1 0.108138 0.449364 0.227049
Si Si2 0.332252 0.848526 0.122411
Si Si3 0.172243 0.402026 0.473046
Si Si4 0.440053 0.956904 0.199501
Si Si5 0.489722 0.446631 0.761037
Si Si6 0.846446 0.241618 0.088337
Si Si7 0.658608 0.101039 0.409051
O O1 0.015437 0.494880 0.308343
O O2 0.414133 0.262516 0.355626
O O3 0.816585 0.463132 0.223467
O O4 0.135265 0.596859 0.036359
O O5 0.379090 0.863540 0.212144
O O6 0.419727 0.666185 0.241561
O O7 0.524032 0.901971 0.988598
O O8 0.000000 0.000000 0.000000
O O9 0.259338 0.205522 0.645075
O O10 0.457837 0.406477 0.413464
O O11 0.000000 0.500000 0.500000
O O12 0.172294 0.064572 0.205946
O O13 0.718280 0.299601 0.944599
O O14 0.663668 0.198264 0.221549
O O15 0.500000 0.000000 0.500000
O O16 0.000000 0.000000 0.500000
#
# Coordination Sequence:
#
# PCOD9054751 Si02
#       7
#     2   2   2   2   2   2   2
#     4  11  26  48  73 102 150 189 245 307 371 449
#     4  11  21  38  62  98 138 187 235 289 355 435
#     4  11  25  42  66 104 148 192 242 304 364 437
#     4  11  23  38  65  96 142 181 242 297 357 432
#     4  11  24  42  69 103 140 192 242 291 377 435
#     4  11  25  46  73 104 141 188 244 304 371 447
#     4  12  31  53  81 114 146 192 250 313 382 445
#
# _framework density 23.694140999999998
#
# number of rings (size 3 to 8) (size 9 to 14) (size 15 to 20)
#    0.000    0.857    2.857    3.000   12.000    5.143 
#    0.000    0.000    0.000    0.000    0.000    0.000 
#    0.000    0.000    0.000    0.000    0.000    0.000 
#
# Total GULP energy -78104.318014 kJ/mol
# GULP energy per Si atom -5578.879858 kJ/mol
# Density = 2.364021 g / cm^3
# Si number density = 23.694141 Si / 1000 Ang^3
#
#
#
# Elastic Constant Matrix: (Units=GPa)
#
#
# Indices 1 2 3 4 5 6 
#
# 1 55.7211 22.6740 10.4255 -8.5948 -13.7036 -18.5410
# 2 22.6740 107.5120 29.2657 -7.4740 -11.4112 -25.4337
# 3 10.4255 29.2657 114.7746 3.7672 -14.6171 -3.6882
# 4 -8.5948 -7.4740 3.7672 38.6410 -3.1984 10.2971
# 5 -13.7036 -11.4112 -14.6171 -3.1984 26.1288 -7.7383
# 6 -18.5410 -25.4337 -3.6882 10.2971 -7.7383 33.3412
#
#
#
# Elastic Compliance Matrix: (Units=1/GPa)
#
#
# Indices 1 2 3 4 5 6 
#
# 1 0.031776 0.001690 0.000557 0.003049 0.025173 0.023922
# 2 0.001690 0.013697 -0.001994 0.000488 0.009745 0.013279
# 3 0.000557 -0.001994 0.009928 -0.001187 0.005267 0.001476
# 4 0.003049 0.000488 -0.001187 0.028670 0.002801 -0.006268
# 5 0.025173 0.009745 0.005267 0.002801 0.070102 0.037420
# 6 0.023922 0.013279 0.001476 -0.006268 0.037420 0.064209
#
#
# Mechanical properties :
#
#
# Convention : Reuss Voigt Hill
#
# Bulk Modulus (GPa) = 17.88708 44.74867 31.31788
# Shear Modulus (GPa) = 21.14066 33.99839 27.56952
#
# Velocity S-wave (km/s) = 2.99026 3.79210 3.41480
# Velocity P-wave (km/s) = 4.41450 6.17254 5.36601
#
# Compressibility (1/GPa) = 0.05590627
#
# Stress axis : x y z
#
# Youngs Moduli (GPa) = 31.47068 73.00677 100.72736
#
# Poissons Ratio (x) = -0.12336 -0.05614
# Poissons Ratio (y) = -0.05318 0.20088
# Poissons Ratio (z) = -0.01754 0.14560
#
# Static dielectric constant tensor:
#      x y z
#    x 2.150830 -0.022860 0.058570 
#    y -0.022860 1.914210 -0.012320 
#    z 0.058570 -0.012320 1.910720 
# 
# From -- ./inp_files/33561.got.cif
#   From: 2010.05.17/outbox.cif.g08.bks.cpg/sg2_17_cif.got.tgz:33561.got - 2010.06.03 11:33:40.
