data_PCOD9054298
_publ_section_title
;
Structure prediction by ZEFSAII (Michael W. Deem and Ramdas Pophale) SiO2 
 PCOD9054298
Probable space group: P -1
;
_chemical_formula_sum "Si O2"
_cell_formula_units_Z 14
_cell_length_a 9.199803
_cell_length_b 27.650814
_cell_length_c 8.967158
_cell_angle_alpha 31.922756
_cell_angle_beta 134.694948
_cell_angle_gamma 151.142071
_cell_volume 574.944868
_symmetry_space_group_name_H-M "P -1"
_symmetry_group_IT_number 2
_symmetry_cell_setting 'triclinic'
loop_
_space_group_symop_operation_xyz
x,y,z
-x,-y,-z
loop_
_atom_site_type_symbol
_atom_site_label
_atom_site_fract_x
_atom_site_fract_y
_atom_site_fract_z
Si Si1 0.381605 0.860239 0.753780
Si Si2 0.293004 0.386313 0.024942
Si Si3 0.155598 0.388119 0.602170
Si Si4 0.737210 0.939524 0.077690
Si Si5 0.193491 0.904027 0.029720
Si Si6 0.599954 0.312339 0.300835
Si Si7 0.689315 0.900892 0.564800
O O1 0.585597 0.889719 0.688498
O O2 0.020489 0.744362 0.776549
O O3 0.500000 0.000000 0.500000
O O4 0.449294 0.842793 0.012747
O O5 0.486365 0.371136 0.122338
O O6 0.500000 0.500000 0.000000
O O7 0.189962 0.411043 0.744155
O O8 0.500000 0.500000 0.500000
O O9 0.982820 0.237500 0.812560
O O10 0.941956 0.398763 0.361817
O O11 0.647332 0.836959 0.405659
O O12 0.000000 0.000000 0.000000
O O13 0.847355 0.066530 0.911077
O O14 0.501476 0.934305 0.242821
O O15 0.011186 0.934902 0.722230
O O16 0.538853 0.257135 0.235646
#
# Coordination Sequence:
#
# PCOD9054298 Si02
#       7
#     2   2   2   2   2   2   2
#     4  12  23  41  72 109 150 181 232 299 358 412
#     4  12  29  51  71 104 146 189 241 305 361 423
#     4  12  27  48  74 105 143 193 241 291 362 433
#     4  11  22  39  71 110 140 183 232 293 358 416
#     4  11  20  42  69  96 141 180 230 287 344 418
#     4  11  25  49  71 101 145 188 246 292 352 442
#     4  11  22  39  72 109 141 185 237 289 356 424
#
# _framework density 24.350162999999998
#
# number of rings (size 3 to 8) (size 9 to 14) (size 15 to 20)
#    0.000    0.571    4.286    6.000    2.000    2.286 
#    5.143    0.000    0.000    0.000    0.000    0.000 
#    0.000    0.000    0.000    0.000    0.000    0.000 
#
# Total GULP energy -78068.574398 kJ/mol
# GULP energy per Si atom -5576.326743 kJ/mol
# Density = 2.429474 g / cm^3
# Si number density = 24.350163 Si / 1000 Ang^3
#
#
#
# Elastic Constant Matrix: (Units=GPa)
#
#
# Indices 1 2 3 4 5 6 
#
# 1 144.6197 52.8929 2.2911 -0.2909 2.1999 -16.5689
# 2 52.8929 214.3104 27.1951 5.1936 2.1908 -4.9264
# 3 2.2911 27.1951 38.3510 9.7448 4.1197 -4.1986
# 4 -0.2909 5.1936 9.7448 33.9397 8.1439 -1.1117
# 5 2.1999 2.1908 4.1197 8.1439 42.4345 5.1447
# 6 -16.5689 -4.9264 -4.1986 -1.1117 5.1447 65.8778
#
#
#
# Elastic Compliance Matrix: (Units=1/GPa)
#
#
# Indices 1 2 3 4 5 6 
#
# 1 0.007883 -0.002053 0.001208 0.000270 -0.000710 0.001966
# 2 -0.002053 0.005666 -0.004009 0.000205 0.000208 -0.000361
# 3 0.001208 -0.004009 0.031243 -0.007894 -0.001615 0.001988
# 4 0.000270 0.000205 -0.007894 0.033083 -0.005678 0.000582
# 5 -0.000710 0.000208 -0.001615 -0.005678 0.025120 -0.002324
# 6 0.001966 -0.000361 0.001988 0.000582 -0.002324 0.015965
#
#
# Mechanical properties :
#
#
# Convention : Reuss Voigt Hill
#
# Bulk Modulus (GPa) = 28.50361 62.44880 45.47620
# Shear Modulus (GPa) = 35.62200 49.44391 42.53296
#
# Velocity S-wave (km/s) = 3.82895 4.51104 4.18391
# Velocity P-wave (km/s) = 5.59275 7.26873 6.48511
#
# Compressibility (1/GPa) = 0.03508328
#
# Stress axis : x y z
#
# Youngs Moduli (GPa) = 126.85569 176.48654 32.00756
#
# Poissons Ratio (x) = 0.36231 -0.03866
# Poissons Ratio (y) = 0.26042 0.12832
# Poissons Ratio (z) = -0.15322 0.70756
#
# Static dielectric constant tensor:
#      x y z
#    x 1.887530 0.207490 0.185910 
#    y 0.207490 2.091950 0.131630 
#    z 0.185910 0.131630 2.183210 
# 
# From -- ./inp_files/227343.got.cif
#   From: 2010.05.17/outbox.cif.g08.bks.cpg/sg2_114_cif.got.tgz:227343.got - 2010.06.03 11:33:40.
