data_PCOD9054791
_publ_section_title
;
Structure prediction by ZEFSAII (Michael W. Deem and Ramdas Pophale) SiO2 
 PCOD9054791
Probable space group: P -1
;
_chemical_formula_sum "Si O2"
_cell_formula_units_Z 14
_cell_length_a 16.780377
_cell_length_b 7.899513
_cell_length_c 25.319548
_cell_angle_alpha 43.078823
_cell_angle_beta 19.504629
_cell_angle_gamma 33.869850
_cell_volume 599.401790
_symmetry_space_group_name_H-M "P -1"
_symmetry_group_IT_number 2
_symmetry_cell_setting 'triclinic'
loop_
_space_group_symop_operation_xyz
x,y,z
-x,-y,-z
loop_
_atom_site_type_symbol
_atom_site_label
_atom_site_fract_x
_atom_site_fract_y
_atom_site_fract_z
Si Si1 0.257959 0.984471 0.286226
Si Si2 0.862013 0.516193 0.525614
Si Si3 0.659985 0.453255 0.498009
Si Si4 0.670481 0.701927 0.188082
Si Si5 0.838619 0.023154 0.378859
Si Si6 0.202787 0.091157 0.832354
Si Si7 0.744775 0.791102 0.939408
O O1 0.131725 0.784374 0.415868
O O2 0.412363 0.959945 0.250257
O O3 0.546989 0.812201 0.106045
O O4 0.979372 0.311422 0.358782
O O5 0.000000 0.500000 0.500000
O O6 0.978654 0.661805 0.381716
O O7 0.499770 0.803623 0.683624
O O8 0.448156 0.478870 0.671288
O O9 0.744755 0.198771 0.455663
O O10 0.456366 0.781332 0.519021
O O11 0.687582 0.853958 0.194718
O O12 0.000000 0.500000 0.000000
O O13 0.073696 0.070815 0.196989
O O14 0.999991 0.420294 0.852540
O O15 0.000000 0.000000 0.000000
O O16 0.500000 0.000000 0.000000
#
# Coordination Sequence:
#
# PCOD9054791 Si02
#       7
#     2   2   2   2   2   2   2
#     4  12  24  40  66  99 130 172 217 264 326 391
#     4  12  22  40  63 101 127 165 219 271 313 373
#     4  11  21  39  63  94 126 174 217 264 320 383
#     4  12  22  41  63  93 134 171 213 264 334 387
#     4  11  21  38  65  94 131 165 216 275 313 372
#     4  12  23  41  66  96 125 164 221 267 313 380
#     4  12  22  40  66  97 128 171 218 266 325 384
#
# _framework density 23.356621000000001
#
# number of rings (size 3 to 8) (size 9 to 14) (size 15 to 20)
#    0.000    0.286    8.571    1.286    0.000    0.000 
#    0.000    0.714    0.000    2.571    0.000    0.000 
#    0.000    0.000    0.000    0.000    0.000    0.000 
#
# Total GULP energy -78261.255837 kJ/mol
# GULP energy per Si atom -5590.089703 kJ/mol
# Density = 2.330346 g / cm^3
# Si number density = 23.356621 Si / 1000 Ang^3
#
#
#
# Elastic Constant Matrix: (Units=GPa)
#
#
# Indices 1 2 3 4 5 6 
#
# 1 81.7442 34.6528 -6.8834 25.4466 -24.1807 -35.6937
# 2 34.6528 123.9280 28.4506 1.8974 -18.3981 -33.5592
# 3 -6.8834 28.4506 143.2590 3.3848 0.7966 -7.3140
# 4 25.4466 1.8974 3.3848 33.4914 -6.0453 -10.9080
# 5 -24.1807 -18.3981 0.7966 -6.0453 44.8399 11.9595
# 6 -35.6937 -33.5592 -7.3140 -10.9080 11.9595 41.1159
#
#
#
# Elastic Compliance Matrix: (Units=1/GPa)
#
#
# Indices 1 2 3 4 5 6 
#
# 1 0.027246 -0.002624 0.002949 -0.014278 0.007341 0.016112
# 2 -0.002624 0.011497 -0.002150 0.004290 0.001975 0.007288
# 3 0.002949 -0.002150 0.007688 -0.002412 -0.000176 0.001585
# 4 -0.014278 0.004290 -0.002412 0.041155 -0.000839 0.001840
# 5 0.007341 0.001975 -0.000176 -0.000839 0.026993 -0.000120
# 6 0.016112 0.007288 0.001585 0.001840 -0.000120 0.045062
#
#
# Mechanical properties :
#
#
# Convention : Reuss Voigt Hill
#
# Bulk Modulus (GPa) = 23.37410 51.26348 37.31879
# Shear Modulus (GPa) = 28.16107 43.40353 35.78230
#
# Velocity S-wave (km/s) = 3.47609 4.31547 3.91832
# Velocity P-wave (km/s) = 5.11274 6.84302 6.04016
#
# Compressibility (1/GPa) = 0.04278239
#
# Stress axis : x y z
#
# Youngs Moduli (GPa) = 36.70315 86.97619 130.07524
#
# Poissons Ratio (x) = 0.22821 -0.38363
# Poissons Ratio (y) = 0.09630 0.27962
# Poissons Ratio (z) = -0.10825 0.18697
#
# Static dielectric constant tensor:
#      x y z
#    x 1.903530 0.074890 0.091230 
#    y 0.074890 1.938330 -0.047030 
#    z 0.091230 -0.047030 1.699770 
# 
# From -- ./inp_files/250666.got.cif
#   From: 2010.05.17/outbox.cif.g08.bks.cpg/sg2_126_cif.got.tgz:250666.got - 2010.06.03 11:33:40.
