data_PCOD9054482
_publ_section_title
;
Structure prediction by ZEFSAII (Michael W. Deem and Ramdas Pophale) SiO2 
 PCOD9054482
Probable space group: P -1
;
_chemical_formula_sum "Si O2"
_cell_formula_units_Z 16
_cell_length_a 8.875620
_cell_length_b 9.097785
_cell_length_c 14.282001
_cell_angle_alpha 61.801285
_cell_angle_beta 117.964499
_cell_angle_gamma 108.836448
_cell_volume 890.069649
_symmetry_space_group_name_H-M "P -1"
_symmetry_group_IT_number 2
_symmetry_cell_setting 'triclinic'
loop_
_space_group_symop_operation_xyz
x,y,z
-x,-y,-z
loop_
_atom_site_type_symbol
_atom_site_label
_atom_site_fract_x
_atom_site_fract_y
_atom_site_fract_z
Si Si1 0.620540 0.005333 0.270240
Si Si2 0.766819 0.036305 0.110635
Si Si3 0.091632 0.872166 0.298666
Si Si4 0.928598 0.837137 0.467145
Si Si5 0.442475 0.796110 0.133523
Si Si6 0.786548 0.481324 0.579919
Si Si7 0.516242 0.532463 0.648562
Si Si8 0.441605 0.104504 0.363849
O O1 0.573056 0.108572 0.313929
O O2 0.735983 0.093504 0.192325
O O3 0.730084 0.861804 0.381898
O O4 0.454714 0.910653 0.196755
O O5 0.611532 0.881800 0.100888
O O6 0.943072 0.958983 0.178117
O O7 0.723317 0.176467 0.983193
O O8 0.128432 0.688756 0.331391
O O9 0.028310 0.847142 0.395409
O O10 0.264232 0.001744 0.309216
O O11 0.921043 0.651695 0.563613
O O12 0.000000 0.000000 0.500000
O O13 0.473719 0.612962 0.229033
O O14 0.651861 0.500975 0.617165
O O15 0.670364 0.467829 0.454973
O O16 0.571195 0.711570 0.657601
O O17 0.500000 0.000000 0.500000
#
# Coordination Sequence:
#
# PCOD9054482 Si02
#       8
#     2   2   2   2   2   2   2   2
#     4   9  18  36  56  79 107 152 184 222 277 340
#     4   8  19  38  65  79 106 144 199 238 276 325
#     4  11  21  35  56  85 112 146 190 233 276 332
#     4  11  21  34  53  83 119 144 176 230 292 335
#     4   9  17  39  65  77 106 150 197 228 282 328
#     4  11  21  35  54  81 118 148 186 227 278 342
#     4  11  21  34  56  83 112 152 191 225 274 342
#     4  12  22  34  54  85 120 154 181 224 288 341
#
# _framework density 17.976120999999999
#
# number of rings (size 3 to 8) (size 9 to 14) (size 15 to 20)
#    0.750    1.000    2.500    3.375    0.000    0.000 
#    0.000    3.750    0.000    0.000    0.000    0.000 
#    0.000    0.000    0.000    0.000    0.000    0.000 
#
# Total GULP energy -89146.774978 kJ/mol
# GULP energy per Si atom -5571.673436 kJ/mol
# Density = 1.793521 g / cm^3
# Si number density = 17.976121 Si / 1000 Ang^3
#
#
#
# Elastic Constant Matrix: (Units=GPa)
#
#
# Indices 1 2 3 4 5 6 
#
# 1 54.3375 26.3805 21.7870 -1.9149 11.2811 -15.9934
# 2 26.3805 97.9440 34.4866 -10.2019 6.4648 -11.0866
# 3 21.7870 34.4866 103.4124 -13.3400 19.7399 -8.0554
# 4 -1.9149 -10.2019 -13.3400 21.0696 0.5421 -4.3586
# 5 11.2811 6.4648 19.7399 0.5421 19.3331 -2.8993
# 6 -15.9934 -11.0866 -8.0554 -4.3586 -2.8993 29.7981
#
#
#
# Elastic Compliance Matrix: (Units=1/GPa)
#
#
# Indices 1 2 3 4 5 6 
#
# 1 0.026921 -0.004656 -0.000616 0.002541 -0.011828 0.011771
# 2 -0.004656 0.013137 -0.002919 0.004550 0.001539 0.002415
# 3 -0.000616 -0.002919 0.014667 0.008682 -0.013508 0.002504
# 4 0.002541 0.004550 0.008682 0.058341 -0.011584 0.012810
# 5 -0.011828 0.001539 -0.013508 -0.011584 0.071606 -0.004155
# 6 0.011771 0.002415 0.002504 0.012810 -0.004155 0.042922
#
#
# Mechanical properties :
#
#
# Convention : Reuss Voigt Hill
#
# Bulk Modulus (GPa) = 26.08071 46.77800 36.42935
# Shear Modulus (GPa) = 19.47365 25.57616 22.52491
#
# Velocity S-wave (km/s) = 3.29493 3.77607 3.54368
# Velocity P-wave (km/s) = 5.38660 6.71494 6.08711
#
# Compressibility (1/GPa) = 0.03834251
#
# Stress axis : x y z
#
# Youngs Moduli (GPa) = 37.14565 76.11805 68.18163
#
# Poissons Ratio (x) = 0.35441 0.04203
# Poissons Ratio (y) = 0.17295 0.19902
# Poissons Ratio (z) = 0.02290 0.22218
#
# Static dielectric constant tensor:
#      x y z
#    x 1.648690 0.012940 -0.004940 
#    y 0.012940 1.617910 0.019160 
#    z -0.004940 0.019160 1.643330 
# 
# From -- ./inp_files/319382.got.cif
#   From: 2010.05.17/outbox.cif.g08.bks.cpg/sg2_160_cif.got.tgz:319382.got - 2010.06.03 11:33:40.
