data_PCOD9054492
_publ_section_title
;
Structure prediction by ZEFSAII (Michael W. Deem and Ramdas Pophale) SiO2 
 PCOD9054492
Probable space group: P -1
;
_chemical_formula_sum "Si O2"
_cell_formula_units_Z 16
_cell_length_a 11.222466
_cell_length_b 9.334874
_cell_length_c 9.204931
_cell_angle_alpha 95.361315
_cell_angle_beta 98.199331
_cell_angle_gamma 117.541190
_cell_volume 832.221318
_symmetry_space_group_name_H-M "P -1"
_symmetry_group_IT_number 2
_symmetry_cell_setting 'triclinic'
loop_
_space_group_symop_operation_xyz
x,y,z
-x,-y,-z
loop_
_atom_site_type_symbol
_atom_site_label
_atom_site_fract_x
_atom_site_fract_y
_atom_site_fract_z
Si Si1 0.217248 0.377405 0.721528
Si Si2 0.421700 0.109131 0.510044
Si Si3 0.847353 0.437744 0.030937
Si Si4 0.858647 0.975891 0.400005
Si Si5 0.636226 0.403162 0.745929
Si Si6 0.877007 0.279746 0.286980
Si Si7 0.511252 0.602059 0.660300
Si Si8 0.840496 0.474964 0.532271
O O1 0.161456 0.424474 0.857611
O O2 0.206750 0.201355 0.704900
O O3 0.368959 0.519805 0.716084
O O4 0.133036 0.384891 0.567276
O O5 0.258725 0.028014 0.511519
O O6 0.497638 0.235591 0.669845
O O7 0.443877 0.217780 0.377368
O O8 0.500000 0.000000 0.500000
O O9 0.814419 0.290271 0.124637
O O10 0.731364 0.390238 0.884463
O O11 0.000000 0.500000 0.000000
O O12 0.888894 0.119529 0.304310
O O13 0.000000 0.000000 0.500000
O O14 0.609492 0.558553 0.772490
O O15 0.718554 0.436572 0.613483
O O16 0.806290 0.315131 0.416625
O O17 0.024126 0.446079 0.338763
O O18 0.500000 0.500000 0.500000
#
# Coordination Sequence:
#
# PCOD9054492 Si02
#       8
#     2   2   2   2   2   2   2   2
#     4  11  21  40  63  95 120 160 212 260 313 371
#     4  11  23  38  65 101 127 157 208 268 318 368
#     4  11  25  40  63  90 128 168 213 252 314 387
#     4  12  23  37  62  99 130 159 204 272 323 364
#     4  11  20  39  64  89 122 163 214 249 308 375
#     4  10  22  35  59  93 129 157 209 259 317 363
#     4  10  19  38  65  89 121 155 215 260 300 366
#     4  10  17  35  65  90 113 164 208 262 301 368
#
# _framework density 19.225655
#
# number of rings (size 3 to 8) (size 9 to 14) (size 15 to 20)
#    0.000    1.250    7.500    0.750    1.750    1.500 
#    0.000    2.500    0.000    0.000    0.000    0.000 
#    0.000    0.000    0.000    0.000    0.000    0.000 
#
# Total GULP energy -89094.713852 kJ/mol
# GULP energy per Si atom -5568.419616 kJ/mol
# Density = 1.918190 g / cm^3
# Si number density = 19.225655 Si / 1000 Ang^3
#
#
#
# Elastic Constant Matrix: (Units=GPa)
#
#
# Indices 1 2 3 4 5 6 
#
# 1 149.3999 44.9832 41.9486 -11.8859 2.0174 -5.0334
# 2 44.9832 104.9504 32.6336 -23.0790 5.0726 -28.2735
# 3 41.9486 32.6336 83.5641 -13.1531 15.8610 -6.1071
# 4 -11.8859 -23.0790 -13.1531 14.2122 -9.5346 8.4305
# 5 2.0174 5.0726 15.8610 -9.5346 43.0300 -4.4798
# 6 -5.0334 -28.2735 -6.1071 8.4305 -4.4798 35.3970
#
#
#
# Elastic Compliance Matrix: (Units=1/GPa)
#
#
# Indices 1 2 3 4 5 6 
#
# 1 0.008518 -0.002885 -0.003318 0.001289 0.001261 -0.001813
# 2 -0.002885 0.019146 -0.002502 0.024293 0.005153 0.009317
# 3 -0.003318 -0.002502 0.016308 0.006373 -0.004328 -0.001722
# 4 0.001289 0.024293 0.006373 0.138710 0.024499 -0.009249
# 5 0.001261 0.005153 -0.004328 0.024499 0.029751 0.001479
# 6 -0.001813 0.009317 -0.001722 -0.009249 0.001479 0.037528
#
#
# Mechanical properties :
#
#
# Convention : Reuss Voigt Hill
#
# Bulk Modulus (GPa) = 37.64811 64.11612 50.88212
# Shear Modulus (GPa) = 18.10103 33.08443 25.59273
#
# Velocity S-wave (km/s) = 3.07172 4.15281 3.65249
# Velocity P-wave (km/s) = 5.67498 7.51107 6.65663
#
# Compressibility (1/GPa) = 0.02656176
#
# Stress axis : x y z
#
# Youngs Moduli (GPa) = 117.39408 52.22998 61.31777
#
# Poissons Ratio (x) = 0.15069 0.20347
# Poissons Ratio (y) = 0.33870 0.15342
# Poissons Ratio (z) = 0.38955 0.13068
#
# Static dielectric constant tensor:
#      x y z
#    x 1.801170 -0.011040 0.044070 
#    y -0.011040 1.704660 -0.011130 
#    z 0.044070 -0.011130 1.681140 
# 
# From -- ./inp_files/239200.got.cif
#   From: 2010.05.17/outbox.cif.g08.bks.cpg/sg2_120_cif.got.tgz:239200.got - 2010.06.03 11:33:40.
