data_PCOD9054327
_publ_section_title
;
Structure prediction by ZEFSAII (Michael W. Deem and Ramdas Pophale) SiO2 
 PCOD9054327
Probable space group: P -1
;
_chemical_formula_sum "Si O2"
_cell_formula_units_Z 14
_cell_length_a 16.045629
_cell_length_b 7.217352
_cell_length_c 7.442000
_cell_angle_alpha 44.034222
_cell_angle_beta 94.541808
_cell_angle_gamma 100.248664
_cell_volume 587.995761
_symmetry_space_group_name_H-M "P -1"
_symmetry_group_IT_number 2
_symmetry_cell_setting 'triclinic'
loop_
_space_group_symop_operation_xyz
x,y,z
-x,-y,-z
loop_
_atom_site_type_symbol
_atom_site_label
_atom_site_fract_x
_atom_site_fract_y
_atom_site_fract_z
Si Si1 0.571480 0.311348 0.666093
Si Si2 0.865054 0.836746 0.456100
Si Si3 0.906303 0.827029 0.089140
Si Si4 0.536751 0.246127 0.099151
Si Si5 0.771461 0.759327 0.824956
Si Si6 0.323966 0.739017 0.606940
Si Si7 0.961260 0.343427 0.281056
O O1 0.500000 0.500000 0.500000
O O2 0.718926 0.002646 0.626540
O O3 0.646841 0.388935 0.482963
O O4 0.532734 0.003011 0.811768
O O5 0.797599 0.669915 0.693725
O O6 0.848825 0.854867 0.231469
O O7 0.958289 0.756793 0.547889
O O8 0.923356 0.524617 0.289521
O O9 0.883582 0.132665 0.338236
O O10 0.858653 0.876034 0.864962
O O11 0.000000 0.000000 0.000000
O O12 0.594270 0.154070 0.328804
O O13 0.500000 0.500000 0.000000
O O14 0.591155 0.327113 0.870267
O O15 0.727830 0.505562 0.113364
O O16 0.000000 0.500000 0.000000
#
# Coordination Sequence:
#
# PCOD9054327 Si02
#       7
#     2   2   2   2   2   2   2
#     4  11  25  45  84 117 144 196 264 305 361 464
#     4  11  24  43  69  99 142 189 241 308 389 434
#     4  12  24  45  77 103 138 197 262 315 375 436
#     4  11  24  47  80 114 151 196 250 310 377 446
#     4  12  29  47  69 110 154 202 249 312 379 465
#     4  12  28  49  74 108 162 197 245 308 385 446
#     4  11  20  42  72 101 130 174 254 319 359 450
#
# _framework density 23.809695000000001
#
# number of rings (size 3 to 8) (size 9 to 14) (size 15 to 20)
#    0.000    0.571    4.286    3.429    4.000    3.429 
#    0.000    0.000    0.000    0.000    0.000    0.000 
#    0.000    0.000    0.000    0.000    0.000    0.000 
#
# Total GULP energy -78329.868580 kJ/mol
# GULP energy per Si atom -5594.990613 kJ/mol
# Density = 2.375550 g / cm^3
# Si number density = 23.809695 Si / 1000 Ang^3
#
#
#
# Elastic Constant Matrix: (Units=GPa)
#
#
# Indices 1 2 3 4 5 6 
#
# 1 93.3336 30.5534 34.2540 2.6986 -6.6485 -22.1350
# 2 30.5534 117.9239 25.5005 5.6248 -8.7102 -29.0692
# 3 34.2540 25.5005 86.8861 3.0109 -18.3281 -15.6137
# 4 2.6986 5.6248 3.0109 54.5219 -13.3566 -5.9175
# 5 -6.6485 -8.7102 -18.3281 -13.3566 59.5169 11.0386
# 6 -22.1350 -29.0692 -15.6137 -5.9175 11.0386 44.6942
#
#
#
# Elastic Compliance Matrix: (Units=1/GPa)
#
#
# Indices 1 2 3 4 5 6 
#
# 1 0.013845 -0.001596 -0.004363 -0.000003 -0.000867 0.004509
# 2 -0.001596 0.010597 -0.001510 -0.000377 -0.000212 0.005577
# 3 -0.004363 -0.001510 0.014641 0.000598 0.003725 0.001131
# 4 -0.000003 -0.000377 0.000598 0.019548 0.004237 0.001504
# 5 -0.000867 -0.000212 0.003725 0.004237 0.019421 -0.003502
# 6 0.004509 0.005577 0.001131 0.001504 -0.003502 0.029693
#
#
# Mechanical properties :
#
#
# Convention : Reuss Voigt Hill
#
# Bulk Modulus (GPa) = 41.41656 53.19550 47.30603
# Shear Modulus (GPa) = 38.24576 45.60230 41.92403
#
# Velocity S-wave (km/s) = 4.01223 4.38114 4.20074
# Velocity P-wave (km/s) = 6.23671 6.92698 6.59089
#
# Compressibility (1/GPa) = 0.02414493
#
# Stress axis : x y z
#
# Youngs Moduli (GPa) = 72.22567 94.36363 68.30272
#
# Poissons Ratio (x) = 0.15065 0.29798
# Poissons Ratio (y) = 0.11530 0.10316
# Poissons Ratio (z) = 0.31509 0.14252
#
# Static dielectric constant tensor:
#      x y z
#    x 2.014510 0.015320 -0.096560 
#    y 0.015320 1.899940 -0.028700 
#    z -0.096560 -0.028700 1.971910 
# 
# From -- ./inp_files/323224.got.cif
#   From: 2010.05.17/outbox.cif.g08.bks.cpg/sg2_162_cif.got.tgz:323224.got - 2010.06.03 11:33:40.
