data_PCOD9054829
_publ_section_title
;
Structure prediction by ZEFSAII (Michael W. Deem and Ramdas Pophale) SiO2 
 PCOD9054829
Probable space group: P -1
;
_chemical_formula_sum "Si O2"
_cell_formula_units_Z 16
_cell_length_a 16.929870
_cell_length_b 8.295763
_cell_length_c 7.953461
_cell_angle_alpha 128.072903
_cell_angle_beta 125.106239
_cell_angle_gamma 90.316714
_cell_volume 596.375732
_symmetry_space_group_name_H-M "P -1"
_symmetry_group_IT_number 2
_symmetry_cell_setting 'triclinic'
loop_
_space_group_symop_operation_xyz
x,y,z
-x,-y,-z
loop_
_atom_site_type_symbol
_atom_site_label
_atom_site_fract_x
_atom_site_fract_y
_atom_site_fract_z
Si Si1 0.329057 0.629914 0.536400
Si Si2 0.314326 0.131927 0.123302
Si Si3 0.384300 0.506928 0.857339
Si Si4 0.137080 0.621334 0.762997
Si Si5 0.115091 0.418550 0.954457
Si Si6 0.132768 0.161668 0.331877
Si Si7 0.552935 0.211664 0.558702
Si Si8 0.135599 0.972959 0.562781
O O1 0.328578 0.389540 0.332105
O O2 0.387921 0.690588 0.833376
O O3 0.387609 0.794628 0.545245
O O4 0.193083 0.534300 0.290907
O O5 0.441363 0.200079 0.350495
O O6 0.259814 0.036290 0.810427
O O7 0.217696 0.892851 0.959243
O O8 0.263114 0.256452 0.490269
O O9 0.500000 0.500000 0.000000
O O10 0.370187 0.560075 0.070068
O O11 0.164069 0.608658 0.982786
O O12 0.154433 0.425441 0.567871
O O13 0.000000 0.500000 0.500000
O O14 0.123117 0.183762 0.769941
O O15 0.977333 0.294110 0.704359
O O16 0.122871 0.002104 0.373714
O O17 0.000000 0.000000 0.000000
O O18 0.500000 0.000000 0.500000
#
# Coordination Sequence:
#
# PCOD9054829 Si02
#       8
#     2   2   2   2   2   2   2   2
#     4  11  24  42  74  98 140 190 239 291 361 426
#     4  11  21  38  67  99 134 179 236 290 346 425
#     4  12  26  45  72 109 143 188 247 292 356 437
#     4  11  22  39  69 103 139 188 242 291 359 434
#     4   9  17  35  59  94 129 169 227 281 346 409
#     4  11  25  43  66  99 146 184 235 303 360 422
#     4  12  26  47  72 102 143 187 237 297 358 425
#     4   9  18  33  62  90 125 178 225 274 344 421
#
# _framework density 26.828724999999999
#
# number of rings (size 3 to 8) (size 9 to 14) (size 15 to 20)
#    0.000    1.250    2.500    4.875    5.250    0.500 
#    0.000    0.625    2.750    0.000    0.000    0.000 
#    0.000    0.000    0.000    0.000    0.000    0.000 
#
# Total GULP energy -89331.462534 kJ/mol
# GULP energy per Si atom -5583.216408 kJ/mol
# Density = 2.676766 g / cm^3
# Si number density = 26.828725 Si / 1000 Ang^3
#
#
#
# Elastic Constant Matrix: (Units=GPa)
#
#
# Indices 1 2 3 4 5 6 
#
# 1 58.5941 5.4059 48.2009 -13.0463 15.8301 5.4031
# 2 5.4059 120.3813 60.5031 -28.7811 5.8383 30.0985
# 3 48.2009 60.5031 174.0363 -40.2738 33.5546 -5.2170
# 4 -13.0463 -28.7811 -40.2738 81.3091 -17.1120 3.9042
# 5 15.8301 5.8383 33.5546 -17.1120 54.6796 0.0218
# 6 5.4031 30.0985 -5.2170 3.9042 0.0218 44.5473
#
#
#
# Elastic Compliance Matrix: (Units=1/GPa)
#
#
# Indices 1 2 3 4 5 6 
#
# 1 0.025088 0.005549 -0.008270 0.001808 -0.002212 -0.007918
# 2 0.005549 0.015335 -0.006714 0.004029 0.002142 -0.012175
# 3 -0.008270 -0.006714 0.011486 0.000888 -0.003662 0.006808
# 4 0.001808 0.004029 0.000888 0.015352 0.003307 -0.004184
# 5 -0.002212 0.002142 -0.003662 0.003307 0.021983 -0.001908
# 6 -0.007918 -0.012175 0.006808 -0.004184 -0.001908 0.032799
#
#
# Mechanical properties :
#
#
# Convention : Reuss Voigt Hill
#
# Bulk Modulus (GPa) = 30.26624 64.58129 47.42377
# Shear Modulus (GPa) = 32.91069 52.03399 42.47234
#
# Velocity S-wave (km/s) = 3.50622 4.40874 3.98313
# Velocity P-wave (km/s) = 5.26282 7.07389 6.23447
#
# Compressibility (1/GPa) = 0.03304011
#
# Stress axis : x y z
#
# Youngs Moduli (GPa) = 39.85984 65.20866 87.06166
#
# Poissons Ratio (x) = -0.36185 0.72000
# Poissons Ratio (y) = -0.22119 0.58452
# Poissons Ratio (z) = 0.32964 0.43780
#
# Static dielectric constant tensor:
#      x y z
#    x 2.326090 0.108110 0.077920 
#    y 0.108110 2.153470 0.059240 
#    z 0.077920 0.059240 1.994160 
# 
# From -- ./inp_files/343797.got.cif
#   From: 2010.05.17/outbox.cif.g08.bks.cpg/sg2_172_cif.got.tgz:343797.got - 2010.06.03 11:33:40.
