data_PCOD9054501
_publ_section_title
;
Structure prediction by ZEFSAII (Michael W. Deem and Ramdas Pophale) SiO2 
 PCOD9054501
Probable space group: P -1
;
_chemical_formula_sum "Si O2"
_cell_formula_units_Z 14
_cell_length_a 11.981774
_cell_length_b 11.230344
_cell_length_c 7.971199
_cell_angle_alpha 74.267225
_cell_angle_beta 109.549715
_cell_angle_gamma 144.332300
_cell_volume 589.360489
_symmetry_space_group_name_H-M "P -1"
_symmetry_group_IT_number 2
_symmetry_cell_setting 'triclinic'
loop_
_space_group_symop_operation_xyz
x,y,z
-x,-y,-z
loop_
_atom_site_type_symbol
_atom_site_label
_atom_site_fract_x
_atom_site_fract_y
_atom_site_fract_z
Si Si1 0.625130 0.411674 0.063870
Si Si2 0.641381 0.824468 0.681628
Si Si3 0.281192 0.726554 0.032374
Si Si4 0.101448 0.164630 0.134134
Si Si5 0.036710 0.724848 0.789974
Si Si6 0.696620 0.143843 0.646719
Si Si7 0.793317 0.478084 0.459857
O O1 0.440750 0.288294 0.134572
O O2 0.784668 0.499401 0.250794
O O3 0.574068 0.250953 0.986536
O O4 0.726540 0.604638 0.940392
O O5 0.789239 0.843306 0.687421
O O6 0.433404 0.675879 0.539824
O O7 0.746469 0.042851 0.681836
O O8 0.111203 0.487548 0.096078
O O9 0.332279 0.843414 0.180185
O O10 0.218052 0.781838 0.850719
O O11 0.954663 0.138412 0.160799
O O12 0.000000 0.000000 0.000000
O O13 0.941882 0.670401 0.582327
O O14 0.827917 0.362746 0.558730
O O15 0.500000 0.000000 0.500000
#
# Coordination Sequence:
#
# PCOD9054501 Si02
#       7
#     2   2   2   2   2   2   2
#     4   9  20  35  54  82 103 142 175 223 264 307
#     4   9  19  34  55  77 109 139 174 217 260 317
#     4   9  17  31  53  78 108 136 176 216 261 315
#     4  11  21  35  55  75 104 144 184 214 260 319
#     4   9  18  33  52  77 103 142 177 215 262 315
#     4   9  16  32  53  79 108 134 171 215 263 314
#     4   8  18  34  55  79 107 133 178 221 266 308
#
# _framework density 23.754562
#
# number of rings (size 3 to 8) (size 9 to 14) (size 15 to 20)
#    0.857    2.000    0.000    1.286    0.000    2.857 
#    0.000    0.714    0.000    0.000    0.000    0.000 
#    0.000    0.000    0.000    0.000    0.000    0.000 
#
# Total GULP energy -78042.960969 kJ/mol
# GULP energy per Si atom -5574.497212 kJ/mol
# Density = 2.370050 g / cm^3
# Si number density = 23.754562 Si / 1000 Ang^3
#
#
#
# Elastic Constant Matrix: (Units=GPa)
#
#
# Indices 1 2 3 4 5 6 
#
# 1 86.7255 47.9364 18.3334 -6.1286 5.8843 -25.8035
# 2 47.9364 97.2024 17.2267 11.7096 4.5086 -37.4036
# 3 18.3334 17.2267 68.1574 18.8931 15.7575 -22.7302
# 4 -6.1286 11.7096 18.8931 30.1858 -4.4702 2.2688
# 5 5.8843 4.5086 15.7575 -4.4702 20.6936 -2.5928
# 6 -25.8035 -37.4036 -22.7302 2.2688 -2.5928 41.2229
#
#
#
# Elastic Compliance Matrix: (Units=1/GPa)
#
#
# Indices 1 2 3 4 5 6 
#
# 1 0.019540 -0.011952 -0.010102 0.016414 0.007709 -0.004602
# 2 -0.011952 0.028839 0.018997 -0.030731 -0.020283 0.029577
# 3 -0.010102 0.018997 0.049597 -0.050004 -0.045051 0.038180
# 4 0.016414 -0.030731 -0.050004 0.091184 0.053937 -0.046807
# 5 0.007709 -0.020283 -0.045051 0.053937 0.092046 -0.035598
# 6 -0.004602 0.029577 0.038180 -0.046807 -0.035598 0.069603
#
#
# Mechanical properties :
#
#
# Convention : Reuss Voigt Hill
#
# Bulk Modulus (GPa) = 10.88589 46.56425 28.72507
# Shear Modulus (GPa) = 12.90173 29.65973 21.28073
#
# Velocity S-wave (km/s) = 2.33304 3.53737 2.99634
# Velocity P-wave (km/s) = 3.44238 6.02734 4.90810
#
# Compressibility (1/GPa) = 0.09186206
#
# Stress axis : x y z
#
# Youngs Moduli (GPa) = 51.17711 34.67508 20.16251
#
# Poissons Ratio (x) = 0.41443 0.20369
# Poissons Ratio (y) = 0.61167 -0.38303
# Poissons Ratio (z) = 0.51701 -0.65873
#
# Static dielectric constant tensor:
#      x y z
#    x 1.995790 0.005870 -0.017650 
#    y 0.005870 2.466090 0.042230 
#    z -0.017650 0.042230 1.918600 
# 
# From -- ./inp_files/239193.got.cif
#   From: 2010.05.17/outbox.cif.g08.bks.cpg/sg2_120_cif.got.tgz:239193.got - 2010.06.03 11:33:40.
