data_PCOD9054341
_publ_section_title
;
Structure prediction by ZEFSAII (Michael W. Deem and Ramdas Pophale) SiO2 
 PCOD9054341
Probable space group: P -1
;
_chemical_formula_sum "Si O2"
_cell_formula_units_Z 16
_cell_length_a 9.107819
_cell_length_b 17.696376
_cell_length_c 14.245313
_cell_angle_alpha 30.824307
_cell_angle_beta 140.104603
_cell_angle_gamma 141.843068
_cell_volume 695.503936
_symmetry_space_group_name_H-M "P -1"
_symmetry_group_IT_number 2
_symmetry_cell_setting 'triclinic'
loop_
_space_group_symop_operation_xyz
x,y,z
-x,-y,-z
loop_
_atom_site_type_symbol
_atom_site_label
_atom_site_fract_x
_atom_site_fract_y
_atom_site_fract_z
Si Si1 0.951768 0.085803 0.754166
Si Si2 0.208683 0.066495 0.449881
Si Si3 0.240678 0.509213 0.336718
Si Si4 0.279582 0.245327 0.097347
Si Si5 0.021165 0.576100 0.327137
Si Si6 0.354264 0.860762 0.294260
Si Si7 0.198773 0.765122 0.653082
Si Si8 0.495209 0.873935 0.050684
O O1 0.874299 0.129977 0.769096
O O2 0.811967 0.147533 0.542303
O O3 0.239492 0.143435 0.806595
O O4 0.843545 0.896529 0.886548
O O5 0.180603 0.164426 0.238326
O O6 0.462036 0.180470 0.503626
O O7 0.237701 0.906563 0.595258
O O8 0.000000 0.000000 0.500000
O O9 0.500000 0.500000 0.500000
O O10 0.088530 0.467344 0.403383
O O11 0.291610 0.694686 0.144979
O O12 0.067108 0.383805 0.310267
O O13 0.573110 0.290274 0.184076
O O14 0.193879 0.383186 0.871614
O O15 0.252801 0.742668 0.283325
O O16 0.000000 0.500000 0.500000
O O17 0.515100 0.034619 0.146669
O O18 0.500000 0.000000 0.000000
#
# Coordination Sequence:
#
# PCOD9054341 Si02
#       8
#     2   2   2   2   2   2   2   2
#     4  11  20  42  74 107 142 185 246 300 362 443
#     4  11  26  42  75 112 147 190 243 304 370 447
#     4  12  27  47  72 104 152 196 240 304 377 429
#     4  11  23  48  74 104 146 195 244 298 374 443
#     4  12  29  46  72 109 142 191 250 308 367 436
#     4  12  24  44  73 109 140 185 259 296 362 445
#     4  11  23  47  72 105 148 197 240 298 376 444
#     4  12  25  43  73 108 146 194 247 305 367 431
#
# _framework density 23.004901
#
# number of rings (size 3 to 8) (size 9 to 14) (size 15 to 20)
#    0.000    0.500    6.250    1.875    7.000    0.500 
#    0.000    0.625    0.000    0.000    0.000    0.000 
#    0.000    0.000    0.000    0.000    0.000    0.000 
#
# Total GULP energy -89382.114480 kJ/mol
# GULP energy per Si atom -5586.382155 kJ/mol
# Density = 2.295254 g / cm^3
# Si number density = 23.004901 Si / 1000 Ang^3
#
#
#
# Elastic Constant Matrix: (Units=GPa)
#
#
# Indices 1 2 3 4 5 6 
#
# 1 97.8517 11.4480 43.8924 7.6370 5.6232 0.0814
# 2 11.4480 77.6249 21.7008 7.3548 4.5654 3.1593
# 3 43.8924 21.7008 132.5151 18.1699 -1.6652 5.2480
# 4 7.6370 7.3548 18.1699 44.3582 8.4222 -2.5110
# 5 5.6232 4.5654 -1.6652 8.4222 38.2334 1.0452
# 6 0.0814 3.1593 5.2480 -2.5110 1.0452 34.6101
#
#
#
# Elastic Compliance Matrix: (Units=1/GPa)
#
#
# Indices 1 2 3 4 5 6 
#
# 1 0.012189 -0.000599 -0.003997 0.000042 -0.001923 0.000693
# 2 -0.000599 0.013726 -0.001859 -0.001215 -0.001336 -0.001017
# 3 -0.003997 -0.001859 0.009740 -0.003473 0.002043 -0.001611
# 4 0.000042 -0.001215 -0.003473 0.025388 -0.005677 0.002651
# 5 -0.001923 -0.001336 0.002043 -0.005677 0.027977 -0.001440
# 6 0.000693 -0.001017 -0.001611 0.002651 -0.001440 0.029465
#
#
# Mechanical properties :
#
#
# Convention : Reuss Voigt Hill
#
# Bulk Modulus (GPa) = 43.96639 51.34159 47.65399
# Shear Modulus (GPa) = 35.97734 38.83704 37.40719
#
# Velocity S-wave (km/s) = 3.95891 4.11324 4.03681
# Velocity P-wave (km/s) = 6.32855 6.70257 6.51824
#
# Compressibility (1/GPa) = 0.02274465
#
# Stress axis : x y z
#
# Youngs Moduli (GPa) = 82.04092 72.85594 102.66768
#
# Poissons Ratio (x) = 0.04367 0.41032
# Poissons Ratio (y) = 0.04918 0.19087
# Poissons Ratio (z) = 0.32788 0.13545
#
# Static dielectric constant tensor:
#      x y z
#    x 1.909650 0.104780 -0.047150 
#    y 0.104780 1.930450 -0.067110 
#    z -0.047150 -0.067110 1.994200 
# 
# From -- ./inp_files/398558.got.cif
#   From: 2010.05.17/outbox.cif.g08.bks.cpg/sg2_200_cif.got.tgz:398558.got - 2010.06.03 11:33:40.
