data_PCOD9054925
_publ_section_title
;
Structure prediction by ZEFSAII (Michael W. Deem and Ramdas Pophale) SiO2 
 PCOD9054925
Probable space group: P -1
;
_chemical_formula_sum "Si O2"
_cell_formula_units_Z 16
_cell_length_a 11.108387
_cell_length_b 11.290722
_cell_length_c 16.364988
_cell_angle_alpha 148.016030
_cell_angle_beta 51.985606
_cell_angle_gamma 137.979663
_cell_volume 727.165959
_symmetry_space_group_name_H-M "P -1"
_symmetry_group_IT_number 2
_symmetry_cell_setting 'triclinic'
loop_
_space_group_symop_operation_xyz
x,y,z
-x,-y,-z
loop_
_atom_site_type_symbol
_atom_site_label
_atom_site_fract_x
_atom_site_fract_y
_atom_site_fract_z
Si Si1 0.450623 0.775906 0.819125
Si Si2 0.680191 0.577826 0.675568
Si Si3 0.385108 0.959919 0.666549
Si Si4 0.855100 0.898382 0.073056
Si Si5 0.345621 0.835669 0.181781
Si Si6 0.538885 0.526696 0.878268
Si Si7 0.923710 0.548237 0.160922
Si Si8 0.004944 0.872614 0.170192
O O1 0.516206 0.585227 0.709193
O O2 0.236165 0.590477 0.788366
O O3 0.559315 0.922327 0.778863
O O4 0.500000 0.000000 0.000000
O O5 0.663819 0.301840 0.512337
O O6 0.666129 0.636622 0.810431
O O7 0.857288 0.816806 0.699204
O O8 0.217763 0.910411 0.763809
O O9 0.557860 0.059152 0.710156
O O10 0.430247 0.210913 0.739020
O O11 0.920239 0.845932 0.100526
O O12 0.676081 0.638623 0.962539
O O13 0.000000 0.000000 0.000000
O O14 0.130423 0.703636 0.195860
O O15 0.411738 0.645315 0.007201
O O16 0.895918 0.732587 0.216590
O O17 0.895491 0.289979 0.974558
#
# Coordination Sequence:
#
# PCOD9054925 Si02
#       8
#     2   2   2   2   2   2   2   2
#     4  12  22  40  70 102 129 177 228 280 329 397
#     4  12  24  43  65  98 142 178 215 277 354 392
#     4  11  27  43  64  98 141 180 212 280 345 399
#     4  11  23  42  68  98 125 177 228 274 324 399
#     4  11  22  45  71  98 133 173 234 278 329 395
#     4  11  22  44  68  96 132 177 226 272 331 407
#     4  11  22  38  71 103 124 172 232 285 318 392
#     4  11  21  39  65  98 134 163 226 275 332 388
#
# _framework density 22.003229999999999
#
# number of rings (size 3 to 8) (size 9 to 14) (size 15 to 20)
#    0.000    0.750    5.000    4.125    3.500    1.000 
#    0.000    0.625    0.000    0.000    0.000    0.000 
#    0.000    0.000    0.000    0.000    0.000    0.000 
#
# Total GULP energy -89349.287492 kJ/mol
# GULP energy per Si atom -5584.330468 kJ/mol
# Density = 2.195315 g / cm^3
# Si number density = 22.003230 Si / 1000 Ang^3
#
#
#
# Elastic Constant Matrix: (Units=GPa)
#
#
# Indices 1 2 3 4 5 6 
#
# 1 105.9170 41.3182 15.7684 5.4942 -0.2888 6.6203
# 2 41.3182 115.3044 15.5774 11.4973 -1.3087 27.3957
# 3 15.7684 15.5774 65.8241 15.6254 -12.4035 3.6265
# 4 5.4942 11.4973 15.6254 24.6914 -4.2964 -4.1699
# 5 -0.2888 -1.3087 -12.4035 -4.2964 19.0215 3.0049
# 6 6.6203 27.3957 3.6265 -4.1699 3.0049 31.4114
#
#
#
# Elastic Compliance Matrix: (Units=1/GPa)
#
#
# Indices 1 2 3 4 5 6 
#
# 1 0.011297 -0.004315 -0.002363 0.001018 -0.001746 0.001958
# 2 -0.004315 0.013880 0.000532 -0.007682 0.001463 -0.012417
# 3 -0.002363 0.000532 0.020927 -0.011771 0.011790 -0.005073
# 4 0.001018 -0.007682 -0.011771 0.054103 0.001683 0.014866
# 5 -0.001746 0.001463 0.011790 0.001683 0.061974 -0.007974
# 6 0.001958 -0.012417 -0.005073 0.014866 -0.007974 0.045575
#
#
# Mechanical properties :
#
#
# Convention : Reuss Voigt Hill
#
# Bulk Modulus (GPa) = 29.57574 48.04150 38.80862
# Shear Modulus (GPa) = 21.61520 29.31695 25.46608
#
# Velocity S-wave (km/s) = 3.13767 3.65416 3.40572
# Velocity P-wave (km/s) = 5.15726 6.29961 5.75684
#
# Compressibility (1/GPa) = 0.03381150
#
# Stress axis : x y z
#
# Youngs Moduli (GPa) = 88.52196 72.04617 47.78437
#
# Poissons Ratio (x) = 0.31089 0.11294
# Poissons Ratio (y) = 0.38199 -0.02544
# Poissons Ratio (z) = 0.20922 -0.03836
#
# Static dielectric constant tensor:
#      x y z
#    x 1.873700 -0.002360 0.031580 
#    y -0.002360 1.890180 -0.023830 
#    z 0.031580 -0.023830 1.805800 
# 
# From -- ./inp_files/568984.got.cif
#   From: 2010.05.17/outbox.cif.g08.bks.cpg/sg2_285_cif.got.tgz:568984.got - 2010.06.03 11:33:40.
