data_PCOD9054963
_publ_section_title
;
Structure prediction by ZEFSAII (Michael W. Deem and Ramdas Pophale) SiO2 
 PCOD9054963
Probable space group: P -1
;
_chemical_formula_sum "Si O2"
_cell_formula_units_Z 14
_cell_length_a 5.431616
_cell_length_b 12.063745
_cell_length_c 12.564702
_cell_angle_alpha 55.345331
_cell_angle_beta 63.156048
_cell_angle_gamma 73.132866
_cell_volume 603.644015
_symmetry_space_group_name_H-M "P -1"
_symmetry_group_IT_number 2
_symmetry_cell_setting 'triclinic'
loop_
_space_group_symop_operation_xyz
x,y,z
-x,-y,-z
loop_
_atom_site_type_symbol
_atom_site_label
_atom_site_fract_x
_atom_site_fract_y
_atom_site_fract_z
Si Si1 0.325814 0.376614 0.562767
Si Si2 0.846756 0.214531 0.481055
Si Si3 0.216883 0.698100 0.171964
Si Si4 0.351598 0.868185 0.639340
Si Si5 0.763171 0.068000 0.128669
Si Si6 0.743579 0.097575 0.775783
Si Si7 0.274816 0.405510 0.316956
O O1 0.500000 0.500000 0.500000
O O2 0.533821 0.251260 0.558955
O O3 0.210390 0.417298 0.448060
O O4 0.090240 0.334014 0.711146
O O5 0.880308 0.140698 0.402555
O O6 0.934067 0.136077 0.615215
O O7 0.988991 0.354668 0.355798
O O8 0.348781 0.769320 0.210839
O O9 0.357149 0.554053 0.188807
O O10 0.207459 0.801685 0.020922
O O11 0.298404 0.886177 0.763666
O O12 0.517920 0.722863 0.674054
O O13 0.500000 0.000000 0.500000
O O14 0.510749 0.987055 0.170473
O O15 0.052563 0.982465 0.136611
#
# Coordination Sequence:
#
# PCOD9054963 Si02
#       7
#     2   2   2   2   2   2   2
#     4  11  21  39  68 107 143 183 236 298 371 429
#     4  11  22  41  74 103 136 185 250 302 356 422
#     4  12  25  46  72 107 154 184 239 308 370 446
#     4  11  25  46  73 102 142 191 251 299 350 439
#     4  12  29  48  72 110 148 202 240 298 367 435
#     4  12  25  47  74 108 146 195 243 299 367 432
#     4  11  24  42  70 108 135 192 243 302 365 421
#
# _framework density 23.192477
#
# number of rings (size 3 to 8) (size 9 to 14) (size 15 to 20)
#    0.000    0.571    4.286    3.857    2.000    4.000 
#    0.000    0.714    0.000    0.000    0.000    0.000 
#    0.000    0.000    0.000    0.000    0.000    0.000 
#
# Total GULP energy -78218.051604 kJ/mol
# GULP energy per Si atom -5587.003686 kJ/mol
# Density = 2.313969 g / cm^3
# Si number density = 23.192477 Si / 1000 Ang^3
#
#
#
# Elastic Constant Matrix: (Units=GPa)
#
#
# Indices 1 2 3 4 5 6 
#
# 1 81.7699 48.0376 28.5229 -11.9887 8.9375 23.3695
# 2 48.0376 153.3083 67.4253 -14.5905 8.8539 23.0988
# 3 28.5229 67.4253 158.4230 -14.3712 13.7370 22.4644
# 4 -11.9887 -14.5905 -14.3712 43.2611 0.6721 3.8193
# 5 8.9375 8.8539 13.7370 0.6721 24.8589 -1.2868
# 6 23.3695 23.0988 22.4644 3.8193 -1.2868 57.0611
#
#
#
# Elastic Compliance Matrix: (Units=1/GPa)
#
#
# Indices 1 2 3 4 5 6 
#
# 1 0.017383 -0.003938 0.000250 0.004188 -0.005410 -0.006026
# 2 -0.003938 0.009367 -0.002985 0.001178 -0.000359 -0.001091
# 3 0.000250 -0.002985 0.008411 0.002131 -0.003858 -0.002435
# 4 0.004188 0.001178 0.002131 0.025873 -0.004054 -0.004855
# 5 -0.005410 -0.000359 -0.003858 -0.004054 0.044809 0.005162
# 6 -0.006026 -0.001091 -0.002435 -0.004855 0.005162 0.021835
#
#
# Mechanical properties :
#
#
# Convention : Reuss Voigt Hill
#
# Bulk Modulus (GPa) = 45.83974 75.71918 60.77946
# Shear Modulus (GPa) = 33.71668 41.67058 37.69363
#
# Velocity S-wave (km/s) = 3.81698 4.24338 4.03582
# Velocity P-wave (km/s) = 6.26367 7.53176 6.92680
#
# Compressibility (1/GPa) = 0.02181513
#
# Stress axis : x y z
#
# Youngs Moduli (GPa) = 57.52661 106.76250 118.89544
#
# Poissons Ratio (x) = 0.42040 -0.02969
# Poissons Ratio (y) = 0.22652 0.35488
# Poissons Ratio (z) = -0.01437 0.31866
#
# Static dielectric constant tensor:
#      x y z
#    x 2.013700 -0.031620 0.056670 
#    y -0.031620 2.002450 -0.056320 
#    z 0.056670 -0.056320 1.882420 
# 
# From -- ./inp_files/67263.got.cif
#   From: 2010.05.17/outbox.cif.g08.bks.cpg/sg2_34_cif.got.tgz:67263.got - 2010.06.03 11:33:40.
