data_PCOD9054328
_publ_section_title
;
Structure prediction by ZEFSAII (Michael W. Deem and Ramdas Pophale) SiO2 
 PCOD9054328
Probable space group: P -1
;
_chemical_formula_sum "Si O2"
_cell_formula_units_Z 16
_cell_length_a 10.890410
_cell_length_b 13.769895
_cell_length_c 12.143760
_cell_angle_alpha 125.884931
_cell_angle_beta 121.707422
_cell_angle_gamma 103.216361
_cell_volume 787.581716
_symmetry_space_group_name_H-M "P -1"
_symmetry_group_IT_number 2
_symmetry_cell_setting 'triclinic'
loop_
_space_group_symop_operation_xyz
x,y,z
-x,-y,-z
loop_
_atom_site_type_symbol
_atom_site_label
_atom_site_fract_x
_atom_site_fract_y
_atom_site_fract_z
Si Si1 0.204992 0.891114 0.073591
Si Si2 0.237179 0.290856 0.314549
Si Si3 0.069423 0.521420 0.260092
Si Si4 0.489343 0.733088 0.438669
Si Si5 0.602602 0.697919 0.831625
Si Si6 0.519960 0.118390 0.174128
Si Si7 0.662440 0.446530 0.987726
Si Si8 0.759028 0.780575 0.211019
O O1 0.034358 0.872265 0.917046
O O2 0.054591 0.682379 0.901676
O O3 0.341332 0.043471 0.337675
O O4 0.399425 0.990427 0.142132
O O5 0.373766 0.271421 0.422507
O O6 0.345950 0.478153 0.548913
O O7 0.277376 0.300409 0.208693
O O8 0.250159 0.612503 0.306354
O O9 0.225466 0.676010 0.534126
O O10 0.870117 0.487481 0.120072
O O11 0.451378 0.649388 0.248288
O O12 0.597548 0.835171 0.893397
O O13 0.710929 0.747072 0.034824
O O14 0.500000 0.000000 0.000000
O O15 0.463799 0.303530 0.891022
O O16 0.757229 0.643392 0.164698
O O17 0.000000 0.000000 0.500000
#
# Coordination Sequence:
#
# PCOD9054328 Si02
#       8
#     2   2   2   2   2   2   2   2
#     4  11  24  39  69 102 131 173 223 276 349 389
#     4  11  20  42  72 101 131 164 226 291 335 384
#     4  11  24  45  64  98 136 175 222 278 333 397
#     4  11  23  44  68 100 135 170 228 280 335 396
#     4  11  22  43  72  97 135 173 218 288 340 384
#     4  11  26  42  64 102 138 176 223 273 339 412
#     4  11  27  46  66  97 134 183 227 268 330 411
#     4  11  28  46  68  98 135 181 227 272 334 402
#
# _framework density 20.315351
#
# number of rings (size 3 to 8) (size 9 to 14) (size 15 to 20)
#    0.000    1.000    5.000    1.500    5.250    3.000 
#    0.000    0.000    0.000    0.000    0.000    0.000 
#    0.000    0.000    0.000    0.000    0.000    0.000 
#
# Total GULP energy -89329.130323 kJ/mol
# GULP energy per Si atom -5583.070645 kJ/mol
# Density = 2.026911 g / cm^3
# Si number density = 20.315351 Si / 1000 Ang^3
#
#
#
# Elastic Constant Matrix: (Units=GPa)
#
#
# Indices 1 2 3 4 5 6 
#
# 1 71.0318 29.9056 53.6907 2.8521 -6.1607 -8.6021
# 2 29.9056 64.1795 54.9992 1.2055 5.3575 2.7351
# 3 53.6907 54.9992 142.1609 23.6456 -7.0219 12.3631
# 4 2.8521 1.2055 23.6456 35.5421 -1.2335 -2.2562
# 5 -6.1607 5.3575 -7.0219 -1.2335 36.5235 -7.7625
# 6 -8.6021 2.7351 12.3631 -2.2562 -7.7625 24.1081
#
#
#
# Elastic Compliance Matrix: (Units=1/GPa)
#
#
# Indices 1 2 3 4 5 6 
#
# 1 0.026696 -0.005003 -0.010450 0.006405 0.007359 0.018421
# 2 -0.005003 0.026580 -0.009501 0.005487 -0.006720 -0.001579
# 3 -0.010450 -0.009501 0.017663 -0.011406 -0.000079 -0.012802
# 4 0.006405 0.005487 -0.011406 0.035808 0.001718 0.011416
# 5 0.007359 -0.006720 -0.000079 0.001718 0.032647 0.014102
# 6 0.018421 -0.001579 -0.012802 0.011416 0.014102 0.060406
#
#
# Mechanical properties :
#
#
# Convention : Reuss Voigt Hill
#
# Bulk Modulus (GPa) = 47.55221 61.61813 54.58517
# Shear Modulus (GPa) = 19.47657 28.48651 23.98154
#
# Velocity S-wave (km/s) = 3.09967 3.74868 3.43952
# Velocity P-wave (km/s) = 6.02233 7.00953 6.53460
#
# Compressibility (1/GPa) = 0.02102952
#
# Stress axis : x y z
#
# Youngs Moduli (GPa) = 37.45896 37.62268 56.61428
#
# Poissons Ratio (x) = 0.18824 0.59165
# Poissons Ratio (y) = 0.18742 0.53788
# Poissons Ratio (z) = 0.39146 0.35745
#
# Static dielectric constant tensor:
#      x y z
#    x 1.723070 -0.004960 0.012720 
#    y -0.004960 1.754610 0.025760 
#    z 0.012720 0.025760 1.723800 
# 
# From -- ./inp_files/428809.got.cif
#   From: 2010.05.17/outbox.cif.g08.bks.cpg/sg2_215_cif.got.tgz:428809.got - 2010.06.03 11:33:40.
