data_PCOD9054127
_publ_section_title
;
Structure prediction by ZEFSAII (Michael W. Deem and Ramdas Pophale) SiO2 
 PCOD9054127
Probable space group: P -1
;
_chemical_formula_sum "Si O2"
_cell_formula_units_Z 14
_cell_length_a 7.511457
_cell_length_b 9.988529
_cell_length_c 12.400899
_cell_angle_alpha 118.759801
_cell_angle_beta 110.427597
_cell_angle_gamma 114.067727
_cell_volume 545.233853
_symmetry_space_group_name_H-M "P -1"
_symmetry_group_IT_number 2
_symmetry_cell_setting 'triclinic'
loop_
_space_group_symop_operation_xyz
x,y,z
-x,-y,-z
loop_
_atom_site_type_symbol
_atom_site_label
_atom_site_fract_x
_atom_site_fract_y
_atom_site_fract_z
Si Si1 0.383429 0.336987 0.682125
Si Si2 0.295007 0.806810 0.963122
Si Si3 0.207941 0.503844 0.981286
Si Si4 0.210433 0.496519 0.584028
Si Si5 0.817914 0.640631 0.706486
Si Si6 0.258572 0.071451 0.194102
Si Si7 0.740653 0.030078 0.605634
O O1 0.181836 0.364456 0.626377
O O2 0.606293 0.490441 0.696156
O O3 0.245495 0.100099 0.527547
O O4 0.562984 0.430638 0.864482
O O5 0.364809 0.697563 0.002766
O O6 0.036768 0.633977 0.770332
O O7 0.500000 0.000000 0.000000
O O8 0.181061 0.866626 0.048612
O O9 0.013465 0.272784 0.790703
O O10 0.000000 0.500000 0.000000
O O11 0.253767 0.417957 0.455554
O O12 0.485420 0.740192 0.748875
O O13 0.000000 0.500000 0.500000
O O14 0.917377 0.874251 0.825845
O O15 0.339612 0.086894 0.340504
O O16 0.500000 0.000000 0.500000
#
# Coordination Sequence:
#
# PCOD9054127 Si02
#       7
#     2   2   2   2   2   2   2
#     4  11  21  43  71 106 144 184 254 302 342 447
#     4  12  25  42  66 105 149 181 231 308 374 428
#     4  12  23  40  72 109 141 192 246 293 362 444
#     4  11  23  40  67 105 146 188 236 306 376 422
#     4  11  20  40  70 101 135 184 249 293 351 442
#     4  11  21  39  67 100 132 188 248 289 356 437
#     4  12  20  37  71 106 138 185 245 298 350 420
#
# _framework density 25.677054999999999
#
# number of rings (size 3 to 8) (size 9 to 14) (size 15 to 20)
#    0.000    0.571    7.143    2.143    0.000    1.143 
#    0.000    0.000    3.143   12.857    7.429    0.000 
#    0.000    0.000    0.000    0.000    0.000    0.000 
#
# Total GULP energy -78193.168062 kJ/mol
# GULP energy per Si atom -5585.226290 kJ/mol
# Density = 2.561861 g / cm^3
# Si number density = 25.677055 Si / 1000 Ang^3
#
#
#
# Elastic Constant Matrix: (Units=GPa)
#
#
# Indices 1 2 3 4 5 6 
#
# 1 94.2045 48.3437 40.4068 -13.1397 7.2468 -29.7018
# 2 48.3437 189.0161 75.4797 -27.4910 7.3455 -29.1685
# 3 40.4068 75.4797 185.6593 -16.4037 -10.6232 -33.3864
# 4 -13.1397 -27.4910 -16.4037 57.8280 -15.7112 5.8844
# 5 7.2468 7.3455 -10.6232 -15.7112 37.3847 -10.1519
# 6 -29.7018 -29.1685 -33.3864 5.8844 -10.1519 49.8074
#
#
#
# Elastic Compliance Matrix: (Units=1/GPa)
#
#
# Indices 1 2 3 4 5 6 
#
# 1 0.014350 -0.002070 -0.001045 0.001213 -0.000420 0.006416
# 2 -0.002070 0.007162 -0.002070 0.002121 -0.000364 0.001247
# 3 -0.001045 -0.002070 0.007590 0.001774 0.004592 0.003979
# 4 0.001213 0.002121 0.001774 0.021413 0.009549 0.002572
# 5 -0.000420 -0.000364 0.004592 0.009549 0.034535 0.008526
# 6 0.006416 0.001247 0.003979 0.002572 0.008526 0.028735
#
#
# Mechanical properties :
#
#
# Convention : Reuss Voigt Hill
#
# Bulk Modulus (GPa) = 53.38424 88.59337 70.98881
# Shear Modulus (GPa) = 38.34389 49.31401 43.82895
#
# Velocity S-wave (km/s) = 3.86853 4.38716 4.13598
# Velocity P-wave (km/s) = 6.38669 7.76149 7.10741
#
# Compressibility (1/GPa) = 0.01873212
#
# Stress axis : x y z
#
# Youngs Moduli (GPa) = 69.68625 139.62817 131.74822
#
# Poissons Ratio (x) = 0.28907 0.13761
# Poissons Ratio (y) = 0.14427 0.27275
# Poissons Ratio (z) = 0.07279 0.28906
#
# Static dielectric constant tensor:
#      x y z
#    x 2.184660 -0.100060 -0.018660 
#    y -0.100060 2.115960 0.050190 
#    z -0.018660 0.050190 2.154260 
# 
# From -- ./inp_files/383038.got.cif
#   From: 2010.05.17/outbox.cif.g08.bks.cpg/sg2_192_cif.got.tgz:383038.got - 2010.06.03 11:33:40.
