data_PCOD9054562
_publ_section_title
;
Structure prediction by ZEFSAII (Michael W. Deem and Ramdas Pophale) SiO2 
 PCOD9054562
Probable space group: P -1
;
_chemical_formula_sum "Si O2"
_cell_formula_units_Z 14
_cell_length_a 17.020446
_cell_length_b 7.058193
_cell_length_c 13.586044
_cell_angle_alpha 48.278827
_cell_angle_beta 33.792269
_cell_angle_gamma 43.749703
_cell_volume 618.652080
_symmetry_space_group_name_H-M "P -1"
_symmetry_group_IT_number 2
_symmetry_cell_setting 'triclinic'
loop_
_space_group_symop_operation_xyz
x,y,z
-x,-y,-z
loop_
_atom_site_type_symbol
_atom_site_label
_atom_site_fract_x
_atom_site_fract_y
_atom_site_fract_z
Si Si1 0.438922 0.987558 0.897072
Si Si2 0.408734 0.622397 0.364054
Si Si3 0.022658 0.868808 0.382610
Si Si4 0.840107 0.784861 0.770165
Si Si5 0.304858 0.410629 0.354537
Si Si6 0.746492 0.427545 0.120624
Si Si7 0.174965 0.942929 0.658871
O O1 0.530661 0.730402 0.823264
O O2 0.559695 0.098566 0.779246
O O3 0.324696 0.262976 0.860891
O O4 0.325582 0.981812 0.102878
O O5 0.586870 0.398568 0.269623
O O6 0.303075 0.694952 0.546212
O O7 0.327729 0.543032 0.386175
O O8 0.180237 0.616423 0.337191
O O9 0.891799 0.805629 0.599347
O O10 0.037380 0.140465 0.319478
O O11 0.973012 0.924538 0.303197
O O12 0.828479 0.502601 0.916163
O O13 0.245330 0.170356 0.523531
O O14 0.846677 0.190422 0.171412
#
# Coordination Sequence:
#
# PCOD9054562 Si02
#       7
#     2   2   2   2   2   2   2
#     4   7  19  39  61  90 115 151 201 256 287 340
#     4   8  18  35  62  87 118 153 197 249 294 340
#     4  11  21  36  61  90 121 161 195 236 304 362
#     4   8  19  41  63  84 118 162 204 236 296 357
#     4  11  21  37  61  96 118 155 200 246 294 357
#     4   8  19  41  62  88 115 157 202 248 297 339
#     4  11  21  38  59  90 127 156 192 247 297 360
#
# _framework density 22.629843000000001
#
# number of rings (size 3 to 8) (size 9 to 14) (size 15 to 20)
#    1.714    0.857    0.000    2.571    0.000    1.714 
#    0.000   24.286    0.000    0.000    3.714    0.000 
#    0.000    0.000    0.000    0.000    0.000    0.000 
#
# Total GULP energy -78001.725593 kJ/mol
# GULP energy per Si atom -5571.551828 kJ/mol
# Density = 2.257834 g / cm^3
# Si number density = 22.629843 Si / 1000 Ang^3
#
#
#
# Elastic Constant Matrix: (Units=GPa)
#
#
# Indices 1 2 3 4 5 6 
#
# 1 80.9643 25.6128 17.6262 -9.1699 6.3553 1.4783
# 2 25.6128 58.2959 26.3622 -0.0924 14.7873 -5.7901
# 3 17.6262 26.3622 58.5291 -2.0527 12.3991 -15.8751
# 4 -9.1699 -0.0924 -2.0527 30.8982 -5.6674 2.6083
# 5 6.3553 14.7873 12.3991 -5.6674 14.3408 -8.8692
# 6 1.4783 -5.7901 -15.8751 2.6083 -8.8692 30.6535
#
#
#
# Elastic Compliance Matrix: (Units=1/GPa)
#
#
# Indices 1 2 3 4 5 6 
#
# 1 0.015460 -0.006322 -0.002991 0.005055 0.002226 -0.003275
# 2 -0.006322 0.029656 -0.007306 -0.006858 -0.027401 -0.005221
# 3 -0.002991 -0.007306 0.025535 -0.001456 -0.007677 0.009891
# 4 0.005055 -0.006858 -0.001456 0.037611 0.021383 0.000693
# 5 0.002226 -0.027401 -0.007677 0.021383 0.128171 0.026006
# 6 -0.003275 -0.005221 0.009891 0.000693 0.026006 0.044382
#
#
# Mechanical properties :
#
#
# Convention : Reuss Voigt Hill
#
# Bulk Modulus (GPa) = 26.72770 37.44352 32.08561
# Shear Modulus (GPa) = 15.31288 23.72436 19.51862
#
# Velocity S-wave (km/s) = 2.60411 3.24136 2.94005
# Velocity P-wave (km/s) = 4.56928 5.53087 5.07291
#
# Compressibility (1/GPa) = 0.03741437
#
# Stress axis : x y z
#
# Youngs Moduli (GPa) = 64.68431 33.71992 39.16204
#
# Poissons Ratio (x) = 0.21317 0.11713
# Poissons Ratio (y) = 0.40891 0.28611
# Poissons Ratio (z) = 0.19346 0.24635
#
# Static dielectric constant tensor:
#      x y z
#    x 1.819180 -0.029870 -0.030020 
#    y -0.029870 1.923760 0.013930 
#    z -0.030020 0.013930 1.881460 
# 
# From -- ./inp_files/536491.got.cif
#   From: 2010.05.17/outbox.cif.g08.bks.cpg/sg2_269_cif.got.tgz:536491.got - 2010.06.03 11:33:40.
