data_PCOD9054657
_publ_section_title
;
Structure prediction by ZEFSAII (Michael W. Deem and Ramdas Pophale) SiO2 
 PCOD9054657
Probable space group: P -1
;
_chemical_formula_sum "Si O2"
_cell_formula_units_Z 16
_cell_length_a 9.756713
_cell_length_b 17.960371
_cell_length_c 6.454328
_cell_angle_alpha 118.118940
_cell_angle_beta 53.332241
_cell_angle_gamma 121.172469
_cell_volume 754.226194
_symmetry_space_group_name_H-M "P -1"
_symmetry_group_IT_number 2
_symmetry_cell_setting 'triclinic'
loop_
_space_group_symop_operation_xyz
x,y,z
-x,-y,-z
loop_
_atom_site_type_symbol
_atom_site_label
_atom_site_fract_x
_atom_site_fract_y
_atom_site_fract_z
Si Si1 0.449115 0.230679 0.972532
Si Si2 0.222623 0.038177 0.835899
Si Si3 0.451870 0.650922 0.348740
Si Si4 0.283340 0.763369 0.916688
Si Si5 0.542275 0.057696 0.245416
Si Si6 0.611034 0.605302 0.527031
Si Si7 0.144024 0.527550 0.222225
Si Si8 0.986297 0.630649 0.199059
O O1 0.601114 0.206577 0.936989
O O2 0.447978 0.320282 0.205796
O O3 0.280378 0.139272 0.007614
O O4 0.480936 0.265347 0.755128
O O5 0.351732 0.050238 0.525191
O O6 0.318497 0.977950 0.797609
O O7 0.000000 0.000000 0.000000
O O8 0.318632 0.677557 0.664966
O O9 0.603038 0.631997 0.328101
O O10 0.338245 0.564974 0.205049
O O11 0.346843 0.842259 0.799365
O O12 0.077831 0.724448 0.127161
O O13 0.500000 0.000000 0.000000
O O14 0.500000 0.500000 0.500000
O O15 0.806311 0.622674 0.472456
O O16 0.121901 0.607371 0.203889
O O17 0.000000 0.500000 0.500000
O O18 0.091654 0.445963 0.003348
#
# Coordination Sequence:
#
# PCOD9054657 Si02
#       8
#     2   2   2   2   2   2   2   2
#     4  11  23  45  67  93 138 177 215 287 341 404
#     4  11  26  47  73 110 139 179 239 285 354 434
#     4  11  22  41  66  86 131 177 213 269 338 391
#     4  11  22  42  67  97 128 173 225 275 340 406
#     4  11  24  46  75 101 143 182 222 294 357 417
#     4  11  26  42  61  97 137 176 226 278 338 401
#     4  11  21  37  63  90 125 175 217 276 326 387
#     4  11  24  38  61  98 128 166 235 275 327 410
#
# _framework density 21.213792999999999
#
# number of rings (size 3 to 8) (size 9 to 14) (size 15 to 20)
#    0.000    1.000    5.000    1.500    3.500    5.500 
#    2.250    0.000    0.000    0.000    0.000    0.000 
#    0.000    0.000    0.000    0.000    0.000    0.000 
#
# Total GULP energy -89114.291138 kJ/mol
# GULP energy per Si atom -5569.643196 kJ/mol
# Density = 2.116551 g / cm^3
# Si number density = 21.213793 Si / 1000 Ang^3
#
#
#
# Elastic Constant Matrix: (Units=GPa)
#
#
# Indices 1 2 3 4 5 6 
#
# 1 88.8308 39.4239 32.4334 -9.9458 -0.9187 9.5726
# 2 39.4239 140.0286 37.1975 -18.2594 -5.3704 9.3063
# 3 32.4334 37.1975 57.9633 -8.6412 0.6897 -5.4975
# 4 -9.9458 -18.2594 -8.6412 34.1426 1.7799 -0.4986
# 5 -0.9187 -5.3704 0.6897 1.7799 33.0164 -8.5098
# 6 9.5726 9.3063 -5.4975 -0.4986 -8.5098 32.6683
#
#
#
# Elastic Compliance Matrix: (Units=1/GPa)
#
#
# Indices 1 2 3 4 5 6 
#
# 1 0.015736 -0.001773 -0.007958 0.001603 -0.001252 -0.005747
# 2 -0.001773 0.009599 -0.004953 0.003285 0.000714 -0.002812
# 3 -0.007958 -0.004953 0.025913 0.001687 0.000467 0.008251
# 4 0.001603 0.003285 0.001687 0.032000 -0.001441 -0.001009
# 5 -0.001252 0.000714 0.000467 -0.001441 0.032689 0.008735
# 6 -0.005747 -0.002812 0.008251 -0.001009 0.008735 0.036744
#
#
# Mechanical properties :
#
#
# Convention : Reuss Voigt Hill
#
# Bulk Modulus (GPa) = 45.70850 56.10359 50.90605
# Shear Modulus (GPa) = 26.40709 31.81665 29.11187
#
# Velocity S-wave (km/s) = 3.53201 3.87694 3.70849
# Velocity P-wave (km/s) = 6.18279 6.82239 6.51045
#
# Compressibility (1/GPa) = 0.02187777
#
# Stress axis : x y z
#
# Youngs Moduli (GPa) = 63.54939 104.17576 38.59122
#
# Poissons Ratio (x) = 0.18474 0.30711
# Poissons Ratio (y) = 0.11270 0.19116
# Poissons Ratio (z) = 0.50573 0.51602
#
# Static dielectric constant tensor:
#      x y z
#    x 1.772580 0.013380 -0.013190 
#    y 0.013380 1.711960 -0.070070 
#    z -0.013190 -0.070070 1.798340 
# 
# From -- ./inp_files/48507.got.cif
#   From: 2010.05.17/outbox.cif.g08.bks.cpg/sg2_25_cif.got.tgz:48507.got - 2010.06.03 11:33:40.
