data_PCOD9054904
_publ_section_title
;
Structure prediction by ZEFSAII (Michael W. Deem and Ramdas Pophale) SiO2 
 PCOD9054904
Probable space group: P -1
;
_chemical_formula_sum "Si O2"
_cell_formula_units_Z 14
_cell_length_a 9.582125
_cell_length_b 9.499589
_cell_length_c 16.963976
_cell_angle_alpha 60.494223
_cell_angle_beta 93.418980
_cell_angle_gamma 44.485085
_cell_volume 695.697855
_symmetry_space_group_name_H-M "P -1"
_symmetry_group_IT_number 2
_symmetry_cell_setting 'triclinic'
loop_
_space_group_symop_operation_xyz
x,y,z
-x,-y,-z
loop_
_atom_site_type_symbol
_atom_site_label
_atom_site_fract_x
_atom_site_fract_y
_atom_site_fract_z
Si Si1 0.622548 0.085066 0.794941
Si Si2 0.935530 0.159865 0.032463
Si Si3 0.488001 0.868086 0.599937
Si Si4 0.992738 0.835567 0.253832
Si Si5 0.225627 0.855786 0.366080
Si Si6 0.009297 0.804341 0.578627
Si Si7 0.492776 0.143536 0.208228
O O1 0.723165 0.078734 0.722975
O O2 0.309435 0.441335 0.693122
O O3 0.630836 0.886289 0.834306
O O4 0.811812 0.974251 0.898972
O O5 0.887450 0.072345 0.122300
O O6 0.682800 0.524824 0.907994
O O7 0.000000 0.000000 0.000000
O O8 0.514763 0.880964 0.690516
O O9 0.726659 0.509727 0.678477
O O10 0.500000 0.000000 0.500000
O O11 0.191979 0.086452 0.516935
O O12 0.042249 0.889900 0.319913
O O13 0.789671 0.892508 0.253695
O O14 0.500000 0.500000 0.500000
O O15 0.112152 0.075241 0.371601
O O16 0.000000 0.000000 0.500000
#
# Coordination Sequence:
#
# PCOD9054904 Si02
#       7
#     2   2   2   2   2   2   2
#     4  11  26  43  65  99 133 174 219 275 336 387
#     4  11  24  49  72  92 130 177 233 278 323 392
#     4  12  25  40  65 101 141 171 213 270 335 401
#     4  11  24  43  68 100 128 179 226 269 333 396
#     4  11  21  39  64  92 136 174 215 266 323 394
#     4  12  22  38  65  96 132 175 220 260 323 404
#     4  12  26  44  70  97 137 177 219 281 335 385
#
# _framework density 20.123678999999999
#
# number of rings (size 3 to 8) (size 9 to 14) (size 15 to 20)
#    0.000    0.571    4.286    4.286    2.000    1.143 
#    0.000    0.714    0.000    0.000    0.000    0.000 
#    0.000    0.000    0.000    0.000    0.000    0.000 
#
# Total GULP energy -78239.902513 kJ/mol
# GULP energy per Si atom -5588.564465 kJ/mol
# Density = 2.007788 g / cm^3
# Si number density = 20.123679 Si / 1000 Ang^3
#
#
#
# Elastic Constant Matrix: (Units=GPa)
#
#
# Indices 1 2 3 4 5 6 
#
# 1 94.5334 6.7268 11.8680 21.1088 7.7466 3.9121
# 2 6.7268 90.8514 27.6818 8.5636 10.7296 4.8040
# 3 11.8680 27.6818 70.9926 17.7664 0.5950 -6.0313
# 4 21.1088 8.5636 17.7664 34.0005 4.3531 9.3594
# 5 7.7466 10.7296 0.5950 4.3531 38.1103 0.1192
# 6 3.9121 4.8040 -6.0313 9.3594 0.1192 28.0825
#
#
#
# Elastic Compliance Matrix: (Units=1/GPa)
#
#
# Indices 1 2 3 4 5 6 
#
# 1 0.012403 -0.000028 -0.000055 -0.007684 -0.001637 0.000833
# 2 -0.000028 0.013313 -0.005804 0.001262 -0.003784 -0.003924
# 3 -0.000055 -0.005804 0.020102 -0.011902 0.002662 0.009273
# 4 -0.007684 0.001262 -0.011902 0.045166 -0.003714 -0.016739
# 5 -0.001637 -0.003784 0.002662 -0.003714 0.028012 0.002566
# 6 0.000833 -0.003924 0.009273 -0.016739 0.002566 0.043724
#
#
# Mechanical properties :
#
#
# Convention : Reuss Voigt Hill
#
# Bulk Modulus (GPa) = 29.37365 38.77008 34.07187
# Shear Modulus (GPa) = 26.90453 34.04537 30.47495
#
# Velocity S-wave (km/s) = 3.66041 4.11762 3.89573
# Velocity P-wave (km/s) = 5.70027 6.47411 6.09947
#
# Compressibility (1/GPa) = 0.03404412
#
# Stress axis : x y z
#
# Youngs Moduli (GPa) = 80.62803 75.11523 49.74575
#
# Poissons Ratio (x) = 0.00210 0.00274
# Poissons Ratio (y) = 0.00225 0.28872
# Poissons Ratio (z) = 0.00444 0.43595
#
# Static dielectric constant tensor:
#      x y z
#    x 1.733780 -0.016140 0.008380 
#    y -0.016140 1.794880 0.040100 
#    z 0.008380 0.040100 1.728500 
# 
# From -- ./inp_files/47388.got.cif
#   From: 2010.05.17/outbox.cif.g08.bks.cpg/sg2_24_cif.got.tgz:47388.got - 2010.06.03 11:33:40.
