data_PCOD9054262
_publ_section_title
;
Structure prediction by ZEFSAII (Michael W. Deem and Ramdas Pophale) SiO2 
 PCOD9054262
Probable space group: P -1
;
_chemical_formula_sum "Si O2"
_cell_formula_units_Z 16
_cell_length_a 14.455473
_cell_length_b 8.559455
_cell_length_c 7.885371
_cell_angle_alpha 52.454169
_cell_angle_beta 71.856290
_cell_angle_gamma 99.970432
_cell_volume 644.216489
_symmetry_space_group_name_H-M "P -1"
_symmetry_group_IT_number 2
_symmetry_cell_setting 'triclinic'
loop_
_space_group_symop_operation_xyz
x,y,z
-x,-y,-z
loop_
_atom_site_type_symbol
_atom_site_label
_atom_site_fract_x
_atom_site_fract_y
_atom_site_fract_z
Si Si1 0.194739 0.719322 0.487564
Si Si2 0.213956 0.879786 0.997414
Si Si3 0.676439 0.674796 0.571093
Si Si4 0.010988 0.240181 0.368754
Si Si5 0.250149 0.509365 0.060080
Si Si6 0.514845 0.242144 0.379802
Si Si7 0.424223 0.774603 0.293753
Si Si8 0.024059 0.246211 0.765236
O O1 0.101277 0.751171 0.621698
O O2 0.317206 0.778360 0.439757
O O3 0.132274 0.458200 0.636358
O O4 0.220222 0.871397 0.202087
O O5 0.259154 0.122284 0.729754
O O6 0.270759 0.741605 0.980915
O O7 0.083809 0.741054 0.117822
O O8 0.755020 0.663077 0.678421
O O9 0.578940 0.714569 0.678234
O O10 0.621729 0.436621 0.664955
O O11 0.022416 0.269941 0.547364
O O12 0.130458 0.409488 0.106116
O O13 0.000000 0.000000 0.500000
O O14 0.360847 0.567941 0.857261
O O15 0.502518 0.246979 0.585579
O O16 0.500000 0.000000 0.500000
O O17 0.500000 0.000000 0.000000
O O18 0.000000 0.000000 0.000000
#
# Coordination Sequence:
#
# PCOD9054262 Si02
#       8
#     2   2   2   2   2   2   2   2
#     4  11  22  44  70 101 137 185 236 283 333 415
#     4  11  20  41  74  99 136 179 235 282 338 407
#     4  12  25  46  77  99 131 188 235 286 349 408
#     4  11  24  41  64 101 144 179 218 286 344 402
#     4  12  23  46  69 102 142 180 226 288 347 410
#     4  12  27  45  69 102 141 181 228 287 353 413
#     4  12  26  47  73 104 137 180 238 288 338 413
#     4  11  21  40  71 100 133 189 237 269 342 413
#
# _framework density 24.836369999999999
#
# number of rings (size 3 to 8) (size 9 to 14) (size 15 to 20)
#    0.000    0.500    5.000    4.500    0.000    5.000 
#    2.250    1.250    0.000    0.000    0.000    0.000 
#    0.000    0.000    0.000    0.000    0.000    0.000 
#
# Total GULP energy -89608.401141 kJ/mol
# GULP energy per Si atom -5600.525071 kJ/mol
# Density = 2.477984 g / cm^3
# Si number density = 24.836370 Si / 1000 Ang^3
#
#
#
# Elastic Constant Matrix: (Units=GPa)
#
#
# Indices 1 2 3 4 5 6 
#
# 1 130.2157 16.5647 36.0194 -4.4003 -12.2796 -26.6465
# 2 16.5647 59.9014 15.9639 -20.9194 -5.1073 -16.2529
# 3 36.0194 15.9639 142.7622 -26.8505 -0.4980 -3.7720
# 4 -4.4003 -20.9194 -26.8505 31.5913 -4.8499 2.0623
# 5 -12.2796 -5.1073 -0.4980 -4.8499 54.7210 2.6244
# 6 -26.6465 -16.2529 -3.7720 2.0623 2.6244 36.7467
#
#
#
# Elastic Compliance Matrix: (Units=1/GPa)
#
#
# Indices 1 2 3 4 5 6 
#
# 1 0.009920 -0.000587 -0.002501 -0.001302 0.001715 0.006628
# 2 -0.000587 0.025699 0.000841 0.017527 0.003358 0.009804
# 3 -0.002501 0.000841 0.009020 0.007995 0.000355 -0.000990
# 4 -0.001302 0.017527 0.007995 0.050459 0.005678 0.004391
# 5 0.001715 0.003358 0.000355 0.005678 0.019429 0.001059
# 6 0.006628 0.009804 -0.000990 0.004391 0.001059 0.035932
#
#
# Mechanical properties :
#
#
# Convention : Reuss Voigt Hill
#
# Bulk Modulus (GPa) = 24.90837 52.21947 38.56392
# Shear Modulus (GPa) = 29.70277 42.23387 35.96832
#
# Velocity S-wave (km/s) = 3.46199 4.12817 3.80967
# Velocity P-wave (km/s) = 5.10208 6.61766 5.90866
#
# Compressibility (1/GPa) = 0.04014714
#
# Stress axis : x y z
#
# Youngs Moduli (GPa) = 100.80598 38.91130 110.86124
#
# Poissons Ratio (x) = 0.02283 0.27726
# Poissons Ratio (y) = 0.05915 -0.09329
# Poissons Ratio (z) = 0.25212 -0.03274
#
# Static dielectric constant tensor:
#      x y z
#    x 1.979980 -0.020030 -0.040400 
#    y -0.020030 1.938470 0.028970 
#    z -0.040400 0.028970 1.965550 
# 
# From -- ./inp_files/297398.got.cif
#   From: 2010.05.17/outbox.cif.g08.bks.cpg/sg2_149_cif.got.tgz:297398.got - 2010.06.03 11:33:40.
