data_PCOD9054124
_publ_section_title
;
Structure prediction by ZEFSAII (Michael W. Deem and Ramdas Pophale) SiO2 
 PCOD9054124
Probable space group: P -1
;
_chemical_formula_sum "Si O2"
_cell_formula_units_Z 14
_cell_length_a 8.944346
_cell_length_b 10.753576
_cell_length_c 26.511419
_cell_angle_alpha 19.443873
_cell_angle_beta 135.640830
_cell_angle_gamma 131.277076
_cell_volume 592.318816
_symmetry_space_group_name_H-M "P -1"
_symmetry_group_IT_number 2
_symmetry_cell_setting 'triclinic'
loop_
_space_group_symop_operation_xyz
x,y,z
-x,-y,-z
loop_
_atom_site_type_symbol
_atom_site_label
_atom_site_fract_x
_atom_site_fract_y
_atom_site_fract_z
Si Si1 0.044515 0.913702 0.699576
Si Si2 0.052433 0.242563 0.800790
Si Si3 0.414584 0.309099 0.002061
Si Si4 0.258293 0.368439 0.497927
Si Si5 0.159618 0.643558 0.192483
Si Si6 0.443403 0.620228 0.784270
Si Si7 0.918373 0.605308 0.883912
O O1 0.197955 0.572053 0.846388
O O2 0.829790 0.740216 0.690855
O O3 0.038819 0.884651 0.769764
O O4 0.153685 0.261786 0.567311
O O5 0.295316 0.363676 0.813704
O O6 0.914327 0.345186 0.679092
O O7 0.922734 0.444575 0.737932
O O8 0.056501 0.801578 0.980775
O O9 0.515681 0.403481 0.936593
O O10 0.500000 0.500000 0.000000
O O11 0.376119 0.870889 0.163473
O O12 0.500000 0.500000 0.500000
O O13 0.289656 0.981360 0.622617
O O14 0.000000 0.000000 0.000000
O O15 0.667939 0.732046 0.774017
O O16 0.000000 0.500000 0.000000
#
# Coordination Sequence:
#
# PCOD9054124 Si02
#       7
#     2   2   2   2   2   2   2
#     4  10  21  41  62  88 130 173 214 261 321 393
#     4  12  22  42  67  96 130 170 216 272 319 392
#     4  10  18  32  60  94 122 161 215 269 309 371
#     4  11  25  43  67  96 129 170 222 272 327 383
#     4  10  17  35  63  92 121 159 219 266 312 370
#     4  11  23  40  63  96 130 170 215 265 325 389
#     4  12  24  41  67  98 133 169 213 271 329 382
#
# _framework density 23.635919000000001
#
# number of rings (size 3 to 8) (size 9 to 14) (size 15 to 20)
#    0.000    1.143    7.143    2.571    4.000    0.000 
#    0.000    3.571    0.000    0.000    0.000    0.000 
#    0.000    0.000    0.000    0.000    0.000    0.000 
#
# Total GULP energy -77951.493966 kJ/mol
# GULP energy per Si atom -5567.963855 kJ/mol
# Density = 2.358212 g / cm^3
# Si number density = 23.635919 Si / 1000 Ang^3
#
#
#
# Elastic Constant Matrix: (Units=GPa)
#
#
# Indices 1 2 3 4 5 6 
#
# 1 92.3154 8.4997 32.3515 4.7537 -31.4665 7.7095
# 2 8.4997 85.4064 19.8473 -7.1776 -16.1655 8.0542
# 3 32.3515 19.8473 76.8461 -2.9740 -17.6495 12.7684
# 4 4.7537 -7.1776 -2.9740 25.7885 0.2266 -3.4688
# 5 -31.4665 -16.1655 -17.6495 0.2266 38.3400 -6.7319
# 6 7.7095 8.0542 12.7684 -3.4688 -6.7319 29.6868
#
#
#
# Elastic Compliance Matrix: (Units=1/GPa)
#
#
# Indices 1 2 3 4 5 6 
#
# 1 0.016667 0.001472 -0.004688 -0.003358 0.012098 -0.000360
# 2 0.001472 0.013571 -0.002513 0.002981 0.005513 -0.001385
# 3 -0.004688 -0.002513 0.016954 0.001462 0.002054 -0.004756
# 4 -0.003358 0.002981 0.001462 0.040955 -0.000340 0.004143
# 5 0.012098 0.005513 0.002054 -0.000340 0.039895 0.003486
# 6 -0.000360 -0.001385 -0.004756 0.004143 0.003486 0.037475
#
#
# Mechanical properties :
#
#
# Convention : Reuss Voigt Hill
#
# Bulk Modulus (GPa) = 27.98500 41.77388 34.87944
# Shear Modulus (GPa) = 26.47107 31.68768 29.07937
#
# Velocity S-wave (km/s) = 3.35020 3.66547 3.51137
# Velocity P-wave (km/s) = 5.17985 5.96879 5.58826
#
# Compressibility (1/GPa) = 0.03573343
#
# Stress axis : x y z
#
# Youngs Moduli (GPa) = 60.00059 73.68764 58.98178
#
# Poissons Ratio (x) = -0.10850 0.27652
# Poissons Ratio (y) = -0.08835 0.14824
# Poissons Ratio (z) = 0.28130 0.18520
#
# Static dielectric constant tensor:
#      x y z
#    x 2.095920 0.399810 -0.048660 
#    y 0.399810 3.668050 0.257940 
#    z -0.048660 0.257940 1.998730 
# 
# From -- ./inp_files/617018.got.cif
#   From: 2010.05.17/outbox.cif.g08.bks.cpg/sg2_309_cif.got.tgz:617018.got - 2010.06.03 11:33:40.
