data_PCOD9054266
_publ_section_title
;
Structure prediction by ZEFSAII (Michael W. Deem and Ramdas Pophale) SiO2 
 PCOD9054266
Probable space group: P -1
;
_chemical_formula_sum "Si O2"
_cell_formula_units_Z 12
_cell_length_a 11.441417
_cell_length_b 14.115121
_cell_length_c 18.939780
_cell_angle_alpha 147.361092
_cell_angle_beta 22.131719
_cell_angle_gamma 148.160887
_cell_volume 584.025473
_symmetry_space_group_name_H-M "P -1"
_symmetry_group_IT_number 2
_symmetry_cell_setting 'triclinic'
loop_
_space_group_symop_operation_xyz
x,y,z
-x,-y,-z
loop_
_atom_site_type_symbol
_atom_site_label
_atom_site_fract_x
_atom_site_fract_y
_atom_site_fract_z
Si Si1 0.771852 0.256012 0.634275
Si Si2 0.814149 0.547157 0.066416
Si Si3 0.128803 0.398945 0.289498
Si Si4 0.109771 0.206343 0.038514
Si Si5 0.850765 0.477855 0.285815
Si Si6 0.414373 0.117179 0.558586
O O1 0.902889 0.400398 0.586751
O O2 0.929067 0.358960 0.682841
O O3 0.786979 0.050242 0.486450
O O4 0.385662 0.227756 0.839219
O O5 0.425861 0.423680 0.193405
O O6 0.791314 0.753258 0.220682
O O7 0.000000 0.500000 0.000000
O O8 0.004618 0.522298 0.873446
O O9 0.248374 0.337496 0.110512
O O10 0.767624 0.251560 0.414853
O O11 0.839116 0.282121 0.204757
O O12 0.000000 0.000000 0.000000
O O13 0.500000 0.500000 0.500000
O O14 0.500000 0.000000 0.500000
#
# Coordination Sequence:
#
# PCOD9054266 Si02
#       6
#     2   2   2   2   2   2
#     4  11  22  45  74 101 132 179 241 283 331 414
#     4  12  27  45  65 104 149 180 220 289 355 403
#     4  11  22  43  73  98 134 185 228 285 335 410
#     4  11  20  41  77 101 126 173 246 283 326 404
#     4  11  25  46  69  99 142 183 227 284 345 405
#     4  12  25  43  73 104 135 178 239 280 344 415
#
# _framework density 20.547049000000001
#
# number of rings (size 3 to 8) (size 9 to 14) (size 15 to 20)
#    0.000    0.667    6.667    1.500    4.667    0.000 
#    3.000    3.333    0.000    0.000    0.000    0.000 
#    0.000    0.000    0.000    0.000    0.000    0.000 
#
# Total GULP energy -66979.044599 kJ/mol
# GULP energy per Si atom -5581.587050 kJ/mol
# Density = 2.050028 g / cm^3
# Si number density = 20.547049 Si / 1000 Ang^3
#
#
#
# Elastic Constant Matrix: (Units=GPa)
#
#
# Indices 1 2 3 4 5 6 
#
# 1 141.5504 51.5464 66.6697 10.1901 -7.3604 0.5729
# 2 51.5464 140.3760 59.9382 10.7897 -0.0930 -9.1306
# 3 66.6697 59.9382 153.0702 13.4876 -2.3800 0.1489
# 4 10.1901 10.7897 13.4876 36.1433 -1.5022 10.3060
# 5 -7.3604 -0.0930 -2.3800 -1.5022 34.3110 4.6221
# 6 0.5729 -9.1306 0.1489 10.3060 4.6221 28.9520
#
#
#
# Elastic Compliance Matrix: (Units=1/GPa)
#
#
# Indices 1 2 3 4 5 6 
#
# 1 0.009502 -0.002136 -0.003229 -0.000476 0.001920 -0.000982
# 2 -0.002136 0.009470 -0.002582 -0.002493 -0.001278 0.004134
# 3 -0.003229 -0.002582 0.009096 -0.001665 -0.000117 -0.000186
# 4 -0.000476 -0.002493 -0.001665 0.032994 0.002970 -0.012987
# 5 0.001920 -0.001278 -0.000117 0.002970 0.030534 -0.006372
# 6 -0.000982 0.004134 -0.000186 -0.012987 -0.006372 0.041504
#
#
# Mechanical properties :
#
#
# Convention : Reuss Voigt Hill
#
# Bulk Modulus (GPa) = 82.15246 87.92280 85.03763
# Shear Modulus (GPa) = 32.66863 37.00407 34.83635
#
# Velocity S-wave (km/s) = 3.99173 4.24836 4.12204
# Velocity P-wave (km/s) = 7.83037 8.18221 8.00822
#
# Compressibility (1/GPa) = 0.01217249
#
# Stress axis : x y z
#
# Youngs Moduli (GPa) = 105.24608 105.59324 109.94397
#
# Poissons Ratio (x) = 0.22557 0.35502
# Poissons Ratio (y) = 0.22483 0.28389
# Poissons Ratio (z) = 0.33985 0.27265
#
# Static dielectric constant tensor:
#      x y z
#    x 1.782550 0.030560 0.042690 
#    y 0.030560 1.799500 0.042420 
#    z 0.042690 0.042420 1.751380 
# 
# From -- ./inp_files/498704.got.cif
#   From: 2010.05.17/outbox.cif.g08.bks.cpg/sg2_250_cif.got.tgz:498704.got - 2010.06.03 11:33:40.
