data_PCOD9054841
_publ_section_title
;
Structure prediction by ZEFSAII (Michael W. Deem and Ramdas Pophale) SiO2 
 PCOD9054841
Probable space group: P -1
;
_chemical_formula_sum "Si O2"
_cell_formula_units_Z 14
_cell_length_a 10.228930
_cell_length_b 5.590879
_cell_length_c 12.326320
_cell_angle_alpha 59.902828
_cell_angle_beta 99.864114
_cell_angle_gamma 73.771571
_cell_volume 542.867955
_symmetry_space_group_name_H-M "P -1"
_symmetry_group_IT_number 2
_symmetry_cell_setting 'triclinic'
loop_
_space_group_symop_operation_xyz
x,y,z
-x,-y,-z
loop_
_atom_site_type_symbol
_atom_site_label
_atom_site_fract_x
_atom_site_fract_y
_atom_site_fract_z
Si Si1 0.340219 0.774345 0.423202
Si Si2 0.810107 0.932105 0.467504
Si Si3 0.379794 0.209010 0.020203
Si Si4 0.507995 0.834386 0.712009
Si Si5 0.124798 0.822788 0.793347
Si Si6 0.025394 0.588131 0.217714
Si Si7 0.264703 0.770584 0.174722
O O1 0.500000 0.500000 0.500000
O O2 0.251547 0.799547 0.295889
O O3 0.249162 0.797257 0.512280
O O4 0.384782 0.057111 0.363615
O O5 0.900464 0.627597 0.617254
O O6 0.658263 0.953633 0.389851
O O7 0.889075 0.010624 0.362104
O O8 0.291540 0.563171 0.894363
O O9 0.458217 0.165946 0.157040
O O10 0.500000 0.000000 0.000000
O O11 0.260330 0.072073 0.052311
O O12 0.569703 0.482497 0.766561
O O13 0.033155 0.620830 0.811599
O O14 0.080441 0.082701 0.820016
O O15 0.143714 0.657325 0.148695
#
# Coordination Sequence:
#
# PCOD9054841 Si02
#       7
#     2   2   2   2   2   2   2
#     4  11  21  38  69 117 151 189 244 312 393 446
#     4  12  24  47  79 113 158 194 253 323 386 457
#     4  11  29  51  78 111 149 197 260 323 385 450
#     4  11  24  44  78 113 140 197 253 322 383 441
#     4  12  31  51  76 112 157 210 258 311 380 463
#     4  12  28  51  75 114 156 210 255 306 386 465
#     4  11  24  46  76 109 152 200 254 316 378 453
#
# _framework density 25.788962000000001
#
# number of rings (size 3 to 8) (size 9 to 14) (size 15 to 20)
#    0.000    0.571    2.857    3.857    8.000    3.429 
#    0.000    0.000    0.000    0.000    0.000    0.000 
#    0.000    0.000    0.000    0.000    0.000    0.000 
#
# Total GULP energy -78439.015869 kJ/mol
# GULP energy per Si atom -5602.786848 kJ/mol
# Density = 2.573027 g / cm^3
# Si number density = 25.788962 Si / 1000 Ang^3
#
#
#
# Elastic Constant Matrix: (Units=GPa)
#
#
# Indices 1 2 3 4 5 6 
#
# 1 77.3106 25.5510 3.4402 8.7717 2.5526 14.0266
# 2 25.5510 148.3072 39.8347 -5.5262 13.6609 -19.0022
# 3 3.4402 39.8347 110.0875 -2.2080 14.4684 -7.2714
# 4 8.7717 -5.5262 -2.2080 52.4890 -5.0102 6.7428
# 5 2.5526 13.6609 14.4684 -5.0102 36.2051 -5.2357
# 6 14.0266 -19.0022 -7.2714 6.7428 -5.2357 49.0229
#
#
#
# Elastic Compliance Matrix: (Units=1/GPa)
#
#
# Indices 1 2 3 4 5 6 
#
# 1 0.015346 -0.003466 0.000511 -0.002311 -0.001087 -0.005457
# 2 -0.003466 0.008664 -0.002589 0.000777 -0.001345 0.003716
# 3 0.000511 -0.002589 0.010432 -0.000240 -0.003249 0.000084
# 4 -0.002311 0.000777 -0.000240 0.019947 0.002502 -0.001550
# 5 -0.001087 -0.001345 -0.003249 0.002502 0.030165 0.002185
# 6 -0.005457 0.003716 0.000084 -0.001550 0.002185 0.023859
#
#
# Mechanical properties :
#
#
# Convention : Reuss Voigt Hill
#
# Bulk Modulus (GPa) = 42.82007 52.59525 47.70766
# Shear Modulus (GPa) = 39.28115 45.33537 42.30826
#
# Velocity S-wave (km/s) = 3.90702 4.19732 4.05477
# Velocity P-wave (km/s) = 6.08220 6.62788 6.36090
#
# Compressibility (1/GPa) = 0.02335354
#
# Stress axis : x y z
#
# Youngs Moduli (GPa) = 65.16450 115.41667 95.85631
#
# Poissons Ratio (x) = 0.40005 -0.04896
# Poissons Ratio (y) = 0.22587 0.24817
# Poissons Ratio (z) = -0.03328 0.29881
#
# Static dielectric constant tensor:
#      x y z
#    x 2.098270 0.041900 0.016400 
#    y 0.041900 2.032710 -0.041530 
#    z 0.016400 -0.041530 2.026900 
# 
# From -- ./inp_files/118796.got.cif
#   From: 2010.05.17/outbox.cif.g08.bks.cpg/sg2_60_cif.got.tgz:118796.got - 2010.06.03 11:33:40.
