data_PCOD9054775
_publ_section_title
;
Structure prediction by ZEFSAII (Michael W. Deem and Ramdas Pophale) SiO2 
 PCOD9054775
Probable space group: P -1
;
_chemical_formula_sum "Si O2"
_cell_formula_units_Z 14
_cell_length_a 14.837302
_cell_length_b 8.984208
_cell_length_c 14.549992
_cell_angle_alpha 48.190666
_cell_angle_beta 152.885895
_cell_angle_gamma 114.560092
_cell_volume 561.500773
_symmetry_space_group_name_H-M "P -1"
_symmetry_group_IT_number 2
_symmetry_cell_setting 'triclinic'
loop_
_space_group_symop_operation_xyz
x,y,z
-x,-y,-z
loop_
_atom_site_type_symbol
_atom_site_label
_atom_site_fract_x
_atom_site_fract_y
_atom_site_fract_z
Si Si1 0.167067 0.392562 0.430582
Si Si2 0.058571 0.332732 0.535218
Si Si3 0.881041 0.104777 0.143758
Si Si4 0.570057 0.154275 0.124891
Si Si5 0.643020 0.055754 0.443026
Si Si6 0.560779 0.478853 0.833460
Si Si7 0.431720 0.311932 0.538291
O O1 0.979896 0.475785 0.308844
O O2 0.349205 0.462946 0.603774
O O3 0.191025 0.431822 0.328271
O O4 0.248327 0.118228 0.615144
O O5 0.000000 0.500000 0.500000
O O6 0.010453 0.128034 0.599060
O O7 0.337334 0.198813 0.846506
O O8 0.773304 0.336254 0.014360
O O9 0.655898 0.132453 0.877350
O O10 0.079960 0.061815 0.271098
O O11 0.547443 0.178208 0.204807
O O12 0.617484 0.331623 0.039818
O O13 0.535093 0.253665 0.340254
O O14 0.588025 0.850775 0.487558
O O15 0.500000 0.500000 0.500000
#
# Coordination Sequence:
#
# PCOD9054775 Si02
#       7
#     2   2   2   2   2   2   2
#     4   9  17  36  60  82 125 162 195 242 306 362
#     4  11  18  32  62  92 125 166 194 235 315 381
#     4  11  21  40  63  90 125 166 194 250 328 361
#     4  10  17  36  51  83 134 159 192 243 293 376
#     4  11  23  37  60  96 119 157 215 252 298 381
#     4  10  18  34  58  89 133 156 196 254 302 367
#     4  10  23  45  66  83 121 167 212 265 302 351
#
# _framework density 24.93318
#
# number of rings (size 3 to 8) (size 9 to 14) (size 15 to 20)
#    0.000    1.714    5.714    3.000    0.000    1.143 
#    5.143    4.286    0.000   10.286    0.000    0.000 
#    0.000    0.000    0.000    0.000    0.000    0.000 
#
# Total GULP energy -78124.290897 kJ/mol
# GULP energy per Si atom -5580.306493 kJ/mol
# Density = 2.487643 g / cm^3
# Si number density = 24.933180 Si / 1000 Ang^3
#
#
#
# Elastic Constant Matrix: (Units=GPa)
#
#
# Indices 1 2 3 4 5 6 
#
# 1 73.3996 53.7539 15.5996 -32.1453 24.5929 6.9790
# 2 53.7539 170.1411 32.4306 -39.8617 31.6213 -5.7481
# 3 15.5996 32.4306 38.2052 0.8090 16.9150 2.6764
# 4 -32.1453 -39.8617 0.8090 40.6861 -5.0487 8.3727
# 5 24.5929 31.6213 16.9150 -5.0487 31.9239 -4.6511
# 6 6.9790 -5.7481 2.6764 8.3727 -4.6511 52.3398
#
#
#
# Elastic Compliance Matrix: (Units=1/GPa)
#
#
# Indices 1 2 3 4 5 6 
#
# 1 0.034609 -0.000227 -0.004237 0.026720 -0.021511 -0.010609
# 2 -0.000227 0.010407 -0.006618 0.009606 -0.005179 -0.000485
# 3 -0.004237 -0.006618 0.039802 -0.011981 -0.013379 -0.001469
# 4 0.026720 0.009606 -0.011981 0.055796 -0.016719 -0.012307
# 5 -0.021511 -0.005179 -0.013379 -0.016719 0.059059 0.010906
# 6 -0.010609 -0.000485 -0.001469 -0.012307 0.010906 0.023480
#
#
# Mechanical properties :
#
#
# Convention : Reuss Voigt Hill
#
# Bulk Modulus (GPa) = 15.96069 53.92378 34.94224
# Shear Modulus (GPa) = 18.78262 36.98740 27.88501
#
# Velocity S-wave (km/s) = 2.74764 3.85575 3.34786
# Velocity P-wave (km/s) = 4.05972 6.44179 5.38414
#
# Compressibility (1/GPa) = 0.06265394
#
# Stress axis : x y z
#
# Youngs Moduli (GPa) = 28.89431 96.08663 25.12417
#
# Poissons Ratio (x) = 0.02181 0.10645
# Poissons Ratio (y) = 0.00656 0.16628
# Poissons Ratio (z) = 0.12243 0.63592
#
# Static dielectric constant tensor:
#      x y z
#    x 2.164540 -0.073890 0.045390 
#    y -0.073890 2.018440 0.019230 
#    z 0.045390 0.019230 2.113590 
# 
# From -- ./inp_files/169911.got.cif
#   From: 2010.05.17/outbox.cif.g08.bks.cpg/sg2_85_cif.got.tgz:169911.got - 2010.06.03 11:33:40.
