data_PCOD9054118
_publ_section_title
;
Structure prediction by ZEFSAII (Michael W. Deem and Ramdas Pophale) SiO2 
 PCOD9054118
Probable space group: P -1
;
_chemical_formula_sum "Si O2"
_cell_formula_units_Z 15
_cell_length_a 8.407607
_cell_length_b 15.485056
_cell_length_c 9.475024
_cell_angle_alpha 37.007732
_cell_angle_beta 63.325655
_cell_angle_gamma 75.371476
_cell_volume 650.496326
_symmetry_space_group_name_H-M "P -1"
_symmetry_group_IT_number 2
_symmetry_cell_setting 'triclinic'
loop_
_space_group_symop_operation_xyz
x,y,z
-x,-y,-z
loop_
_atom_site_type_symbol
_atom_site_label
_atom_site_fract_x
_atom_site_fract_y
_atom_site_fract_z
Si Si1 0.185695 0.436905 0.013813
Si Si2 0.500000 0.000000 0.000000
Si Si3 0.854889 0.014161 0.837856
Si Si4 0.487377 0.718406 0.553650
Si Si5 0.708008 0.272897 0.097612
Si Si6 0.002253 0.168476 0.316869
Si Si7 0.838745 0.152532 0.946695
Si Si8 0.836406 0.610698 0.587446
O O1 0.192842 0.386759 0.237031
O O2 0.173710 0.301593 0.087959
O O3 0.352056 0.570852 0.752030
O O4 0.000000 0.500000 0.000000
O O5 0.672979 0.927749 0.953162
O O6 0.555256 0.143624 0.689397
O O7 0.938874 0.147993 0.531009
O O8 0.758071 0.071032 0.941592
O O9 0.017570 0.938583 0.923837
O O10 0.452532 0.734016 0.716389
O O11 0.690887 0.699014 0.470444
O O12 0.865661 0.224893 0.191849
O O13 0.779805 0.439148 0.800958
O O14 0.692824 0.173626 0.093724
O O15 0.000000 0.000000 0.500000
O O16 0.965831 0.305067 0.648550
#
# Coordination Sequence:
#
# PCOD9054118 Si02
#       8
#     2   1   2   2   2   2   2   2
#     4  11  20  40  69  97 127 180 228 271 332 407
#     4  12  22  42  68  96 134 178 222 280 336 402
#     4  11  23  41  65  95 128 182 220 274 342 400
#     4  11  24  41  69 100 137 177 225 275 349 401
#     4  11  22  39  66  99 129 172 226 278 327 399
#     4  12  22  39  68 101 130 168 234 285 322 391
#     4  11  23  40  66  95 133 175 226 270 334 407
#     4  11  22  41  66  97 139 179 217 276 345 407
#
# _framework density 23.059314000000001
#
# number of rings (size 3 to 8) (size 9 to 14) (size 15 to 20)
#    0.000    0.800    8.000    2.000    0.000    0.000 
#    0.000    3.333    0.000    2.400    0.000    0.000 
#    0.000    0.000    0.000    0.000    0.000    0.000 
#
# Total GULP energy -83503.023690 kJ/mol
# GULP energy per Si atom -5566.868246 kJ/mol
# Density = 2.300683 g / cm^3
# Si number density = 23.059314 Si / 1000 Ang^3
#
#
#
# Elastic Constant Matrix: (Units=GPa)
#
#
# Indices 1 2 3 4 5 6 
#
# 1 32.9639 5.2686 10.5555 -9.7439 10.7143 -8.1199
# 2 5.2686 119.9004 19.4626 -12.9785 -4.0727 7.3541
# 3 10.5555 19.4626 120.4375 -7.9049 12.6104 -0.1100
# 4 -9.7439 -12.9785 -7.9049 20.0443 -8.0191 7.7187
# 5 10.7143 -4.0727 12.6104 -8.0191 48.6237 -4.1774
# 6 -8.1199 7.3541 -0.1100 7.7187 -4.1774 19.3263
#
#
#
# Elastic Compliance Matrix: (Units=1/GPa)
#
#
# Indices 1 2 3 4 5 6 
#
# 1 0.038879 -0.001074 -0.001940 0.010979 -0.005382 0.011184
# 2 -0.001074 0.010140 -0.001173 0.009418 0.002292 -0.007582
# 3 -0.001940 -0.001173 0.008961 0.001618 -0.001845 -0.001362
# 4 0.010979 0.009418 0.001618 0.075780 0.008087 -0.027479
# 5 -0.005382 0.002292 -0.001845 0.008087 0.023648 -0.001262
# 6 0.011184 -0.007582 -0.001362 -0.027479 -0.001262 0.070021
#
#
# Mechanical properties :
#
#
# Convention : Reuss Voigt Hill
#
# Bulk Modulus (GPa) = 20.15870 38.20836 29.18353
# Shear Modulus (GPa) = 19.81471 33.46653 26.64062
#
# Velocity S-wave (km/s) = 2.93455 3.81376 3.40267
# Velocity P-wave (km/s) = 4.49924 5.99988 5.30291
#
# Compressibility (1/GPa) = 0.04960638
#
# Stress axis : x y z
#
# Youngs Moduli (GPa) = 25.72098 98.61697 111.59739
#
# Poissons Ratio (x) = 0.10590 0.21644
# Poissons Ratio (y) = 0.02762 0.13094
# Poissons Ratio (z) = 0.04989 0.11571
#
# Static dielectric constant tensor:
#      x y z
#    x 1.613280 -0.106480 0.048680 
#    y -0.106480 1.983250 0.013330 
#    z 0.048680 0.013330 1.835540 
# 
# From -- ./inp_files/205070.got.cif
#   From: 2010.05.17/outbox.cif.g08.bks.cpg/sg2_103_cif.got.tgz:205070.got - 2010.06.03 11:33:40.
