data_PCOD9054438
_publ_section_title
;
Structure prediction by ZEFSAII (Michael W. Deem and Ramdas Pophale) SiO2 
 PCOD9054438
Probable space group: P -1
;
_chemical_formula_sum "Si O2"
_cell_formula_units_Z 16
_cell_length_a 20.124288
_cell_length_b 9.186238
_cell_length_c 9.160437
_cell_angle_alpha 118.323513
_cell_angle_beta 122.989383
_cell_angle_gamma 29.343651
_cell_volume 696.074126
_symmetry_space_group_name_H-M "P -1"
_symmetry_group_IT_number 2
_symmetry_cell_setting 'triclinic'
loop_
_space_group_symop_operation_xyz
x,y,z
-x,-y,-z
loop_
_atom_site_type_symbol
_atom_site_label
_atom_site_fract_x
_atom_site_fract_y
_atom_site_fract_z
Si Si1 0.781806 0.925590 0.252817
Si Si2 0.223806 0.345210 0.691551
Si Si3 0.847859 0.214397 0.997517
Si Si4 0.943845 0.779462 0.108973
Si Si5 0.373131 0.509770 0.583144
Si Si6 0.409758 0.927454 0.142637
Si Si7 0.541436 0.786265 0.748752
Si Si8 0.784612 0.563202 0.610090
O O1 0.855583 0.655492 0.307884
O O2 0.871626 0.878505 0.225367
O O3 0.713764 0.174955 0.400164
O O4 0.676066 0.016989 0.056901
O O5 0.182193 0.593885 0.825593
O O6 0.199485 0.393434 0.512603
O O7 0.392783 0.010462 0.758711
O O8 0.856795 0.018744 0.990642
O O9 0.700595 0.475682 0.851797
O O10 0.000000 0.000000 0.000000
O O11 0.069127 0.691284 0.248777
O O12 0.000000 0.500000 0.000000
O O13 0.463775 0.389057 0.779395
O O14 0.464408 0.299115 0.452395
O O15 0.282416 0.502564 0.505042
O O16 0.465878 0.004349 0.186228
O O17 0.310329 0.154685 0.266762
#
# Coordination Sequence:
#
# PCOD9054438 Si02
#       8
#     2   2   2   2   2   2   2   2
#     4  12  27  41  69 108 152 183 242 302 358 426
#     4  12  25  46  75 110 143 192 246 301 361 431
#     4  12  26  45  75 106 147 192 244 297 366 436
#     4  12  27  48  71 103 146 196 240 294 366 438
#     4  11  23  42  72 109 140 188 240 298 367 421
#     4  11  20  45  72 103 144 189 234 299 361 428
#     4  11  23  44  76 108 147 191 245 299 363 437
#     4  11  23  47  77  95 143 195 242 291 361 439
#
# _framework density 22.986059000000001
#
# number of rings (size 3 to 8) (size 9 to 14) (size 15 to 20)
#    0.000    0.500    5.000    4.500    0.000    6.000 
#    0.000    0.000    0.000    0.000    0.000    0.000 
#    0.000    0.000    0.000    0.000    0.000    0.000 
#
# Total GULP energy -89404.835725 kJ/mol
# GULP energy per Si atom -5587.802233 kJ/mol
# Density = 2.293374 g / cm^3
# Si number density = 22.986059 Si / 1000 Ang^3
#
#
#
# Elastic Constant Matrix: (Units=GPa)
#
#
# Indices 1 2 3 4 5 6 
#
# 1 59.6685 20.2751 15.0224 11.1433 -19.8067 9.9066
# 2 20.2751 69.0996 15.3890 2.1723 1.5376 18.5250
# 3 15.0224 15.3890 79.7530 2.6311 -2.5832 -0.5839
# 4 11.1433 2.1723 2.6311 36.9289 8.1326 5.6015
# 5 -19.8067 1.5376 -2.5832 8.1326 21.4339 -4.4944
# 6 9.9066 18.5250 -0.5839 5.6015 -4.4944 39.6489
#
#
#
# Elastic Compliance Matrix: (Units=1/GPa)
#
#
# Indices 1 2 3 4 5 6 
#
# 1 0.041750 -0.013152 -0.002951 -0.023049 0.048850 0.004464
# 2 -0.013152 0.021904 -0.002749 0.008771 -0.019575 -0.010446
# 3 -0.002951 -0.002749 0.013635 -0.000175 -0.000357 0.002207
# 4 -0.023049 0.008771 -0.000175 0.043833 -0.040495 -0.009125
# 5 0.048850 -0.019575 -0.000357 -0.040495 0.111736 0.015322
# 6 0.004464 -0.010446 0.002207 -0.009125 0.015322 0.032045
#
#
# Mechanical properties :
#
#
# Convention : Reuss Voigt Hill
#
# Bulk Modulus (GPa) = 25.26211 34.43268 29.84740
# Shear Modulus (GPa) = 15.83269 30.12465 22.97867
#
# Velocity S-wave (km/s) = 2.62734 3.62410 3.16520
# Velocity P-wave (km/s) = 4.49643 5.70302 5.13529
#
# Compressibility (1/GPa) = 0.03958498
#
# Stress axis : x y z
#
# Youngs Moduli (GPa) = 23.95189 45.65466 73.33863
#
# Poissons Ratio (x) = 0.60046 0.21642
# Poissons Ratio (y) = 0.31502 0.20161
# Poissons Ratio (z) = 0.07068 0.12550
#
# Static dielectric constant tensor:
#      x y z
#    x 1.951550 -0.148990 -0.014440 
#    y -0.148990 2.039280 -0.026080 
#    z -0.014440 -0.026080 1.819640 
# 
# From -- ./inp_files/222893.got.cif
#   From: 2010.05.17/outbox.cif.g08.bks.cpg/sg2_112_cif.got.tgz:222893.got - 2010.06.03 11:33:40.
