data_PCOD9054663
_publ_section_title
;
Structure prediction by ZEFSAII (Michael W. Deem and Ramdas Pophale) SiO2 
 PCOD9054663
Probable space group: P -1
;
_chemical_formula_sum "Si O2"
_cell_formula_units_Z 16
_cell_length_a 8.971865
_cell_length_b 16.015077
_cell_length_c 9.058155
_cell_angle_alpha 85.900644
_cell_angle_beta 124.551330
_cell_angle_gamma 57.057316
_cell_volume 751.536541
_symmetry_space_group_name_H-M "P -1"
_symmetry_group_IT_number 2
_symmetry_cell_setting 'triclinic'
loop_
_space_group_symop_operation_xyz
x,y,z
-x,-y,-z
loop_
_atom_site_type_symbol
_atom_site_label
_atom_site_fract_x
_atom_site_fract_y
_atom_site_fract_z
Si Si1 0.212762 0.767441 0.004714
Si Si2 0.641356 0.376971 0.178575
Si Si3 0.584035 0.597807 0.477035
Si Si4 0.716138 0.631132 0.831071
Si Si5 0.120496 0.654417 0.382927
Si Si6 0.794030 0.879351 0.994945
Si Si7 0.915996 0.014811 0.205970
Si Si8 0.404436 0.890365 0.686712
O O1 0.216562 0.724528 0.852218
O O2 0.476742 0.658925 0.251016
O O3 0.169125 0.880272 0.955656
O O4 0.988208 0.806086 0.976605
O O5 0.446273 0.379915 0.156917
O O6 0.826420 0.350746 0.413925
O O7 0.500000 0.500000 0.000000
O O8 0.631512 0.656319 0.608959
O O9 0.355007 0.622365 0.428979
O O10 0.834229 0.456970 0.618800
O O11 0.643853 0.747318 0.828447
O O12 0.000000 0.500000 0.000000
O O13 0.868320 0.785189 0.171291
O O14 0.854782 0.947798 0.098348
O O15 0.516797 0.946823 0.764240
O O16 0.209076 0.934384 0.437090
O O17 0.751576 0.074874 0.255797
#
# Coordination Sequence:
#
# PCOD9054663 Si02
#       8
#     2   2   2   2   2   2   2   2
#     4  11  22  40  66  96 133 171 221 276 331 390
#     4  11  21  37  63  96 133 178 213 267 341 392
#     4   9  18  35  59  89 123 170 209 257 328 388
#     4  11  23  40  64  93 133 173 218 275 329 395
#     4   9  18  34  60  89 124 163 215 258 316 394
#     4  11  24  41  70  96 125 178 229 269 326 394
#     4  11  24  45  67  94 138 175 221 276 327 384
#     4  11  24  43  68  99 130 176 226 270 328 397
#
# _framework density 21.289715999999999
#
# number of rings (size 3 to 8) (size 9 to 14) (size 15 to 20)
#    0.000    1.500    2.500    3.750    5.250    0.500 
#    0.000    1.875    0.000    0.000    0.000    0.000 
#    0.000    0.000    0.000    0.000    0.000    0.000 
#
# Total GULP energy -89289.125664 kJ/mol
# GULP energy per Si atom -5580.570354 kJ/mol
# Density = 2.124126 g / cm^3
# Si number density = 21.289716 Si / 1000 Ang^3
#
#
#
# Elastic Constant Matrix: (Units=GPa)
#
#
# Indices 1 2 3 4 5 6 
#
# 1 30.9788 21.4935 27.4690 8.7593 -7.7834 2.9041
# 2 21.4935 125.9952 67.1019 15.2988 -1.1408 4.6297
# 3 27.4690 67.1019 71.7778 18.1625 -3.8210 11.7678
# 4 8.7593 15.2988 18.1625 36.9616 -0.8160 -2.8739
# 5 -7.7834 -1.1408 -3.8210 -0.8160 27.2503 5.5018
# 6 2.9041 4.6297 11.7678 -2.8739 5.5018 32.7650
#
#
#
# Elastic Compliance Matrix: (Units=1/GPa)
#
#
# Indices 1 2 3 4 5 6 
#
# 1 0.053518 0.003046 -0.022048 -0.002806 0.012146 0.000459
# 2 0.003046 0.016536 -0.017773 0.001455 -0.001733 0.004195
# 3 -0.022048 -0.017773 0.043515 -0.009725 0.001237 -0.012224
# 4 -0.002806 0.001455 -0.009725 0.032370 -0.002507 0.006796
# 5 0.012146 -0.001733 0.001237 -0.002507 0.041915 -0.008534
# 6 0.000459 0.004195 -0.012224 0.006796 -0.008534 0.036306
#
#
# Mechanical properties :
#
#
# Convention : Reuss Voigt Hill
#
# Bulk Modulus (GPa) = 24.98687 51.20895 38.09791
# Shear Modulus (GPa) = 16.07464 26.90787 21.49126
#
# Velocity S-wave (km/s) = 2.75079 3.55898 3.18066
# Velocity P-wave (km/s) = 4.67452 6.40266 5.60559
#
# Compressibility (1/GPa) = 0.04002102
#
# Stress axis : x y z
#
# Youngs Moduli (GPa) = 18.68516 60.47414 22.98057
#
# Poissons Ratio (x) = -0.18421 0.50667
# Poissons Ratio (y) = -0.05692 0.40843
# Poissons Ratio (z) = 0.41196 1.07479
#
# Static dielectric constant tensor:
#      x y z
#    x 1.777050 0.027470 0.047110 
#    y 0.027470 1.783470 0.005220 
#    z 0.047110 0.005220 1.812630 
# 
# From -- ./inp_files/207120.got.cif
#   From: 2010.05.17/outbox.cif.g08.bks.cpg/sg2_104_cif.got.tgz:207120.got - 2010.06.03 11:33:40.
