data_PCOD9054304
_publ_section_title
;
Structure prediction by ZEFSAII (Michael W. Deem and Ramdas Pophale) SiO2 
 PCOD9054304
Probable space group: P -1
;
_chemical_formula_sum "Si O2"
_cell_formula_units_Z 16
_cell_length_a 16.856293
_cell_length_b 11.508573
_cell_length_c 20.308968
_cell_angle_alpha 28.733987
_cell_angle_beta 23.683418
_cell_angle_gamma 44.375367
_cell_volume 676.727286
_symmetry_space_group_name_H-M "P -1"
_symmetry_group_IT_number 2
_symmetry_cell_setting 'triclinic'
loop_
_space_group_symop_operation_xyz
x,y,z
-x,-y,-z
loop_
_atom_site_type_symbol
_atom_site_label
_atom_site_fract_x
_atom_site_fract_y
_atom_site_fract_z
Si Si1 0.104187 0.274014 0.373238
Si Si2 0.449680 0.085836 0.894411
Si Si3 0.077156 0.222760 0.566288
Si Si4 0.307008 0.262005 0.090889
Si Si5 0.018959 0.276874 0.727867
Si Si6 0.535554 0.650421 0.614528
Si Si7 0.231439 0.775908 0.686960
Si Si8 0.478775 0.199082 0.668458
O O1 0.186699 0.335181 0.355904
O O2 0.275874 0.323956 0.159261
O O3 0.990698 0.473755 0.350388
O O4 0.925355 0.958502 0.654878
O O5 0.511877 0.374416 0.735590
O O6 0.534625 0.138705 0.728694
O O7 0.542866 0.894219 0.950102
O O8 0.184091 0.941102 0.167885
O O9 0.086469 0.378206 0.550035
O O10 0.167213 0.015914 0.623776
O O11 0.414154 0.539145 0.831331
O O12 0.199820 0.186273 0.660966
O O13 0.774392 0.025763 0.040000
O O14 0.401175 0.768933 0.615853
O O15 0.355711 0.812739 0.505120
O O16 0.000000 0.500000 0.000000
O O17 0.500000 0.500000 0.500000
#
# Coordination Sequence:
#
# PCOD9054304 Si02
#       8
#     2   2   2   2   2   2   2   2
#     4  11  22  42  67 107 141 183 232 291 350 412
#     4  11  20  42  70 101 134 185 234 277 348 416
#     4  11  23  43  68  99 141 187 229 284 349 411
#     4  11  23  39  72 105 144 181 233 289 351 414
#     4  11  26  44  69 103 143 179 236 293 349 412
#     4  12  23  43  69 104 140 186 230 290 343 412
#     4  12  23  44  72 100 137 182 241 280 343 426
#     4  11  24  46  70 100 134 188 232 285 353 419
#
# _framework density 23.643201999999999
#
# number of rings (size 3 to 8) (size 9 to 14) (size 15 to 20)
#    0.000    0.750    5.000    3.000    0.000    4.000 
#    0.000    3.750    0.000    0.000    0.000    0.000 
#    0.000    0.000    0.000    0.000    0.000    0.000 
#
# Total GULP energy -89572.951891 kJ/mol
# GULP energy per Si atom -5598.309493 kJ/mol
# Density = 2.358939 g / cm^3
# Si number density = 23.643202 Si / 1000 Ang^3
#
#
#
# Elastic Constant Matrix: (Units=GPa)
#
#
# Indices 1 2 3 4 5 6 
#
# 1 89.6107 30.4220 38.1412 21.3619 17.2427 -4.6064
# 2 30.4220 116.6385 23.9590 18.3646 12.1452 5.5431
# 3 38.1412 23.9590 108.1624 10.8834 9.4851 16.6002
# 4 21.3619 18.3646 10.8834 33.7133 5.4631 3.4118
# 5 17.2427 12.1452 9.4851 5.4631 41.2850 5.4916
# 6 -4.6064 5.5431 16.6002 3.4118 5.4916 41.7259
#
#
#
# Elastic Compliance Matrix: (Units=1/GPa)
#
#
# Indices 1 2 3 4 5 6 
#
# 1 0.017189 -0.001893 -0.005252 -0.007900 -0.005110 0.005557
# 2 -0.001893 0.010014 -0.000959 -0.003657 -0.001361 -0.000680
# 3 -0.005252 -0.000959 0.012052 0.000441 0.000357 -0.005330
# 4 -0.007900 -0.003657 0.000441 0.036899 -0.000135 -0.003561
# 5 -0.005110 -0.001361 0.000357 -0.000135 0.027237 -0.004099
# 6 0.005557 -0.000680 -0.005330 -0.003561 -0.004099 0.027621
#
#
# Mechanical properties :
#
#
# Convention : Reuss Voigt Hill
#
# Bulk Modulus (GPa) = 43.38895 55.49511 49.44203
# Shear Modulus (GPa) = 32.27816 38.13749 35.20783
#
# Velocity S-wave (km/s) = 3.69890 4.02063 3.86311
# Velocity P-wave (km/s) = 6.05259 6.71393 6.39182
#
# Compressibility (1/GPa) = 0.02304734
#
# Stress axis : x y z
#
# Youngs Moduli (GPa) = 58.17532 99.86102 82.97233
#
# Poissons Ratio (x) = 0.18902 0.43578
# Poissons Ratio (y) = 0.11011 0.07958
# Poissons Ratio (z) = 0.30554 0.09578
#
# Static dielectric constant tensor:
#      x y z
#    x 1.951800 0.034510 -0.016020 
#    y 0.034510 1.886460 0.012310 
#    z -0.016020 0.012310 1.887230 
# 
# From -- ./inp_files/600014.got.cif
#   From: 2010.05.17/outbox.cif.g08.bks.cpg/sg2_301_cif.got.tgz:600014.got - 2010.06.03 11:33:40.
