data_PCOD9054764
_publ_section_title
;
Structure prediction by ZEFSAII (Michael W. Deem and Ramdas Pophale) SiO2 
 PCOD9054764
Probable space group: P -1
;
_chemical_formula_sum "Si O2"
_cell_formula_units_Z 12
_cell_length_a 28.840411
_cell_length_b 9.489434
_cell_length_c 16.013329
_cell_angle_alpha 23.962863
_cell_angle_beta 162.154276
_cell_angle_gamma 153.772516
_cell_volume 532.279921
_symmetry_space_group_name_H-M "P -1"
_symmetry_group_IT_number 2
_symmetry_cell_setting 'triclinic'
loop_
_space_group_symop_operation_xyz
x,y,z
-x,-y,-z
loop_
_atom_site_type_symbol
_atom_site_label
_atom_site_fract_x
_atom_site_fract_y
_atom_site_fract_z
Si Si1 0.379929 0.747383 0.135662
Si Si2 0.068548 0.772654 0.334797
Si Si3 0.678247 0.995666 0.813521
Si Si4 0.126174 0.752020 0.835762
Si Si5 0.143029 0.219486 0.897362
Si Si6 0.399942 0.830930 0.840370
O O1 0.500000 0.500000 0.500000
O O2 0.491684 0.073384 0.105102
O O3 0.269197 0.855836 0.957896
O O4 0.264830 0.521213 0.992411
O O5 0.073645 0.423782 0.592843
O O6 0.240353 0.965629 0.498421
O O7 0.972406 0.609868 0.177389
O O8 0.978632 0.968283 0.140478
O O9 0.500000 0.000000 0.500000
O O10 0.762551 0.036103 0.847134
O O11 0.663733 0.588518 0.037480
O O12 0.783074 0.248033 0.922303
O O13 0.000000 0.000000 0.500000
O O14 0.500000 0.000000 0.000000
#
# Coordination Sequence:
#
# PCOD9054764 Si02
#       6
#     2   2   2   2   2   2
#     4  11  23  39  64  92 127 166 214 259 311 374
#     4   9  18  35  61  89 115 162 213 246 305 378
#     4  11  22  38  66  94 128 163 209 261 318 371
#     4  11  21  38  63  92 127 169 202 257 327 369
#     4   9  17  35  60  86 114 167 202 245 307 375
#     4  11  21  38  66  92 120 166 217 252 307 379
#
# _framework density 22.544526999999999
#
# number of rings (size 3 to 8) (size 9 to 14) (size 15 to 20)
#    0.000    1.667    6.667    1.000    0.000    0.667 
#    0.000    3.333    3.667    2.000    0.000    0.000 
#    0.000    0.000    0.000    0.000    0.000    0.000 
#
# Total GULP energy -66954.372398 kJ/mol
# GULP energy per Si atom -5579.531033 kJ/mol
# Density = 2.249321 g / cm^3
# Si number density = 22.544527 Si / 1000 Ang^3
#
#
#
# Elastic Constant Matrix: (Units=GPa)
#
#
# Indices 1 2 3 4 5 6 
#
# 1 173.0178 40.3756 57.0803 21.7436 60.3780 -7.6048
# 2 40.3756 77.7634 29.4211 22.5452 7.4205 -3.6289
# 3 57.0803 29.4211 130.4651 32.7481 27.9357 -12.2365
# 4 21.7436 22.5452 32.7481 42.6540 4.3618 -0.3541
# 5 60.3780 7.4205 27.9357 4.3618 49.7597 14.5339
# 6 -7.6048 -3.6289 -12.2365 -0.3541 14.5339 39.5630
#
#
#
# Elastic Compliance Matrix: (Units=1/GPa)
#
#
# Indices 1 2 3 4 5 6 
#
# 1 0.014254 -0.004354 0.000712 -0.003428 -0.019587 0.009725
# 2 -0.004354 0.016942 -0.001514 -0.006053 0.004570 -0.001484
# 3 0.000712 -0.001514 0.012253 -0.008007 -0.008850 0.006967
# 4 -0.003428 -0.006053 -0.008007 0.033614 0.008515 -0.006518
# 5 -0.019587 0.004570 -0.008850 0.008515 0.055067 -0.026236
# 6 0.009725 -0.001484 0.006967 -0.006518 -0.026236 0.038744
#
#
# Mechanical properties :
#
#
# Convention : Reuss Voigt Hill
#
# Bulk Modulus (GPa) = 30.17701 70.55558 50.36630
# Shear Modulus (GPa) = 26.01014 43.35329 34.68172
#
# Velocity S-wave (km/s) = 3.40033 4.38997 3.92646
# Velocity P-wave (km/s) = 5.36945 7.55379 6.55327
#
# Compressibility (1/GPa) = 0.03313781
#
# Stress axis : x y z
#
# Youngs Moduli (GPa) = 70.15461 59.02386 81.61018
#
# Poissons Ratio (x) = 0.25696 -0.05810
# Poissons Ratio (y) = 0.30542 0.12360
# Poissons Ratio (z) = -0.04995 0.08939
#
# Static dielectric constant tensor:
#      x y z
#    x 1.921910 0.026310 0.023370 
#    y 0.026310 1.821630 -0.132400 
#    z 0.023370 -0.132400 1.929360 
# 
# From -- ./inp_files/146416.got.cif
#   From: 2010.05.17/outbox.cif.g08.bks.cpg/sg2_74_cif.got.tgz:146416.got - 2010.06.03 11:33:40.
