data_PCOD9054503
_publ_section_title
;
Structure prediction by ZEFSAII (Michael W. Deem and Ramdas Pophale) SiO2 
 PCOD9054503
Probable space group: P -1
;
_chemical_formula_sum "Si O2"
_cell_formula_units_Z 14
_cell_length_a 11.388437
_cell_length_b 26.371732
_cell_length_c 6.154109
_cell_angle_alpha 124.626965
_cell_angle_beta 125.816005
_cell_angle_gamma 21.357876
_cell_volume 544.148895
_symmetry_space_group_name_H-M "P -1"
_symmetry_group_IT_number 2
_symmetry_cell_setting 'triclinic'
loop_
_space_group_symop_operation_xyz
x,y,z
-x,-y,-z
loop_
_atom_site_type_symbol
_atom_site_label
_atom_site_fract_x
_atom_site_fract_y
_atom_site_fract_z
Si Si1 0.156739 0.259018 0.363496
Si Si2 0.753618 0.959299 0.170235
Si Si3 0.414647 0.226712 0.941888
Si Si4 0.760696 0.959416 0.682030
Si Si5 0.816318 0.470399 0.213975
Si Si6 0.665985 0.612476 0.774842
Si Si7 0.655166 0.375298 0.295260
O O1 0.865786 0.389284 0.207998
O O2 0.026786 0.253114 0.356288
O O3 0.502252 0.113062 0.274094
O O4 0.213256 0.294280 0.667028
O O5 0.901858 0.900946 0.437555
O O6 0.911308 0.899878 0.952482
O O7 0.500000 0.000000 0.000000
O O8 0.608580 0.088101 0.832024
O O9 0.560611 0.239422 0.110834
O O10 0.146006 0.340524 0.113291
O O11 0.500000 0.000000 0.500000
O O12 0.784826 0.542198 0.501326
O O13 0.505272 0.585749 0.005735
O O14 0.450140 0.637146 0.683815
O O15 0.000000 0.500000 0.000000
O O16 0.500000 0.500000 0.500000
#
# Coordination Sequence:
#
# PCOD9054503 Si02
#       7
#     2   2   2   2   2   2   2
#     4  11  21  35  55  80 111 146 188 235 285 338
#     4   9  18  33  55  84 110 136 184 242 293 334
#     4  11  21  35  55  80 111 146 188 235 285 338
#     4   9  18  33  55  84 110 136 184 242 293 334
#     4  12  20  34  56  72 116 154 190 224 286 332
#     4  12  23  36  50  77 115 153 192 230 274 341
#     4  12  23  36  50  77 115 153 192 230 274 341
#
# _framework density 25.728255000000001
#
# number of rings (size 3 to 8) (size 9 to 14) (size 15 to 20)
#    0.000    1.143    7.143    0.857    0.000    0.000 
#    0.000    0.000    0.000    0.000    0.000   18.000 
#    0.000    0.000    0.000    0.000    0.000    0.000 
#
# Total GULP energy -77997.790412 kJ/mol
# GULP energy per Si atom -5571.270744 kJ/mol
# Density = 2.566970 g / cm^3
# Si number density = 25.728255 Si / 1000 Ang^3
#
#
#
# Elastic Constant Matrix: (Units=GPa)
#
#
# Indices 1 2 3 4 5 6 
#
# 1 96.7553 10.6173 60.0580 19.0949 3.0548 9.7889
# 2 10.6173 66.5637 43.0487 10.7222 -0.2158 19.5378
# 3 60.0580 43.0487 195.6799 6.6362 -18.3718 10.5040
# 4 19.0949 10.7222 6.6362 53.4913 8.9105 -0.3894
# 5 3.0548 -0.2158 -18.3718 8.9105 56.4597 14.6046
# 6 9.7889 19.5378 10.5040 -0.3894 14.6046 43.4911
#
#
#
# Elastic Compliance Matrix: (Units=1/GPa)
#
#
# Indices 1 2 3 4 5 6 
#
# 1 0.014239 0.002379 -0.004639 -0.004883 -0.000737 -0.002949
# 2 0.002379 0.021191 -0.004551 -0.004889 0.001721 -0.009578
# 3 -0.004639 -0.004551 0.007701 0.001209 0.002440 0.000420
# 4 -0.004883 -0.004889 0.001209 0.021968 -0.004003 0.004544
# 5 -0.000737 0.001721 0.002440 -0.004003 0.021358 -0.008404
# 6 -0.002949 -0.009578 0.000420 0.004544 -0.008404 0.030721
#
#
# Mechanical properties :
#
#
# Convention : Reuss Voigt Hill
#
# Bulk Modulus (GPa) = 33.88739 65.16078 49.52408
# Shear Modulus (GPa) = 35.55290 47.04008 41.29649
#
# Velocity S-wave (km/s) = 3.72137 4.28055 4.01072
# Velocity P-wave (km/s) = 5.62714 7.05779 6.38267
#
# Compressibility (1/GPa) = 0.02950950
#
# Stress axis : x y z
#
# Youngs Moduli (GPa) = 70.22927 47.18967 129.85721
#
# Poissons Ratio (x) = -0.11225 0.60239
# Poissons Ratio (y) = -0.16706 0.59092
# Poissons Ratio (z) = 0.32578 0.21474
#
# Static dielectric constant tensor:
#      x y z
#    x 2.200740 0.163550 0.018410 
#    y 0.163550 1.827660 -0.238650 
#    z 0.018410 -0.238650 1.803740 
# 
# From -- ./inp_files/34072.got.cif
#   From: 2010.05.17/outbox.cif.g08.bks.cpg/sg2_18_cif.got.tgz:34072.got - 2010.06.03 11:33:40.
