data_PCOD9054899
_publ_section_title
;
Structure prediction by ZEFSAII (Michael W. Deem and Ramdas Pophale) SiO2 
 PCOD9054899
Probable space group: P -1
;
_chemical_formula_sum "Si O2"
_cell_formula_units_Z 15
_cell_length_a 19.887577
_cell_length_b 11.702919
_cell_length_c 17.060078
_cell_angle_alpha 30.354363
_cell_angle_beta 20.351675
_cell_angle_gamma 32.669740
_cell_volume 685.614760
_symmetry_space_group_name_H-M "P -1"
_symmetry_group_IT_number 2
_symmetry_cell_setting 'triclinic'
loop_
_space_group_symop_operation_xyz
x,y,z
-x,-y,-z
loop_
_atom_site_type_symbol
_atom_site_label
_atom_site_fract_x
_atom_site_fract_y
_atom_site_fract_z
Si Si1 0.668037 0.954397 0.130069
Si Si2 0.971331 0.342022 0.048840
Si Si3 0.670654 0.550724 0.013174
Si Si4 0.411998 0.029570 0.967831
Si Si5 0.516922 0.792109 0.666973
Si Si6 0.456073 0.536103 0.628271
Si Si7 0.000000 0.000000 0.500000
Si Si8 0.092214 0.498517 0.653529
O O1 0.607979 0.701426 0.347442
O O2 0.902070 0.906443 0.919496
O O3 0.625308 0.042141 0.037587
O O4 0.539247 0.103338 0.248373
O O5 0.063679 0.395550 0.831992
O O6 0.741748 0.373335 0.259274
O O7 0.000000 0.500000 0.000000
O O8 0.559245 0.815045 0.971148
O O9 0.899352 0.528115 0.793271
O O10 0.625419 0.387937 0.089574
O O11 0.588380 0.441804 0.244296
O O12 0.509393 0.259736 0.722798
O O13 0.196163 0.113993 0.192726
O O14 0.733112 0.649340 0.498713
O O15 0.500000 0.000000 0.500000
O O16 0.871949 0.248082 0.516440
#
# Coordination Sequence:
#
# PCOD9054899 Si02
#       8
#     2   2   2   2   2   2   1   2
#     4  12  26  45  68 103 145 181 231 290 351 412
#     4  11  21  39  64 102 134 176 225 287 348 390
#     4  11  24  44  68 101 137 182 237 278 343 422
#     4  12  25  43  70 106 135 185 226 299 352 407
#     4  12  24  44  72  98 140 192 231 282 339 425
#     4  11  23  42  70 103 137 178 232 287 349 415
#     4  12  22  44  70 100 140 176 236 282 352 410
#     4  11  24  42  70 101 133 187 233 282 340 417
#
# _framework density 21.878174999999999
#
# number of rings (size 3 to 8) (size 9 to 14) (size 15 to 20)
#    0.000    0.533    8.000    0.800    0.000    2.133 
#    2.400    0.667    0.000    0.000    0.000    0.000 
#    0.000    0.000    0.000    0.000    0.000    0.000 
#
# Total GULP energy -83576.386455 kJ/mol
# GULP energy per Si atom -5571.759097 kJ/mol
# Density = 2.182838 g / cm^3
# Si number density = 21.878175 Si / 1000 Ang^3
#
#
#
# Elastic Constant Matrix: (Units=GPa)
#
#
# Indices 1 2 3 4 5 6 
#
# 1 118.4929 47.9508 29.5694 26.9200 0.3290 3.2511
# 2 47.9508 125.3746 22.9793 35.0049 0.2731 10.6911
# 3 29.5694 22.9793 33.2432 13.3878 0.1673 3.7552
# 4 26.9200 35.0049 13.3878 35.8587 3.6628 -0.2185
# 5 0.3290 0.2731 0.1673 3.6628 24.5903 8.1349
# 6 3.2511 10.6911 3.7552 -0.2185 8.1349 43.2665
#
#
#
# Elastic Compliance Matrix: (Units=1/GPa)
#
#
# Indices 1 2 3 4 5 6 
#
# 1 0.012160 -0.002054 -0.007681 -0.004307 0.000507 0.000143
# 2 -0.002054 0.012168 -0.002320 -0.009735 0.002401 -0.003152
# 3 -0.007681 -0.002320 0.042005 -0.007871 0.001977 -0.002907
# 4 -0.004307 -0.009735 -0.007871 0.044422 -0.008105 0.005161
# 5 0.000507 0.002401 0.001977 -0.008105 0.044899 -0.009286
# 6 0.000143 -0.003152 -0.002907 0.005161 -0.009286 0.025905
#
#
# Mechanical properties :
#
#
# Convention : Reuss Voigt Hill
#
# Bulk Modulus (GPa) = 23.68279 53.12330 38.40305
# Shear Modulus (GPa) = 22.75371 32.51719 27.63545
#
# Velocity S-wave (km/s) = 3.22843 3.85942 3.55794
# Velocity P-wave (km/s) = 4.97447 6.64788 5.87110
#
# Compressibility (1/GPa) = 0.04222475
#
# Stress axis : x y z
#
# Youngs Moduli (GPa) = 82.23414 82.17990 23.80642
#
# Poissons Ratio (x) = 0.16878 0.18285
# Poissons Ratio (y) = 0.16889 0.05523
# Poissons Ratio (z) = 0.63163 0.19067
#
# Static dielectric constant tensor:
#      x y z
#    x 1.833820 -0.007820 -0.015710 
#    y -0.007820 1.787050 -0.016730 
#    z -0.015710 -0.016730 1.839140 
# 
# From -- ./inp_files/428103.got.cif
#   From: 2010.05.17/outbox.cif.g08.bks.cpg/sg2_215_cif.got.tgz:428103.got - 2010.06.03 11:33:40.
