data_PCOD9054376
_publ_section_title
;
Structure prediction by ZEFSAII (Michael W. Deem and Ramdas Pophale) SiO2 
 PCOD9054376
Probable space group: P -1
;
_chemical_formula_sum "Si O2"
_cell_formula_units_Z 14
_cell_length_a 9.386726
_cell_length_b 6.731207
_cell_length_c 20.730033
_cell_angle_alpha 41.370009
_cell_angle_beta 127.297317
_cell_angle_gamma 126.311219
_cell_volume 664.704350
_symmetry_space_group_name_H-M "P -1"
_symmetry_group_IT_number 2
_symmetry_cell_setting 'triclinic'
loop_
_space_group_symop_operation_xyz
x,y,z
-x,-y,-z
loop_
_atom_site_type_symbol
_atom_site_label
_atom_site_fract_x
_atom_site_fract_y
_atom_site_fract_z
Si Si1 0.296176 0.805887 0.505771
Si Si2 0.969960 0.835593 0.892788
Si Si3 0.626170 0.886644 0.871791
Si Si4 0.125318 0.768104 0.604743
Si Si5 0.020715 0.934105 0.295267
Si Si6 0.303468 0.117801 0.688932
Si Si7 0.626854 0.816089 0.041346
O O1 0.261320 0.815816 0.569621
O O2 0.154188 0.939059 0.391803
O O3 0.274322 0.441434 0.575142
O O4 0.500000 0.000000 0.500000
O O5 0.813934 0.908377 0.878643
O O6 0.168623 0.087014 0.894957
O O7 0.911594 0.837458 0.801261
O O8 0.000000 0.500000 0.000000
O O9 0.485520 0.546667 0.901575
O O10 0.514907 0.133948 0.759018
O O11 0.654641 0.910985 0.950486
O O12 0.010398 0.411671 0.657896
O O13 0.229769 0.861612 0.677018
O O14 0.000000 0.000000 0.500000
O O15 0.825703 0.965764 0.262832
O O16 0.500000 0.000000 0.000000
#
# Coordination Sequence:
#
# PCOD9054376 Si02
#       7
#     2   2   2   2   2   2   2
#     4  11  25  41  64 100 139 170 217 279 330 404
#     4  12  26  46  70  99 138 178 229 283 333 403
#     4  11  26  43  72 101 130 183 224 279 347 396
#     4  11  20  43  71  92 129 180 220 267 336 399
#     4  11  24  44  66  97 134 178 223 278 332 394
#     4  11  23  44  69  97 134 174 225 269 340 407
#     4  11  23  48  71  95 137 175 228 286 338 398
#
# _framework density 21.061995
#
# number of rings (size 3 to 8) (size 9 to 14) (size 15 to 20)
#    0.000    0.857    4.286    3.000    4.000    4.000 
#    5.143    0.000    0.000    0.000    0.000    0.000 
#    0.000    0.000    0.000    0.000    0.000    0.000 
#
# Total GULP energy -78296.215093 kJ/mol
# GULP energy per Si atom -5592.586792 kJ/mol
# Density = 2.101406 g / cm^3
# Si number density = 21.061995 Si / 1000 Ang^3
#
#
#
# Elastic Constant Matrix: (Units=GPa)
#
#
# Indices 1 2 3 4 5 6 
#
# 1 136.3702 15.7629 45.3088 0.0689 10.2651 -3.0608
# 2 15.7629 54.2253 -5.8095 7.0561 -7.9002 -11.5252
# 3 45.3088 -5.8095 92.7192 2.9437 -6.1890 -18.2097
# 4 0.0689 7.0561 2.9437 22.4047 5.7750 -0.8216
# 5 10.2651 -7.9002 -6.1890 5.7750 34.2745 1.2995
# 6 -3.0608 -11.5252 -18.2097 -0.8216 1.2995 32.8041
#
#
#
# Elastic Compliance Matrix: (Units=1/GPa)
#
#
# Indices 1 2 3 4 5 6 
#
# 1 0.010911 -0.006575 -0.007310 0.004537 -0.006679 -0.004971
# 2 -0.006575 0.027278 0.008620 -0.012157 0.011369 0.013000
# 3 -0.007310 0.008620 0.017976 -0.006709 0.008104 0.011836
# 4 0.004537 -0.012157 -0.006709 0.052740 -0.014043 -0.005695
# 5 -0.006679 0.011369 0.008104 -0.014043 0.037398 0.006036
# 6 -0.004971 0.013000 0.011836 -0.005695 0.006036 0.040776
#
#
# Mechanical properties :
#
#
# Convention : Reuss Voigt Hill
#
# Bulk Modulus (GPa) = 21.91304 43.75989 32.83646
# Shear Modulus (GPa) = 23.49417 33.10016 28.29716
#
# Velocity S-wave (km/s) = 3.34350 3.96859 3.66938
# Velocity P-wave (km/s) = 5.03309 6.46695 5.79454
#
# Compressibility (1/GPa) = 0.04563493
#
# Stress axis : x y z
#
# Youngs Moduli (GPa) = 91.65472 36.66001 55.63011
#
# Poissons Ratio (x) = 0.24103 0.40665
# Poissons Ratio (y) = 0.60261 -0.47953
# Poissons Ratio (z) = 0.66998 -0.31601
#
# Static dielectric constant tensor:
#      x y z
#    x 1.730560 -0.013080 0.005940 
#    y -0.013080 1.796940 0.002510 
#    z 0.005940 0.002510 1.779570 
# 
# From -- ./inp_files/37022.got.cif
#   From: 2010.05.17/outbox.cif.g08.bks.cpg/sg2_19_cif.got.tgz:37022.got - 2010.06.03 11:33:40.
