data_PCOD9054665
_publ_section_title
;
Structure prediction by ZEFSAII (Michael W. Deem and Ramdas Pophale) SiO2 
 PCOD9054665
Probable space group: P -1
;
_chemical_formula_sum "Si O2"
_cell_formula_units_Z 16
_cell_length_a 19.073533
_cell_length_b 8.073299
_cell_length_c 11.176856
_cell_angle_alpha 132.654478
_cell_angle_beta 133.068627
_cell_angle_gamma 39.707814
_cell_volume 759.332540
_symmetry_space_group_name_H-M "P -1"
_symmetry_group_IT_number 2
_symmetry_cell_setting 'triclinic'
loop_
_space_group_symop_operation_xyz
x,y,z
-x,-y,-z
loop_
_atom_site_type_symbol
_atom_site_label
_atom_site_fract_x
_atom_site_fract_y
_atom_site_fract_z
Si Si1 0.458438 0.996006 0.316965
Si Si2 0.509169 0.565029 0.678339
Si Si3 0.870180 0.086102 0.873652
Si Si4 0.329536 0.286203 0.100284
Si Si5 0.305342 0.799186 0.109984
Si Si6 0.717581 0.130809 0.276265
Si Si7 0.866179 0.752526 0.485696
Si Si8 0.704764 0.547041 0.273632
O O1 0.381831 0.873175 0.163532
O O2 0.578087 0.807970 0.292058
O O3 0.500000 0.000000 0.500000
O O4 0.364416 0.276946 0.276056
O O5 0.500000 0.500000 0.500000
O O6 0.553226 0.762274 0.843380
O O7 0.621976 0.288453 0.725443
O O8 0.398430 0.665871 0.680795
O O9 0.782362 0.416175 0.919987
O O10 0.826080 0.003488 0.898209
O O11 0.861237 0.947320 0.677808
O O12 0.000000 0.000000 0.000000
O O13 0.308283 0.059706 0.924643
O O14 0.308039 0.573115 0.923089
O O15 0.741054 0.313834 0.305239
O O16 0.813790 0.926805 0.386893
O O17 0.790791 0.639348 0.390141
O O18 0.000000 0.500000 0.500000
#
# Coordination Sequence:
#
# PCOD9054665 Si02
#       8
#     2   2   2   2   2   2   2   2
#     4  12  23  38  64 103 143 177 221 279 346 412
#     4  11  21  37  63  98 139 183 227 279 344 414
#     4  11  25  48  72  96 134 181 235 290 349 416
#     4  11  23  39  66  98 137 180 228 276 351 409
#     4  11  21  41  65  97 142 173 222 286 338 408
#     4  12  23  43  72 100 142 183 235 285 351 419
#     4  12  27  49  74  99 135 184 238 296 349 414
#     4  12  25  44  72 104 141 185 232 287 352 418
#
# _framework density 21.071137
#
# number of rings (size 3 to 8) (size 9 to 14) (size 15 to 20)
#    0.000    0.500    2.500    8.250    1.750    0.500 
#    0.000    0.625    0.000    0.000    0.000    0.000 
#    0.000    0.000    0.000    0.000    0.000    0.000 
#
# Total GULP energy -89235.058811 kJ/mol
# GULP energy per Si atom -5577.191176 kJ/mol
# Density = 2.102318 g / cm^3
# Si number density = 21.071137 Si / 1000 Ang^3
#
#
#
# Elastic Constant Matrix: (Units=GPa)
#
#
# Indices 1 2 3 4 5 6 
#
# 1 113.5263 69.6144 68.0086 -20.7829 7.6128 -10.8511
# 2 69.6144 95.8413 42.4577 -16.6301 7.2252 -0.5794
# 3 68.0086 42.4577 154.4429 -6.4932 -3.1552 3.7953
# 4 -20.7829 -16.6301 -6.4932 33.5872 -0.9390 -1.5620
# 5 7.6128 7.2252 -3.1552 -0.9390 49.1626 1.8265
# 6 -10.8511 -0.5794 3.7953 -1.5620 1.8265 39.8718
#
#
#
# Elastic Compliance Matrix: (Units=1/GPa)
#
#
# Indices 1 2 3 4 5 6 
#
# 1 0.021724 -0.011617 -0.006299 0.006723 -0.002182 0.006706
# 2 -0.011617 0.019334 -0.000057 0.002221 -0.000902 -0.002747
# 3 -0.006299 -0.000057 0.009273 -0.002216 0.001639 -0.002760
# 4 0.006723 0.002221 -0.002216 0.034739 -0.000975 0.003479
# 5 -0.002182 -0.000902 0.001639 -0.000975 0.020963 -0.001761
# 6 0.006706 -0.002747 -0.002760 0.003479 -0.001761 0.027345
#
#
# Mechanical properties :
#
#
# Convention : Reuss Voigt Hill
#
# Bulk Modulus (GPa) = 69.52265 80.44131 74.98198
# Shear Modulus (GPa) = 28.71618 36.77297 32.74458
#
# Velocity S-wave (km/s) = 3.69565 4.18207 3.94636
# Velocity P-wave (km/s) = 7.16075 7.84720 7.51182
#
# Compressibility (1/GPa) = 0.01438380
#
# Stress axis : x y z
#
# Youngs Moduli (GPa) = 46.03292 51.72278 107.84571
#
# Poissons Ratio (x) = 0.60086 0.67933
# Poissons Ratio (y) = 0.53476 0.00616
# Poissons Ratio (z) = 0.28996 0.00296
#
# Static dielectric constant tensor:
#      x y z
#    x 1.743880 0.008250 -0.004750 
#    y 0.008250 1.730860 -0.005820 
#    z -0.004750 -0.005820 1.734580 
# 
# From -- ./inp_files/462585.got.cif
#   From: 2010.05.17/outbox.cif.g08.bks.cpg/sg2_232_cif.got.tgz:462585.got - 2010.06.03 11:33:40.
