data_PCOD9054011
_publ_section_title
;
Structure prediction by ZEFSAII (Michael W. Deem and Ramdas Pophale) SiO2 
 PCOD9054011
Probable space group: P -1
;
_chemical_formula_sum "Si O2"
_cell_formula_units_Z 16
_cell_length_a 12.219109
_cell_length_b 17.374869
_cell_length_c 9.960759
_cell_angle_alpha 73.165282
_cell_angle_beta 47.099826
_cell_angle_gamma 36.307427
_cell_volume 735.863790
_symmetry_space_group_name_H-M "P -1"
_symmetry_group_IT_number 2
_symmetry_cell_setting 'triclinic'
loop_
_space_group_symop_operation_xyz
x,y,z
-x,-y,-z
loop_
_atom_site_type_symbol
_atom_site_label
_atom_site_fract_x
_atom_site_fract_y
_atom_site_fract_z
Si Si1 0.321225 0.884345 0.576143
Si Si2 0.298971 0.170754 0.119108
Si Si3 0.187976 0.607857 0.361397
Si Si4 0.244907 0.059730 0.740485
Si Si5 0.800477 0.403690 0.953063
Si Si6 0.704513 0.089916 0.987285
Si Si7 0.889795 0.640479 0.058558
Si Si8 0.330994 0.364368 0.349760
O O1 0.539760 0.801305 0.313373
O O2 0.545490 0.744989 0.573880
O O3 0.179252 0.030743 0.686376
O O4 0.050458 0.949542 0.742318
O O5 0.086949 0.248337 0.383172
O O6 0.516564 0.142371 0.995504
O O7 0.095677 0.301441 0.102882
O O8 0.500000 0.000000 0.000000
O O9 0.103340 0.632220 0.264440
O O10 0.331901 0.454722 0.354780
O O11 0.444137 0.555864 0.178788
O O12 0.972034 0.241344 0.928026
O O13 0.500000 0.000000 0.500000
O O14 0.325947 0.964532 0.845162
O O15 0.918908 0.416378 0.946256
O O16 0.549266 0.240739 0.106366
O O17 0.000000 0.500000 0.000000
O O18 0.000000 0.500000 0.500000
#
# Coordination Sequence:
#
# PCOD9054011 Si02
#       8
#     2   2   2   2   2   2   2   2
#     4  11  24  42  68 101 138 183 235 291 354 423
#     4  12  28  46  68 101 144 194 235 291 366 434
#     4  11  24  43  72 104 136 180 238 298 353 419
#     4  11  20  39  71 102 136 172 229 300 356 408
#     4  11  24  43  72 104 136 180 238 298 353 419
#     4  11  24  42  68 101 138 183 235 291 354 423
#     4  12  28  46  68 101 144 194 235 291 366 434
#     4  11  20  39  71 102 136 172 229 300 356 408
#
# _framework density 21.743155999999999
#
# number of rings (size 3 to 8) (size 9 to 14) (size 15 to 20)
#    0.000    0.750    2.500    6.000    3.500    2.000 
#    0.000    0.000    0.000    0.000    0.000    0.000 
#    0.000    0.000    0.000    0.000    0.000    0.000 
#
# Total GULP energy -89454.041529 kJ/mol
# GULP energy per Si atom -5590.877596 kJ/mol
# Density = 2.169367 g / cm^3
# Si number density = 21.743156 Si / 1000 Ang^3
#
#
#
# Elastic Constant Matrix: (Units=GPa)
#
#
# Indices 1 2 3 4 5 6 
#
# 1 119.5069 27.6490 81.6545 8.3622 2.7910 1.2234
# 2 27.6490 57.8616 21.8937 10.5133 12.2632 11.1797
# 3 81.6545 21.8937 117.8060 5.4332 -3.7600 -7.6124
# 4 8.3622 10.5133 5.4332 29.8225 3.7659 8.2464
# 5 2.7910 12.2632 -3.7600 3.7659 40.7615 10.1593
# 6 1.2234 11.1797 -7.6124 8.2464 10.1593 37.4866
#
#
#
# Elastic Compliance Matrix: (Units=1/GPa)
#
#
# Indices 1 2 3 4 5 6 
#
# 1 0.016819 -0.003195 -0.011130 -0.001075 -0.000766 -0.001412
# 2 -0.003195 0.022487 -0.002211 -0.004699 -0.005165 -0.004617
# 3 -0.011130 -0.002211 0.016966 -0.000565 0.002038 0.004040
# 4 -0.001075 -0.004699 -0.000565 0.037527 -0.000326 -0.006845
# 5 -0.000766 -0.005165 0.002038 -0.000326 0.027719 -0.005461
# 6 -0.001412 -0.004617 0.004040 -0.006845 -0.005461 0.031906
#
#
# Mechanical properties :
#
#
# Convention : Reuss Voigt Hill
#
# Bulk Modulus (GPa) = 43.10397 61.95209 52.52803
# Shear Modulus (GPa) = 25.74277 32.54592 29.14434
#
# Velocity S-wave (km/s) = 3.44459 3.87309 3.66511
# Velocity P-wave (km/s) = 5.97390 6.96819 6.49011
#
# Compressibility (1/GPa) = 0.02319972
#
# Stress axis : x y z
#
# Youngs Moduli (GPa) = 59.45516 44.47070 58.94044
#
# Poissons Ratio (x) = 0.14209 0.65602
# Poissons Ratio (y) = 0.18997 0.13031
# Poissons Ratio (z) = 0.66175 0.09832
#
# Static dielectric constant tensor:
#      x y z
#    x 1.805300 -0.030010 -0.009360 
#    y -0.030010 1.933740 -0.048130 
#    z -0.009360 -0.048130 1.821890 
# 
# From -- ./inp_files/279362.got.cif
#   From: 2010.05.17/outbox.cif.g08.bks.cpg/sg2_140_cif.got.tgz:279362.got - 2010.06.03 11:33:40.
