data_PCOD9054432
_publ_section_title
;
Structure prediction by ZEFSAII (Michael W. Deem and Ramdas Pophale) SiO2 
 PCOD9054432
Probable space group: P -1
;
_chemical_formula_sum "Si O2"
_cell_formula_units_Z 14
_cell_length_a 12.225711
_cell_length_b 8.351240
_cell_length_c 14.329624
_cell_angle_alpha 30.095737
_cell_angle_beta 58.101017
_cell_angle_gamma 56.890552
_cell_volume 609.068490
_symmetry_space_group_name_H-M "P -1"
_symmetry_group_IT_number 2
_symmetry_cell_setting 'triclinic'
loop_
_space_group_symop_operation_xyz
x,y,z
-x,-y,-z
loop_
_atom_site_type_symbol
_atom_site_label
_atom_site_fract_x
_atom_site_fract_y
_atom_site_fract_z
Si Si1 0.220325 0.518123 0.953309
Si Si2 0.348100 0.698349 0.983366
Si Si3 0.525365 0.613663 0.214613
Si Si4 0.725743 0.569768 0.656215
Si Si5 0.125171 0.881175 0.647819
Si Si6 0.837717 0.172637 0.640784
Si Si7 0.691663 0.553082 0.348573
O O1 0.248727 0.586993 0.011807
O O2 0.353781 0.541223 0.827850
O O3 0.112031 0.765387 0.818913
O O4 0.197597 0.155896 0.138560
O O5 0.333505 0.083263 0.783750
O O6 0.500000 0.500000 0.000000
O O7 0.297426 0.644308 0.136705
O O8 0.409358 0.426810 0.340142
O O9 0.570369 0.562177 0.327649
O O10 0.500000 0.000000 0.000000
O O11 0.831689 0.414727 0.608738
O O12 0.768663 0.887784 0.516699
O O13 0.183384 0.564553 0.718559
O O14 0.983843 0.079631 0.580235
O O15 0.731655 0.310721 0.539175
#
# Coordination Sequence:
#
# PCOD9054432 Si02
#       7
#     2   2   2   2   2   2   2
#     4  11  23  43  70 101 138 188 236 290 347 411
#     4  12  24  45  71 105 142 180 232 293 359 424
#     4  11  20  45  68 100 139 178 232 291 359 411
#     4  12  24  44  73 101 145 182 231 295 347 420
#     4  11  26  48  69 104 144 190 240 283 346 418
#     4  12  25  47  71 104 145 190 236 289 342 418
#     4  11  25  44  72 104 143 183 235 291 351 420
#
# _framework density 22.985918999999999
#
# number of rings (size 3 to 8) (size 9 to 14) (size 15 to 20)
#    0.000    0.571    4.286    3.857    0.000    2.857 
#    7.714    2.143    0.000    0.000    0.000    0.000 
#    0.000    0.000    0.000    0.000    0.000    0.000 
#
# Total GULP energy -78236.622236 kJ/mol
# GULP energy per Si atom -5588.330160 kJ/mol
# Density = 2.293360 g / cm^3
# Si number density = 22.985919 Si / 1000 Ang^3
#
#
#
# Elastic Constant Matrix: (Units=GPa)
#
#
# Indices 1 2 3 4 5 6 
#
# 1 81.9413 29.3490 34.5716 -0.8583 21.2562 -15.7452
# 2 29.3490 84.4038 -8.2269 -5.5126 -1.6013 -5.7646
# 3 34.5716 -8.2269 85.9363 -7.3380 11.1569 -13.4108
# 4 -0.8583 -5.5126 -7.3380 33.1451 9.3716 7.4894
# 5 21.2562 -1.6013 11.1569 9.3716 39.0530 9.3500
# 6 -15.7452 -5.7646 -13.4108 7.4894 9.3500 33.6251
#
#
#
# Elastic Compliance Matrix: (Units=1/GPa)
#
#
# Indices 1 2 3 4 5 6 
#
# 1 0.023895 -0.008568 -0.007020 -0.000949 -0.013747 0.010954
# 2 -0.008568 0.015420 0.004480 0.002559 0.003683 -0.001176
# 3 -0.007020 0.004480 0.016126 0.003988 -0.002446 0.003704
# 4 -0.000949 0.002559 0.003988 0.034567 -0.007873 -0.003925
# 5 -0.013747 0.003683 -0.002446 -0.007873 0.039673 -0.016059
# 6 0.010954 -0.001176 0.003704 -0.003925 -0.016059 0.041485
#
#
# Mechanical properties :
#
#
# Convention : Reuss Voigt Hill
#
# Bulk Modulus (GPa) = 30.09731 40.40766 35.25249
# Shear Modulus (GPa) = 24.45497 34.27047 29.36272
#
# Velocity S-wave (km/s) = 3.26530 3.86545 3.57798
# Velocity P-wave (km/s) = 5.22862 6.12697 5.69554
#
# Compressibility (1/GPa) = 0.03322556
#
# Stress axis : x y z
#
# Youngs Moduli (GPa) = 41.84903 64.84934 62.01304
#
# Poissons Ratio (x) = 0.55562 0.43533
# Poissons Ratio (y) = 0.35855 -0.27781
# Poissons Ratio (z) = 0.29378 -0.29051
#
# Static dielectric constant tensor:
#      x y z
#    x 1.919630 -0.028830 0.039270 
#    y -0.028830 1.911260 0.004870 
#    z 0.039270 0.004870 1.828330 
# 
# From -- ./inp_files/226531.got.cif
#   From: 2010.05.17/outbox.cif.g08.bks.cpg/sg2_114_cif.got.tgz:226531.got - 2010.06.03 11:33:40.
