data_PCOD9054136
_publ_section_title
;
Structure prediction by ZEFSAII (Michael W. Deem and Ramdas Pophale) SiO2 
 PCOD9054136
Probable space group: P -1
;
_chemical_formula_sum "Si O2"
_cell_formula_units_Z 14
_cell_length_a 5.306141
_cell_length_b 13.089980
_cell_length_c 9.892902
_cell_angle_alpha 108.835294
_cell_angle_beta 84.042916
_cell_angle_gamma 97.587961
_cell_volume 643.272675
_symmetry_space_group_name_H-M "P -1"
_symmetry_group_IT_number 2
_symmetry_cell_setting 'triclinic'
loop_
_space_group_symop_operation_xyz
x,y,z
-x,-y,-z
loop_
_atom_site_type_symbol
_atom_site_label
_atom_site_fract_x
_atom_site_fract_y
_atom_site_fract_z
Si Si1 0.688012 0.919178 0.891410
Si Si2 0.231982 0.995465 0.587260
Si Si3 0.385701 0.445252 0.119627
Si Si4 0.279885 0.551753 0.451823
Si Si5 0.851067 0.305042 0.082034
Si Si6 0.306142 0.788441 0.667203
Si Si7 0.936181 0.878323 0.122818
O O1 0.564341 0.844652 0.747292
O O2 0.765188 0.853797 0.989420
O O3 0.914401 0.003551 0.861171
O O4 0.500000 0.000000 0.000000
O O5 0.207468 0.883033 0.624236
O O6 0.500000 0.000000 0.500000
O O7 0.226952 0.100471 0.729154
O O8 0.000000 0.000000 0.500000
O O9 0.330579 0.523573 0.280979
O O10 0.599832 0.367422 0.118778
O O11 0.108115 0.383414 0.079966
O O12 0.500000 0.500000 0.000000
O O13 0.500000 0.500000 0.500000
O O14 0.316238 0.680116 0.534149
O O15 0.000000 0.500000 0.500000
O O16 0.854416 0.249929 0.206696
O O17 0.865956 0.210960 0.928950
#
# Coordination Sequence:
#
# PCOD9054136 Si02
#       7
#     2   2   2   2   2   2   2
#     4  11  20  40  71 110 141 183 240 320 363 434
#     4  12  29  46  67 105 157 200 244 305 379 462
#     4  12  27  49  72 113 152 189 252 326 384 444
#     4  12  26  47  77 111 148 196 260 317 375 448
#     4  12  25  44  80 105 138 197 251 307 377 453
#     4  12  24  46  77 108 147 198 261 307 377 451
#     4  11  24  41  70 106 147 187 248 300 377 453
#
# _framework density 21.763711000000001
#
# number of rings (size 3 to 8) (size 9 to 14) (size 15 to 20)
#    0.000    0.286    5.714    3.000    0.000    5.714 
#    0.000    0.000    0.000    0.000    0.000    0.000 
#    0.000    0.000    0.000    0.000    0.000    0.000 
#
# Total GULP energy -78266.919355 kJ/mol
# GULP energy per Si atom -5590.494240 kJ/mol
# Density = 2.171418 g / cm^3
# Si number density = 21.763711 Si / 1000 Ang^3
#
#
#
# Elastic Constant Matrix: (Units=GPa)
#
#
# Indices 1 2 3 4 5 6 
#
# 1 144.0874 48.8938 62.4672 5.4171 -7.8691 -0.4907
# 2 48.8938 112.5210 74.5453 17.9310 -0.3144 -1.1029
# 3 62.4672 74.5453 169.4378 25.2994 -20.8038 -7.0809
# 4 5.4171 17.9310 25.2994 54.5162 -5.0938 -6.8001
# 5 -7.8691 -0.3144 -20.8038 -5.0938 50.7054 5.0848
# 6 -0.4907 -1.1029 -7.0809 -6.8001 5.0848 44.2260
#
#
#
# Elastic Compliance Matrix: (Units=1/GPa)
#
#
# Indices 1 2 3 4 5 6 
#
# 1 0.008738 -0.002488 -0.002218 0.001003 0.000554 -0.000230
# 2 -0.002488 0.013697 -0.005120 -0.002190 -0.002567 -0.000547
# 3 -0.002218 -0.005120 0.009741 -0.002220 0.003329 0.000683
# 4 0.001003 -0.002190 -0.002220 0.020416 0.001019 0.002623
# 5 0.000554 -0.002567 0.003329 0.001019 0.021444 -0.001834
# 6 -0.000230 -0.000547 0.000683 0.002623 -0.001834 0.023318
#
#
# Mechanical properties :
#
#
# Convention : Reuss Voigt Hill
#
# Bulk Modulus (GPa) = 79.84733 88.65096 84.24914
# Shear Modulus (GPa) = 41.26088 45.89884 43.57986
#
# Velocity S-wave (km/s) = 4.35887 4.59733 4.47968
# Velocity P-wave (km/s) = 7.88041 8.30677 8.09640
#
# Compressibility (1/GPa) = 0.01252390
#
# Stress axis : x y z
#
# Youngs Moduli (GPa) = 114.44432 73.01113 102.66057
#
# Poissons Ratio (x) = 0.18164 0.22771
# Poissons Ratio (y) = 0.28472 0.52559
# Poissons Ratio (z) = 0.25385 0.37380
#
# Static dielectric constant tensor:
#      x y z
#    x 1.842590 -0.004070 -0.009650 
#    y -0.004070 1.785380 -0.014700 
#    z -0.009650 -0.014700 1.823880 
# 
# From -- ./inp_files/131769.got.cif
#   From: 2010.05.17/outbox.cif.g08.bks.cpg/sg2_66_cif.got.tgz:131769.got - 2010.06.03 11:33:40.
