data_PCOD9054534
_publ_section_title
;
Structure prediction by ZEFSAII (Michael W. Deem and Ramdas Pophale) SiO2 
 PCOD9054534
Probable space group: P -1
;
_chemical_formula_sum "Si O2"
_cell_formula_units_Z 14
_cell_length_a 9.289096
_cell_length_b 12.385413
_cell_length_c 18.725819
_cell_angle_alpha 26.894644
_cell_angle_beta 29.782202
_cell_angle_gamma 36.285360
_cell_volume 479.114337
_symmetry_space_group_name_H-M "P -1"
_symmetry_group_IT_number 2
_symmetry_cell_setting 'triclinic'
loop_
_space_group_symop_operation_xyz
x,y,z
-x,-y,-z
loop_
_atom_site_type_symbol
_atom_site_label
_atom_site_fract_x
_atom_site_fract_y
_atom_site_fract_z
Si Si1 0.805752 0.307833 0.820025
Si Si2 0.099650 0.892620 0.863870
Si Si3 0.327782 0.400188 0.705400
Si Si4 0.350858 0.470251 0.374078
Si Si5 0.394171 0.019516 0.252299
Si Si6 0.256526 0.296293 0.282246
Si Si7 0.077023 0.769772 0.788006
O O1 0.601338 0.330856 0.824500
O O2 0.824740 0.579467 0.678532
O O3 0.650163 0.180696 0.026070
O O4 0.092740 0.133978 0.771930
O O5 0.389693 0.700790 0.866062
O O6 0.068544 0.919099 0.776804
O O7 0.810269 0.801856 0.070275
O O8 0.547477 0.480432 0.620382
O O9 0.025638 0.562581 0.719742
O O10 0.487818 0.255974 0.655128
O O11 0.590458 0.249866 0.374020
O O12 0.000000 0.500000 0.500000
O O13 0.294212 0.064638 0.349730
O O14 0.136386 0.108336 0.253865
O O15 0.000000 0.500000 0.000000
#
# Coordination Sequence:
#
# PCOD9054534 Si02
#       7
#     2   2   2   2   2   2   2
#     4  11  22  38  61  96 130 160 203 259 311 366
#     4  11  21  35  65  98 125 160 206 256 310 370
#     4  11  22  38  61  96 130 160 203 259 311 366
#     4  12  25  43  65  90 125 168 212 262 310 360
#     4  11  21  35  65  98 125 160 206 256 310 370
#     4  12  21  36  63  99 133 159 198 254 320 374
#     4  12  19  39  67  90 122 165 210 259 312 362
#
# _framework density 29.220583000000001
#
# number of rings (size 3 to 8) (size 9 to 14) (size 15 to 20)
#    0.000    0.571    5.714    4.286    0.000    4.571 
#    0.000    3.571    0.000    1.714    0.000    0.000 
#    0.000    0.000    0.000    0.000    0.000    0.000 
#
# Total GULP energy -78241.639382 kJ/mol
# GULP energy per Si atom -5588.688527 kJ/mol
# Density = 2.915408 g / cm^3
# Si number density = 29.220583 Si / 1000 Ang^3
#
#
#
# Elastic Constant Matrix: (Units=GPa)
#
#
# Indices 1 2 3 4 5 6 
#
# 1 212.2659 93.9570 42.0198 13.0685 -15.1898 18.1962
# 2 93.9570 248.6142 37.1194 38.5262 -9.5686 30.9880
# 3 42.0198 37.1194 108.2376 19.3245 -21.5560 7.4348
# 4 13.0685 38.5262 19.3245 41.6127 -4.9941 1.1854
# 5 -15.1898 -9.5686 -21.5560 -4.9941 42.5394 5.9441
# 6 18.1962 30.9880 7.4348 1.1854 5.9441 75.4733
#
#
#
# Elastic Compliance Matrix: (Units=1/GPa)
#
#
# Indices 1 2 3 4 5 6 
#
# 1 0.005997 -0.002066 -0.001524 0.000883 0.001085 -0.000547
# 2 -0.002066 0.005765 -0.000211 -0.004519 0.000172 -0.001791
# 3 -0.001524 -0.000211 0.011707 -0.004133 0.004999 -0.001028
# 4 0.000883 -0.004519 -0.004133 0.029873 0.000496 0.001541
# 5 0.001085 0.000172 0.004999 0.000496 0.026938 -0.002954
# 6 -0.000547 -0.001791 -0.001028 0.001541 -0.002954 0.014426
#
#
# Mechanical properties :
#
#
# Convention : Reuss Voigt Hill
#
# Bulk Modulus (GPa) = 63.02117 101.70114 82.36115
# Shear Modulus (GPa) = 46.47010 58.32651 52.39831
#
# Velocity S-wave (km/s) = 3.99221 4.47259 4.23921
# Velocity P-wave (km/s) = 6.54710 7.84553 7.22554
#
# Compressibility (1/GPa) = 0.01586768
#
# Stress axis : x y z
#
# Youngs Moduli (GPa) = 166.74132 173.47449 85.41870
#
# Poissons Ratio (x) = 0.35837 0.13016
# Poissons Ratio (y) = 0.34446 0.01802
# Poissons Ratio (z) = 0.25407 0.03660
#
# Static dielectric constant tensor:
#      x y z
#    x 2.198650 -0.025810 0.094780 
#    y -0.025810 2.262130 -0.123410 
#    z 0.094780 -0.123410 2.462040 
# 
# From -- ./inp_files/588930.got.cif
#   From: 2010.05.17/outbox.cif.g08.bks.cpg/sg2_295_cif.got.tgz:588930.got - 2010.06.03 11:33:40.
