data_PCOD9054758
_publ_section_title
;
Structure prediction by ZEFSAII (Michael W. Deem and Ramdas Pophale) SiO2 
 PCOD9054758
Probable space group: P -1
;
_chemical_formula_sum "Si O2"
_cell_formula_units_Z 16
_cell_length_a 11.460628
_cell_length_b 8.540251
_cell_length_c 8.979318
_cell_angle_alpha 54.101338
_cell_angle_beta 109.925653
_cell_angle_gamma 86.140101
_cell_volume 626.779119
_symmetry_space_group_name_H-M "P -1"
_symmetry_group_IT_number 2
_symmetry_cell_setting 'triclinic'
loop_
_space_group_symop_operation_xyz
x,y,z
-x,-y,-z
loop_
_atom_site_type_symbol
_atom_site_label
_atom_site_fract_x
_atom_site_fract_y
_atom_site_fract_z
Si Si1 0.400042 0.424543 0.825596
Si Si2 0.480154 0.846570 0.204906
Si Si3 0.069914 0.967541 0.779335
Si Si4 0.730135 0.739623 0.587540
Si Si5 0.796407 0.155966 0.389421
Si Si6 0.014432 0.608386 0.098789
Si Si7 0.136568 0.338747 0.713274
Si Si8 0.598973 0.861046 0.749832
O O1 0.512589 0.348457 0.788042
O O2 0.330567 0.662578 0.706006
O O3 0.271697 0.380157 0.729680
O O4 0.443569 0.284362 0.071771
O O5 0.605298 0.773802 0.409978
O O6 0.372745 0.979379 0.207313
O O7 0.500000 0.000000 0.000000
O O8 0.156259 0.819445 0.769924
O O9 0.145804 0.114215 0.786441
O O10 0.036814 0.822127 0.964273
O O11 0.928620 0.113037 0.569301
O O12 0.852524 0.552297 0.684562
O O13 0.768028 0.944135 0.490112
O O14 0.703734 0.711573 0.765277
O O15 0.892311 0.642979 0.133784
O O16 0.000000 0.500000 0.000000
O O17 0.000000 0.500000 0.500000
O O18 0.500000 0.000000 0.500000
#
# Coordination Sequence:
#
# PCOD9054758 Si02
#       8
#     2   2   2   2   2   2   2   2
#     4  11  21  38  63  89 118 163 200 245 309 356
#     4   9  20  40  63  85 112 151 206 258 303 354
#     4  11  23  38  54  89 133 165 202 242 286 359
#     4  11  21  38  63  89 118 163 200 245 309 356
#     4  11  22  36  60  89 125 163 205 244 294 365
#     4  12  23  38  60  90 127 166 200 242 296 363
#     4  12  23  38  60  90 127 166 200 242 296 363
#     4   9  20  40  63  85 112 151 206 258 303 354
#
# _framework density 25.527335000000001
#
# number of rings (size 3 to 8) (size 9 to 14) (size 15 to 20)
#    0.000    1.250    2.500    4.875    0.000    0.000 
#    0.000    6.250    0.000    6.000    0.000    0.000 
#    0.000    0.000    0.000    0.000    0.000    0.000 
#
# Total GULP energy -89452.171078 kJ/mol
# GULP energy per Si atom -5590.760692 kJ/mol
# Density = 2.546923 g / cm^3
# Si number density = 25.527335 Si / 1000 Ang^3
#
#
#
# Elastic Constant Matrix: (Units=GPa)
#
#
# Indices 1 2 3 4 5 6 
#
# 1 40.2661 35.2944 6.1179 12.6631 5.6101 -9.7852
# 2 35.2944 131.2319 46.8303 5.9319 -3.9288 -40.0975
# 3 6.1179 46.8303 100.2869 16.3237 15.8496 -1.6965
# 4 12.6631 5.9319 16.3237 30.9318 -7.9104 -4.9205
# 5 5.6101 -3.9288 15.8496 -7.9104 38.2452 3.6780
# 6 -9.7852 -40.0975 -1.6965 -4.9205 3.6780 52.8472
#
#
#
# Elastic Compliance Matrix: (Units=1/GPa)
#
#
# Indices 1 2 3 4 5 6 
#
# 1 0.052251 -0.020832 0.015138 -0.032152 -0.022045 -0.007105
# 2 -0.020832 0.021491 -0.013348 0.016806 0.013052 0.012676
# 3 0.015138 -0.013348 0.020849 -0.019813 -0.015617 -0.007414
# 4 -0.032152 0.016806 -0.019813 0.061049 0.026318 0.010014
# 5 -0.022045 0.013052 -0.015617 0.026318 0.042172 0.004835
# 6 -0.007105 0.012676 -0.007414 0.010014 0.004835 0.027583
#
#
# Mechanical properties :
#
#
# Convention : Reuss Voigt Hill
#
# Bulk Modulus (GPa) = 17.69761 49.80778 33.75269
# Shear Modulus (GPa) = 17.71075 36.64099 27.17587
#
# Velocity S-wave (km/s) = 2.63686 3.79273 3.26633
# Velocity P-wave (km/s) = 4.02723 6.22363 5.24176
#
# Compressibility (1/GPa) = 0.05650481
#
# Stress axis : x y z
#
# Youngs Moduli (GPa) = 19.13835 46.53214 47.96433
#
# Poissons Ratio (x) = 0.96936 -0.72607
# Poissons Ratio (y) = 0.39869 0.64024
# Poissons Ratio (z) = -0.28971 0.62113
#
# Static dielectric constant tensor:
#      x y z
#    x 1.011620 0.415080 -0.247240 
#    y 0.415080 1.887290 0.085540 
#    z -0.247240 0.085540 1.991540 
# 
# From -- ./inp_files/207170.got.cif
#   From: 2010.05.17/outbox.cif.g08.bks.cpg/sg2_104_cif.got.tgz:207170.got - 2010.06.03 11:33:40.
