data_PCOD9054689
_publ_section_title
;
Structure prediction by ZEFSAII (Michael W. Deem and Ramdas Pophale) SiO2 
 PCOD9054689
Probable space group: P -1
;
_chemical_formula_sum "Si O2"
_cell_formula_units_Z 12
_cell_length_a 11.944280
_cell_length_b 15.996448
_cell_length_c 10.090320
_cell_angle_alpha 139.714858
_cell_angle_beta 40.259404
_cell_angle_gamma 156.187743
_cell_volume 487.330059
_symmetry_space_group_name_H-M "P -1"
_symmetry_group_IT_number 2
_symmetry_cell_setting 'triclinic'
loop_
_space_group_symop_operation_xyz
x,y,z
-x,-y,-z
loop_
_atom_site_type_symbol
_atom_site_label
_atom_site_fract_x
_atom_site_fract_y
_atom_site_fract_z
Si Si1 0.283926 0.635425 0.701245
Si Si2 0.225086 0.032145 0.975053
Si Si3 0.875233 0.064864 0.741736
Si Si4 0.276450 0.667340 0.305188
Si Si5 0.374127 0.532314 0.748560
Si Si6 0.165296 0.399735 0.284656
O O1 0.274279 0.584232 0.799119
O O2 0.308036 0.525274 0.446593
O O3 0.987950 0.519072 0.779673
O O4 0.565247 0.889749 0.739490
O O5 0.466762 0.129260 0.769962
O O6 0.364087 0.256257 0.145819
O O7 0.931700 0.803846 0.899827
O O8 0.182322 0.963030 0.082721
O O9 0.106978 0.307179 0.786447
O O10 0.000000 0.000000 0.500000
O O11 0.338295 0.577664 0.228879
O O12 0.135148 0.695328 0.557699
O O13 0.500000 0.500000 0.500000
#
# Coordination Sequence:
#
# PCOD9054689 Si02
#       6
#     2   2   2   2   2   2
#     4   9  21  38  65  89 120 157 198 245 302 359
#     4  11  21  37  66  90 122 157 200 244 303 358
#     4  11  22  40  60  81 121 166 202 244 288 346
#     4   9  20  39  65  93 124 152 190 251 309 356
#     4  11  22  40  60  82 121 165 204 243 290 346
#     4   9  20  40  63  94 123 152 193 249 306 360
#
# _framework density 24.623968999999999
#
# number of rings (size 3 to 8) (size 9 to 14) (size 15 to 20)
#    1.000    1.000    3.333    1.500    0.000    5.333 
#    0.000    6.667    0.000    0.000    0.000    0.000 
#    0.000    0.000    0.000    0.000    0.000    0.000 
#
# Total GULP energy -66887.394552 kJ/mol
# GULP energy per Si atom -5573.949546 kJ/mol
# Density = 2.456792 g / cm^3
# Si number density = 24.623969 Si / 1000 Ang^3
#
#
#
# Elastic Constant Matrix: (Units=GPa)
#
#
# Indices 1 2 3 4 5 6 
#
# 1 92.6611 53.6992 24.0788 -1.1361 26.9401 -0.3053
# 2 53.6992 222.7048 70.4528 10.1558 17.9731 -18.9469
# 3 24.0788 70.4528 89.7969 18.0497 20.2407 -5.3273
# 4 -1.1361 10.1558 18.0497 61.3961 2.1884 14.0608
# 5 26.9401 17.9731 20.2407 2.1884 34.7447 -3.2441
# 6 -0.3053 -18.9469 -5.3273 14.0608 -3.2441 25.9644
#
#
#
# Elastic Compliance Matrix: (Units=1/GPa)
#
#
# Indices 1 2 3 4 5 6 
#
# 1 0.016147 -0.003607 0.000300 0.002384 -0.011456 -0.005103
# 2 -0.003607 0.007117 -0.004614 -0.001144 0.002353 0.005118
# 3 0.000300 -0.004614 0.017366 -0.004451 -0.007526 0.001670
# 4 0.002384 -0.001144 -0.004451 0.020892 -0.001211 -0.013185
# 5 -0.011456 0.002353 -0.007526 -0.001211 0.041456 0.005873
# 6 -0.005103 0.005118 0.001670 -0.013185 0.005873 0.050406
#
#
# Mechanical properties :
#
#
# Convention : Reuss Voigt Hill
#
# Bulk Modulus (GPa) = 40.33919 77.95826 59.14872
# Shear Modulus (GPa) = 28.17096 41.54984 34.86040
#
# Velocity S-wave (km/s) = 3.38604 4.11222 3.76667
# Velocity P-wave (km/s) = 5.63069 7.36718 6.55668
#
# Compressibility (1/GPa) = 0.02478979
#
# Stress axis : x y z
#
# Youngs Moduli (GPa) = 61.92979 140.50589 57.58488
#
# Poissons Ratio (x) = 0.50678 -0.01729
# Poissons Ratio (y) = 0.22337 0.26567
# Poissons Ratio (z) = -0.01859 0.64824
#
# Static dielectric constant tensor:
#      x y z
#    x 1.991570 -0.021700 -0.066510 
#    y -0.021700 1.916330 -0.003290 
#    z -0.066510 -0.003290 2.071990 
# 
# From -- ./inp_files/266963.got.cif
#   From: 2010.05.17/outbox.cif.g08.bks.cpg/sg2_134_cif.got.tgz:266963.got - 2010.06.03 11:33:40.
