data_PCOD9054201
_publ_section_title
;
Structure prediction by ZEFSAII (Michael W. Deem and Ramdas Pophale) SiO2 
 PCOD9054201
Probable space group: P -1
;
_chemical_formula_sum "Si O2"
_cell_formula_units_Z 16
_cell_length_a 9.490516
_cell_length_b 20.295095
_cell_length_c 10.367398
_cell_angle_alpha 45.454748
_cell_angle_beta 54.980780
_cell_angle_gamma 28.328241
_cell_volume 669.683837
_symmetry_space_group_name_H-M "P -1"
_symmetry_group_IT_number 2
_symmetry_cell_setting 'triclinic'
loop_
_space_group_symop_operation_xyz
x,y,z
-x,-y,-z
loop_
_atom_site_type_symbol
_atom_site_label
_atom_site_fract_x
_atom_site_fract_y
_atom_site_fract_z
Si Si1 0.765464 0.185219 0.885475
Si Si2 0.369588 0.245820 0.377713
Si Si3 0.100923 0.683438 0.508905
Si Si4 0.873886 0.611863 0.136226
Si Si5 0.848153 0.330849 0.017082
Si Si6 0.382340 0.500359 0.350043
Si Si7 0.434718 0.267947 0.603220
Si Si8 0.064295 0.900229 0.805057
O O1 0.856190 0.230361 0.682410
O O2 0.433607 0.290776 0.894936
O O3 0.805423 0.195488 0.998308
O O4 0.000000 0.000000 0.000000
O O5 0.362572 0.252916 0.526618
O O6 0.704974 0.122885 0.329817
O O7 0.227768 0.213738 0.443070
O O8 0.151188 0.426491 0.202039
O O9 0.231132 0.566034 0.481244
O O10 0.313254 0.578241 0.666094
O O11 0.815883 0.627347 0.299258
O O12 0.953894 0.684869 0.983228
O O13 0.844512 0.360888 0.826556
O O14 0.500000 0.500000 0.000000
O O15 0.938972 0.184034 0.176827
O O16 0.482417 0.356506 0.443470
O O17 0.737096 0.085904 0.742298
#
# Coordination Sequence:
#
# PCOD9054201 Si02
#       8
#     2   2   2   2   2   2   2   2
#     4  12  25  47  68 104 144 179 229 292 345 409
#     4  12  25  42  69 105 131 182 237 280 340 414
#     4  11  22  40  70  98 129 180 236 277 330 411
#     4  12  23  41  74  97 133 184 237 275 340 405
#     4  12  25  42  65 106 143 177 228 290 346 407
#     4  11  20  41  68  96 131 179 229 281 324 415
#     4  12  23  44  69  98 141 179 231 286 339 410
#     4  12  27  45  68 101 149 179 220 296 357 394
#
# _framework density 23.891871999999999
#
# number of rings (size 3 to 8) (size 9 to 14) (size 15 to 20)
#    0.000    0.250    7.500    2.250    0.000    3.000 
#    0.000    2.500    0.000    0.000    0.000    0.000 
#    0.000    0.000    0.000    0.000    0.000    0.000 
#
# Total GULP energy -89503.142478 kJ/mol
# GULP energy per Si atom -5593.946405 kJ/mol
# Density = 2.383749 g / cm^3
# Si number density = 23.891872 Si / 1000 Ang^3
#
#
#
# Elastic Constant Matrix: (Units=GPa)
#
#
# Indices 1 2 3 4 5 6 
#
# 1 139.8909 8.7827 30.6101 -7.6836 -25.7455 -33.4526
# 2 8.7827 46.6979 12.4457 -5.0264 -12.9261 -3.9936
# 3 30.6101 12.4457 51.3285 -10.0538 -15.6352 -12.0100
# 4 -7.6836 -5.0264 -10.0538 28.1754 -3.6591 0.9390
# 5 -25.7455 -12.9261 -15.6352 -3.6591 40.0104 2.5086
# 6 -33.4526 -3.9936 -12.0100 0.9390 2.5086 32.7224
#
#
#
# Elastic Compliance Matrix: (Units=1/GPa)
#
#
# Indices 1 2 3 4 5 6 
#
# 1 0.011412 0.001480 -0.002070 0.003151 0.006643 0.010488
# 2 0.001480 0.024903 -0.002859 0.004793 0.008147 0.002741
# 3 -0.002070 -0.002859 0.027630 0.009731 0.009011 0.006706
# 4 0.003151 0.004793 0.009731 0.041913 0.010877 0.005341
# 5 0.006643 0.008147 0.009011 0.010877 0.035913 0.008028
# 6 0.010488 0.002741 0.006706 0.005341 0.008028 0.043309
#
#
# Mechanical properties :
#
#
# Convention : Reuss Voigt Hill
#
# Bulk Modulus (GPa) = 17.52913 37.95493 27.74203
# Shear Modulus (GPa) = 23.69728 32.58689 28.14209
#
# Velocity S-wave (km/s) = 3.15279 3.69715 3.43577
# Velocity P-wave (km/s) = 4.53941 5.84345 5.23221
#
# Compressibility (1/GPa) = 0.05704789
#
# Stress axis : x y z
#
# Youngs Moduli (GPa) = 87.62600 40.15533 36.19252
#
# Poissons Ratio (x) = -0.05944 0.07491
# Poissons Ratio (y) = -0.12971 0.10348
# Poissons Ratio (z) = 0.18137 0.11481
#
# Static dielectric constant tensor:
#      x y z
#    x 1.967710 0.001930 0.001770 
#    y 0.001930 1.898110 0.069470 
#    z 0.001770 0.069470 2.004900 
# 
# From -- ./inp_files/263571.got.cif
#   From: 2010.05.17/outbox.cif.g08.bks.cpg/sg2_132_cif.got.tgz:263571.got - 2010.06.03 11:33:40.
