data_PCOD9054002
_publ_section_title
;
Structure prediction by ZEFSAII (Michael W. Deem and Ramdas Pophale) SiO2 
 PCOD9054002
Probable space group: P -1
;
_chemical_formula_sum "Si O2"
_cell_formula_units_Z 16
_cell_length_a 10.748856
_cell_length_b 11.760790
_cell_length_c 7.603153
_cell_angle_alpha 110.769859
_cell_angle_beta 48.050041
_cell_angle_gamma 119.091147
_cell_volume 624.010427
_symmetry_space_group_name_H-M "P -1"
_symmetry_group_IT_number 2
_symmetry_cell_setting 'triclinic'
loop_
_space_group_symop_operation_xyz
x,y,z
-x,-y,-z
loop_
_atom_site_type_symbol
_atom_site_label
_atom_site_fract_x
_atom_site_fract_y
_atom_site_fract_z
Si Si1 0.722980 0.705105 0.987868
Si Si2 0.407949 0.718032 0.783508
Si Si3 0.469926 0.106434 0.713027
Si Si4 0.479082 0.465273 0.242492
Si Si5 0.952239 0.435795 0.816911
Si Si6 0.987359 0.807773 0.513054
Si Si7 0.289371 0.048952 0.225594
Si Si8 0.750980 0.347417 0.468129
O O1 0.595348 0.642273 0.902692
O O2 0.920872 0.770730 0.756527
O O3 0.656435 0.814682 0.195607
O O4 0.672888 0.578787 0.087965
O O5 0.542953 0.859282 0.774590
O O6 0.257466 0.647803 0.031913
O O7 0.518030 0.619583 0.635595
O O8 0.299841 0.718915 0.711172
O O9 0.659701 0.228124 0.618846
O O10 0.500000 0.000000 0.500000
O O11 0.632697 0.954298 0.044246
O O12 0.352798 0.550285 0.387584
O O13 0.035890 0.325187 0.638478
O O14 0.044325 0.557430 0.667316
O O15 0.000000 0.500000 0.000000
O O16 0.181995 0.912437 0.343024
O O17 0.850383 0.875673 0.613189
#
# Coordination Sequence:
#
# PCOD9054002 Si02
#       8
#     2   2   2   2   2   2   2   2
#     4   9  18  35  65  87 113 160 203 243 297 354
#     4  11  21  36  58  97 122 150 206 249 298 350
#     4  10  21  38  61  87 118 160 204 241 304 360
#     4  10  17  35  63  87 116 150 205 244 296 362
#     4  10  22  35  55  88 125 153 191 252 308 343
#     4  10  19  39  60  86 118 162 205 238 292 365
#     4  10  22  38  65  86 113 167 213 237 289 363
#     4  10  21  38  62  86 121 163 192 249 308 354
#
# _framework density 25.640598000000001
#
# number of rings (size 3 to 8) (size 9 to 14) (size 15 to 20)
#    0.000    2.000    3.750    0.375    3.500    1.500 
#    0.000    2.500    0.000    7.500    0.000    0.000 
#    0.000    0.000    0.000    0.000    0.000    0.000 
#
# Total GULP energy -89395.115632 kJ/mol
# GULP energy per Si atom -5587.194727 kJ/mol
# Density = 2.558224 g / cm^3
# Si number density = 25.640598 Si / 1000 Ang^3
#
#
#
# Elastic Constant Matrix: (Units=GPa)
#
#
# Indices 1 2 3 4 5 6 
#
# 1 59.7127 45.0744 28.0738 -5.4530 2.7921 4.5357
# 2 45.0744 224.4447 92.3966 -22.5326 -16.0827 17.5840
# 3 28.0738 92.3966 144.1301 -1.6550 -12.6332 22.4417
# 4 -5.4530 -22.5326 -1.6550 73.0154 8.5983 -15.5999
# 5 2.7921 -16.0827 -12.6332 8.5983 35.6377 -1.8830
# 6 4.5357 17.5840 22.4417 -15.5999 -1.8830 53.1112
#
#
#
# Elastic Compliance Matrix: (Units=1/GPa)
#
#
# Indices 1 2 3 4 5 6 
#
# 1 0.020667 -0.003467 -0.002233 0.001019 -0.004196 0.000477
# 2 -0.003467 0.006912 -0.003594 0.001601 0.001733 0.000058
# 3 -0.002233 -0.003594 0.010432 -0.002101 0.002570 -0.003553
# 4 0.001019 0.001601 -0.002101 0.015659 -0.003630 0.004741
# 5 -0.004196 0.001733 0.002570 -0.003630 0.030891 -0.001272
# 6 0.000477 0.000058 -0.003553 0.004741 -0.001272 0.021617
#
#
# Mechanical properties :
#
#
# Convention : Reuss Voigt Hill
#
# Bulk Modulus (GPa) = 51.48999 84.37525 67.93262
# Shear Modulus (GPa) = 38.09815 49.86905 43.98360
#
# Velocity S-wave (km/s) = 3.85886 4.41492 4.14622
# Velocity P-wave (km/s) = 6.32293 7.67900 7.03372
#
# Compressibility (1/GPa) = 0.01942125
#
# Stress axis : x y z
#
# Youngs Moduli (GPa) = 48.38672 144.68247 95.86077
#
# Poissons Ratio (x) = 0.50158 0.21410
# Poissons Ratio (y) = 0.16774 0.34455
# Poissons Ratio (z) = 0.10807 0.52003
#
# Static dielectric constant tensor:
#      x y z
#    x 2.087820 -0.015920 -0.054220 
#    y -0.015920 2.011240 -0.024960 
#    z -0.054220 -0.024960 2.170470 
# 
# From -- ./inp_files/308260.got.cif
#   From: 2010.05.17/outbox.cif.g08.bks.cpg/sg2_155_cif.got.tgz:308260.got - 2010.06.03 11:33:40.
