data_PCOD9054100
_publ_section_title
;
Structure prediction by ZEFSAII (Michael W. Deem and Ramdas Pophale) SiO2 
 PCOD9054100
Probable space group: P -1
;
_chemical_formula_sum "Si O2"
_cell_formula_units_Z 16
_cell_length_a 14.342282
_cell_length_b 10.444394
_cell_length_c 9.105412
_cell_angle_alpha 72.968073
_cell_angle_beta 64.856823
_cell_angle_gamma 124.993343
_cell_volume 698.238049
_symmetry_space_group_name_H-M "P -1"
_symmetry_group_IT_number 2
_symmetry_cell_setting 'triclinic'
loop_
_space_group_symop_operation_xyz
x,y,z
-x,-y,-z
loop_
_atom_site_type_symbol
_atom_site_label
_atom_site_fract_x
_atom_site_fract_y
_atom_site_fract_z
Si Si1 0.516681 0.122165 0.583071
Si Si2 0.166942 0.159827 0.185460
Si Si3 0.304520 0.114384 0.365056
Si Si4 0.813823 0.281416 0.504535
Si Si5 0.210588 0.746656 0.130570
Si Si6 0.789307 0.732522 0.450705
Si Si7 0.364371 0.457694 0.676923
Si Si8 0.314144 0.545301 0.126797
O O1 0.669554 0.228423 0.552197
O O2 0.566549 0.320056 0.423108
O O3 0.500000 0.000000 0.500000
O O4 0.342147 0.948473 0.857508
O O5 0.233297 0.123787 0.271083
O O6 0.171593 0.307632 0.215337
O O7 0.299079 0.318763 0.912328
O O8 0.983122 0.931787 0.317039
O O9 0.283464 0.195739 0.485544
O O10 0.197138 0.865242 0.534906
O O11 0.501956 0.282816 0.134711
O O12 0.768129 0.190232 0.733937
O O13 0.007120 0.545772 0.292316
O O14 0.259048 0.640176 0.134226
O O15 0.784582 0.691705 0.297925
O O16 0.679113 0.511453 0.696039
O O17 0.500000 0.500000 0.500000
#
# Coordination Sequence:
#
# PCOD9054100 Si02
#       8
#     2   2   2   2   2   2   2   2
#     4  12  28  48  72 101 145 190 230 283 349 421
#     4  11  23  41  64  99 135 177 226 281 340 407
#     4  11  22  39  72 100 132 178 223 288 343 403
#     4  11  25  44  74 103 137 180 236 290 349 410
#     4  11  24  45  71 105 135 181 234 293 345 413
#     4  11  23  40  65  99 135 176 228 283 339 406
#     4  12  27  45  67  96 137 184 227 278 343 409
#     4  11  20  40  68  99 134 172 226 284 345 402
#
# _framework density 22.914819999999999
#
# number of rings (size 3 to 8) (size 9 to 14) (size 15 to 20)
#    0.000    0.750    1.250    8.250    5.250    1.500 
#    2.250    0.000    0.000    0.000    0.000    0.000 
#    0.000    0.000    0.000    0.000    0.000    0.000 
#
# Total GULP energy -89630.133225 kJ/mol
# GULP energy per Si atom -5601.883327 kJ/mol
# Density = 2.286267 g / cm^3
# Si number density = 22.914820 Si / 1000 Ang^3
#
#
#
# Elastic Constant Matrix: (Units=GPa)
#
#
# Indices 1 2 3 4 5 6 
#
# 1 50.2121 32.7824 18.4701 -11.5600 -2.7954 1.8320
# 2 32.7824 91.6494 10.2562 -4.2251 -8.8800 5.3477
# 3 18.4701 10.2562 95.7077 1.0103 -13.7453 6.8554
# 4 -11.5600 -4.2251 1.0103 28.3928 2.3148 -2.7211
# 5 -2.7954 -8.8800 -13.7453 2.3148 24.5828 -4.6653
# 6 1.8320 5.3477 6.8554 -2.7211 -4.6653 38.3038
#
#
#
# Elastic Compliance Matrix: (Units=1/GPa)
#
#
# Indices 1 2 3 4 5 6 
#
# 1 0.031348 -0.010516 -0.005764 0.011883 -0.004326 0.001318
# 2 -0.010516 0.014967 0.001257 -0.002633 0.004895 -0.001402
# 3 -0.005764 0.001257 0.012554 -0.003312 0.006836 -0.001549
# 4 0.011883 -0.002633 -0.003312 0.040429 -0.004749 0.002686
# 5 -0.004326 0.004895 0.006836 -0.004749 0.046923 0.003678
# 6 0.001318 -0.001402 -0.001549 0.002686 0.003678 0.027156
#
#
# Mechanical properties :
#
#
# Convention : Reuss Voigt Hill
#
# Bulk Modulus (GPa) = 34.69522 40.06518 37.38020
# Shear Modulus (GPa) = 23.47084 29.99325 26.73205
#
# Velocity S-wave (km/s) = 3.20389 3.62180 3.41923
# Velocity P-wave (km/s) = 5.37218 5.91712 5.65122
#
# Compressibility (1/GPa) = 0.02882242
#
# Stress axis : x y z
#
# Youngs Moduli (GPa) = 31.89964 66.81429 79.65709
#
# Poissons Ratio (x) = 0.70264 0.45913
# Poissons Ratio (y) = 0.33547 -0.10012
# Poissons Ratio (z) = 0.18387 -0.08398
#
# Static dielectric constant tensor:
#      x y z
#    x 1.852150 0.041980 -0.007150 
#    y 0.041980 1.910840 0.010040 
#    z -0.007150 0.010040 1.870460 
# 
# From -- ./inp_files/306988.got.cif
#   From: 2010.05.17/outbox.cif.g08.bks.cpg/sg2_154_cif.got.tgz:306988.got - 2010.06.03 11:33:40.
