data_PCOD9054306
_publ_section_title
;
Structure prediction by ZEFSAII (Michael W. Deem and Ramdas Pophale) SiO2 
 PCOD9054306
Probable space group: P -1
;
_chemical_formula_sum "Si O2"
_cell_formula_units_Z 16
_cell_length_a 13.678353
_cell_length_b 12.668601
_cell_length_c 13.075180
_cell_angle_alpha 56.219339
_cell_angle_beta 32.719798
_cell_angle_gamma 35.156311
_cell_volume 638.805035
_symmetry_space_group_name_H-M "P -1"
_symmetry_group_IT_number 2
_symmetry_cell_setting 'triclinic'
loop_
_space_group_symop_operation_xyz
x,y,z
-x,-y,-z
loop_
_atom_site_type_symbol
_atom_site_label
_atom_site_fract_x
_atom_site_fract_y
_atom_site_fract_z
Si Si1 0.590090 0.645216 0.179590
Si Si2 0.830799 0.597043 0.278208
Si Si3 0.332716 0.710073 0.984418
Si Si4 0.747521 0.931204 0.434596
Si Si5 0.223508 0.371686 0.466230
Si Si6 0.837044 0.309443 0.389144
Si Si7 0.685257 0.085424 0.925860
Si Si8 0.705997 0.950814 0.689083
O O1 0.459868 0.589105 0.369561
O O2 0.433925 0.765924 0.144026
O O3 0.495139 0.815768 0.242276
O O4 0.927832 0.454714 0.963673
O O5 0.934577 0.519350 0.346164
O O6 0.813256 0.471593 0.306138
O O7 0.529241 0.829644 0.437302
O O8 0.329254 0.824911 0.008086
O O9 0.004514 0.844325 0.185229
O O10 0.500000 0.500000 0.000000
O O11 0.521996 0.665177 0.750803
O O12 0.666682 0.833439 0.524842
O O13 0.856433 0.865611 0.492153
O O14 0.000000 0.500000 0.500000
O O15 0.059497 0.173332 0.361505
O O16 0.991218 0.139356 0.260155
O O17 0.496589 0.060790 0.113525
#
# Coordination Sequence:
#
# PCOD9054306 Si02
#       8
#     2   2   2   2   2   2   2   2
#     4  11  22  39  70  98 134 177 219 279 332 391
#     4  12  27  43  65 102 142 174 218 274 340 400
#     4  12  26  42  72 101 127 175 230 280 328 389
#     4  12  27  45  66 100 139 175 219 281 333 399
#     4  12  25  46  72  97 127 181 228 274 324 394
#     4  11  22  41  70 102 132 175 222 278 330 400
#     4  11  20  42  70 102 131 169 234 284 321 385
#     4  11  20  43  70  97 133 176 227 274 330 392
#
# _framework density 25.046764
#
# number of rings (size 3 to 8) (size 9 to 14) (size 15 to 20)
#    0.000    0.500    5.000    5.625    1.750    2.000 
#    0.000    1.250    0.000    0.000    0.000    0.000 
#    0.000    0.000    0.000    0.000    0.000    0.000 
#
# Total GULP energy -89777.630548 kJ/mol
# GULP energy per Si atom -5611.101909 kJ/mol
# Density = 2.498976 g / cm^3
# Si number density = 25.046764 Si / 1000 Ang^3
#
#
#
# Elastic Constant Matrix: (Units=GPa)
#
#
# Indices 1 2 3 4 5 6 
#
# 1 51.6130 5.0347 2.8406 1.5121 8.2910 3.9372
# 2 5.0347 82.7924 33.6829 22.0050 -16.6136 2.3756
# 3 2.8406 33.6829 198.9919 -4.9749 -26.6906 6.3525
# 4 1.5121 22.0050 -4.9749 42.6323 3.2943 -2.3052
# 5 8.2910 -16.6136 -26.6906 3.2943 41.1013 7.2050
# 6 3.9372 2.3756 6.3525 -2.3052 7.2050 30.9006
#
#
#
# Elastic Compliance Matrix: (Units=1/GPa)
#
#
# Indices 1 2 3 4 5 6 
#
# 1 0.020534 -0.002237 -0.000574 0.000712 -0.005294 -0.001039
# 2 -0.002237 0.017219 -0.002035 -0.009785 0.007414 -0.003079
# 3 -0.000574 -0.002035 0.005910 0.001415 0.003307 -0.001651
# 4 0.000712 -0.009785 0.001415 0.029346 -0.006236 0.004014
# 5 -0.005294 0.007414 0.003307 -0.006236 0.032555 -0.008631
# 6 -0.001039 -0.003079 -0.001651 0.004014 -0.008631 0.035382
#
#
# Mechanical properties :
#
#
# Convention : Reuss Voigt Hill
#
# Bulk Modulus (GPa) = 29.43627 46.27930 37.85779
# Shear Modulus (GPa) = 30.87187 42.38279 36.62733
#
# Velocity S-wave (km/s) = 3.51461 4.11803 3.82823
# Velocity P-wave (km/s) = 5.31488 6.41313 5.88966
#
# Compressibility (1/GPa) = 0.03397170
#
# Stress axis : x y z
#
# Youngs Moduli (GPa) = 48.70083 58.07505 169.21830
#
# Poissons Ratio (x) = 0.12992 0.09705
# Poissons Ratio (y) = 0.10895 0.34429
# Poissons Ratio (z) = 0.02793 0.11816
#
# Static dielectric constant tensor:
#      x y z
#    x 2.043010 -0.101040 -0.003260 
#    y -0.101040 1.984060 -0.003450 
#    z -0.003260 -0.003450 1.935900 
# 
# From -- ./inp_files/188060.got.cif
#   From: 2010.05.17/outbox.cif.g08.bks.cpg/sg2_95_cif.got.tgz:188060.got - 2010.06.03 11:33:40.
