data_PCOD9054524
_publ_section_title
;
Structure prediction by ZEFSAII (Michael W. Deem and Ramdas Pophale) SiO2 
 PCOD9054524
Probable space group: P -1
;
_chemical_formula_sum "Si O2"
_cell_formula_units_Z 16
_cell_length_a 7.640508
_cell_length_b 9.145353
_cell_length_c 11.356314
_cell_angle_alpha 88.810119
_cell_angle_beta 114.904631
_cell_angle_gamma 113.410209
_cell_volume 650.170954
_symmetry_space_group_name_H-M "P -1"
_symmetry_group_IT_number 2
_symmetry_cell_setting 'triclinic'
loop_
_space_group_symop_operation_xyz
x,y,z
-x,-y,-z
loop_
_atom_site_type_symbol
_atom_site_label
_atom_site_fract_x
_atom_site_fract_y
_atom_site_fract_z
Si Si1 0.098047 0.393592 0.779100
Si Si2 0.145637 0.180007 0.988761
Si Si3 0.968035 0.321185 0.287730
Si Si4 0.781779 0.968196 0.560143
Si Si5 0.646028 0.962409 0.130845
Si Si6 0.719807 0.781515 0.328819
Si Si7 0.348490 0.282356 0.290585
Si Si8 0.773480 0.282166 0.482531
O O1 0.887960 0.342888 0.638169
O O2 0.056590 0.290980 0.889146
O O3 0.145919 0.578848 0.809770
O O4 0.264669 0.363874 0.737989
O O5 0.270160 0.142195 0.921280
O O6 0.295480 0.274665 0.138069
O O7 0.000000 0.000000 0.000000
O O8 0.826747 0.134382 0.218897
O O9 0.940485 0.331666 0.420491
O O10 0.205536 0.362433 0.308876
O O11 0.698439 0.803580 0.461187
O O12 0.741893 0.902836 0.682011
O O13 0.688364 0.087951 0.478824
O O14 0.035622 0.079455 0.621319
O O15 0.562816 0.848346 0.222863
O O16 0.500000 0.000000 0.000000
O O17 0.594294 0.340547 0.395115
#
# Coordination Sequence:
#
# PCOD9054524 Si02
#       8
#     2   2   2   2   2   2   2   2
#     4  10  24  41  66  93 134 177 214 265 338 396
#     4  11  22  43  65  92 131 174 220 272 324 389
#     4  12  23  44  67  94 134 176 211 274 340 382
#     4  10  17  35  65  94 128 162 219 274 322 376
#     4  11  21  39  64  95 124 168 223 268 320 391
#     4   9  17  37  61  94 121 167 215 262 321 384
#     4  12  23  39  67  98 131 170 219 274 327 386
#     4  11  23  40  66 102 128 167 225 272 323 392
#
# _framework density 24.608910999999999
#
# number of rings (size 3 to 8) (size 9 to 14) (size 15 to 20)
#    0.000    1.250    3.750    4.500    0.000    1.000 
#    0.000    5.625    0.000    0.000    0.000    0.000 
#    0.000    0.000    0.000    0.000    0.000    0.000 
#
# Total GULP energy -89243.268250 kJ/mol
# GULP energy per Si atom -5577.704266 kJ/mol
# Density = 2.455290 g / cm^3
# Si number density = 24.608911 Si / 1000 Ang^3
#
#
#
# Elastic Constant Matrix: (Units=GPa)
#
#
# Indices 1 2 3 4 5 6 
#
# 1 38.6226 26.5534 35.8964 0.3139 6.6504 -10.9177
# 2 26.5534 115.7075 41.8419 -37.4487 -1.0064 -24.6491
# 3 35.8964 41.8419 177.5335 -30.5291 -1.4297 -7.9341
# 4 0.3139 -37.4487 -30.5291 44.5887 -4.6329 -1.0218
# 5 6.6504 -1.0064 -1.4297 -4.6329 33.5508 -9.7914
# 6 -10.9177 -24.6491 -7.9341 -1.0218 -9.7914 24.9284
#
#
#
# Elastic Compliance Matrix: (Units=1/GPa)
#
#
# Indices 1 2 3 4 5 6 
#
# 1 0.046986 -0.015088 -0.009912 -0.021367 -0.014303 -0.003989
# 2 -0.015088 0.024724 0.002761 0.024877 0.014734 0.025524
# 3 -0.009912 0.002761 0.008704 0.008905 0.004623 0.003340
# 4 -0.021367 0.024877 0.008905 0.052391 0.020892 0.028428
# 5 -0.014303 0.014734 0.004623 0.020892 0.044351 0.028053
# 6 -0.003989 0.025524 0.003340 0.028428 0.028053 0.076853
#
#
# Mechanical properties :
#
#
# Convention : Reuss Voigt Hill
#
# Bulk Modulus (GPa) = 27.82760 60.04963 43.93861
# Shear Modulus (GPa) = 16.10485 35.78505 25.94495
#
# Velocity S-wave (km/s) = 2.56096 3.81747 3.25051
# Velocity P-wave (km/s) = 4.48076 6.62460 5.65520
#
# Compressibility (1/GPa) = 0.03593555
#
# Stress axis : x y z
#
# Youngs Moduli (GPa) = 21.28294 40.44710 114.88939
#
# Poissons Ratio (x) = 0.61027 1.13880
# Poissons Ratio (y) = 0.32112 -0.31721
# Poissons Ratio (z) = 0.21096 -0.11168
#
# Static dielectric constant tensor:
#      x y z
#    x 1.803380 0.287360 -0.164270 
#    y 0.287360 1.732030 0.178090 
#    z -0.164270 0.178090 1.942030 
# 
# From -- ./inp_files/379303.got.cif
#   From: 2010.05.17/outbox.cif.g08.bks.cpg/sg2_190_cif.got.tgz:379303.got - 2010.06.03 11:33:40.
