data_PCOD9054367
_publ_section_title
;
Structure prediction by ZEFSAII (Michael W. Deem and Ramdas Pophale) SiO2 
 PCOD9054367
Probable space group: P -1
;
_chemical_formula_sum "Si O2"
_cell_formula_units_Z 16
_cell_length_a 9.065873
_cell_length_b 11.307248
_cell_length_c 15.418986
_cell_angle_alpha 47.424483
_cell_angle_beta 39.421977
_cell_angle_gamma 39.218032
_cell_volume 622.513072
_symmetry_space_group_name_H-M "P -1"
_symmetry_group_IT_number 2
_symmetry_cell_setting 'triclinic'
loop_
_space_group_symop_operation_xyz
x,y,z
-x,-y,-z
loop_
_atom_site_type_symbol
_atom_site_label
_atom_site_fract_x
_atom_site_fract_y
_atom_site_fract_z
Si Si1 0.339816 0.816590 0.281818
Si Si2 0.019309 0.856452 0.174681
Si Si3 0.182681 0.795480 0.683316
Si Si4 0.058369 0.627997 0.583035
Si Si5 0.317638 0.458510 0.290024
Si Si6 0.904441 0.521910 0.170960
Si Si7 0.416250 0.942467 0.366496
Si Si8 0.213970 0.725126 0.956647
O O1 0.630090 0.692423 0.164595
O O2 0.407399 0.911091 0.284540
O O3 0.284568 0.661481 0.424422
O O4 0.056305 0.991384 0.286633
O O5 0.205104 0.680704 0.241378
O O6 0.713911 0.891231 0.288753
O O7 0.163609 0.775047 0.055981
O O8 0.969180 0.063730 0.106455
O O9 0.445944 0.681802 0.682086
O O10 0.047912 0.671114 0.794057
O O11 0.307406 0.824282 0.523902
O O12 0.946050 0.556324 0.593589
O O13 0.139987 0.496814 0.696076
O O14 0.808284 0.838527 0.619006
O O15 0.474203 0.376246 0.166962
O O16 0.122193 0.583194 0.038573
#
# Coordination Sequence:
#
# PCOD9054367 Si02
#       8
#     2   2   2   2   2   2   2   2
#     4  11  22  41  68 101 131 167 222 271 323 382
#     4  11  24  42  70 101 124 172 225 278 309 384
#     4  11  27  42  64 102 139 168 207 275 336 387
#     4  11  21  40  70  97 134 166 219 272 322 390
#     4  12  26  44  63 101 136 175 211 264 339 387
#     4  12  23  41  72  96 123 180 222 266 317 389
#     4  11  20  43  70 100 134 162 222 277 321 381
#     4  11  25  43  69  94 130 174 226 269 312 383
#
# _framework density 25.702271
#
# number of rings (size 3 to 8) (size 9 to 14) (size 15 to 20)
#    0.000    0.750    6.250    1.500    1.750    5.000 
#    0.000    1.250    0.000    0.000    0.000    0.000 
#    0.000    0.000    0.000    0.000    0.000    0.000 
#
# Total GULP energy -89644.957111 kJ/mol
# GULP energy per Si atom -5602.809819 kJ/mol
# Density = 2.564377 g / cm^3
# Si number density = 25.702271 Si / 1000 Ang^3
#
#
#
# Elastic Constant Matrix: (Units=GPa)
#
#
# Indices 1 2 3 4 5 6 
#
# 1 85.9898 20.6604 26.4177 -16.0220 -9.2410 -24.2141
# 2 20.6604 123.9157 16.3732 -28.7720 11.4373 -16.5459
# 3 26.4177 16.3732 73.1608 -17.9549 -23.4252 5.2552
# 4 -16.0220 -28.7720 -17.9549 43.1610 5.5616 0.1304
# 5 -9.2410 11.4373 -23.4252 5.5616 37.1070 -9.9513
# 6 -24.2141 -16.5459 5.2552 0.1304 -9.9513 50.8631
#
#
#
# Elastic Compliance Matrix: (Units=1/GPa)
#
#
# Indices 1 2 3 4 5 6 
#
# 1 0.016675 -0.000459 -0.004672 0.003501 0.003204 0.008890
# 2 -0.000459 0.010872 -0.002527 0.006713 -0.005395 0.002507
# 3 -0.004672 -0.002527 0.020671 0.003732 0.011307 -0.002979
# 4 0.003501 0.006713 0.003732 0.030835 -0.002696 0.002858
# 5 0.003204 -0.005395 0.011307 -0.002696 0.038604 0.006162
# 6 0.008890 0.002507 -0.002979 0.002858 0.006162 0.026214
#
#
# Mechanical properties :
#
#
# Convention : Reuss Voigt Hill
#
# Bulk Modulus (GPa) = 30.39321 45.55211 37.97266
# Shear Modulus (GPa) = 29.38509 40.86722 35.12616
#
# Velocity S-wave (km/s) = 3.38492 3.99184 3.70084
# Velocity P-wave (km/s) = 5.20843 6.24562 5.75046
#
# Compressibility (1/GPa) = 0.03290209
#
# Stress axis : x y z
#
# Youngs Moduli (GPa) = 59.97132 91.98116 48.37622
#
# Poissons Ratio (x) = 0.04219 0.22601
# Poissons Ratio (y) = 0.02751 0.12226
# Poissons Ratio (z) = 0.28018 0.23245
#
# Static dielectric constant tensor:
#      x y z
#    x 2.055880 0.026720 0.060720 
#    y 0.026720 1.978430 -0.020960 
#    z 0.060720 -0.020960 1.995590 
# 
# From -- ./inp_files/344986.got.cif
#   From: 2010.05.17/outbox.cif.g08.bks.cpg/sg2_173_cif.got.tgz:344986.got - 2010.06.03 11:33:40.
