data_PCOD9054181
_publ_section_title
;
Structure prediction by ZEFSAII (Michael W. Deem and Ramdas Pophale) SiO2 
 PCOD9054181
Probable space group: P -1
;
_chemical_formula_sum "Si O2"
_cell_formula_units_Z 16
_cell_length_a 6.576300
_cell_length_b 17.501211
_cell_length_c 23.160253
_cell_angle_alpha 20.196199
_cell_angle_beta 70.231063
_cell_angle_gamma 82.643329
_cell_volume 703.663433
_symmetry_space_group_name_H-M "P -1"
_symmetry_group_IT_number 2
_symmetry_cell_setting 'triclinic'
loop_
_space_group_symop_operation_xyz
x,y,z
-x,-y,-z
loop_
_atom_site_type_symbol
_atom_site_label
_atom_site_fract_x
_atom_site_fract_y
_atom_site_fract_z
Si Si1 0.242124 0.256403 0.162026
Si Si2 0.364561 0.744239 0.941895
Si Si3 0.297906 0.937089 0.685802
Si Si4 0.364231 0.899677 0.950258
Si Si5 0.125716 0.133668 0.953133
Si Si6 0.123594 0.863635 0.548338
Si Si7 0.788574 0.311514 0.700250
Si Si8 0.671163 0.537171 0.655495
O O1 0.390381 0.280737 0.071808
O O2 0.133691 0.973840 0.405279
O O3 0.500000 0.500000 0.000000
O O4 0.990046 0.266035 0.173420
O O5 0.461448 0.954237 0.836534
O O6 0.321084 0.834264 0.819762
O O7 0.090619 0.456177 0.190917
O O8 0.561766 0.031141 0.554865
O O9 0.271897 0.183677 0.526947
O O10 0.512935 0.143452 0.809892
O O11 0.366176 0.653901 0.151634
O O12 0.071862 0.822337 0.027148
O O13 0.407063 0.416104 0.728515
O O14 0.172641 0.922131 0.125090
O O15 0.000000 0.000000 0.000000
O O16 0.000000 0.000000 0.500000
O O17 0.829373 0.483229 0.631616
O O18 0.000000 0.500000 0.500000
#
# Coordination Sequence:
#
# PCOD9054181 Si02
#       8
#     2   2   2   2   2   2   2   2
#     4  11  25  50  72 106 143 179 233 296 361 437
#     4  11  26  45  71 106 141 184 239 296 355 431
#     4  11  28  44  74 107 143 187 238 299 360 428
#     4  11  23  43  68  95 140 186 236 289 346 412
#     4  11  20  41  66  92 129 188 241 282 342 403
#     4  11  24  50  74 107 139 185 232 290 365 437
#     4  11  25  38  62 100 140 186 237 288 340 408
#     4  11  23  44  65 100 140 185 237 286 349 417
#
# _framework density 22.738143000000001
#
# number of rings (size 3 to 8) (size 9 to 14) (size 15 to 20)
#    0.000    1.000    3.750    2.250    3.500    8.000 
#    0.000    0.000    0.000    0.000    0.000    0.000 
#    0.000    0.000    0.000    0.000    0.000    0.000 
#
# Total GULP energy -89086.371900 kJ/mol
# GULP energy per Si atom -5567.898244 kJ/mol
# Density = 2.268639 g / cm^3
# Si number density = 22.738143 Si / 1000 Ang^3
#
#
#
# Elastic Constant Matrix: (Units=GPa)
#
#
# Indices 1 2 3 4 5 6 
#
# 1 139.2954 -6.2028 75.6030 3.7898 29.5541 18.6095
# 2 -6.2028 256.4590 -138.2540 1.6790 -193.4986 -140.3218
# 3 75.6030 -138.2540 238.3912 5.4648 176.2757 119.2182
# 4 3.7898 1.6790 5.4648 39.2506 -10.7138 1.8418
# 5 29.5541 -193.4986 176.2757 -10.7138 250.3964 154.4971
# 6 18.6095 -140.3218 119.2182 1.8418 154.4971 141.4794
#
#
#
# Elastic Compliance Matrix: (Units=1/GPa)
#
#
# Indices 1 2 3 4 5 6 
#
# 1 0.009381 -0.001492 -0.004548 -0.000012 0.000769 0.000280
# 2 -0.001492 0.010534 0.000389 0.000867 0.005277 0.004543
# 3 -0.004548 0.000389 0.011422 -0.002764 -0.006170 -0.001868
# 4 -0.000012 0.000867 -0.002764 0.027739 0.006309 -0.004061
# 5 0.000769 0.005277 -0.006170 0.006309 0.019221 -0.010740
# 6 0.000280 0.004543 -0.001868 -0.004061 -0.010740 0.024892
#
#
# Mechanical properties :
#
#
# Convention : Reuss Voigt Hill
#
# Bulk Modulus (GPa) = 49.91505 55.15975 52.53740
# Shear Modulus (GPa) = 41.26413 133.09192 87.17802
#
# Velocity S-wave (km/s) = 4.26461 7.65895 6.19865
# Velocity P-wave (km/s) = 6.80066 10.12542 8.62476
#
# Compressibility (1/GPa) = 0.02003404
#
# Stress axis : x y z
#
# Youngs Moduli (GPa) = 106.59776 94.92869 87.54844
#
# Poissons Ratio (x) = 0.14163 0.39820
# Poissons Ratio (y) = 0.15904 -0.03402
# Poissons Ratio (z) = 0.48485 -0.03689
#
# Static dielectric constant tensor:
#      x y z
#    x 2.163350 -0.224120 -0.069580 
#    y -0.224120 2.137600 -0.049600 
#    z -0.069580 -0.049600 1.883330 
# 
# From -- ./inp_files/604939.got.cif
#   From: 2010.05.17/outbox.cif.g08.bks.cpg/sg2_303_cif.got.tgz:604939.got - 2010.06.03 11:33:40.
