data_PCOD9054265
_publ_section_title
;
Structure prediction by ZEFSAII (Michael W. Deem and Ramdas Pophale) SiO2 
 PCOD9054265
Probable space group: P -1
;
_chemical_formula_sum "Si O2"
_cell_formula_units_Z 12
_cell_length_a 18.387309
_cell_length_b 21.668453
_cell_length_c 12.673266
_cell_angle_alpha 20.454022
_cell_angle_beta 29.000447
_cell_angle_gamma 19.663393
_cell_volume 592.475826
_symmetry_space_group_name_H-M "P -1"
_symmetry_group_IT_number 2
_symmetry_cell_setting 'triclinic'
loop_
_space_group_symop_operation_xyz
x,y,z
-x,-y,-z
loop_
_atom_site_type_symbol
_atom_site_label
_atom_site_fract_x
_atom_site_fract_y
_atom_site_fract_z
Si Si1 0.053112 0.306633 0.827893
Si Si2 0.748766 0.732874 0.136703
Si Si3 0.182959 0.733389 0.252224
Si Si4 0.950281 0.870576 0.547965
Si Si5 0.696981 0.237152 0.614018
Si Si6 0.658535 0.373326 0.215008
O O1 0.000000 0.500000 0.500000
O O2 0.152918 0.294787 0.829659
O O3 0.830235 0.383813 0.997870
O O4 0.231175 0.012780 0.032153
O O5 0.778866 0.497789 0.466689
O O6 0.880926 0.730903 0.883502
O O7 0.500000 0.000000 0.000000
O O8 0.410288 0.640822 0.094469
O O9 0.097198 0.781003 0.403923
O O10 0.000000 0.000000 0.000000
O O11 0.096575 0.812784 0.552138
O O12 0.744241 0.177383 0.325014
O O13 0.500000 0.500000 0.500000
O O14 0.655089 0.256574 0.512184
#
# Coordination Sequence:
#
# PCOD9054265 Si02
#       6
#     2   2   2   2   2   2
#     4  11  25  43  70 104 137 177 225 288 342 389
#     4  12  24  46  70 100 140 181 230 276 336 415
#     4  12  28  43  68 103 138 176 226 287 348 397
#     4  11  22  43  71  96 131 182 228 273 333 413
#     4  11  20  41  76  97 127 176 234 271 329 410
#     4  11  22  47  70  97 135 182 226 274 340 416
#
# _framework density 20.253990999999999
#
# number of rings (size 3 to 8) (size 9 to 14) (size 15 to 20)
#    0.000    0.667    6.667    1.500    4.667    2.000 
#    3.000    1.667    0.000    0.000    0.000    0.000 
#    0.000    0.000    0.000    0.000    0.000    0.000 
#
# Total GULP energy -66961.626106 kJ/mol
# GULP energy per Si atom -5580.135509 kJ/mol
# Density = 2.020789 g / cm^3
# Si number density = 20.253991 Si / 1000 Ang^3
#
#
#
# Elastic Constant Matrix: (Units=GPa)
#
#
# Indices 1 2 3 4 5 6 
#
# 1 88.9845 51.9855 48.5502 -9.3757 -5.7969 -7.3810
# 2 51.9855 149.4460 54.1053 -23.0766 1.0750 -4.2620
# 3 48.5502 54.1053 130.1192 -19.9490 5.2490 -8.3311
# 4 -9.3757 -23.0766 -19.9490 35.1147 -4.1010 2.8536
# 5 -5.7969 1.0750 5.2490 -4.1010 23.5239 -6.8695
# 6 -7.3810 -4.2620 -8.3311 2.8536 -6.8695 33.5810
#
#
#
# Elastic Compliance Matrix: (Units=1/GPa)
#
#
# Indices 1 2 3 4 5 6 
#
# 1 0.016874 -0.004202 -0.004656 -0.000438 0.006289 0.003344
# 2 -0.004202 0.009393 -0.001734 0.004051 -0.000552 -0.000619
# 3 -0.004656 -0.001734 0.010811 0.003394 -0.002715 0.000595
# 4 -0.000438 0.004051 0.003394 0.033543 0.004608 -0.000648
# 5 0.006289 -0.000552 -0.002715 0.004608 0.048461 0.010161
# 6 0.003344 -0.000619 0.000595 -0.000648 0.010161 0.032716
#
#
# Mechanical properties :
#
#
# Convention : Reuss Voigt Hill
#
# Bulk Modulus (GPa) = 62.91233 75.31463 69.11348
# Shear Modulus (GPa) = 28.04600 32.70451 30.37526
#
# Velocity S-wave (km/s) = 3.72521 4.02272 3.87682
# Velocity P-wave (km/s) = 7.04500 7.67086 7.36458
#
# Compressibility (1/GPa) = 0.01589514
#
# Stress axis : x y z
#
# Youngs Moduli (GPa) = 59.26443 106.46618 92.49526
#
# Poissons Ratio (x) = 0.44732 0.43062
# Poissons Ratio (y) = 0.24900 0.16040
# Poissons Ratio (z) = 0.27591 0.18462
#
# Static dielectric constant tensor:
#      x y z
#    x 1.769830 -0.007300 -0.006470 
#    y -0.007300 1.765410 -0.024250 
#    z -0.006470 -0.024250 1.712000 
# 
# From -- ./inp_files/159809.got.cif
#   From: 2010.05.17/outbox.cif.g08.bks.cpg/sg2_80_cif.got.tgz:159809.got - 2010.06.03 11:33:40.
