data_PCOD9054190
_publ_section_title
;
Structure prediction by ZEFSAII (Michael W. Deem and Ramdas Pophale) SiO2 
 PCOD9054190
Probable space group: P -1
;
_chemical_formula_sum "Si O2"
_cell_formula_units_Z 14
_cell_length_a 9.069245
_cell_length_b 8.906775
_cell_length_c 20.910148
_cell_angle_alpha 35.530358
_cell_angle_beta 41.634846
_cell_angle_gamma 38.692646
_cell_volume 583.623628
_symmetry_space_group_name_H-M "P -1"
_symmetry_group_IT_number 2
_symmetry_cell_setting 'triclinic'
loop_
_space_group_symop_operation_xyz
x,y,z
-x,-y,-z
loop_
_atom_site_type_symbol
_atom_site_label
_atom_site_fract_x
_atom_site_fract_y
_atom_site_fract_z
Si Si1 0.575770 0.226740 0.116832
Si Si2 0.235812 0.098746 0.519589
Si Si3 0.943008 0.957379 0.903207
Si Si4 0.289116 0.297086 0.844045
Si Si5 0.186107 0.707193 0.303566
Si Si6 0.929213 0.493334 0.788875
Si Si7 0.761422 0.298074 0.452362
O O1 0.771476 0.227858 0.104628
O O2 0.336346 0.238993 0.225824
O O3 0.659890 0.955833 0.136534
O O4 0.500000 0.500000 0.000000
O O5 0.180639 0.401494 0.397700
O O6 0.008133 0.163421 0.619600
O O7 0.500000 0.000000 0.500000
O O8 0.290247 0.828554 0.551333
O O9 0.899954 0.080017 0.803385
O O10 0.783574 0.793133 0.033459
O O11 0.876925 0.223480 0.881964
O O12 0.531907 0.347914 0.752865
O O13 0.033273 0.521378 0.815182
O O14 0.123883 0.485938 0.676792
O O15 0.500000 0.500000 0.500000
O O16 0.000000 0.000000 0.500000
#
# Coordination Sequence:
#
# PCOD9054190 Si02
#       7
#     2   2   2   2   2   2   2
#     4  11  20  41  67  98 143 192 241 300 366 436
#     4  11  27  51  74 102 150 200 247 312 389 446
#     4  11  23  40  69 106 143 188 244 300 365 455
#     4  11  22  42  68 103 145 192 241 302 376 447
#     4  11  26  45  73 104 152 196 245 304 383 457
#     4  11  23  42  71  99 140 192 241 309 373 433
#     4  12  30  48  79 114 145 194 265 323 375 451
#
# _framework density 23.988061999999999
#
# number of rings (size 3 to 8) (size 9 to 14) (size 15 to 20)
#    0.000    0.857    2.857    3.857   12.000    1.143 
#    0.000    0.714    0.000    0.000    0.000    0.000 
#    0.000    0.000    0.000    0.000    0.000    0.000 
#
# Total GULP energy -78144.169543 kJ/mol
# GULP energy per Si atom -5581.726396 kJ/mol
# Density = 2.393346 g / cm^3
# Si number density = 23.988062 Si / 1000 Ang^3
#
#
#
# Elastic Constant Matrix: (Units=GPa)
#
#
# Indices 1 2 3 4 5 6 
#
# 1 123.4100 20.3029 45.2747 12.6583 -2.4381 -21.3565
# 2 20.3029 91.6120 46.5111 23.7390 -5.5674 -11.5052
# 3 45.2747 46.5111 163.4160 32.3840 -8.8633 -17.0373
# 4 12.6583 23.7390 32.3840 45.1133 -10.5544 -6.5092
# 5 -2.4381 -5.5674 -8.8633 -10.5544 36.8923 -5.4788
# 6 -21.3565 -11.5052 -17.0373 -6.5092 -5.4788 38.5046
#
#
#
# Elastic Compliance Matrix: (Units=1/GPa)
#
#
# Indices 1 2 3 4 5 6 
#
# 1 0.009722 -0.000475 -0.002014 -0.000237 0.000675 0.004415
# 2 -0.000475 0.013897 -0.002626 -0.004943 0.000308 0.001935
# 3 -0.002014 -0.002626 0.008321 -0.003709 0.000592 0.001237
# 4 -0.000237 -0.004943 -0.003709 0.029588 0.007225 0.002780
# 5 0.000675 0.000308 0.000592 0.007225 0.030337 0.006266
# 6 0.004415 0.001935 0.001237 0.002780 0.006266 0.030907
#
#
# Mechanical properties :
#
#
# Convention : Reuss Voigt Hill
#
# Bulk Modulus (GPa) = 46.06296 66.95729 56.51012
# Shear Modulus (GPa) = 35.65380 41.85866 38.75623
#
# Velocity S-wave (km/s) = 3.85946 4.18183 4.02387
# Velocity P-wave (km/s) = 6.25337 7.16172 6.72291
#
# Compressibility (1/GPa) = 0.02170942
#
# Stress axis : x y z
#
# Youngs Moduli (GPa) = 102.86065 71.96053 120.17949
#
# Poissons Ratio (x) = 0.03418 0.24209
# Poissons Ratio (y) = 0.04885 0.31554
# Poissons Ratio (z) = 0.20721 0.18894
#
# Static dielectric constant tensor:
#      x y z
#    x 1.819680 -0.138180 0.076090 
#    y -0.138180 2.073520 -0.015210 
#    z 0.076090 -0.015210 1.981630 
# 
# From -- ./inp_files/116825.got.cif
#   From: 2010.05.17/outbox.cif.g08.bks.cpg/sg2_59_cif.got.tgz:116825.got - 2010.06.03 11:33:40.
