data_PCOD9054502
_publ_section_title
;
Structure prediction by ZEFSAII (Michael W. Deem and Ramdas Pophale) SiO2 
 PCOD9054502
Probable space group: P -1
;
_chemical_formula_sum "Si O2"
_cell_formula_units_Z 14
_cell_length_a 8.063205
_cell_length_b 10.116850
_cell_length_c 14.830654
_cell_angle_alpha 141.189294
_cell_angle_beta 127.145013
_cell_angle_gamma 62.440553
_cell_volume 604.326665
_symmetry_space_group_name_H-M "P -1"
_symmetry_group_IT_number 2
_symmetry_cell_setting 'triclinic'
loop_
_space_group_symop_operation_xyz
x,y,z
-x,-y,-z
loop_
_atom_site_type_symbol
_atom_site_label
_atom_site_fract_x
_atom_site_fract_y
_atom_site_fract_z
Si Si1 0.667366 0.687382 0.882636
Si Si2 0.923120 0.209531 0.842371
Si Si3 0.648810 0.088474 0.964764
Si Si4 0.274392 0.076655 0.502924
Si Si5 0.703589 0.545356 0.422418
Si Si6 0.002300 0.775388 0.742071
Si Si7 0.489873 0.731173 0.163426
O O1 0.538919 0.494710 0.694188
O O2 0.675028 0.861860 0.898507
O O3 0.520842 0.788751 0.965710
O O4 0.884525 0.648046 0.983229
O O5 0.701107 0.293401 0.843227
O O6 0.891860 0.106578 0.677675
O O7 0.958933 0.001996 0.806606
O O8 0.573133 0.105144 0.847760
O O9 0.873293 0.203918 0.113086
O O10 0.226081 0.281459 0.535986
O O11 0.316244 0.167511 0.664553
O O12 0.500000 0.000000 0.500000
O O13 0.828894 0.335969 0.327311
O O14 0.792745 0.636364 0.593323
O O15 0.500000 0.500000 0.000000
#
# Coordination Sequence:
#
# PCOD9054502 Si02
#       7
#     2   2   2   2   2   2   2
#     4   9  17  32  55  82 107 136 174 228 275 313
#     4   9  19  35  57  79 105 141 183 222 268 315
#     4   9  18  32  51  77 110 138 173 220 274 313
#     4   9  19  36  55  75 105 148 184 211 254 327
#     4   9  15  29  55  81 103 134 181 220 259 311
#     4   8  15  28  51  79 102 135 175 218 257 310
#     4  11  21  35  55  80 108 144 185 221 256 321
#
# _framework density 23.166278999999999
#
# number of rings (size 3 to 8) (size 9 to 14) (size 15 to 20)
#    0.000    2.857    0.000    2.571    0.000    2.286 
#    0.000    7.143    0.000   18.857    0.000    0.000 
#    0.000    0.000    0.000    0.000    0.000    0.000 
#
# Total GULP energy -78055.911578 kJ/mol
# GULP energy per Si atom -5575.422256 kJ/mol
# Density = 2.311355 g / cm^3
# Si number density = 23.166279 Si / 1000 Ang^3
#
#
#
# Elastic Constant Matrix: (Units=GPa)
#
#
# Indices 1 2 3 4 5 6 
#
# 1 35.7667 9.8032 34.0156 -5.3372 7.9585 -0.3492
# 2 9.8032 59.8759 20.5571 -17.5899 -7.2149 -4.2070
# 3 34.0156 20.5571 171.8208 -40.5852 30.3150 2.8712
# 4 -5.3372 -17.5899 -40.5852 37.3021 -12.1851 -0.7949
# 5 7.9585 -7.2149 30.3150 -12.1851 37.7708 -0.5391
# 6 -0.3492 -4.2070 2.8712 -0.7949 -0.5391 24.6776
#
#
#
# Elastic Compliance Matrix: (Units=1/GPa)
#
#
# Indices 1 2 3 4 5 6 
#
# 1 0.036774 -0.006388 -0.007315 -0.007516 -0.005523 -0.000080
# 2 -0.006388 0.023312 -0.000306 0.013234 0.010379 0.004572
# 3 -0.007315 -0.000306 0.009984 0.008393 -0.003838 -0.001131
# 4 -0.007516 0.013234 0.008393 0.045072 0.011957 0.002886
# 5 -0.005523 0.010379 -0.003838 0.011957 0.036607 0.003323
# 6 -0.000080 0.004572 -0.001131 0.002886 0.003323 0.041598
#
#
# Mechanical properties :
#
#
# Convention : Reuss Voigt Hill
#
# Bulk Modulus (GPa) = 23.78161 44.02392 33.90277
# Shear Modulus (GPa) = 21.24195 33.48926 27.36560
#
# Velocity S-wave (km/s) = 3.03138 3.80623 3.44069
# Velocity P-wave (km/s) = 4.74766 6.19365 5.51822
#
# Compressibility (1/GPa) = 0.04204929
#
# Stress axis : x y z
#
# Youngs Moduli (GPa) = 27.19329 42.89659 100.16496
#
# Poissons Ratio (x) = 0.27404 0.73274
# Poissons Ratio (y) = 0.17372 0.03067
# Poissons Ratio (z) = 0.19893 0.01313
#
# Static dielectric constant tensor:
#      x y z
#    x 1.894680 -0.007910 0.040990 
#    y -0.007910 1.901030 0.006810 
#    z 0.040990 0.006810 1.986720 
# 
# From -- ./inp_files/382856.got.cif
#   From: 2010.05.17/outbox.cif.g08.bks.cpg/sg2_192_cif.got.tgz:382856.got - 2010.06.03 11:33:40.
