data_PCOD9054983
_publ_section_title
;
Structure prediction by ZEFSAII (Michael W. Deem and Ramdas Pophale) SiO2 
 PCOD9054983
Probable space group: P -1
;
_chemical_formula_sum "Si O2"
_cell_formula_units_Z 10
_cell_length_a 14.660347
_cell_length_b 8.639252
_cell_length_c 6.038616
_cell_angle_alpha 123.922656
_cell_angle_beta 52.171456
_cell_angle_gamma 135.469940
_cell_volume 413.430988
_symmetry_space_group_name_H-M "P -1"
_symmetry_group_IT_number 2
_symmetry_cell_setting 'triclinic'
loop_
_space_group_symop_operation_xyz
x,y,z
-x,-y,-z
loop_
_atom_site_type_symbol
_atom_site_label
_atom_site_fract_x
_atom_site_fract_y
_atom_site_fract_z
Si Si1 0.198228 0.097834 0.039462
Si Si2 0.520002 0.830171 0.197305
Si Si3 0.748355 0.521251 0.491264
Si Si4 0.623820 0.479118 0.210677
Si Si5 0.940730 0.395120 0.257287
O O1 0.320686 0.086674 0.960997
O O2 0.273755 0.290908 0.894550
O O3 0.088661 0.852158 0.909669
O O4 0.157382 0.216297 0.375126
O O5 0.412807 0.588863 0.284974
O O6 0.500000 0.000000 0.500000
O O7 0.458244 0.757747 0.986921
O O8 0.727884 0.476821 0.228172
O O9 0.801151 0.394027 0.448023
O O10 0.500000 0.500000 0.500000
O O11 0.000000 0.500000 0.500000
O O12 0.000000 0.500000 0.000000
#
# Coordination Sequence:
#
# PCOD9054983 Si02
#       5
#     2   2   2   2   2
#     4  11  24  45  72 104 147 182 236 301 368 433
#     4  11  21  39  69 111 145 177 227 293 381 443
#     4  11  24  45  72 105 142 186 233 299 368 436
#     4  11  21  39  72 112 145 179 226 290 381 453
#     4  12  32  52  71 102 141 199 261 298 347 420
#
# _framework density 24.187830999999999
#
# number of rings (size 3 to 8) (size 9 to 14) (size 15 to 20)
#    0.000    0.800    6.000    1.200    8.400    2.400 
#    0.000    0.000    0.000    0.000    0.000    0.000 
#    0.000    0.000    0.000    0.000    0.000    0.000 
#
# Total GULP energy -55741.399292 kJ/mol
# GULP energy per Si atom -5574.139929 kJ/mol
# Density = 2.413278 g / cm^3
# Si number density = 24.187831 Si / 1000 Ang^3
#
#
#
# Elastic Constant Matrix: (Units=GPa)
#
#
# Indices 1 2 3 4 5 6 
#
# 1 117.1156 11.6136 28.7277 16.0981 41.9098 2.3695
# 2 11.6136 107.1704 39.9007 34.1369 25.8365 6.5099
# 3 28.7277 39.9007 106.4968 39.5150 26.6151 8.8855
# 4 16.0981 34.1369 39.5150 57.4028 8.0927 -0.8491
# 5 41.9098 25.8365 26.6151 8.0927 47.8436 7.3782
# 6 2.3695 6.5099 8.8855 -0.8491 7.3782 25.2632
#
#
#
# Elastic Compliance Matrix: (Units=1/GPa)
#
#
# Indices 1 2 3 4 5 6 
#
# 1 0.013281 0.002662 -0.000377 -0.003248 -0.012585 0.001767
# 2 0.002662 0.013635 -0.001228 -0.006954 -0.007630 -0.001337
# 3 -0.000377 -0.001228 0.014760 -0.008645 -0.005198 -0.003612
# 4 -0.003248 -0.006954 -0.008645 0.027625 0.006075 0.004291
# 5 -0.012585 -0.007630 -0.005198 0.006075 0.038862 -0.006171
# 6 0.001767 -0.001337 -0.003612 0.004291 -0.006171 0.042979
#
#
# Mechanical properties :
#
#
# Convention : Reuss Voigt Hill
#
# Bulk Modulus (GPa) = 22.83618 54.58521 38.71069
# Shear Modulus (GPa) = 30.55763 42.80466 36.68114
#
# Velocity S-wave (km/s) = 3.55822 4.21132 3.89847
# Velocity P-wave (km/s) = 5.13253 6.80170 6.02520
#
# Compressibility (1/GPa) = 0.04379017
#
# Stress axis : x y z
#
# Youngs Moduli (GPa) = 75.29340 73.33859 67.75115
#
# Poissons Ratio (x) = -0.19526 0.02557
# Poissons Ratio (y) = -0.20046 0.08322
# Poissons Ratio (z) = 0.02841 0.09008
#
# Static dielectric constant tensor:
#      x y z
#    x 2.054960 0.044480 0.043260 
#    y 0.044480 1.981790 -0.022630 
#    z 0.043260 -0.022630 2.200990 
# 
# From -- ./inp_files/2860.got.cif
#   From: 2010.05.17/outbox.cif.g08.bks.cpg/sg2_2_cif.got.tgz:2860.got - 2010.06.03 11:33:40.
