data_PCOD9054807
_publ_section_title
;
Structure prediction by ZEFSAII (Michael W. Deem and Ramdas Pophale) SiO2 
 PCOD9054807
Probable space group: P -1
;
_chemical_formula_sum "Si O2"
_cell_formula_units_Z 14
_cell_length_a 7.869132
_cell_length_b 12.187240
_cell_length_c 10.104736
_cell_angle_alpha 53.333724
_cell_angle_beta 128.130977
_cell_angle_gamma 130.795876
_cell_volume 545.683918
_symmetry_space_group_name_H-M "P -1"
_symmetry_group_IT_number 2
_symmetry_cell_setting 'triclinic'
loop_
_space_group_symop_operation_xyz
x,y,z
-x,-y,-z
loop_
_atom_site_type_symbol
_atom_site_label
_atom_site_fract_x
_atom_site_fract_y
_atom_site_fract_z
Si Si1 0.452173 0.830077 0.138764
Si Si2 0.749900 0.550664 0.326396
Si Si3 0.262333 0.828837 0.330791
Si Si4 0.349923 0.617841 0.994545
Si Si5 0.382428 0.143612 0.271290
Si Si6 0.992102 0.401398 0.352430
Si Si7 0.978193 0.912979 0.415830
O O1 0.300203 0.785785 0.232799
O O2 0.704043 0.831616 0.297313
O O3 0.356920 0.725344 0.040301
O O4 0.500000 0.000000 0.000000
O O5 0.848918 0.456189 0.351697
O O6 0.973931 0.725182 0.294726
O O7 0.752169 0.522429 0.505021
O O8 0.484875 0.521111 0.178189
O O9 0.441392 0.824347 0.538076
O O10 0.356649 0.010168 0.252479
O O11 0.522419 0.713190 0.884333
O O12 0.083152 0.546428 0.855492
O O13 0.123553 0.051128 0.283330
O O14 0.931945 0.220706 0.432237
O O15 0.000000 0.000000 0.500000
#
# Coordination Sequence:
#
# PCOD9054807 Si02
#       7
#     2   2   2   2   2   2   2
#     4  12  24  37  62 102 137 165 213 276 330 384
#     4  11  24  42  71  92 130 177 223 263 319 394
#     4  11  21  41  61  98 132 173 211 270 329 381
#     4  12  23  42  68  99 127 170 222 272 323 385
#     4  11  21  38  66  96 132 165 222 266 326 387
#     4  11  23  45  67  95 130 174 223 264 321 394
#     4  12  23  42  68  97 131 172 212 270 333 380
#
# _framework density 25.655878999999999
#
# number of rings (size 3 to 8) (size 9 to 14) (size 15 to 20)
#    0.000    0.571    7.143    2.143    2.000    1.143 
#    0.000    1.429    3.143    0.000    0.000    0.000 
#    0.000    0.000    0.000    0.000    0.000    0.000 
#
# Total GULP energy -78082.411450 kJ/mol
# GULP energy per Si atom -5577.315104 kJ/mol
# Density = 2.559749 g / cm^3
# Si number density = 25.655879 Si / 1000 Ang^3
#
#
#
# Elastic Constant Matrix: (Units=GPa)
#
#
# Indices 1 2 3 4 5 6 
#
# 1 88.5316 17.7289 46.7085 10.1371 -20.2469 -20.0364
# 2 17.7289 106.6120 43.1143 19.7904 -11.6350 -24.6445
# 3 46.7085 43.1143 143.9881 40.5060 2.3575 -19.8938
# 4 10.1371 19.7904 40.5060 53.4710 -12.7679 -11.6593
# 5 -20.2469 -11.6350 2.3575 -12.7679 40.8991 2.4203
# 6 -20.0364 -24.6445 -19.8938 -11.6593 2.4203 54.2750
#
#
#
# Elastic Compliance Matrix: (Units=1/GPa)
#
#
# Indices 1 2 3 4 5 6 
#
# 1 0.017896 0.001346 -0.007154 0.005298 0.010998 0.005243
# 2 0.001346 0.012052 -0.003438 -0.000184 0.003970 0.004493
# 3 -0.007154 -0.003438 0.012895 -0.009319 -0.008106 -0.001116
# 4 0.005298 -0.000184 -0.009319 0.028520 0.011771 0.004058
# 5 0.010998 0.003970 -0.008106 0.011771 0.034938 0.003862
# 6 0.005243 0.004493 -0.001116 0.004058 0.003862 0.022691
#
#
# Mechanical properties :
#
#
# Convention : Reuss Voigt Hill
#
# Bulk Modulus (GPa) = 41.06675 61.58166 51.32420
# Shear Modulus (GPa) = 32.13340 45.16769 38.65054
#
# Velocity S-wave (km/s) = 3.54287 4.20041 3.88557
# Velocity P-wave (km/s) = 5.72516 6.89780 6.33865
#
# Compressibility (1/GPa) = 0.02435060
#
# Stress axis : x y z
#
# Youngs Moduli (GPa) = 55.87971 82.97224 77.54757
#
# Poissons Ratio (x) = -0.11169 0.55480
# Poissons Ratio (y) = -0.07522 0.26661
# Poissons Ratio (z) = 0.39978 0.28526
#
# Static dielectric constant tensor:
#      x y z
#    x 2.197610 0.011230 -0.116480 
#    y 0.011230 2.054580 0.001850 
#    z -0.116480 0.001850 2.341500 
# 
# From -- ./inp_files/185563.got.cif
#   From: 2010.05.17/outbox.cif.g08.bks.cpg/sg2_93_cif.got.tgz:185563.got - 2010.06.03 11:33:40.
