data_PCOD9054695
_publ_section_title
;
Structure prediction by ZEFSAII (Michael W. Deem and Ramdas Pophale) SiO2 
 PCOD9054695
Probable space group: P -1
;
_chemical_formula_sum "Si O2"
_cell_formula_units_Z 16
_cell_length_a 11.268048
_cell_length_b 12.069382
_cell_length_c 11.370453
_cell_angle_alpha 96.883592
_cell_angle_beta 24.609184
_cell_angle_gamma 96.918738
_cell_volume 639.057702
_symmetry_space_group_name_H-M "P -1"
_symmetry_group_IT_number 2
_symmetry_cell_setting 'triclinic'
loop_
_space_group_symop_operation_xyz
x,y,z
-x,-y,-z
loop_
_atom_site_type_symbol
_atom_site_label
_atom_site_fract_x
_atom_site_fract_y
_atom_site_fract_z
Si Si1 0.563912 0.458924 0.068857
Si Si2 0.192267 0.505818 0.614017
Si Si3 0.034123 0.113694 0.599151
Si Si4 0.029322 0.191590 0.863056
Si Si5 0.705492 0.038290 0.422271
Si Si6 0.544627 0.326164 0.423800
Si Si7 0.477547 0.205901 0.047610
Si Si8 0.221500 0.098795 0.052880
O O1 0.872723 0.473944 0.856305
O O2 0.500000 0.500000 0.000000
O O3 0.357159 0.526096 0.347539
O O4 0.483861 0.327097 0.115907
O O5 0.370491 0.409968 0.508607
O O6 0.243442 0.606407 0.672322
O O7 0.066467 0.199938 0.689621
O O8 0.325141 0.119856 0.265956
O O9 0.917382 0.996312 0.743605
O O10 0.794562 0.163744 0.739355
O O11 0.067522 0.060734 0.819635
O O12 0.289281 0.253909 0.703241
O O13 0.732123 0.239723 0.172684
O O14 0.500000 0.000000 0.500000
O O15 0.947375 0.135314 0.227268
O O16 0.488226 0.054862 0.730267
O O17 0.326519 0.196876 0.057174
#
# Coordination Sequence:
#
# PCOD9054695 Si02
#       8
#     2   2   2   2   2   2   2   2
#     4  12  26  46  66  95 142 188 231 271 342 414
#     4  11  24  44  69  97 136 173 223 301 345 392
#     4  11  21  37  66  97 136 163 215 277 340 394
#     4  11  21  38  63 100 130 170 218 266 335 408
#     4  11  24  44  64  92 140 182 215 269 331 399
#     4  11  22  40  69 104 127 165 230 288 352 393
#     4  12  23  40  66  96 128 179 218 272 333 396
#     4  11  23  41  65  99 133 170 226 277 328 403
#
# _framework density 25.036860999999998
#
# number of rings (size 3 to 8) (size 9 to 14) (size 15 to 20)
#    0.000    0.750    0.000   10.500    0.000    2.000 
#    6.750    0.000    0.000    0.000    0.000    0.000 
#    0.000    0.000    0.000    0.000    0.000    0.000 
#
# Total GULP energy -89316.214429 kJ/mol
# GULP energy per Si atom -5582.263402 kJ/mol
# Density = 2.497988 g / cm^3
# Si number density = 25.036861 Si / 1000 Ang^3
#
#
#
# Elastic Constant Matrix: (Units=GPa)
#
#
# Indices 1 2 3 4 5 6 
#
# 1 119.7287 33.5269 30.9477 -11.3827 -16.9227 49.2819
# 2 33.5269 41.2739 32.5415 -2.7272 -7.3626 0.7922
# 3 30.9477 32.5415 148.0667 3.0836 -6.9324 27.1230
# 4 -11.3827 -2.7272 3.0836 27.2572 4.1598 -7.4619
# 5 -16.9227 -7.3626 -6.9324 4.1598 44.7687 -21.7835
# 6 49.2819 0.7922 27.1230 -7.4619 -21.7835 6.4284
#
#
#
# Elastic Compliance Matrix: (Units=1/GPa)
#
#
# Indices 1 2 3 4 5 6 
#
# 1 0.004416 0.000798 -0.003634 0.005282 0.008212 0.015343
# 2 0.000798 0.024671 -0.002238 -0.001466 -0.005333 -0.019487
# 3 -0.003634 -0.002238 0.006934 -0.001111 0.002676 0.006660
# 4 0.005282 -0.001466 -0.001111 0.038473 -0.003706 -0.003524
# 5 0.008212 -0.005333 0.002676 -0.003706 0.019385 -0.012203
# 6 0.015343 -0.019487 0.006660 -0.003524 -0.012203 -0.033205
#
#
# Mechanical properties :
#
#
# Convention : Reuss Voigt Hill
#
# Bulk Modulus (GPa) = 38.65389 55.90017 47.27703
# Shear Modulus (GPa) = 62.93464 29.82774 46.38119
#
# Velocity S-wave (km/s) = 5.01910 3.45534 4.30876
# Velocity P-wave (km/s) = 7.00434 6.18828 6.60892
#
# Compressibility (1/GPa) = 0.02587062
#
# Stress axis : x y z
#
# Youngs Moduli (GPa) = 226.45975 40.53354 144.22404
#
# Poissons Ratio (x) = -0.03234 0.52416
# Poissons Ratio (y) = -0.18069 0.32284
# Poissons Ratio (z) = 0.82303 0.09073
#
# Static dielectric constant tensor:
#      x y z
#    x 2.291540 -0.151710 -0.089830 
#    y -0.151710 2.287330 -0.050760 
#    z -0.089830 -0.050760 1.966560 
# 
# From -- ./inp_files/434110.got.cif
#   From: 2010.05.17/outbox.cif.g08.bks.cpg/sg2_218_cif.got.tgz:434110.got - 2010.06.03 11:33:40.
