data_PCOD9054737
_publ_section_title
;
Structure prediction by ZEFSAII (Michael W. Deem and Ramdas Pophale) SiO2 
 PCOD9054737
Probable space group: P -1
;
_chemical_formula_sum "Si O2"
_cell_formula_units_Z 16
_cell_length_a 8.016543
_cell_length_b 8.076689
_cell_length_c 13.290752
_cell_angle_alpha 105.620695
_cell_angle_beta 80.547150
_cell_angle_gamma 58.544775
_cell_volume 656.528068
_symmetry_space_group_name_H-M "P -1"
_symmetry_group_IT_number 2
_symmetry_cell_setting 'triclinic'
loop_
_space_group_symop_operation_xyz
x,y,z
-x,-y,-z
loop_
_atom_site_type_symbol
_atom_site_label
_atom_site_fract_x
_atom_site_fract_y
_atom_site_fract_z
Si Si1 0.755253 0.915037 0.128145
Si Si2 0.276647 0.046742 0.465207
Si Si3 0.488294 0.246353 0.940140
Si Si4 0.832256 0.110025 0.726194
Si Si5 0.289535 0.378281 0.588974
Si Si6 0.250610 0.742759 0.736866
Si Si7 0.793960 0.290841 0.037083
Si Si8 0.951071 0.700547 0.279131
O O1 0.959815 0.863070 0.040311
O O2 0.634333 0.148342 0.230148
O O3 0.616005 0.876387 0.067395
O O4 0.849739 0.752748 0.187868
O O5 0.146064 0.011022 0.396941
O O6 0.272451 0.255296 0.477305
O O7 0.185300 0.097778 0.596157
O O8 0.509176 0.826816 0.408002
O O9 0.301909 0.496066 0.984399
O O10 0.623373 0.176579 0.813093
O O11 0.648658 0.218340 0.004040
O O12 0.026133 0.943789 0.751279
O O13 0.837837 0.313910 0.747476
O O14 0.325760 0.558279 0.617772
O O15 0.077142 0.462919 0.687966
O O16 0.235205 0.662290 0.833987
#
# Coordination Sequence:
#
# PCOD9054737 Si02
#       8
#     2   2   2   2   2   2   2   2
#     4  11  22  40  65  89 129 162 197 258 314 351
#     4   9  19  37  66  86 117 160 217 246 298 362
#     4  11  24  40  69  90 119 164 219 242 296 377
#     4  11  21  38  61  91 127 157 201 259 305 369
#     4   9  20  38  64  88 118 164 206 257 298 364
#     4  11  23  40  59  89 134 157 193 261 319 355
#     4  11  23  44  63  92 122 163 209 256 296 364
#     4   9  18  36  61  88 115 164 198 252 298 352
#
# _framework density 24.370625
#
# number of rings (size 3 to 8) (size 9 to 14) (size 15 to 20)
#    0.750    1.000    2.500    3.375    0.000    1.000 
#    0.000    3.750    0.000    0.000    0.000    0.000 
#    0.000    0.000    0.000    0.000    0.000    0.000 
#
# Total GULP energy -89211.619939 kJ/mol
# GULP energy per Si atom -5575.726246 kJ/mol
# Density = 2.431516 g / cm^3
# Si number density = 24.370625 Si / 1000 Ang^3
#
#
#
# Elastic Constant Matrix: (Units=GPa)
#
#
# Indices 1 2 3 4 5 6 
#
# 1 152.5898 33.5142 44.1945 10.3158 36.3746 20.8154
# 2 33.5142 50.0697 3.4783 17.7436 10.5469 5.7834
# 3 44.1945 3.4783 69.3331 -7.2032 16.0136 -3.6178
# 4 10.3158 17.7436 -7.2032 37.0251 8.5388 15.3413
# 5 36.3746 10.5469 16.0136 8.5388 46.4807 6.7838
# 6 20.8154 5.7834 -3.6178 15.3413 6.7838 26.1189
#
#
#
# Elastic Compliance Matrix: (Units=1/GPa)
#
#
# Indices 1 2 3 4 5 6 
#
# 1 0.012259 -0.006956 -0.006404 0.004061 -0.005069 -0.010186
# 2 -0.006956 0.028865 0.001924 -0.014870 -0.000236 0.008214
# 3 -0.006404 0.001924 0.019931 0.002808 -0.003796 0.006775
# 4 0.004061 -0.014870 0.002808 0.044983 -0.005451 -0.024561
# 5 -0.005069 -0.000236 -0.003796 -0.005451 0.027914 -0.000483
# 6 -0.010186 0.008214 0.006775 -0.024561 -0.000483 0.060075
#
#
# Mechanical properties :
#
#
# Convention : Reuss Voigt Hill
#
# Bulk Modulus (GPa) = 26.18981 48.26296 37.22638
# Shear Modulus (GPa) = 21.77437 34.64532 28.20985
#
# Velocity S-wave (km/s) = 2.99234 3.77450 3.40595
# Velocity P-wave (km/s) = 4.76535 6.23238 5.54757
#
# Compressibility (1/GPa) = 0.03818279
#
# Stress axis : x y z
#
# Youngs Moduli (GPa) = 81.57040 34.64409 50.17341
#
# Poissons Ratio (x) = 0.24098 0.32133
# Poissons Ratio (y) = 0.56740 -0.09654
# Poissons Ratio (z) = 0.52240 -0.06666
#
# Static dielectric constant tensor:
#      x y z
#    x 2.025130 0.075410 -0.003580 
#    y 0.075410 1.995010 0.021240 
#    z -0.003580 0.021240 1.942570 
# 
# From -- ./inp_files/493413.got.cif
#   From: 2010.05.17/outbox.cif.g08.bks.cpg/sg2_247_cif.got.tgz:493413.got - 2010.06.03 11:33:40.
