data_PCOD9054223
_publ_section_title
;
Structure prediction by ZEFSAII (Michael W. Deem and Ramdas Pophale) SiO2 
 PCOD9054223
Probable space group: P -1
;
_chemical_formula_sum "Si O2"
_cell_formula_units_Z 16
_cell_length_a 14.855149
_cell_length_b 12.949902
_cell_length_c 9.643414
_cell_angle_alpha 133.702417
_cell_angle_beta 67.338947
_cell_angle_gamma 148.927031
_cell_volume 576.540355
_symmetry_space_group_name_H-M "P -1"
_symmetry_group_IT_number 2
_symmetry_cell_setting 'triclinic'
loop_
_space_group_symop_operation_xyz
x,y,z
-x,-y,-z
loop_
_atom_site_type_symbol
_atom_site_label
_atom_site_fract_x
_atom_site_fract_y
_atom_site_fract_z
Si Si1 0.297742 0.223838 0.085714
Si Si2 0.658616 0.131436 0.922986
Si Si3 0.737702 0.757716 0.418981
Si Si4 0.743065 0.499618 0.011885
Si Si5 0.283096 0.459733 0.498429
Si Si6 0.989852 0.305892 0.450784
Si Si7 0.331079 0.883510 0.569830
Si Si8 0.111012 0.822482 0.062502
O O1 0.547717 0.569403 0.262180
O O2 0.212125 0.260455 0.235446
O O3 0.272986 0.069921 0.075613
O O4 0.165201 0.998065 0.826217
O O5 0.728493 0.348506 0.986076
O O6 0.844845 0.282562 0.020404
O O7 0.501246 0.814400 0.651708
O O8 0.500000 0.000000 0.000000
O O9 0.676514 0.580485 0.425407
O O10 0.843995 0.026971 0.685380
O O11 0.836387 0.765077 0.266529
O O12 0.506572 0.216814 0.841428
O O13 0.906486 0.632567 0.937812
O O14 0.112088 0.361314 0.534204
O O15 0.836642 0.236000 0.522942
O O16 0.180311 0.616224 0.528672
O O17 0.500000 0.000000 0.500000
#
# Coordination Sequence:
#
# PCOD9054223 Si02
#       8
#     2   2   2   2   2   2   2   2
#     4  11  20  41  70  89 123 173 220 257 315 393
#     4  12  22  38  63  95 128 162 212 263 323 385
#     4  11  21  42  67  92 127 170 215 263 316 387
#     4  12  23  40  64  93 133 164 212 270 326 380
#     4  11  21  39  66  96 125 164 217 268 316 387
#     4  11  24  42  68  92 130 174 214 265 330 379
#     4  11  25  43  64  93 130 173 218 265 322 396
#     4  11  23  39  64  97 128 168 210 266 326 378
#
# _framework density 27.751745
#
# number of rings (size 3 to 8) (size 9 to 14) (size 15 to 20)
#    0.000    0.750    6.250    2.625    0.000    1.000 
#    2.250    0.000    2.750    4.500    0.000    0.000 
#    0.000    0.000    0.000    0.000    0.000    0.000 
#
# Total GULP energy -89470.122177 kJ/mol
# GULP energy per Si atom -5591.882636 kJ/mol
# Density = 2.768858 g / cm^3
# Si number density = 27.751745 Si / 1000 Ang^3
#
#
#
# Elastic Constant Matrix: (Units=GPa)
#
#
# Indices 1 2 3 4 5 6 
#
# 1 146.1321 35.5123 28.7331 12.1459 5.9992 48.0127
# 2 35.5123 92.5286 27.0103 4.7820 -4.6136 36.5201
# 3 28.7331 27.0103 125.6717 13.1432 13.7311 16.7386
# 4 12.1459 4.7820 13.1432 42.8941 19.0765 -8.8010
# 5 5.9992 -4.6136 13.7311 19.0765 50.3720 8.1011
# 6 48.0127 36.5201 16.7386 -8.8010 8.1011 58.2529
#
#
#
# Elastic Compliance Matrix: (Units=1/GPa)
#
#
# Indices 1 2 3 4 5 6 
#
# 1 0.010645 0.000756 -0.000891 -0.006342 0.003116 -0.010383
# 2 0.000756 0.016762 -0.002110 -0.006969 0.006671 -0.012505
# 3 -0.000891 -0.002110 0.009052 -0.001555 -0.001882 -0.000517
# 4 -0.006342 -0.006969 -0.001555 0.037399 -0.016516 0.017990
# 5 0.003116 0.006671 -0.001882 -0.016516 0.028906 -0.012724
# 6 -0.010383 -0.012505 -0.000517 0.017990 -0.012724 0.038201
#
#
# Mechanical properties :
#
#
# Convention : Reuss Voigt Hill
#
# Bulk Modulus (GPa) = 31.28005 60.76043 46.02024
# Shear Modulus (GPa) = 32.02870 48.50889 40.26879
#
# Velocity S-wave (km/s) = 3.40091 4.18539 3.81338
# Velocity P-wave (km/s) = 5.16889 6.73042 6.00066
#
# Compressibility (1/GPa) = 0.03196926
#
# Stress axis : x y z
#
# Youngs Moduli (GPa) = 93.93865 59.65907 110.47871
#
# Poissons Ratio (x) = -0.04507 0.09838
# Poissons Ratio (y) = -0.07097 0.23308
# Poissons Ratio (z) = 0.08365 0.12587
#
# Static dielectric constant tensor:
#      x y z
#    x 2.035740 -0.407800 -0.244820 
#    y -0.407800 -0.535070 -1.482230 
#    z -0.244820 -1.482230 1.471660 
# 
# From -- ./inp_files/455614.got.cif
#   From: 2010.05.17/outbox.cif.g08.bks.cpg/sg2_228_cif.got.tgz:455614.got - 2010.06.03 11:33:40.
