data_PCOD9054346
_publ_section_title
;
Structure prediction by ZEFSAII (Michael W. Deem and Ramdas Pophale) SiO2 
 PCOD9054346
Probable space group: P -1
;
_chemical_formula_sum "Si O2"
_cell_formula_units_Z 16
_cell_length_a 17.568394
_cell_length_b 17.339534
_cell_length_c 9.865787
_cell_angle_alpha 142.873631
_cell_angle_beta 25.838536
_cell_angle_gamma 152.382346
_cell_volume 607.210329
_symmetry_space_group_name_H-M "P -1"
_symmetry_group_IT_number 2
_symmetry_cell_setting 'triclinic'
loop_
_space_group_symop_operation_xyz
x,y,z
-x,-y,-z
loop_
_atom_site_type_symbol
_atom_site_label
_atom_site_fract_x
_atom_site_fract_y
_atom_site_fract_z
Si Si1 0.182011 0.880493 0.795794
Si Si2 0.731971 0.774064 0.243278
Si Si3 0.789954 0.997619 0.805256
Si Si4 0.793676 0.535519 0.664149
Si Si5 0.625689 0.807977 0.203812
Si Si6 0.337717 0.517387 0.691881
Si Si7 0.289255 0.664253 0.208598
Si Si8 0.944161 0.745713 0.468617
O O1 0.188554 0.756954 0.524008
O O2 0.387195 0.067797 0.683376
O O3 0.186984 0.880111 0.947792
O O4 0.956601 0.852966 0.078374
O O5 0.743625 0.887877 0.271072
O O6 0.517941 0.687069 0.559802
O O7 0.706045 0.630231 0.996865
O O8 0.831946 0.082049 0.710657
O O9 0.000000 0.000000 0.500000
O O10 0.555339 0.814037 0.956758
O O11 0.613555 0.369516 0.633286
O O12 0.772152 0.441723 0.706006
O O13 0.969964 0.665151 0.445453
O O14 0.773849 0.777968 0.836806
O O15 0.500000 0.500000 0.500000
O O16 0.183855 0.378553 0.629638
O O17 0.200929 0.539572 0.049048
#
# Coordination Sequence:
#
# PCOD9054346 Si02
#       8
#     2   2   2   2   2   2   2   2
#     4  12  26  43  67 104 146 180 223 283 353 411
#     4  11  22  40  72 103 135 178 235 284 336 410
#     4  12  23  43  71 104 132 180 238 284 332 413
#     4  11  21  44  70 101 135 180 228 283 344 398
#     4  11  20  42  74  99 135 181 231 278 347 406
#     4  12  21  41  69 105 134 174 237 289 330 400
#     4  12  27  45  71 100 145 183 224 285 351 406
#     4  11  22  41  72 104 129 171 235 294 327 396
#
# _framework density 26.350013000000001
#
# number of rings (size 3 to 8) (size 9 to 14) (size 15 to 20)
#    0.000    0.500    6.250    3.750    0.000    0.500 
#    0.000    1.250    2.750    0.000    0.000    0.000 
#    0.000    0.000    0.000    0.000    0.000    0.000 
#
# Total GULP energy -89522.051302 kJ/mol
# GULP energy per Si atom -5595.128206 kJ/mol
# Density = 2.629004 g / cm^3
# Si number density = 26.350013 Si / 1000 Ang^3
#
#
#
# Elastic Constant Matrix: (Units=GPa)
#
#
# Indices 1 2 3 4 5 6 
#
# 1 116.7204 34.7664 52.8183 -9.5716 46.7748 -28.0858
# 2 34.7664 134.7852 47.7438 -21.8280 18.0457 -18.9916
# 3 52.8183 47.7438 126.9833 -4.6876 34.3226 -9.5410
# 4 -9.5716 -21.8280 -4.6876 58.2072 2.3682 12.4690
# 5 46.7748 18.0457 34.3226 2.3682 42.7612 -8.8891
# 6 -28.0858 -18.9916 -9.5410 12.4690 -8.8891 43.7884
#
#
#
# Elastic Compliance Matrix: (Units=1/GPa)
#
#
# Indices 1 2 3 4 5 6 
#
# 1 0.018233 -0.000345 -0.002392 0.001813 -0.016490 0.007159
# 2 -0.000345 0.009425 -0.002859 0.002807 -0.000994 0.002242
# 3 -0.002392 -0.002859 0.011345 -0.000019 -0.005579 -0.001429
# 4 0.001813 0.002807 -0.000019 0.019651 -0.005127 -0.004260
# 5 -0.016490 -0.000994 -0.005579 -0.005127 0.046323 -0.001360
# 6 0.007159 0.002242 -0.001429 -0.004260 -0.001360 0.029027
#
#
# Mechanical properties :
#
#
# Convention : Reuss Voigt Hill
#
# Bulk Modulus (GPa) = 35.95905 72.12733 54.04319
# Shear Modulus (GPa) = 32.36983 45.16204 38.76594
#
# Velocity S-wave (km/s) = 3.50874 4.14445 3.83977
# Velocity P-wave (km/s) = 5.48555 7.09466 6.34135
#
# Compressibility (1/GPa) = 0.02780941
#
# Stress axis : x y z
#
# Youngs Moduli (GPa) = 54.84707 106.10415 88.14589
#
# Poissons Ratio (x) = 0.03665 0.21083
# Poissons Ratio (y) = 0.01895 0.25202
# Poissons Ratio (z) = 0.13118 0.30336
#
# Static dielectric constant tensor:
#      x y z
#    x 2.156950 0.063640 -0.054800 
#    y 0.063640 2.103110 -0.013770 
#    z -0.054800 -0.013770 2.045080 
# 
# From -- ./inp_files/216511.got.cif
#   From: 2010.05.17/outbox.cif.g08.bks.cpg/sg2_109_cif.got.tgz:216511.got - 2010.06.03 11:33:40.
