data_PCOD9054498
_publ_section_title
;
Structure prediction by ZEFSAII (Michael W. Deem and Ramdas Pophale) SiO2 
 PCOD9054498
Probable space group: P -1
;
_chemical_formula_sum "Si O2"
_cell_formula_units_Z 14
_cell_length_a 11.895480
_cell_length_b 5.162950
_cell_length_c 12.745752
_cell_angle_alpha 98.083000
_cell_angle_beta 68.342648
_cell_angle_gamma 97.963870
_cell_volume 717.102129
_symmetry_space_group_name_H-M "P -1"
_symmetry_group_IT_number 2
_symmetry_cell_setting 'triclinic'
loop_
_space_group_symop_operation_xyz
x,y,z
-x,-y,-z
loop_
_atom_site_type_symbol
_atom_site_label
_atom_site_fract_x
_atom_site_fract_y
_atom_site_fract_z
Si Si1 0.952253 0.956861 0.130978
Si Si2 0.778063 0.534078 0.676613
Si Si3 0.342812 0.902600 0.435037
Si Si4 0.126783 0.923052 0.262428
Si Si5 0.887509 0.769307 0.456942
Si Si6 0.187015 0.532070 0.749891
Si Si7 0.437106 0.710507 0.603842
O O1 0.876768 0.200497 0.201422
O O2 0.868388 0.685217 0.161488
O O3 0.063503 0.941512 0.173177
O O4 0.000000 0.000000 0.000000
O O5 0.669999 0.367165 0.641789
O O6 0.818076 0.346763 0.744119
O O7 0.542942 0.902574 0.629807
O O8 0.776167 0.826207 0.738970
O O9 0.366962 0.863849 0.547735
O O10 0.217239 0.034991 0.478145
O O11 0.122749 0.415663 0.448108
O O12 0.014348 0.917128 0.384030
O O13 0.845650 0.589820 0.360627
O O14 0.332458 0.583692 0.707727
O O15 0.500000 0.500000 0.500000
#
# Coordination Sequence:
#
# PCOD9054498 Si02
#       7
#     2   2   2   2   2   2   2
#     4  11  25  45  63  86 113 149 207 263 296 337
#     4  12  22  35  50  86 122 165 185 226 279 366
#     4  11  22  33  53  79 131 165 193 223 272 339
#     4  11  24  33  57  80 115 157 199 232 295 349
#     4  11  21  35  51  85 126 161 189 225 279 364
#     4  11  22  38  64  87 118 159 196 238 300 345
#     4  11  21  35  55  87 126 166 195 232 278 350
#
# _framework density 19.523022000000001
#
# number of rings (size 3 to 8) (size 9 to 14) (size 15 to 20)
#    0.000    0.857    4.286    4.714    4.000    0.000 
#    0.000    0.000    0.000    0.000    0.000    6.000 
#    0.000    0.000    0.000    0.000    0.000    0.000 
#
# Total GULP energy -78193.664695 kJ/mol
# GULP energy per Si atom -5585.261764 kJ/mol
# Density = 1.947859 g / cm^3
# Si number density = 19.523022 Si / 1000 Ang^3
#
#
#
# Elastic Constant Matrix: (Units=GPa)
#
#
# Indices 1 2 3 4 5 6 
#
# 1 91.0835 33.6403 7.0874 -3.6428 -3.6485 29.9827
# 2 33.6403 111.1140 13.0154 -17.9114 -1.3384 7.9000
# 3 7.0874 13.0154 67.3037 -20.3994 8.0176 -1.2445
# 4 -3.6428 -17.9114 -20.3994 22.5256 -1.3066 -1.8644
# 5 -3.6485 -1.3384 8.0176 -1.3066 18.0795 -5.7392
# 6 29.9827 7.9000 -1.2445 -1.8644 -5.7392 40.2321
#
#
#
# Elastic Compliance Matrix: (Units=1/GPa)
#
#
# Indices 1 2 3 4 5 6 
#
# 1 0.016518 -0.004544 -0.002283 -0.003975 0.000018 -0.011670
# 2 -0.004544 0.011708 0.001125 0.009773 0.000688 0.001673
# 3 -0.002283 0.001125 0.021974 0.020119 -0.008051 0.001944
# 4 -0.003975 0.009773 0.020119 0.069974 -0.002499 0.004552
# 5 0.000018 0.000688 -0.008051 -0.002499 0.061372 0.008242
# 6 -0.011670 0.001673 0.001944 0.004552 0.008242 0.034671
#
#
# Mechanical properties :
#
#
# Convention : Reuss Voigt Hill
#
# Bulk Modulus (GPa) = 25.77580 41.88750 33.83165
# Shear Modulus (GPa) = 20.78536 30.55131 25.66833
#
# Velocity S-wave (km/s) = 3.26645 3.96016 3.62991
# Velocity P-wave (km/s) = 5.24001 6.51248 5.91059
#
# Compressibility (1/GPa) = 0.03879608
#
# Stress axis : x y z
#
# Youngs Moduli (GPa) = 60.53907 85.40866 45.50842
#
# Poissons Ratio (x) = 0.38812 0.10391
# Poissons Ratio (y) = 0.27511 -0.05121
# Poissons Ratio (z) = 0.13823 -0.09611
#
# Static dielectric constant tensor:
#      x y z
#    x 1.759500 0.017300 0.021180 
#    y 0.017300 1.764820 -0.019050 
#    z 0.021180 -0.019050 1.664190 
# 
# From -- ./inp_files/410236.got.cif
#   From: 2010.05.17/outbox.cif.g08.bks.cpg/sg2_206_cif.got.tgz:410236.got - 2010.06.03 11:33:40.
