data_PCOD9054532
_publ_section_title
;
Structure prediction by ZEFSAII (Michael W. Deem and Ramdas Pophale) SiO2 
 PCOD9054532
Probable space group: P -1
;
_chemical_formula_sum "Si O2"
_cell_formula_units_Z 16
_cell_length_a 9.227106
_cell_length_b 20.704318
_cell_length_c 25.155906
_cell_angle_alpha 160.477469
_cell_angle_beta 27.374244
_cell_angle_gamma 151.794239
_cell_volume 707.101071
_symmetry_space_group_name_H-M "P -1"
_symmetry_group_IT_number 2
_symmetry_cell_setting 'triclinic'
loop_
_space_group_symop_operation_xyz
x,y,z
-x,-y,-z
loop_
_atom_site_type_symbol
_atom_site_label
_atom_site_fract_x
_atom_site_fract_y
_atom_site_fract_z
Si Si1 0.762473 0.009385 0.966401
Si Si2 0.344570 0.949910 0.666034
Si Si3 0.390488 0.882842 0.389696
Si Si4 0.678009 0.437007 0.518144
Si Si5 0.243727 0.995651 0.334540
Si Si6 0.624278 0.854015 0.005602
Si Si7 0.058723 0.525889 0.741973
Si Si8 0.153040 0.525006 0.343309
O O1 0.951496 0.249108 0.095245
O O2 0.500000 0.000000 0.000000
O O3 0.579427 0.895855 0.990292
O O4 0.036659 0.918624 0.781804
O O5 0.654864 0.078718 0.699998
O O6 0.320499 0.730619 0.479496
O O7 0.333826 0.076885 0.714552
O O8 0.123557 0.994267 0.542968
O O9 0.215846 0.643326 0.267406
O O10 0.500000 0.000000 0.500000
O O11 0.452576 0.228469 0.451258
O O12 0.408042 0.550827 0.677200
O O13 0.000000 0.500000 0.500000
O O14 0.830483 0.404971 0.387449
O O15 0.383101 0.912046 0.172001
O O16 0.622287 0.626131 0.843857
O O17 0.000000 0.000000 0.000000
O O18 0.986723 0.425957 0.629237
#
# Coordination Sequence:
#
# PCOD9054532 Si02
#       8
#     2   2   2   2   2   2   2   2
#     4  12  27  42  70 109 142 170 224 285 359 417
#     4  12  24  44  69  98 136 185 232 285 327 412
#     4  11  26  45  69  95 134 188 243 279 326 401
#     4  11  21  35  64  99 131 170 220 278 344 416
#     4  11  23  43  69  94 137 177 226 284 341 401
#     4  12  23  42  65 103 138 170 211 286 354 417
#     4  11  24  43  66  96 137 187 225 281 345 400
#     4  12  22  39  68  97 137 178 224 272 358 406
#
# _framework density 22.627599
#
# number of rings (size 3 to 8) (size 9 to 14) (size 15 to 20)
#    0.000    0.500    6.250    1.500    3.500    1.500 
#    0.000    0.625    2.750    0.000    0.000    0.000 
#    0.000    0.000    0.000    0.000    0.000    0.000 
#
# Total GULP energy -89147.083553 kJ/mol
# GULP energy per Si atom -5571.692722 kJ/mol
# Density = 2.257610 g / cm^3
# Si number density = 22.627599 Si / 1000 Ang^3
#
#
#
# Elastic Constant Matrix: (Units=GPa)
#
#
# Indices 1 2 3 4 5 6 
#
# 1 147.3413 19.5943 26.3842 -2.7561 11.9336 -4.3924
# 2 19.5943 46.1086 19.3100 4.5142 6.1733 -3.1440
# 3 26.3842 19.3100 93.5840 10.6978 -1.5932 -0.1046
# 4 -2.7561 4.5142 10.6978 24.7636 -6.2073 2.2847
# 5 11.9336 6.1733 -1.5932 -6.2073 31.3773 -4.8213
# 6 -4.3924 -3.1440 -0.1046 2.2847 -4.8213 36.9307
#
#
#
# Elastic Compliance Matrix: (Units=1/GPa)
#
#
# Indices 1 2 3 4 5 6 
#
# 1 0.007647 -0.002286 -0.001893 0.001502 -0.002207 0.000328
# 2 -0.002286 0.025647 -0.004216 -0.004514 -0.005050 0.001520
# 3 -0.001893 -0.004216 0.012633 -0.004572 0.001271 -0.000099
# 4 0.001502 -0.004514 -0.004572 0.045738 0.008842 -0.001894
# 5 -0.002207 -0.005050 0.001271 0.008842 0.036050 0.003471
# 6 0.000328 0.001520 -0.000099 -0.001894 0.003471 0.027816
#
#
# Mechanical properties :
#
#
# Convention : Reuss Voigt Hill
#
# Bulk Modulus (GPa) = 34.32024 46.40122 40.36073
# Shear Modulus (GPa) = 27.46767 33.39738 30.43252
#
# Velocity S-wave (km/s) = 3.48789 3.84599 3.67131
# Velocity P-wave (km/s) = 5.60543 6.34611 5.98724
#
# Compressibility (1/GPa) = 0.02913732
#
# Stress axis : x y z
#
# Youngs Moduli (GPa) = 130.77760 38.99163 79.15587
#
# Poissons Ratio (x) = 0.08913 0.14985
# Poissons Ratio (y) = 0.29894 0.33369
# Poissons Ratio (z) = 0.24757 0.16437
#
# Static dielectric constant tensor:
#      x y z
#    x 1.979890 -0.040810 -0.011690 
#    y -0.040810 1.904930 0.015380 
#    z -0.011690 0.015380 1.974390 
# 
# From -- ./inp_files/608657.got.cif
#   From: 2010.05.17/outbox.cif.g08.bks.cpg/sg2_305_cif.got.tgz:608657.got - 2010.06.03 11:33:40.
