data_PCOD9054908
_publ_section_title
;
Structure prediction by ZEFSAII (Michael W. Deem and Ramdas Pophale) SiO2 
 PCOD9054908
Probable space group: P -1
;
_chemical_formula_sum "Si O2"
_cell_formula_units_Z 16
_cell_length_a 9.621475
_cell_length_b 11.767126
_cell_length_c 7.678772
_cell_angle_alpha 49.887979
_cell_angle_beta 105.970947
_cell_angle_gamma 90.531969
_cell_volume 622.309966
_symmetry_space_group_name_H-M "P -1"
_symmetry_group_IT_number 2
_symmetry_cell_setting 'triclinic'
loop_
_space_group_symop_operation_xyz
x,y,z
-x,-y,-z
loop_
_atom_site_type_symbol
_atom_site_label
_atom_site_fract_x
_atom_site_fract_y
_atom_site_fract_z
Si Si1 0.740143 0.737331 0.923111
Si Si2 0.947248 0.405765 0.912699
Si Si3 0.562810 0.303976 0.240050
Si Si4 0.556575 0.194496 0.854148
Si Si5 0.251607 0.959438 0.233072
Si Si6 0.952462 0.040521 0.247364
Si Si7 0.308312 0.099640 0.637173
Si Si8 0.622440 0.472053 0.787666
O O1 0.726489 0.870647 0.925606
O O2 0.729219 0.818083 0.644369
O O3 0.494510 0.606767 0.689067
O O4 0.898187 0.620843 0.116508
O O5 0.776396 0.499012 0.736411
O O6 0.000000 0.500000 0.000000
O O7 0.922875 0.228088 0.062995
O O8 0.840519 0.927128 0.301505
O O9 0.641771 0.135387 0.489170
O O10 0.407659 0.323295 0.065890
O O11 0.667860 0.374806 0.080934
O O12 0.410919 0.177796 0.716981
O O13 0.558230 0.361151 0.751302
O O14 0.694252 0.133785 0.829138
O O15 0.594643 0.076524 0.146756
O O16 0.084751 0.979390 0.219182
O O17 0.000000 0.000000 0.500000
#
# Coordination Sequence:
#
# PCOD9054908 Si02
#       8
#     2   2   2   2   2   2   2   2
#     4  11  22  39  66  95 121 165 216 269 302 378
#     4  11  21  39  64  95 123 162 211 264 317 364
#     4  11  23  40  64  92 124 166 218 261 306 384
#     4  11  25  39  61  94 132 164 203 265 321 383
#     4  11  23  37  64  94 125 163 211 260 316 367
#     4  11  21  40  69  95 124 166 216 268 305 376
#     4  11  22  40  61  95 124 167 205 262 320 366
#     4  11  24  42  63  91 130 168 209 258 323 380
#
# _framework density 25.710661000000002
#
# number of rings (size 3 to 8) (size 9 to 14) (size 15 to 20)
#    0.000    1.000    6.250    1.875    3.500    1.000 
#    0.000    0.000    0.000    0.750    0.000    0.000 
#    0.000    0.000    0.000    0.000    0.000    0.000 
#
# Total GULP energy -89238.335990 kJ/mol
# GULP energy per Si atom -5577.395999 kJ/mol
# Density = 2.565214 g / cm^3
# Si number density = 25.710661 Si / 1000 Ang^3
#
#
#
# Elastic Constant Matrix: (Units=GPa)
#
#
# Indices 1 2 3 4 5 6 
#
# 1 157.9523 51.6616 9.2969 -6.3393 -18.7633 -20.3393
# 2 51.6616 170.2368 -1.8623 -4.8668 -2.1220 -8.4313
# 3 9.2969 -1.8623 55.9958 8.0281 -0.5664 -10.8514
# 4 -6.3393 -4.8668 8.0281 32.2573 -9.0735 2.4275
# 5 -18.7633 -2.1220 -0.5664 -9.0735 25.2007 -6.5325
# 6 -20.3393 -8.4313 -10.8514 2.4275 -6.5325 54.3599
#
#
#
# Elastic Compliance Matrix: (Units=1/GPa)
#
#
# Indices 1 2 3 4 5 6 
#
# 1 0.008795 -0.002290 -0.001319 0.003875 0.008638 0.003537
# 2 -0.002290 0.006572 0.000606 0.000078 -0.001070 0.000151
# 3 -0.001319 0.000606 0.019602 -0.005778 -0.001644 0.003574
# 4 0.003875 0.000078 -0.005778 0.037817 0.016535 0.000607
# 5 0.008638 -0.001070 -0.001644 0.016535 0.054144 0.008506
# 6 0.003537 0.000151 0.003574 0.000607 0.008506 0.021451
#
#
# Mechanical properties :
#
#
# Convention : Reuss Voigt Hill
#
# Bulk Modulus (GPa) = 34.52647 55.81970 45.17309
# Shear Modulus (GPa) = 30.48022 44.03613 37.25818
#
# Velocity S-wave (km/s) = 3.44686 4.14304 3.81088
# Velocity P-wave (km/s) = 5.41287 6.68163 6.08043
#
# Compressibility (1/GPa) = 0.02896328
#
# Stress axis : x y z
#
# Youngs Moduli (GPa) = 113.70624 152.15945 51.01538
#
# Poissons Ratio (x) = 0.34840 0.06729
# Poissons Ratio (y) = 0.26035 -0.03092
# Poissons Ratio (z) = 0.14998 -0.09221
#
# Static dielectric constant tensor:
#      x y z
#    x 2.063280 0.030550 0.029900 
#    y 0.030550 2.084950 0.027390 
#    z 0.029900 0.027390 2.141430 
# 
# From -- ./inp_files/253255.got.cif
#   From: 2010.05.17/outbox.cif.g08.bks.cpg/sg2_127_cif.got.tgz:253255.got - 2010.06.03 11:33:40.
