data_PCOD9054448
_publ_section_title
;
Structure prediction by ZEFSAII (Michael W. Deem and Ramdas Pophale) SiO2 
 PCOD9054448
Probable space group: P -1
;
_chemical_formula_sum "Si O2"
_cell_formula_units_Z 15
_cell_length_a 9.393802
_cell_length_b 12.221585
_cell_length_c 8.894981
_cell_angle_alpha 116.662580
_cell_angle_beta 115.440751
_cell_angle_gamma 109.814562
_cell_volume 619.921935
_symmetry_space_group_name_H-M "P -1"
_symmetry_group_IT_number 2
_symmetry_cell_setting 'triclinic'
loop_
_space_group_symop_operation_xyz
x,y,z
-x,-y,-z
loop_
_atom_site_type_symbol
_atom_site_label
_atom_site_fract_x
_atom_site_fract_y
_atom_site_fract_z
Si Si1 0.727688 0.674056 0.670307
Si Si2 0.500000 0.500000 0.000000
Si Si3 0.251775 0.214729 0.930548
Si Si4 0.915229 0.324189 0.088602
Si Si5 0.560506 0.753765 0.397203
Si Si6 0.763824 0.315579 0.549931
Si Si7 0.170914 0.885448 0.372021
Si Si8 0.451856 0.844089 0.949083
O O1 0.500000 0.500000 0.500000
O O2 0.721028 0.754824 0.570081
O O3 0.903198 0.659028 0.732540
O O4 0.785786 0.785882 0.909879
O O5 0.420121 0.399263 0.061893
O O6 0.502038 0.363330 0.841358
O O7 0.039066 0.145181 0.708467
O O8 0.343282 0.127442 0.897297
O O9 0.706020 0.221841 0.026083
O O10 0.007938 0.507392 0.225703
O O11 0.880091 0.235298 0.862027
O O12 0.375624 0.689771 0.390078
O O13 0.658970 0.931336 0.496067
O O14 0.768839 0.174736 0.504272
O O15 0.664750 0.284880 0.321859
O O16 0.500000 0.000000 0.000000
#
# Coordination Sequence:
#
# PCOD9054448 Si02
#       8
#     2   1   2   2   2   2   2   2
#     4  11  20  46  74 102 137 191 241 293 358 434
#     4  12  28  42  76 102 148 188 248 294 360 430
#     4  11  26  47  69 106 143 193 236 301 357 433
#     4  11  25  44  76 106 144 192 247 295 358 437
#     4  12  25  46  75 106 147 192 242 302 365 432
#     4  12  25  49  74 106 146 194 241 299 366 436
#     4  11  28  46  75 107 149 188 241 301 373 424
#     4  12  28  46  73 108 151 189 244 299 359 429
#
# _framework density 24.196594000000001
#
# number of rings (size 3 to 8) (size 9 to 14) (size 15 to 20)
#    0.000    0.533    4.000    2.800    7.467    2.667 
#    0.000    0.000    0.000    0.000    0.000    0.000 
#    0.000    0.000    0.000    0.000    0.000    0.000 
#
# Total GULP energy -83848.417489 kJ/mol
# GULP energy per Si atom -5589.894499 kJ/mol
# Density = 2.414152 g / cm^3
# Si number density = 24.196594 Si / 1000 Ang^3
#
#
#
# Elastic Constant Matrix: (Units=GPa)
#
#
# Indices 1 2 3 4 5 6 
#
# 1 106.4523 24.5380 22.9756 -20.1505 1.3803 -13.0411
# 2 24.5380 119.4898 11.9551 7.8076 0.2035 -8.0816
# 3 22.9756 11.9551 69.0113 -4.9824 -12.9887 -8.0535
# 4 -20.1505 7.8076 -4.9824 42.8174 -13.1968 -1.6413
# 5 1.3803 0.2035 -12.9887 -13.1968 29.5785 -1.1103
# 6 -13.0411 -8.0816 -8.0535 -1.6413 -1.1103 15.4710
#
#
#
# Elastic Compliance Matrix: (Units=1/GPa)
#
#
# Indices 1 2 3 4 5 6 
#
# 1 0.012846 -0.002288 -0.001805 0.007315 0.002249 0.009631
# 2 -0.002288 0.009316 -0.001273 -0.003472 -0.002000 0.001763
# 3 -0.001805 -0.001273 0.018829 0.005332 0.011077 0.008975
# 4 0.007315 -0.003472 0.005332 0.033941 0.017617 0.011993
# 5 0.002249 -0.002000 0.011077 0.017617 0.046886 0.011851
# 6 0.009631 0.001763 0.008975 0.011993 0.011851 0.080472
#
#
# Mechanical properties :
#
#
# Convention : Reuss Voigt Hill
#
# Bulk Modulus (GPa) = 33.04887 45.98787 39.51837
# Shear Modulus (GPa) = 22.41058 33.27234 27.84146
#
# Velocity S-wave (km/s) = 3.04663 3.71223 3.39578
# Velocity P-wave (km/s) = 5.10530 6.11731 5.63407
#
# Compressibility (1/GPa) = 0.03025822
#
# Stress axis : x y z
#
# Youngs Moduli (GPa) = 77.84366 107.34599 53.10904
#
# Poissons Ratio (x) = 0.24559 0.09587
# Poissons Ratio (y) = 0.17810 0.06763
# Poissons Ratio (z) = 0.14052 0.13670
#
# Static dielectric constant tensor:
#      x y z
#    x 1.896990 -0.024380 0.034870 
#    y -0.024380 1.888750 -0.018240 
#    z 0.034870 -0.018240 1.950870 
# 
# From -- ./inp_files/157424.got.cif
#   From: 2010.05.17/outbox.cif.g08.bks.cpg/sg2_79_cif.got.tgz:157424.got - 2010.06.03 11:33:40.
