data_PCOD9054490
_publ_section_title
;
Structure prediction by ZEFSAII (Michael W. Deem and Ramdas Pophale) SiO2 
 PCOD9054490
Probable space group: P -1
;
_chemical_formula_sum "Si O2"
_cell_formula_units_Z 14
_cell_length_a 10.676344
_cell_length_b 24.248474
_cell_length_c 9.387731
_cell_angle_alpha 31.535448
_cell_angle_beta 58.260354
_cell_angle_gamma 36.335173
_cell_volume 644.221229
_symmetry_space_group_name_H-M "P -1"
_symmetry_group_IT_number 2
_symmetry_cell_setting 'triclinic'
loop_
_space_group_symop_operation_xyz
x,y,z
-x,-y,-z
loop_
_atom_site_type_symbol
_atom_site_label
_atom_site_fract_x
_atom_site_fract_y
_atom_site_fract_z
Si Si1 0.435775 0.160587 0.696941
Si Si2 0.855050 0.185497 0.718321
Si Si3 0.349700 0.360302 0.566024
Si Si4 0.219387 0.694889 0.196376
Si Si5 0.269325 0.565851 0.934715
Si Si6 0.476456 0.718925 0.832223
Si Si7 0.125243 0.514366 0.645133
O O1 0.458044 0.204742 0.742321
O O2 0.581741 0.143647 0.526880
O O3 0.143112 0.349285 0.427278
O O4 0.500000 0.000000 0.000000
O O5 0.571689 0.307313 0.608826
O O6 0.905891 0.197485 0.819163
O O7 0.911529 0.244262 0.441021
O O8 0.000000 0.000000 0.000000
O O9 0.196874 0.414829 0.675585
O O10 0.198728 0.524921 0.188767
O O11 0.500000 0.500000 0.500000
O O12 0.110954 0.646674 0.317333
O O13 0.250755 0.775487 0.895485
O O14 0.500000 0.500000 0.000000
O O15 0.370089 0.442211 0.013395
O O16 0.657556 0.632981 0.047367
#
# Coordination Sequence:
#
# PCOD9054490 Si02
#       7
#     2   2   2   2   2   2   2
#     4  11  26  41  57  87 128 157 193 252 306 339
#     4  11  20  33  59  95 123 146 192 255 302 338
#     4  10  21  39  61  82 120 161 200 238 293 363
#     4  10  17  35  65  89 112 145 204 244 282 347
#     4   9  17  33  56  86 117 154 187 234 295 356
#     4  10  19  39  66  84 112 163 206 234 286 365
#     4  11  20  40  66  87 113 161 209 233 284 372
#
# _framework density 21.731665
#
# number of rings (size 3 to 8) (size 9 to 14) (size 15 to 20)
#    0.000    1.714    5.714    1.714    2.000    0.000 
#    2.571    1.429    0.000    0.000    0.000    0.000 
#    0.000    0.000    0.000    0.000    0.000    0.000 
#
# Total GULP energy -78102.857109 kJ/mol
# GULP energy per Si atom -5578.775508 kJ/mol
# Density = 2.168220 g / cm^3
# Si number density = 21.731665 Si / 1000 Ang^3
#
#
#
# Elastic Constant Matrix: (Units=GPa)
#
#
# Indices 1 2 3 4 5 6 
#
# 1 75.3983 24.0226 17.9747 15.0487 -15.1147 18.8026
# 2 24.0226 89.7793 46.2526 18.7781 -3.8528 24.0410
# 3 17.9747 46.2526 117.3726 16.0595 -28.3397 19.3356
# 4 15.0487 18.7781 16.0595 31.2426 -0.1535 -3.5824
# 5 -15.1147 -3.8528 -28.3397 -0.1535 28.8441 2.5294
# 6 18.8026 24.0410 19.3356 -3.5824 2.5294 47.3693
#
#
#
# Elastic Compliance Matrix: (Units=1/GPa)
#
#
# Indices 1 2 3 4 5 6 
#
# 1 0.021648 -0.001879 0.005370 -0.013322 0.017330 -0.011764
# 2 -0.001879 0.017561 -0.005350 -0.007648 -0.003376 -0.006381
# 3 0.005370 -0.005350 0.017097 -0.008995 0.019562 -0.008120
# 4 -0.013322 -0.007648 -0.008995 0.049569 -0.018116 0.017557
# 5 0.017330 -0.003376 0.019562 -0.018116 0.063996 -0.017938
# 6 -0.011764 -0.006381 -0.008120 0.017557 -0.017938 0.034619
#
#
# Mechanical properties :
#
#
# Convention : Reuss Voigt Hill
#
# Bulk Modulus (GPa) = 19.01509 51.00553 35.01031
# Shear Modulus (GPa) = 22.14964 34.44456 28.29710
#
# Velocity S-wave (km/s) = 3.19601 3.98552 3.61240
# Velocity P-wave (km/s) = 4.73162 6.68586 5.79176
#
# Compressibility (1/GPa) = 0.05258981
#
# Stress axis : x y z
#
# Youngs Moduli (GPa) = 46.19343 56.94486 58.48854
#
# Poissons Ratio (x) = 0.10698 -0.31410
# Poissons Ratio (y) = 0.08678 0.31291
# Poissons Ratio (z) = -0.24808 0.30465
#
# Static dielectric constant tensor:
#      x y z
#    x 1.853670 -0.061820 0.018000 
#    y -0.061820 1.858170 0.026060 
#    z 0.018000 0.026060 1.817930 
# 
# From -- ./inp_files/180769.got.cif
#   From: 2010.05.17/outbox.cif.g08.bks.cpg/sg2_91_cif.got.tgz:180769.got - 2010.06.03 11:33:40.
