data_PCOD9054802
_publ_section_title
;
Structure prediction by ZEFSAII (Michael W. Deem and Ramdas Pophale) SiO2 
 PCOD9054802
Probable space group: P -1
;
_chemical_formula_sum "Si O2"
_cell_formula_units_Z 16
_cell_length_a 11.327552
_cell_length_b 5.005802
_cell_length_c 12.721589
_cell_angle_alpha 79.270054
_cell_angle_beta 107.205627
_cell_angle_gamma 113.875633
_cell_volume 628.284063
_symmetry_space_group_name_H-M "P -1"
_symmetry_group_IT_number 2
_symmetry_cell_setting 'triclinic'
loop_
_space_group_symop_operation_xyz
x,y,z
-x,-y,-z
loop_
_atom_site_type_symbol
_atom_site_label
_atom_site_fract_x
_atom_site_fract_y
_atom_site_fract_z
Si Si1 0.703760 0.615884 0.949988
Si Si2 0.797966 0.583778 0.623053
Si Si3 0.063802 0.900686 0.755793
Si Si4 0.139550 0.767803 0.011157
Si Si5 0.900461 0.655123 0.425062
Si Si6 0.362630 0.052689 0.457327
Si Si7 0.455711 0.787746 0.901318
Si Si8 0.298371 0.890391 0.673603
O O1 0.747644 0.368017 0.928695
O O2 0.672458 0.489156 0.071422
O O3 0.821458 0.929026 0.937945
O O4 0.567296 0.672779 0.895180
O O5 0.874185 0.769857 0.524876
O O6 0.738950 0.247559 0.597999
O O7 0.917330 0.652958 0.732140
O O8 0.681163 0.693061 0.621158
O O9 0.135791 0.886831 0.883258
O O10 0.165810 0.888745 0.693686
O O11 0.044735 0.187854 0.683855
O O12 0.000000 0.500000 0.000000
O O13 0.753088 0.431210 0.368686
O O14 0.000000 0.500000 0.500000
O O15 0.346704 0.100023 0.573363
O O16 0.500000 0.000000 0.500000
O O17 0.409721 0.942937 0.785444
O O18 0.500000 0.000000 0.000000
#
# Coordination Sequence:
#
# PCOD9054802 Si02
#       8
#     2   2   2   2   2   2   2   2
#     4  11  23  46  69  97 138 180 236 296 353 405
#     4  11  23  40  68  97 133 173 219 286 337 410
#     4  12  22  40  70 102 136 173 237 287 359 408
#     4  12  27  47  69  99 143 191 237 294 355 427
#     4  11  21  38  66 108 143 165 225 297 352 416
#     4  11  25  46  62  93 139 180 220 269 341 423
#     4  11  22  43  72 105 140 179 237 306 346 416
#     4  11  22  39  69 101 131 182 227 284 351 411
#
# _framework density 25.466189
#
# number of rings (size 3 to 8) (size 9 to 14) (size 15 to 20)
#    0.000    0.750    5.000    3.375    0.000    1.000 
#    4.500    0.000    0.000    0.000    0.000    0.000 
#    0.000    0.000    0.000    0.000    0.000    0.000 
#
# Total GULP energy -89239.685547 kJ/mol
# GULP energy per Si atom -5577.480347 kJ/mol
# Density = 2.540823 g / cm^3
# Si number density = 25.466189 Si / 1000 Ang^3
#
#
#
# Elastic Constant Matrix: (Units=GPa)
#
#
# Indices 1 2 3 4 5 6 
#
# 1 96.1193 5.5319 13.0044 -7.4703 29.0019 -24.5865
# 2 5.5319 88.1579 10.0185 -6.4519 7.8204 -8.0418
# 3 13.0044 10.0185 75.6078 8.3955 30.3751 -21.4440
# 4 -7.4703 -6.4519 8.3955 26.8773 1.0432 4.7086
# 5 29.0019 7.8204 30.3751 1.0432 34.2883 -11.5850
# 6 -24.5865 -8.0418 -21.4440 4.7086 -11.5850 36.2339
#
#
#
# Elastic Compliance Matrix: (Units=1/GPa)
#
#
# Indices 1 2 3 4 5 6 
#
# 1 0.017434 0.000762 0.006511 0.001906 -0.017347 0.010058
# 2 0.000762 0.011952 -0.000659 0.003091 -0.002329 0.001633
# 3 0.006511 -0.000659 0.026564 -0.008042 -0.024144 0.013318
# 4 0.001906 0.003091 -0.008042 0.042365 0.000806 -0.008028
# 5 -0.017347 -0.002329 -0.024144 0.000806 0.063587 -0.006351
# 6 0.010058 0.001633 0.013318 -0.008028 -0.006351 0.041680
#
#
# Mechanical properties :
#
#
# Convention : Reuss Voigt Hill
#
# Bulk Modulus (GPa) = 14.45573 35.22161 24.83867
# Shear Modulus (GPa) = 23.42861 34.90191 29.16526
#
# Velocity S-wave (km/s) = 3.03642 3.70607 3.38783
# Velocity P-wave (km/s) = 4.24051 5.67222 5.00779
#
# Compressibility (1/GPa) = 0.06917672
#
# Stress axis : x y z
#
# Youngs Moduli (GPa) = 57.35889 83.66670 37.64525
#
# Poissons Ratio (x) = -0.06375 -0.24509
# Poissons Ratio (y) = -0.04371 0.02482
# Poissons Ratio (z) = -0.37344 0.05516
#
# Static dielectric constant tensor:
#      x y z
#    x 2.087040 -0.016950 0.017520 
#    y -0.016950 2.340220 -0.066150 
#    z 0.017520 -0.066150 2.013060 
# 
# From -- ./inp_files/510831.got.cif
#   From: 2010.05.17/outbox.cif.g08.bks.cpg/sg2_256_cif.got.tgz:510831.got - 2010.06.03 11:33:40.
