data_PCOD9054069
_publ_section_title
;
Structure prediction by ZEFSAII (Michael W. Deem and Ramdas Pophale) SiO2 
 PCOD9054069
Probable space group: P -1
;
_chemical_formula_sum "Si O2"
_cell_formula_units_Z 15
_cell_length_a 15.846491
_cell_length_b 6.719831
_cell_length_c 7.253484
_cell_angle_alpha 62.822432
_cell_angle_beta 52.365855
_cell_angle_gamma 78.447014
_cell_volume 540.746117
_symmetry_space_group_name_H-M "P -1"
_symmetry_group_IT_number 2
_symmetry_cell_setting 'triclinic'
loop_
_space_group_symop_operation_xyz
x,y,z
-x,-y,-z
loop_
_atom_site_type_symbol
_atom_site_label
_atom_site_fract_x
_atom_site_fract_y
_atom_site_fract_z
Si Si1 0.858358 0.977004 0.730920
Si Si2 0.500000 0.500000 0.500000
Si Si3 0.620208 0.992056 0.141542
Si Si4 0.301902 0.819654 0.660281
Si Si5 0.433735 0.668217 0.206626
Si Si6 0.888197 0.541911 0.038033
Si Si7 0.756366 0.692666 0.486007
Si Si8 0.955863 0.745875 0.465306
O O1 0.910168 0.019155 0.446233
O O2 0.733969 0.976552 0.897881
O O3 0.902067 0.722119 0.772633
O O4 0.919984 0.121156 0.743387
O O5 0.572075 0.742623 0.366917
O O6 0.533410 0.562816 0.203141
O O7 0.650498 0.144075 0.215379
O O8 0.549783 0.118385 0.038088
O O9 0.385407 0.701180 0.469146
O O10 0.189843 0.666739 0.845669
O O11 0.289332 0.073513 0.515054
O O12 0.340250 0.505630 0.304603
O O13 0.815384 0.675220 0.215672
O O14 0.000000 0.500000 0.000000
O O15 0.852948 0.671909 0.501582
O O16 0.000000 0.500000 0.500000
#
# Coordination Sequence:
#
# PCOD9054069 Si02
#       8
#     2   1   2   2   2   2   2   2
#     4   9  19  41  65  97 139 177 227 276 322 404
#     4  12  26  52  72 102 138 164 238 290 334 420
#     4  12  23  47  73  97 139 180 220 288 344 393
#     4  11  21  41  71  99 136 178 227 274 340 405
#     4  11  26  45  71 104 134 176 227 284 342 409
#     4   9  19  37  59  94 136 178 225 275 314 397
#     4  11  20  40  66  99 139 179 223 275 330 397
#     4   9  19  37  66  94 140 186 217 270 338 386
#
# _framework density 27.739446999999998
#
# number of rings (size 3 to 8) (size 9 to 14) (size 15 to 20)
#    0.800    0.800    2.667    2.800    0.000    1.067 
#    2.400    4.667    2.933    0.000    0.000    0.000 
#    0.000    0.000    0.000    0.000    0.000    0.000 
#
# Total GULP energy -83605.167771 kJ/mol
# GULP energy per Si atom -5573.677851 kJ/mol
# Density = 2.767631 g / cm^3
# Si number density = 27.739447 Si / 1000 Ang^3
#
#
#
# Elastic Constant Matrix: (Units=GPa)
#
#
# Indices 1 2 3 4 5 6 
#
# 1 184.9376 50.3482 36.3846 -16.9464 13.6382 33.3061
# 2 50.3482 174.0869 57.0138 -4.8051 -10.7677 18.5262
# 3 36.3846 57.0138 86.3171 -17.2944 9.4624 17.0076
# 4 -16.9464 -4.8051 -17.2944 55.6042 0.9266 -9.5025
# 5 13.6382 -10.7677 9.4624 0.9266 56.1314 -5.7779
# 6 33.3061 18.5262 17.0076 -9.5025 -5.7779 57.2007
#
#
#
# Elastic Compliance Matrix: (Units=1/GPa)
#
#
# Indices 1 2 3 4 5 6 
#
# 1 0.006821 -0.001467 -0.000784 0.001183 -0.002164 -0.003285
# 2 -0.001467 0.008040 -0.005263 -0.001461 0.002795 -0.000145
# 3 -0.000784 -0.005263 0.017218 0.004275 -0.004066 -0.002659
# 4 0.001183 -0.001461 0.004275 0.019857 -0.001444 0.001666
# 5 -0.002164 0.002795 -0.004066 -0.001444 0.019930 0.003337
# 6 -0.003285 -0.000145 -0.002659 0.001666 0.003337 0.020847
#
#
# Mechanical properties :
#
#
# Convention : Reuss Voigt Hill
#
# Bulk Modulus (GPa) = 58.65069 81.42608 70.03839
# Shear Modulus (GPa) = 44.08232 53.89358 48.98795
#
# Velocity S-wave (km/s) = 3.99075 4.41256 4.20694
# Velocity P-wave (km/s) = 6.51338 7.44167 6.99295
#
# Compressibility (1/GPa) = 0.01705010
#
# Stress axis : x y z
#
# Youngs Moduli (GPa) = 146.61456 124.37554 58.07905
#
# Poissons Ratio (x) = 0.18250 0.04556
# Poissons Ratio (y) = 0.21513 0.30565
# Poissons Ratio (z) = 0.11500 0.65454
#
# Static dielectric constant tensor:
#      x y z
#    x 1.858190 0.370090 0.071760 
#    y 0.370090 1.968260 0.132040 
#    z 0.071760 0.132040 2.255910 
# 
# From -- ./inp_files/323295.got.cif
#   From: 2010.05.17/outbox.cif.g08.bks.cpg/sg2_162_cif.got.tgz:323295.got - 2010.06.03 11:33:40.
