data_PCOD9054771
_publ_section_title
;
Structure prediction by ZEFSAII (Michael W. Deem and Ramdas Pophale) SiO2 
 PCOD9054771
Probable space group: P -1
;
_chemical_formula_sum "Si O2"
_cell_formula_units_Z 16
_cell_length_a 19.157578
_cell_length_b 16.022825
_cell_length_c 9.511064
_cell_angle_alpha 49.934136
_cell_angle_beta 58.175700
_cell_angle_gamma 20.690082
_cell_volume 758.571447
_symmetry_space_group_name_H-M "P -1"
_symmetry_group_IT_number 2
_symmetry_cell_setting 'triclinic'
loop_
_space_group_symop_operation_xyz
x,y,z
-x,-y,-z
loop_
_atom_site_type_symbol
_atom_site_label
_atom_site_fract_x
_atom_site_fract_y
_atom_site_fract_z
Si Si1 0.970290 0.687662 0.005768
Si Si2 0.001165 0.106944 0.975984
Si Si3 0.446320 0.389551 0.108697
Si Si4 0.665275 0.702614 0.162499
Si Si5 0.369042 0.859267 0.335550
Si Si6 0.989687 0.412377 0.317692
Si Si7 0.112659 0.199524 0.708153
Si Si8 0.410764 0.568346 0.241097
O O1 0.954942 0.575973 0.118922
O O2 0.982659 0.684639 0.162230
O O3 0.170053 0.490075 0.929484
O O4 0.766451 0.987531 0.827684
O O5 0.762652 0.414211 0.928207
O O6 0.165193 0.888907 0.162641
O O7 0.091073 0.097719 0.800039
O O8 0.000000 0.000000 0.000000
O O9 0.487165 0.443533 0.906196
O O10 0.431071 0.457837 0.208776
O O11 0.646182 0.070294 0.239750
O O12 0.543306 0.738603 0.261438
O O13 0.804132 0.560939 0.304901
O O14 0.500000 0.000000 0.000000
O O15 0.476986 0.620959 0.540898
O O16 0.200247 0.108828 0.357246
O O17 0.009772 0.392243 0.485728
#
# Coordination Sequence:
#
# PCOD9054771 Si02
#       8
#     2   2   2   2   2   2   2   2
#     4  11  24  41  57  87 130 161 195 247 299 359
#     4   9  20  35  57  90 122 150 194 249 296 355
#     4   9  18  36  57  86 123 146 189 254 298 344
#     4  11  21  40  62  83 119 161 207 246 286 348
#     4  11  21  38  64  88 116 160 206 243 295 354
#     4  11  22  38  63  89 117 161 207 244 288 359
#     4  11  23  38  60  93 124 157 196 246 311 352
#     4   9  18  33  60  89 110 148 204 245 291 349
#
# _framework density 21.092278
#
# number of rings (size 3 to 8) (size 9 to 14) (size 15 to 20)
#    0.000    1.750    3.750    1.875    3.500    2.000 
#    0.000    3.125    0.000    4.500    0.000    0.000 
#    0.000    0.000    0.000    0.000    0.000    0.000 
#
# Total GULP energy -89360.349898 kJ/mol
# GULP energy per Si atom -5585.021869 kJ/mol
# Density = 2.104427 g / cm^3
# Si number density = 21.092278 Si / 1000 Ang^3
#
#
#
# Elastic Constant Matrix: (Units=GPa)
#
#
# Indices 1 2 3 4 5 6 
#
# 1 48.9944 25.8082 21.4853 5.1152 12.0764 -15.6540
# 2 25.8082 105.1209 43.5279 -13.6050 26.5208 -37.3599
# 3 21.4853 43.5279 150.0845 -9.4590 19.8692 -11.9679
# 4 5.1152 -13.6050 -9.4590 28.6801 5.8495 8.5873
# 5 12.0764 26.5208 19.8692 5.8495 26.1482 2.7036
# 6 -15.6540 -37.3599 -11.9679 8.5873 2.7036 32.8867
#
#
#
# Elastic Compliance Matrix: (Units=1/GPa)
#
#
# Indices 1 2 3 4 5 6 
#
# 1 0.031697 0.006119 -0.002072 -0.006684 -0.020329 0.024701
# 2 0.006119 0.040945 -0.001078 0.013638 -0.051727 0.049725
# 3 -0.002072 -0.001078 0.008170 0.003488 -0.004965 0.000259
# 4 -0.006684 0.013638 0.003488 0.047718 -0.024393 0.003126
# 5 -0.020329 -0.051727 -0.004965 -0.024393 0.116924 -0.073489
# 6 0.024701 0.049725 0.000259 0.003126 -0.073489 0.103974
#
#
# Mechanical properties :
#
#
# Convention : Reuss Voigt Hill
#
# Bulk Modulus (GPa) = 11.52772 53.98252 32.75512
# Shear Modulus (GPa) = 13.42617 31.76824 22.59721
#
# Velocity S-wave (km/s) = 2.52572 3.88513 3.27670
# Velocity P-wave (km/s) = 3.73937 6.76570 5.46615
#
# Compressibility (1/GPa) = 0.08674740
#
# Stress axis : x y z
#
# Youngs Moduli (GPa) = 31.54893 24.42321 122.39907
#
# Poissons Ratio (x) = -0.14943 0.25366
# Poissons Ratio (y) = -0.19303 0.13196
# Poissons Ratio (z) = 0.06538 0.02633
#
# Static dielectric constant tensor:
#      x y z
#    x 1.801000 0.047570 0.009710 
#    y 0.047570 1.794770 -0.012770 
#    z 0.009710 -0.012770 1.761130 
# 
# From -- ./inp_files/335407.got.cif
#   From: 2010.05.17/outbox.cif.g08.bks.cpg/sg2_168_cif.got.tgz:335407.got - 2010.06.03 11:33:40.
