data_PCOD9054493
_publ_section_title
;
Structure prediction by ZEFSAII (Michael W. Deem and Ramdas Pophale) SiO2 
 PCOD9054493
Probable space group: P -1
;
_chemical_formula_sum "Si O2"
_cell_formula_units_Z 14
_cell_length_a 24.397971
_cell_length_b 13.167337
_cell_length_c 18.820050
_cell_angle_alpha 25.446482
_cell_angle_beta 11.998505
_cell_angle_gamma 27.525871
_cell_volume 539.621196
_symmetry_space_group_name_H-M "P -1"
_symmetry_group_IT_number 2
_symmetry_cell_setting 'triclinic'
loop_
_space_group_symop_operation_xyz
x,y,z
-x,-y,-z
loop_
_atom_site_type_symbol
_atom_site_label
_atom_site_fract_x
_atom_site_fract_y
_atom_site_fract_z
Si Si1 0.231822 0.117503 0.583821
Si Si2 0.538968 0.751330 0.650283
Si Si3 0.113079 0.451690 0.299969
Si Si4 0.962986 0.500957 0.187073
Si Si5 0.075344 0.943997 0.664296
Si Si6 0.472400 0.659728 0.266418
Si Si7 0.639230 0.787687 0.209950
O O1 0.452938 0.178187 0.322808
O O2 0.115769 0.357136 0.546154
O O3 0.375598 0.952879 0.445671
O O4 0.000000 0.000000 0.000000
O O5 0.821110 0.611394 0.365987
O O6 0.500000 0.000000 0.500000
O O7 0.326864 0.579674 0.995599
O O8 0.045262 0.198654 0.576211
O O9 0.245298 0.376577 0.104108
O O10 0.736930 0.368283 0.514624
O O11 0.018072 0.730956 0.924411
O O12 0.223997 0.327375 0.961518
O O13 0.370383 0.886812 0.296592
O O14 0.871208 0.919008 0.873898
O O15 0.426884 0.434361 0.516501
#
# Coordination Sequence:
#
# PCOD9054493 Si02
#       7
#     2   2   2   2   2   2   2
#     4  12  22  38  63  85 113 155 204 234 283 352
#     4  11  21  39  63  85 115 153 202 240 275 350
#     4  11  21  34  60  89 116 154 190 239 294 342
#     4   8  17  34  61  86 114 153 193 240 286 336
#     4   9  17  31  58  88 118 150 188 238 301 340
#     4   8  14  30  57  84 109 153 198 227 275 351
#     4   9  17  35  58  84 117 154 195 236 281 347
#
# _framework density 25.944127000000002
#
# number of rings (size 3 to 8) (size 9 to 14) (size 15 to 20)
#    0.000    2.286    2.857    3.857    0.000    0.571 
#    0.000    3.571    3.143   12.000    0.000    2.000 
#    0.000    0.000    0.000    0.000    0.000    0.000 
#
# Total GULP energy -78340.270321 kJ/mol
# GULP energy per Si atom -5595.733594 kJ/mol
# Density = 2.588508 g / cm^3
# Si number density = 25.944127 Si / 1000 Ang^3
#
#
#
# Elastic Constant Matrix: (Units=GPa)
#
#
# Indices 1 2 3 4 5 6 
#
# 1 54.0244 34.8547 22.9337 11.7316 -11.5899 13.8633
# 2 34.8547 220.7933 63.8214 29.4026 7.3827 19.6241
# 3 22.9337 63.8214 77.7881 6.1124 -13.5913 4.4493
# 4 11.7316 29.4026 6.1124 63.0769 19.9813 9.9018
# 5 -11.5899 7.3827 -13.5913 19.9813 40.2069 12.5656
# 6 13.8633 19.6241 4.4493 9.9018 12.5656 37.0981
#
#
#
# Elastic Compliance Matrix: (Units=1/GPa)
#
#
# Indices 1 2 3 4 5 6 
#
# 1 0.029225 -0.002254 -0.002814 -0.006970 0.015327 -0.012723
# 2 -0.002254 0.006709 -0.005185 -0.001195 -0.002783 -0.000823
# 3 -0.002814 -0.005185 0.019394 -0.001206 0.007534 -0.000762
# 4 -0.006970 -0.001195 -0.001206 0.021828 -0.013735 0.002208
# 5 0.015327 -0.002783 0.007534 -0.013735 0.044333 -0.016509
# 6 -0.012723 -0.000823 -0.000762 0.002208 -0.016509 0.037239
#
#
# Mechanical properties :
#
#
# Convention : Reuss Voigt Hill
#
# Bulk Modulus (GPa) = 28.71690 66.20279 47.45985
# Shear Modulus (GPa) = 26.19965 43.47611 34.83788
#
# Velocity S-wave (km/s) = 3.18126 4.09804 3.66840
# Velocity P-wave (km/s) = 4.95849 6.92566 6.02293
#
# Compressibility (1/GPa) = 0.03482270
#
# Stress axis : x y z
#
# Youngs Moduli (GPa) = 34.21702 149.05127 51.56202
#
# Poissons Ratio (x) = 0.33591 0.14509
# Poissons Ratio (y) = 0.07711 0.26737
# Poissons Ratio (z) = 0.09628 0.77289
#
# Static dielectric constant tensor:
#      x y z
#    x 2.015250 0.016690 0.067400 
#    y 0.016690 2.006680 0.050910 
#    z 0.067400 0.050910 2.141680 
# 
# From -- ./inp_files/259598.got.cif
#   From: 2010.05.17/outbox.cif.g08.bks.cpg/sg2_130_cif.got.tgz:259598.got - 2010.06.03 11:33:40.
