data_PCOD9054729
_publ_section_title
;
Structure prediction by ZEFSAII (Michael W. Deem and Ramdas Pophale) SiO2 
 PCOD9054729
Probable space group: P -1
;
_chemical_formula_sum "Si O2"
_cell_formula_units_Z 14
_cell_length_a 9.237697
_cell_length_b 16.533516
_cell_length_c 14.353819
_cell_angle_alpha 150.451646
_cell_angle_beta 38.475651
_cell_angle_gamma 120.920122
_cell_volume 564.009281
_symmetry_space_group_name_H-M "P -1"
_symmetry_group_IT_number 2
_symmetry_cell_setting 'triclinic'
loop_
_space_group_symop_operation_xyz
x,y,z
-x,-y,-z
loop_
_atom_site_type_symbol
_atom_site_label
_atom_site_fract_x
_atom_site_fract_y
_atom_site_fract_z
Si Si1 0.019542 0.849240 0.639048
Si Si2 0.140553 0.497934 0.131526
Si Si3 0.257914 0.937891 0.431674
Si Si4 0.378575 0.285597 0.504495
Si Si5 0.412257 0.897028 0.594110
Si Si6 0.376896 0.292849 0.313215
Si Si7 0.272055 0.696893 0.020148
O O1 0.217614 0.615669 0.279401
O O2 0.125105 0.913889 0.737179
O O3 0.740065 0.846902 0.784164
O O4 0.088359 0.940428 0.608507
O O5 0.927936 0.653976 0.315635
O O6 0.902210 0.494778 0.308849
O O7 0.366046 0.300991 0.772629
O O8 0.529619 0.944509 0.316863
O O9 0.042047 0.135294 0.681172
O O10 0.336876 0.755155 0.143964
O O11 0.517077 0.128650 0.357948
O O12 0.533823 0.241151 0.281995
O O13 0.330702 0.483017 0.769361
O O14 0.539871 0.291894 0.142767
#
# Coordination Sequence:
#
# PCOD9054729 Si02
#       7
#     2   2   2   2   2   2   2
#     4   9  22  39  57  84 115 152 186 227 284 338
#     4   8  19  34  60  81 110 141 192 228 276 315
#     4  11  24  33  60  86 113 152 189 227 285 331
#     4   9  20  34  62  87 107 144 193 236 278 319
#     4  12  19  37  60  87 117 144 189 234 278 339
#     4   8  21  38  60  83 113 145 192 234 283 322
#     4  11  21  38  60  85 115 145 191 240 272 335
#
# _framework density 24.822286999999999
#
# number of rings (size 3 to 8) (size 9 to 14) (size 15 to 20)
#    1.714    0.286    1.429    2.571    8.000    0.571 
#    0.000    1.429    3.143    0.000    0.000    0.000 
#    0.000    0.000    0.000    0.000    0.000    0.000 
#
# Total GULP energy -78089.714941 kJ/mol
# GULP energy per Si atom -5577.836782 kJ/mol
# Density = 2.476579 g / cm^3
# Si number density = 24.822287 Si / 1000 Ang^3
#
#
#
# Elastic Constant Matrix: (Units=GPa)
#
#
# Indices 1 2 3 4 5 6 
#
# 1 101.0872 36.5070 12.0331 -19.0395 20.3780 19.9848
# 2 36.5070 90.7440 17.1325 -28.4663 14.9049 13.6182
# 3 12.0331 17.1325 61.7184 -15.1848 11.6152 0.7455
# 4 -19.0395 -28.4663 -15.1848 31.5466 1.4888 6.5863
# 5 20.3780 14.9049 11.6152 1.4888 37.6195 1.6594
# 6 19.9848 13.6182 0.7455 6.5863 1.6594 36.2750
#
#
#
# Elastic Compliance Matrix: (Units=1/GPa)
#
#
# Indices 1 2 3 4 5 6 
#
# 1 0.016370 0.001036 0.002183 0.014777 -0.010022 -0.011677
# 2 0.001036 0.021161 0.001740 0.023609 -0.009870 -0.012385
# 3 0.002183 0.001740 0.020408 0.014039 -0.008533 -0.004434
# 4 0.014777 0.023609 0.014039 0.076052 -0.023378 -0.030031
# 5 -0.010022 -0.009870 -0.008533 -0.023378 0.038958 0.011865
# 6 -0.011677 -0.012385 -0.004434 -0.030031 0.011865 0.043651
#
#
# Mechanical properties :
#
#
# Convention : Reuss Voigt Hill
#
# Bulk Modulus (GPa) = 14.73697 42.76609 28.75153
# Shear Modulus (GPa) = 21.80544 33.61334 27.70939
#
# Velocity S-wave (km/s) = 2.96710 3.68388 3.34475
# Velocity P-wave (km/s) = 4.20573 5.94651 5.15020
#
# Compressibility (1/GPa) = 0.06785657
#
# Stress axis : x y z
#
# Youngs Moduli (GPa) = 61.08569 47.25711 49.00151
#
# Poissons Ratio (x) = -0.04895 -0.10699
# Poissons Ratio (y) = -0.06327 -0.08525
# Poissons Ratio (z) = -0.13338 -0.08221
#
# Static dielectric constant tensor:
#      x y z
#    x 2.040380 -0.016390 -0.074430 
#    y -0.016390 1.979270 -0.020390 
#    z -0.074430 -0.020390 2.049490 
# 
# From -- ./inp_files/394689.got.cif
#   From: 2010.05.17/outbox.cif.g08.bks.cpg/sg2_198_cif.got.tgz:394689.got - 2010.06.03 11:33:40.
