data_PCOD9054874
_publ_section_title
;
Structure prediction by ZEFSAII (Michael W. Deem and Ramdas Pophale) SiO2 
 PCOD9054874
Probable space group: P -1
;
_chemical_formula_sum "Si O2"
_cell_formula_units_Z 16
_cell_length_a 10.865748
_cell_length_b 12.634802
_cell_length_c 10.177615
_cell_angle_alpha 124.260486
_cell_angle_beta 40.441800
_cell_angle_gamma 101.899468
_cell_volume 681.695668
_symmetry_space_group_name_H-M "P -1"
_symmetry_group_IT_number 2
_symmetry_cell_setting 'triclinic'
loop_
_space_group_symop_operation_xyz
x,y,z
-x,-y,-z
loop_
_atom_site_type_symbol
_atom_site_label
_atom_site_fract_x
_atom_site_fract_y
_atom_site_fract_z
Si Si1 0.533250 0.937504 0.781121
Si Si2 0.945701 0.138725 0.053165
Si Si3 0.266256 0.419872 0.097525
Si Si4 0.633818 0.883791 0.206783
Si Si5 0.699275 0.618822 0.453148
Si Si6 0.791382 0.434175 0.491340
Si Si7 0.997329 0.110203 0.687494
Si Si8 0.182365 0.581008 0.018359
O O1 0.545499 0.780066 0.666401
O O2 0.761795 0.912139 0.523822
O O3 0.376463 0.042683 0.875037
O O4 0.500000 0.000000 0.000000
O O5 0.149161 0.168123 0.929723
O O6 0.932888 0.103801 0.886504
O O7 0.781759 0.288676 0.348914
O O8 0.000000 0.000000 0.000000
O O9 0.288725 0.513265 0.262274
O O10 0.287005 0.490133 0.995502
O O11 0.028992 0.427287 0.298677
O O12 0.411979 0.253414 0.871993
O O13 0.500000 0.000000 0.500000
O O14 0.674482 0.558265 0.570306
O O15 0.937886 0.605839 0.241734
O O16 0.704952 0.509279 0.261824
O O17 0.841811 0.261638 0.865505
O O18 0.000000 0.000000 0.500000
#
# Coordination Sequence:
#
# PCOD9054874 Si02
#       8
#     2   2   2   2   2   2   2   2
#     4  11  23  37  62  92 119 155 190 242 300 350
#     4  11  24  39  62  86 118 160 195 241 295 349
#     4   9  18  29  55  86 111 145 189 249 288 330
#     4  11  21  39  61  89 123 154 196 239 296 354
#     4   9  16  31  55  81 111 144 192 242 282 333
#     4   9  17  33  53  83 114 142 198 244 283 331
#     4  11  24  40  60  87 121 154 197 244 291 352
#     4   9  17  31  56  82 108 145 194 242 288 326
#
# _framework density 23.470884999999999
#
# number of rings (size 3 to 8) (size 9 to 14) (size 15 to 20)
#    0.000    2.000    2.500    1.500    7.000    2.000 
#    0.000    0.000    0.000    9.000    0.000    0.000 
#    0.000    0.000    0.000    0.000    0.000    0.000 
#
# Total GULP energy -89364.189095 kJ/mol
# GULP energy per Si atom -5585.261818 kJ/mol
# Density = 2.341746 g / cm^3
# Si number density = 23.470885 Si / 1000 Ang^3
#
#
#
# Elastic Constant Matrix: (Units=GPa)
#
#
# Indices 1 2 3 4 5 6 
#
# 1 77.1472 28.5966 49.5231 6.4366 23.7101 -12.6905
# 2 28.5966 135.0816 71.9302 33.9209 40.2718 -30.5135
# 3 49.5231 71.9302 129.1094 24.6331 45.0630 -19.0718
# 4 6.4366 33.9209 24.6331 47.1778 8.5351 3.5334
# 5 23.7101 40.2718 45.0630 8.5351 57.6010 -12.4166
# 6 -12.6905 -30.5135 -19.0718 3.5334 -12.4166 38.3913
#
#
#
# Elastic Compliance Matrix: (Units=1/GPa)
#
#
# Indices 1 2 3 4 5 6 
#
# 1 0.017733 0.000643 -0.005979 0.000524 -0.002608 0.002511
# 2 0.000643 0.015064 -0.004071 -0.008743 -0.004248 0.009593
# 3 -0.005979 -0.004071 0.015039 -0.003098 -0.005859 0.000649
# 4 0.000524 -0.008743 -0.003098 0.029508 0.001688 -0.010485
# 5 -0.002608 -0.004248 -0.005859 0.001688 0.025974 0.001096
# 6 0.002511 0.009593 0.000649 -0.010485 0.001096 0.036144
#
#
# Mechanical properties :
#
#
# Convention : Reuss Voigt Hill
#
# Bulk Modulus (GPa) = 34.45827 71.27090 52.86459
# Shear Modulus (GPa) = 29.77086 41.38659 35.57872
#
# Velocity S-wave (km/s) = 3.56535 4.20374 3.89764
# Velocity P-wave (km/s) = 5.62691 7.34803 6.54430
#
# Compressibility (1/GPa) = 0.02902061
#
# Stress axis : x y z
#
# Youngs Moduli (GPa) = 56.39303 66.38526 66.49531
#
# Poissons Ratio (x) = -0.04266 0.39756
# Poissons Ratio (y) = -0.03624 0.27070
# Poissons Ratio (z) = 0.33716 0.27025
#
# Static dielectric constant tensor:
#      x y z
#    x 1.900440 0.064900 -0.070790 
#    y 0.064900 1.876210 0.018970 
#    z -0.070790 0.018970 1.911260 
# 
# From -- ./inp_files/259984.got.cif
#   From: 2010.05.17/outbox.cif.g08.bks.cpg/sg2_130_cif.got.tgz:259984.got - 2010.06.03 11:33:40.
