data_PCOD9054849
_publ_section_title
;
Structure prediction by ZEFSAII (Michael W. Deem and Ramdas Pophale) SiO2 
 PCOD9054849
Probable space group: P -1
;
_chemical_formula_sum "Si O2"
_cell_formula_units_Z 16
_cell_length_a 9.078715
_cell_length_b 12.146403
_cell_length_c 8.381697
_cell_angle_alpha 105.152522
_cell_angle_beta 70.376460
_cell_angle_gamma 127.013287
_cell_volume 693.011397
_symmetry_space_group_name_H-M "P -1"
_symmetry_group_IT_number 2
_symmetry_cell_setting 'triclinic'
loop_
_space_group_symop_operation_xyz
x,y,z
-x,-y,-z
loop_
_atom_site_type_symbol
_atom_site_label
_atom_site_fract_x
_atom_site_fract_y
_atom_site_fract_z
Si Si1 0.398849 0.004509 0.217425
Si Si2 0.404184 0.591091 0.746817
Si Si3 0.524689 0.193354 0.959179
Si Si4 0.302979 0.680747 0.360603
Si Si5 0.848593 0.982281 0.419889
Si Si6 0.974093 0.445287 0.170003
Si Si7 0.815569 0.177040 0.284539
Si Si8 0.387772 0.329651 0.610466
O O1 0.298627 0.010178 0.411123
O O2 0.618613 0.078630 0.221397
O O3 0.327996 0.853919 0.117843
O O4 0.386109 0.087427 0.106465
O O5 0.238433 0.598972 0.734363
O O6 0.335501 0.433765 0.722744
O O7 0.584175 0.664419 0.590129
O O8 0.436029 0.665676 0.931499
O O9 0.525368 0.208246 0.775878
O O10 0.237055 0.755700 0.527504
O O11 0.401950 0.614582 0.383715
O O12 0.127501 0.567848 0.274198
O O13 0.756294 0.825569 0.339992
O O14 0.890584 0.090526 0.304694
O O15 0.000000 0.000000 0.500000
O O16 0.961816 0.306366 0.166601
O O17 0.000000 0.500000 0.000000
#
# Coordination Sequence:
#
# PCOD9054849 Si02
#       8
#     2   2   2   2   2   2   2   2
#     4  11  21  42  69  97 132 174 229 276 331 411
#     4  11  23  44  67  95 141 174 227 279 338 405
#     4  11  21  38  70  98 127 180 221 279 338 392
#     4  12  22  39  69 100 129 176 228 279 332 402
#     4  12  25  42  66 101 137 177 225 283 339 395
#     4  12  24  43  67 103 136 173 226 285 338 393
#     4  12  23  43  68 100 135 176 238 272 326 415
#     4  11  25  43  67  97 135 181 225 278 338 405
#
# _framework density 23.087644999999998
#
# number of rings (size 3 to 8) (size 9 to 14) (size 15 to 20)
#    0.000    0.500    7.500    1.500    1.750    1.500 
#    0.000    0.000    0.000    4.500    0.000    0.000 
#    0.000    0.000    0.000    0.000    0.000    0.000 
#
# Total GULP energy -89125.775066 kJ/mol
# GULP energy per Si atom -5570.360942 kJ/mol
# Density = 2.303510 g / cm^3
# Si number density = 23.087645 Si / 1000 Ang^3
#
#
#
# Elastic Constant Matrix: (Units=GPa)
#
#
# Indices 1 2 3 4 5 6 
#
# 1 35.7433 16.1203 -19.7464 -2.5954 25.3798 -14.9551
# 2 16.1203 136.8084 35.3395 -6.8145 5.1258 -38.9337
# 3 -19.7464 35.3395 65.5984 -6.6299 12.4081 -18.4388
# 4 -2.5954 -6.8145 -6.6299 44.7383 -11.1654 3.4587
# 5 25.3798 5.1258 12.4081 -11.1654 27.0746 7.1407
# 6 -14.9551 -38.9337 -18.4388 3.4587 7.1407 39.6470
#
#
#
# Elastic Compliance Matrix: (Units=1/GPa)
#
#
# Indices 1 2 3 4 5 6 
#
# 1 -0.021843 -0.000790 -0.020368 0.007631 0.040061 -0.026369
# 2 -0.000790 0.010990 -0.002998 -0.000200 -0.002576 0.009582
# 3 -0.020368 -0.002998 0.002609 0.006039 0.024753 -0.014399
# 4 0.007631 -0.000200 0.006039 0.023029 -0.001369 0.003729
# 5 0.040061 -0.002576 0.024753 -0.001369 -0.019344 0.027697
# 6 -0.026369 0.009582 -0.014399 0.003729 0.027697 0.012675
#
#
# Mechanical properties :
#
#
# Convention : Reuss Voigt Hill
#
# Bulk Modulus (GPa) = -17.68171 33.50856 7.91343
# Shear Modulus (GPa) = 133.05900 36.05443 84.55672
#
# Velocity S-wave (km/s) = 7.59982 3.95604 6.05836
# Velocity P-wave (km/s) = 8.32673 5.95081 7.23694
#
# Compressibility (1/GPa) = -0.05655562
#
# Stress axis : x y z
#
# Youngs Moduli (GPa) = -45.78101 90.98850 383.22864
#
# Poissons Ratio (x) = 0.07187 7.80560
# Poissons Ratio (y) = -0.03616 1.14904
# Poissons Ratio (z) = -0.93247 0.27281
#
# Static dielectric constant tensor:
#      x y z
#    x 1.878150 0.018160 0.065410 
#    y 0.018160 1.985790 -0.031360 
#    z 0.065410 -0.031360 1.968020 
# 
# From -- ./inp_files/180211.got.cif
#   From: 2010.05.17/outbox.cif.g08.bks.cpg/sg2_91_cif.got.tgz:180211.got - 2010.06.03 11:33:40.
