data_PCOD9054948
_publ_section_title
;
Structure prediction by ZEFSAII (Michael W. Deem and Ramdas Pophale) SiO2 
 PCOD9054948
Probable space group: P -1
;
_chemical_formula_sum "Si O2"
_cell_formula_units_Z 16
_cell_length_a 8.757594
_cell_length_b 20.038679
_cell_length_c 12.749227
_cell_angle_alpha 137.192186
_cell_angle_beta 52.353562
_cell_angle_gamma 150.164697
_cell_volume 754.230742
_symmetry_space_group_name_H-M "P -1"
_symmetry_group_IT_number 2
_symmetry_cell_setting 'triclinic'
loop_
_space_group_symop_operation_xyz
x,y,z
-x,-y,-z
loop_
_atom_site_type_symbol
_atom_site_label
_atom_site_fract_x
_atom_site_fract_y
_atom_site_fract_z
Si Si1 0.966097 0.714031 0.366104
Si Si2 0.598171 0.630573 0.712460
Si Si3 0.199221 0.677607 0.627752
Si Si4 0.717536 0.803118 0.687471
Si Si5 0.783167 0.199767 0.436511
Si Si6 0.348004 0.842010 0.155322
Si Si7 0.800260 0.851769 0.054082
Si Si8 0.840379 0.172407 0.019150
O O1 0.662804 0.529143 0.300117
O O2 0.901944 0.796746 0.534455
O O3 0.233027 0.782697 0.413517
O O4 0.069447 0.752881 0.249005
O O5 0.489134 0.659014 0.698593
O O6 0.850771 0.665749 0.587485
O O7 0.799750 0.775957 0.872494
O O8 0.517978 0.784505 0.672209
O O9 0.295636 0.749731 0.555044
O O10 0.000000 0.500000 0.500000
O O11 0.055962 0.704352 0.795545
O O12 0.938839 0.962678 0.840777
O O13 0.596778 0.027577 0.287156
O O14 0.497311 0.798712 0.088406
O O15 0.227989 0.807100 0.044643
O O16 0.912004 0.820791 0.066763
O O17 0.500000 0.000000 0.000000
#
# Coordination Sequence:
#
# PCOD9054948 Si02
#       8
#     2   2   2   2   2   2   2   2
#     4  11  25  43  63  98 142 178 225 277 341 401
#     4  11  21  39  67  96 131 171 231 286 326 397
#     4  12  23  40  69 106 135 168 225 299 343 380
#     4  11  22  38  69  99 127 181 231 272 340 401
#     4  11  21  41  70  97 131 175 232 278 330 408
#     4  12  25  45  70  98 143 186 221 279 338 406
#     4  12  23  40  72 101 131 181 228 277 342 398
#     4  12  24  44  70 105 133 171 239 281 327 415
#
# _framework density 21.213667000000001
#
# number of rings (size 3 to 8) (size 9 to 14) (size 15 to 20)
#    0.000    0.500    6.250    4.500    0.000    0.500 
#    2.250    1.875    0.000    0.000    0.000    0.000 
#    0.000    0.000    0.000    0.000    0.000    0.000 
#
# Total GULP energy -89091.913021 kJ/mol
# GULP energy per Si atom -5568.244564 kJ/mol
# Density = 2.116538 g / cm^3
# Si number density = 21.213667 Si / 1000 Ang^3
#
#
#
# Elastic Constant Matrix: (Units=GPa)
#
#
# Indices 1 2 3 4 5 6 
#
# 1 122.8858 0.0826 14.6659 -39.6063 -15.1727 -12.7183
# 2 0.0826 33.2293 17.4035 -67.1178 -39.6896 -20.2947
# 3 14.6659 17.4035 92.9439 -32.5630 -19.8920 -21.0664
# 4 -39.6063 -67.1178 -32.5630 -84.2757 -74.1468 -0.7671
# 5 -15.1727 -39.6896 -19.8920 -74.1468 -8.4886 -5.3449
# 6 -12.7183 -20.2947 -21.0664 -0.7671 -5.3449 20.0047
#
#
#
# Elastic Compliance Matrix: (Units=1/GPa)
#
#
# Indices 1 2 3 4 5 6 
#
# 1 0.008083 -0.001519 -0.001145 -0.000443 -0.001955 0.001853
# 2 -0.001519 0.017620 -0.004314 -0.008308 -0.003914 0.011002
# 3 -0.001145 -0.004314 0.013294 -0.001734 0.000556 0.008977
# 4 -0.000443 -0.008308 -0.001734 0.007532 -0.013386 -0.013824
# 5 -0.001955 -0.003914 0.000556 -0.013386 0.019556 0.000084
# 6 0.001853 0.011002 0.008977 -0.013824 0.000084 0.071273
#
#
# Mechanical properties :
#
#
# Convention : Reuss Voigt Hill
#
# Bulk Modulus (GPa) = 39.93602 34.81812 37.37707
# Shear Modulus (GPa) = 31.31605 -0.09145 15.61230
#
# Velocity S-wave (km/s) = 3.84633 -0.20785 2.71579
# Velocity P-wave (km/s) = 6.21226 4.04859 5.24324
#
# Compressibility (1/GPa) = 0.02504005
#
# Stress axis : x y z
#
# Youngs Moduli (GPa) = 123.72004 56.75287 75.22194
#
# Poissons Ratio (x) = 0.08623 0.08610
# Poissons Ratio (y) = 0.18797 0.32454
# Poissons Ratio (z) = 0.14162 0.24486
#
# Static dielectric constant tensor:
#      x y z
#    x 2.095820 -0.064320 -0.014900 
#    y -0.064320 1.764360 0.000550 
#    z -0.014900 0.000550 1.810050 
# 
# From -- ./inp_files/405560.got.cif
#   From: 2010.05.17/outbox.cif.g08.bks.cpg/sg2_203_cif.got.tgz:405560.got - 2010.06.03 11:33:40.
