data_PCOD9054541
_publ_section_title
;
Structure prediction by ZEFSAII (Michael W. Deem and Ramdas Pophale) SiO2 
 PCOD9054541
Probable space group: P -1
;
_chemical_formula_sum "Si O2"
_cell_formula_units_Z 16
_cell_length_a 11.215314
_cell_length_b 14.015499
_cell_length_c 7.970224
_cell_angle_alpha 84.189101
_cell_angle_beta 59.421098
_cell_angle_gamma 128.682681
_cell_volume 658.099614
_symmetry_space_group_name_H-M "P -1"
_symmetry_group_IT_number 2
_symmetry_cell_setting 'triclinic'
loop_
_space_group_symop_operation_xyz
x,y,z
-x,-y,-z
loop_
_atom_site_type_symbol
_atom_site_label
_atom_site_fract_x
_atom_site_fract_y
_atom_site_fract_z
Si Si1 0.923983 0.813688 0.049845
Si Si2 0.712106 0.625376 0.695036
Si Si3 0.729061 0.427374 0.560377
Si Si4 0.547399 0.134231 0.378703
Si Si5 0.626419 0.467321 0.275239
Si Si6 0.151930 0.880018 0.525554
Si Si7 0.311405 0.112225 0.856274
Si Si8 0.962913 0.387665 0.237651
O O1 0.740041 0.630560 0.212428
O O2 0.810942 0.853797 0.090911
O O3 0.061466 0.861709 0.775851
O O4 0.105781 0.923367 0.051072
O O5 0.763902 0.544073 0.615996
O O6 0.611328 0.638868 0.620489
O O7 0.945074 0.795444 0.569383
O O8 0.500000 0.500000 0.000000
O O9 0.643665 0.420135 0.442769
O O10 0.516631 0.247572 0.811051
O O11 0.928092 0.463234 0.360348
O O12 0.435518 0.141395 0.595815
O O13 0.811926 0.302876 0.187441
O O14 0.500000 0.000000 0.500000
O O15 0.407907 0.060934 0.316670
O O16 0.786378 0.502513 0.017682
O O17 0.145470 0.760637 0.555409
#
# Coordination Sequence:
#
# PCOD9054541 Si02
#       8
#     2   2   2   2   2   2   2   2
#     4   9  16  29  52  74 103 136 180 226 260 311
#     4  12  21  35  54  79 116 151 177 222 275 339
#     4  11  22  34  55  86 111 143 185 227 276 325
#     4   8  15  28  50  75 102 135 183 228 262 308
#     4  11  21  36  55  85 114 145 179 225 284 325
#     4   9  17  32  51  80 107 143 182 221 274 320
#     4   9  16  28  48  78 100 133 181 228 256 304
#     4   9  18  34  56  80 107 141 187 230 268 318
#
# _framework density 24.312429000000002
#
# number of rings (size 3 to 8) (size 9 to 14) (size 15 to 20)
#    0.000    2.250    3.750    1.500    0.000    0.500 
#    0.000    0.000    0.000    7.500    9.750    0.000 
#    0.000    0.000    0.000    0.000    0.000    0.000 
#
# Total GULP energy -89169.130682 kJ/mol
# GULP energy per Si atom -5573.070668 kJ/mol
# Density = 2.425709 g / cm^3
# Si number density = 24.312429 Si / 1000 Ang^3
#
#
#
# Elastic Constant Matrix: (Units=GPa)
#
#
# Indices 1 2 3 4 5 6 
#
# 1 80.7131 44.5288 24.3313 12.0185 -27.3989 4.9606
# 2 44.5288 119.7957 18.8435 -0.3720 -26.7497 5.0695
# 3 24.3313 18.8435 41.0465 13.2625 -18.6545 2.0912
# 4 12.0185 -0.3720 13.2625 31.5831 -3.5241 -25.7680
# 5 -27.3989 -26.7497 -18.6545 -3.5241 37.4526 3.4657
# 6 4.9606 5.0695 2.0912 -25.7680 3.4657 57.2934
#
#
#
# Elastic Compliance Matrix: (Units=1/GPa)
#
#
# Indices 1 2 3 4 5 6 
#
# 1 0.021819 -0.005152 -0.000556 -0.013534 0.011490 -0.008195
# 2 -0.005152 0.011347 -0.001962 0.004342 0.003651 0.001246
# 3 -0.000556 -0.001962 0.044455 -0.029124 0.019042 -0.015651
# 4 -0.013534 0.004342 -0.029124 0.078219 -0.017471 0.038087
# 5 0.011490 0.003651 0.019042 -0.017471 0.046729 -0.012697
# 6 -0.008195 0.001246 -0.015651 0.038087 -0.012697 0.036523
#
#
# Mechanical properties :
#
#
# Convention : Reuss Voigt Hill
#
# Bulk Modulus (GPa) = 16.05641 46.32915 31.19278
# Shear Modulus (GPa) = 18.16905 35.52259 26.84582
#
# Velocity S-wave (km/s) = 2.73667 3.82656 3.32656
# Velocity P-wave (km/s) = 4.07485 6.21455 5.25476
#
# Compressibility (1/GPa) = 0.06228042
#
# Stress axis : x y z
#
# Youngs Moduli (GPa) = 45.83131 88.12539 22.49482
#
# Poissons Ratio (x) = 0.45406 0.01251
# Poissons Ratio (y) = 0.23614 0.04414
# Poissons Ratio (z) = 0.02548 0.17291
#
# Static dielectric constant tensor:
#      x y z
#    x 2.048970 0.030390 -0.019350 
#    y 0.030390 2.088340 -0.088880 
#    z -0.019350 -0.088880 2.013070 
# 
# From -- ./inp_files/267812.got.cif
#   From: 2010.05.17/outbox.cif.g08.bks.cpg/sg2_134_cif.got.tgz:267812.got - 2010.06.03 11:33:40.
