data_PCOD9054183
_publ_section_title
;
Structure prediction by ZEFSAII (Michael W. Deem and Ramdas Pophale) SiO2 
 PCOD9054183
Probable space group: P -1
;
_chemical_formula_sum "Si O2"
_cell_formula_units_Z 14
_cell_length_a 7.885975
_cell_length_b 11.977659
_cell_length_c 7.831954
_cell_angle_alpha 99.190552
_cell_angle_beta 56.661720
_cell_angle_gamma 122.837980
_cell_volume 509.098730
_symmetry_space_group_name_H-M "P -1"
_symmetry_group_IT_number 2
_symmetry_cell_setting 'triclinic'
loop_
_space_group_symop_operation_xyz
x,y,z
-x,-y,-z
loop_
_atom_site_type_symbol
_atom_site_label
_atom_site_fract_x
_atom_site_fract_y
_atom_site_fract_z
Si Si1 0.059834 0.960617 0.662843
Si Si2 0.019506 0.775617 0.904785
Si Si3 0.259039 0.935148 0.232672
Si Si4 0.837408 0.323071 0.867573
Si Si5 0.583754 0.694036 0.702613
Si Si6 0.215476 0.619558 0.601183
Si Si7 0.520934 0.436009 0.799698
O O1 0.840058 0.820353 0.659055
O O2 0.113229 0.919665 0.803831
O O3 0.278398 0.007491 0.419530
O O4 0.944129 0.050383 0.749573
O O5 0.074109 0.693921 0.714162
O O6 0.121766 0.744959 0.006524
O O7 0.738542 0.703631 0.091009
O O8 0.192687 0.785911 0.277253
O O9 0.500000 0.000000 0.000000
O O10 0.052742 0.476438 0.755280
O O11 0.600517 0.319366 0.051177
O O12 0.468478 0.699466 0.588319
O O13 0.570141 0.554223 0.670712
O O14 0.278617 0.594179 0.371217
O O15 0.500000 0.500000 0.000000
#
# Coordination Sequence:
#
# PCOD9054183 Si02
#       7
#     2   2   2   2   2   2   2
#     4  11  25  43  68  95 126 170 220 270 317 375
#     4  11  24  41  62 103 133 161 217 267 321 385
#     4  11  25  46  69  90 124 175 224 264 321 380
#     4  11  22  42  69  92 135 176 211 264 318 387
#     4  11  20  41  66  97 131 167 214 258 320 397
#     4  11  24  40  65 100 137 173 204 258 333 383
#     4  12  23  36  62  99 137 168 208 259 323 388
#
# _framework density 27.499578
#
# number of rings (size 3 to 8) (size 9 to 14) (size 15 to 20)
#    0.000    0.857    5.714    2.143    2.000    3.429 
#    0.000    0.714    0.000    0.000    0.000    0.000 
#    0.000    0.000    0.000    0.000    0.000    0.000 
#
# Total GULP energy -78379.565714 kJ/mol
# GULP energy per Si atom -5598.540408 kJ/mol
# Density = 2.743699 g / cm^3
# Si number density = 27.499578 Si / 1000 Ang^3
#
#
#
# Elastic Constant Matrix: (Units=GPa)
#
#
# Indices 1 2 3 4 5 6 
#
# 1 86.3757 24.3613 28.8116 -3.5257 -4.4442 -24.5780
# 2 24.3613 112.6269 28.2174 13.0394 -6.0201 -33.1394
# 3 28.8116 28.2174 171.4913 19.5348 -33.2487 -7.0995
# 4 -3.5257 13.0394 19.5348 37.1640 -14.1727 -6.3901
# 5 -4.4442 -6.0201 -33.2487 -14.1727 46.2035 7.5396
# 6 -24.5780 -33.1394 -7.0995 -6.3901 7.5396 60.4151
#
#
#
# Elastic Compliance Matrix: (Units=1/GPa)
#
#
# Indices 1 2 3 4 5 6 
#
# 1 0.014453 -0.001437 -0.002469 0.003998 -0.000204 0.005250
# 2 -0.001437 0.011377 -0.001339 -0.003048 -0.001428 0.005355
# 3 -0.002469 -0.001339 0.007546 -0.002265 0.004595 -0.001665
# 4 0.003998 -0.003048 -0.002265 0.033021 0.008133 0.002166
# 5 -0.000204 -0.001428 0.004595 0.008133 0.027717 -0.002925
# 6 0.005250 0.005355 -0.001665 0.002166 -0.002925 0.022024
#
#
# Mechanical properties :
#
#
# Convention : Reuss Voigt Hill
#
# Bulk Modulus (GPa) = 43.69276 59.25271 51.47273
# Shear Modulus (GPa) = 37.24229 48.03008 42.63619
#
# Velocity S-wave (km/s) = 3.68405 4.18374 3.94182
# Velocity P-wave (km/s) = 5.83261 6.70312 6.28296
#
# Compressibility (1/GPa) = 0.02288709
#
# Stress axis : x y z
#
# Youngs Moduli (GPa) = 69.19112 87.89560 132.51357
#
# Poissons Ratio (x) = 0.12626 0.32724
# Poissons Ratio (y) = 0.09939 0.17738
# Poissons Ratio (z) = 0.17087 0.11766
#
# Static dielectric constant tensor:
#      x y z
#    x 2.214410 0.082000 0.115140 
#    y 0.082000 2.207720 0.008960 
#    z 0.115140 0.008960 2.177730 
# 
# From -- ./inp_files/175744.got.cif
#   From: 2010.05.17/outbox.cif.g08.bks.cpg/sg2_88_cif.got.tgz:175744.got - 2010.06.03 11:33:40.
