data_PCOD9054344
_publ_section_title
;
Structure prediction by ZEFSAII (Michael W. Deem and Ramdas Pophale) SiO2 
 PCOD9054344
Probable space group: P -1
;
_chemical_formula_sum "Si O2"
_cell_formula_units_Z 12
_cell_length_a 12.083729
_cell_length_b 5.449186
_cell_length_c 11.487300
_cell_angle_alpha 53.006304
_cell_angle_beta 127.814974
_cell_angle_gamma 118.521719
_cell_volume 470.147114
_symmetry_space_group_name_H-M "P -1"
_symmetry_group_IT_number 2
_symmetry_cell_setting 'triclinic'
loop_
_space_group_symop_operation_xyz
x,y,z
-x,-y,-z
loop_
_atom_site_type_symbol
_atom_site_label
_atom_site_fract_x
_atom_site_fract_y
_atom_site_fract_z
Si Si1 0.893108 0.327853 0.884408
Si Si2 0.630226 0.364746 0.063101
Si Si3 0.930780 0.699140 0.203359
Si Si4 0.794836 0.151458 0.541957
Si Si5 0.642734 0.599680 0.739105
Si Si6 0.336612 0.272016 0.638207
O O1 0.738805 0.402804 0.784011
O O2 0.962338 0.439455 0.774464
O O3 0.000000 0.500000 0.000000
O O4 0.890642 0.973447 0.019210
O O5 0.781346 0.486850 0.189072
O O6 0.617041 0.990465 0.171135
O O7 0.500000 0.500000 0.000000
O O8 0.648640 0.497816 0.906345
O O9 0.034933 0.820424 0.341708
O O10 0.754167 0.494755 0.425910
O O11 0.717390 0.952312 0.659003
O O12 0.735063 0.933626 0.457181
O O13 0.479939 0.501783 0.627113
#
# Coordination Sequence:
#
# PCOD9054344 Si02
#       6
#     2   2   2   2   2   2
#     4  11  20  42  74 114 139 184 258 322 359 414
#     4  12  27  50  76 110 152 199 249 312 376 451
#     4  11  24  43  74 110 150 193 251 310 376 442
#     4  12  27  49  77 110 152 200 251 312 373 446
#     4  12  24  49  82 107 148 196 262 312 363 444
#     4  12  29  48  73 114 158 201 240 305 390 453
#
# _framework density 25.523924000000001
#
# number of rings (size 3 to 8) (size 9 to 14) (size 15 to 20)
#    0.000    0.333    3.333    5.500    0.000    5.333 
#    0.000    0.000    0.000    0.000    0.000    0.000 
#    0.000    0.000    0.000    0.000    0.000    0.000 
#
# Total GULP energy -67209.393650 kJ/mol
# GULP energy per Si atom -5600.782804 kJ/mol
# Density = 2.546583 g / cm^3
# Si number density = 25.523924 Si / 1000 Ang^3
#
#
#
# Elastic Constant Matrix: (Units=GPa)
#
#
# Indices 1 2 3 4 5 6 
#
# 1 140.4921 52.0782 54.2324 -3.2481 16.9855 3.3868
# 2 52.0782 135.3163 51.7668 4.4971 14.2605 14.4746
# 3 54.2324 51.7668 123.5429 -8.7578 2.6412 -8.6422
# 4 -3.2481 4.4971 -8.7578 72.3411 4.8107 8.7827
# 5 16.9855 14.2605 2.6412 4.8107 53.3239 3.4649
# 6 3.3868 14.4746 -8.6422 8.7827 3.4649 53.4073
#
#
#
# Elastic Compliance Matrix: (Units=1/GPa)
#
#
# Indices 1 2 3 4 5 6 
#
# 1 0.009441 -0.002129 -0.003209 0.000375 -0.002283 -0.000454
# 2 -0.002129 0.010052 -0.003497 -0.000682 -0.001584 -0.002940
# 3 -0.003209 -0.003497 0.011207 0.001024 0.001133 0.002723
# 4 0.000375 -0.000682 0.001024 0.014320 -0.001153 -0.001953
# 5 -0.002283 -0.001584 0.001133 -0.001153 0.019975 -0.000349
# 6 -0.000454 -0.002940 0.002723 -0.001953 -0.000349 0.020334
#
#
# Mechanical properties :
#
#
# Convention : Reuss Voigt Hill
#
# Bulk Modulus (GPa) = 76.74807 79.50069 78.12438
# Shear Modulus (GPa) = 46.57946 51.89939 49.23943
#
# Velocity S-wave (km/s) = 4.27656 4.51417 4.39697
# Velocity P-wave (km/s) = 7.38374 7.64104 7.51349
#
# Compressibility (1/GPa) = 0.01302964
#
# Stress axis : x y z
#
# Youngs Moduli (GPa) = 105.91582 99.48670 89.22864
#
# Poissons Ratio (x) = 0.21184 0.28631
# Poissons Ratio (y) = 0.22553 0.31205
# Poissons Ratio (z) = 0.33986 0.34792
#
# Static dielectric constant tensor:
#      x y z
#    x 2.126760 -0.484190 0.117450 
#    y -0.484190 3.625790 -0.509390 
#    z 0.117450 -0.509390 2.257130 
# 
# From -- ./inp_files/360705.got.cif
#   From: 2010.05.17/outbox.cif.g08.bks.cpg/sg2_181_cif.got.tgz:360705.got - 2010.06.03 11:33:40.
