data_PCOD9054733
_publ_section_title
;
Structure prediction by ZEFSAII (Michael W. Deem and Ramdas Pophale) SiO2 
 PCOD9054733
Probable space group: P -1
;
_chemical_formula_sum "Si O2"
_cell_formula_units_Z 10
_cell_length_a 14.483952
_cell_length_b 8.963618
_cell_length_c 21.226105
_cell_angle_alpha 40.665308
_cell_angle_beta 17.602688
_cell_angle_gamma 30.176715
_cell_volume 378.068775
_symmetry_space_group_name_H-M "P -1"
_symmetry_group_IT_number 2
_symmetry_cell_setting 'triclinic'
loop_
_space_group_symop_operation_xyz
x,y,z
-x,-y,-z
loop_
_atom_site_type_symbol
_atom_site_label
_atom_site_fract_x
_atom_site_fract_y
_atom_site_fract_z
Si Si1 0.855622 0.311244 0.960238
Si Si2 0.638917 0.762891 0.769704
Si Si3 0.583574 0.624487 0.282178
Si Si4 0.784477 0.221526 0.669522
Si Si5 0.385408 0.267262 0.536205
O O1 0.581444 0.355055 0.066174
O O2 0.544066 0.620595 0.110252
O O3 0.265432 0.229706 0.693626
O O4 0.000000 0.000000 0.000000
O O5 0.002262 0.639978 0.520067
O O6 0.924275 0.606286 0.697545
O O7 0.308045 0.160531 0.854506
O O8 0.430393 0.699919 0.284653
O O9 0.746853 0.276333 0.297234
O O10 0.202341 0.832225 0.517357
O O11 0.500000 0.000000 0.500000
#
# Coordination Sequence:
#
# PCOD9054733 Si02
#       5
#     2   2   2   2   2
#     4  12  23  33  58  92 115 145 193 237 274 332
#     4   9  19  41  60  80 114 155 185 226 291 336
#     4   8  17  39  62  76 114 155 182 225 296 333
#     4   8  16  35  61  77 113 142 189 224 288 320
#     4  11  21  38  61  84 115 150 190 231 286 338
#
# _framework density 26.450215
#
# number of rings (size 3 to 8) (size 9 to 14) (size 15 to 20)
#    1.200    1.200    2.000    3.600    0.000    0.800 
#    0.000    5.000    0.000    0.000    0.000    0.000 
#    0.000    0.000    0.000    0.000    0.000    0.000 
#
# Total GULP energy -55675.730203 kJ/mol
# GULP energy per Si atom -5567.573020 kJ/mol
# Density = 2.639001 g / cm^3
# Si number density = 26.450215 Si / 1000 Ang^3
#
#
#
# Elastic Constant Matrix: (Units=GPa)
#
#
# Indices 1 2 3 4 5 6 
#
# 1 93.7394 22.3250 23.7810 -7.7537 0.1470 20.5684
# 2 22.3250 102.9135 33.0213 6.6044 30.4727 23.4550
# 3 23.7810 33.0213 93.9988 1.7604 43.3939 16.0788
# 4 -7.7537 6.6044 1.7604 -2.2278 -43.2370 -5.0319
# 5 0.1470 30.4727 43.3939 -43.2370 -4.4571 -3.5913
# 6 20.5684 23.4550 16.0788 -5.0319 -3.5913 44.0954
#
#
#
# Elastic Compliance Matrix: (Units=1/GPa)
#
#
# Indices 1 2 3 4 5 6 
#
# 1 0.012166 -0.000509 -0.001228 -0.000947 -0.001656 -0.005199
# 2 -0.000509 0.011172 -0.004105 0.003862 0.001853 -0.003617
# 3 -0.001228 -0.004105 0.012477 0.009717 -0.000317 -0.000710
# 4 -0.000947 0.003862 0.009717 0.015188 -0.022147 -0.005226
# 5 -0.001656 0.001853 -0.000317 -0.022147 0.001995 -0.002463
# 6 -0.005199 -0.003617 -0.000710 -0.005226 -0.002463 0.026489
#
#
# Mechanical properties :
#
#
# Convention : Reuss Voigt Hill
#
# Bulk Modulus (GPa) = 41.43987 49.87849 45.65918
# Shear Modulus (GPa) = 50.39628 21.58372 35.99000
#
# Velocity S-wave (km/s) = 4.36974 2.85969 3.69273
# Velocity P-wave (km/s) = 6.41565 5.45914 5.95663
#
# Compressibility (1/GPa) = 0.02413135
#
# Stress axis : x y z
#
# Youngs Moduli (GPa) = 82.19871 89.50654 80.14851
#
# Poissons Ratio (x) = 0.04559 0.09839
# Poissons Ratio (y) = 0.04186 0.32900
# Poissons Ratio (z) = 0.10090 0.36741
#
# Static dielectric constant tensor:
#      x y z
#    x 2.108750 -0.023150 -0.106500 
#    y -0.023150 2.126990 0.021650 
#    z -0.106500 0.021650 2.222720 
# 
# From -- ./inp_files/143994.got.cif
#   From: 2010.05.17/outbox.cif.g08.bks.cpg/sg2_72_cif.got.tgz:143994.got - 2010.06.03 11:33:40.
