data_PCOD9054933
_publ_section_title
;
Structure prediction by ZEFSAII (Michael W. Deem and Ramdas Pophale) SiO2 
 PCOD9054933
Probable space group: P -1
;
_chemical_formula_sum "Si O2"
_cell_formula_units_Z 16
_cell_length_a 11.880765
_cell_length_b 8.977618
_cell_length_c 11.034394
_cell_angle_alpha 138.500121
_cell_angle_beta 96.454451
_cell_angle_gamma 60.869888
_cell_volume 613.169159
_symmetry_space_group_name_H-M "P -1"
_symmetry_group_IT_number 2
_symmetry_cell_setting 'triclinic'
loop_
_space_group_symop_operation_xyz
x,y,z
-x,-y,-z
loop_
_atom_site_type_symbol
_atom_site_label
_atom_site_fract_x
_atom_site_fract_y
_atom_site_fract_z
Si Si1 0.094552 0.341418 0.761324
Si Si2 0.623375 0.275495 0.150784
Si Si3 0.433637 0.988740 0.230144
Si Si4 0.648572 0.175693 0.650445
Si Si5 0.932075 0.807998 0.835609
Si Si6 0.291094 0.114470 0.868063
Si Si7 0.160659 0.667202 0.320728
Si Si8 0.844200 0.428325 0.479023
O O1 0.007459 0.648929 0.874697
O O2 0.151783 0.276643 0.865322
O O3 0.998996 0.230563 0.663841
O O4 0.240955 0.142068 0.580244
O O5 0.493291 0.603388 0.310754
O O6 0.648704 0.175986 0.232724
O O7 0.574526 0.120330 0.968322
O O8 0.784025 0.121442 0.025018
O O9 0.403219 0.834111 0.230432
O O10 0.585719 0.919113 0.214730
O O11 0.311519 0.323294 0.437114
O O12 0.753395 0.264953 0.712185
O O13 0.042867 0.778426 0.735123
O O14 0.896653 0.606165 0.648734
O O15 0.250423 0.330242 0.103603
O O16 0.170654 0.710839 0.490675
#
# Coordination Sequence:
#
# PCOD9054933 Si02
#       8
#     2   2   2   2   2   2   2   2
#     4  11  24  42  64  97 128 169 210 264 315 380
#     4  11  22  39  67  94 125 167 216 262 309 380
#     4  11  21  39  66  97 122 168 213 269 303 375
#     4  12  25  41  64  99 133 156 211 274 326 351
#     4   9  18  37  65  91 120 164 215 255 301 376
#     4  12  23  40  69  91 129 173 217 248 314 391
#     4  11  22  41  69  94 124 170 214 264 308 381
#     4   9  17  36  66  93 117 161 225 257 295 371
#
# _framework density 26.093944
#
# number of rings (size 3 to 8) (size 9 to 14) (size 15 to 20)
#    0.000    1.250    6.250    2.250    1.750    1.000 
#    0.000    0.000    0.000    1.500    0.000    0.000 
#    0.000    0.000    0.000    0.000    0.000    0.000 
#
# Total GULP energy -89532.747197 kJ/mol
# GULP energy per Si atom -5595.796700 kJ/mol
# Density = 2.603455 g / cm^3
# Si number density = 26.093944 Si / 1000 Ang^3
#
#
#
# Elastic Constant Matrix: (Units=GPa)
#
#
# Indices 1 2 3 4 5 6 
#
# 1 121.4212 78.3115 57.5166 -9.4039 -36.5723 -11.7075
# 2 78.3115 167.2609 36.6853 5.8814 -31.9694 -15.0718
# 3 57.5166 36.6853 77.7051 15.3013 -38.6062 -4.1877
# 4 -9.4039 5.8814 15.3013 51.4602 -5.7661 -10.9381
# 5 -36.5723 -31.9694 -38.6062 -5.7661 47.2176 -1.4494
# 6 -11.7075 -15.0718 -4.1877 -10.9381 -1.4494 40.8127
#
#
#
# Elastic Compliance Matrix: (Units=1/GPa)
#
#
# Indices 1 2 3 4 5 6 
#
# 1 0.019795 -0.006005 -0.012028 0.009201 0.002702 0.004788
# 2 -0.006005 0.009102 0.002168 -0.002142 0.003065 0.001396
# 3 -0.012028 0.002168 0.030499 -0.010098 0.015804 -0.001665
# 4 0.009201 -0.002142 -0.010098 0.026124 0.000851 0.007844
# 5 0.002702 0.003065 0.015804 0.000851 0.038530 0.005125
# 6 0.004788 0.001396 -0.001665 0.007844 0.005125 0.028504
#
#
# Mechanical properties :
#
#
# Convention : Reuss Voigt Hill
#
# Bulk Modulus (GPa) = 36.14679 79.04600 57.59639
# Shear Modulus (GPa) = 25.83902 40.82303 33.33103
#
# Velocity S-wave (km/s) = 3.15021 3.95962 3.57788
# Velocity P-wave (km/s) = 5.20715 7.15985 6.26010
#
# Compressibility (1/GPa) = 0.02766498
#
# Stress axis : x y z
#
# Youngs Moduli (GPa) = 50.51870 109.86825 32.78767
#
# Poissons Ratio (x) = 0.65980 0.39436
# Poissons Ratio (y) = 0.30338 -0.07108
# Poissons Ratio (z) = 0.60763 -0.23817
#
# Static dielectric constant tensor:
#      x y z
#    x 2.044570 -0.009270 0.053720 
#    y -0.009270 2.023440 0.013260 
#    z 0.053720 0.013260 2.115470 
# 
# From -- ./inp_files/419739.got.cif
#   From: 2010.05.17/outbox.cif.g08.bks.cpg/sg2_210_cif.got.tgz:419739.got - 2010.06.03 11:33:40.
