data_PCOD9054165
_publ_section_title
;
Structure prediction by ZEFSAII (Michael W. Deem and Ramdas Pophale) SiO2 
 PCOD9054165
Probable space group: P -1
;
_chemical_formula_sum "Si O2"
_cell_formula_units_Z 12
_cell_length_a 6.694805
_cell_length_b 9.694504
_cell_length_c 18.080329
_cell_angle_alpha 139.464915
_cell_angle_beta 50.610490
_cell_angle_gamma 130.221532
_cell_volume 557.332829
_symmetry_space_group_name_H-M "P -1"
_symmetry_group_IT_number 2
_symmetry_cell_setting 'triclinic'
loop_
_space_group_symop_operation_xyz
x,y,z
-x,-y,-z
loop_
_atom_site_type_symbol
_atom_site_label
_atom_site_fract_x
_atom_site_fract_y
_atom_site_fract_z
Si Si1 0.347243 0.786931 0.995420
Si Si2 0.146185 0.056715 0.782035
Si Si3 0.859919 0.405703 0.416278
Si Si4 0.575518 0.277023 0.887272
Si Si5 0.208241 0.347674 0.754435
Si Si6 0.225830 0.251223 0.542365
O O1 0.346148 0.565163 0.861650
O O2 0.486407 0.821220 0.056530
O O3 0.044503 0.799747 0.087319
O O4 0.500000 0.000000 0.000000
O O5 0.405419 0.126011 0.801679
O O6 0.222926 0.133617 0.710817
O O7 0.013866 0.790606 0.713240
O O8 0.531296 0.280456 0.452353
O O9 0.888079 0.595314 0.424032
O O10 0.000000 0.500000 0.500000
O O11 0.891460 0.327251 0.818322
O O12 0.500000 0.500000 0.000000
O O13 0.288275 0.349073 0.651045
O O14 0.000000 0.000000 0.500000
#
# Coordination Sequence:
#
# PCOD9054165 Si02
#       6
#     2   2   2   2   2   2
#     4  11  25  38  60  99 135 165 209 264 322 387
#     4  11  23  43  66  93 131 169 215 266 321 389
#     4  11  27  46  70  98 131 175 225 276 329 392
#     4  11  20  41  64  90 129 171 213 253 324 388
#     4  11  23  41  67  94 129 171 214 267 321 387
#     4  11  26  48  69  98 133 172 225 277 331 389
#
# _framework density 21.531120999999999
#
# number of rings (size 3 to 8) (size 9 to 14) (size 15 to 20)
#    0.000    1.000    3.333    3.000    4.667    8.667 
#    0.000    0.000    0.000    0.000    0.000    0.000 
#    0.000    0.000    0.000    0.000    0.000    0.000 
#
# Total GULP energy -67014.625020 kJ/mol
# GULP energy per Si atom -5584.552085 kJ/mol
# Density = 2.148212 g / cm^3
# Si number density = 21.531121 Si / 1000 Ang^3
#
#
#
# Elastic Constant Matrix: (Units=GPa)
#
#
# Indices 1 2 3 4 5 6 
#
# 1 99.6877 33.6639 18.0290 -0.1896 18.6348 -24.3875
# 2 33.6639 126.5215 27.7094 -4.4118 -1.3880 -28.6379
# 3 18.0290 27.7094 82.8785 3.1626 11.2074 -20.3357
# 4 -0.1896 -4.4118 3.1626 39.2668 -6.5991 7.1847
# 5 18.6348 -1.3880 11.2074 -6.5991 17.0408 0.1841
# 6 -24.3875 -28.6379 -20.3357 7.1847 0.1841 40.6875
#
#
#
# Elastic Compliance Matrix: (Units=1/GPa)
#
#
# Indices 1 2 3 4 5 6 
#
# 1 0.018135 -0.003551 0.003809 -0.007027 -0.025473 0.011630
# 2 -0.003551 0.010403 -0.002977 0.002036 0.007441 0.003313
# 3 0.003809 -0.002977 0.017517 -0.006729 -0.018644 0.010215
# 4 -0.007027 0.002036 -0.006729 0.032609 0.025034 -0.012014
# 5 -0.025473 0.007441 -0.018644 0.025034 0.109363 -0.024264
# 6 0.011630 0.003313 0.010215 -0.012014 -0.024264 0.041217
#
#
# Mechanical properties :
#
#
# Convention : Reuss Voigt Hill
#
# Bulk Modulus (GPa) = 24.62058 51.98804 38.30431
# Shear Modulus (GPa) = 20.14325 34.71137 27.42731
#
# Velocity S-wave (km/s) = 3.06198 4.01951 3.57297
# Velocity P-wave (km/s) = 4.89496 6.76313 5.90341
#
# Compressibility (1/GPa) = 0.04061643
#
# Stress axis : x y z
#
# Youngs Moduli (GPa) = 55.14111 96.12519 57.08698
#
# Poissons Ratio (x) = 0.34139 -0.21743
# Poissons Ratio (y) = 0.19583 0.16993
# Poissons Ratio (z) = -0.21002 0.28614
#
# Static dielectric constant tensor:
#      x y z
#    x 1.816870 0.034890 0.040010 
#    y 0.034890 1.813620 0.037320 
#    z 0.040010 0.037320 1.942760 
# 
# From -- ./inp_files/26399.got.cif
#   From: 2010.05.17/outbox.cif.g08.bks.cpg/sg2_14_cif.got.tgz:26399.got - 2010.06.03 11:33:40.
