data_PCOD9054385
_publ_section_title
;
Structure prediction by ZEFSAII (Michael W. Deem and Ramdas Pophale) SiO2 
 PCOD9054385
Probable space group: P -1
;
_chemical_formula_sum "Si O2"
_cell_formula_units_Z 10
_cell_length_a 6.468440
_cell_length_b 11.857296
_cell_length_c 9.208975
_cell_angle_alpha 114.861952
_cell_angle_beta 83.376619
_cell_angle_gamma 46.469173
_cell_volume 366.168577
_symmetry_space_group_name_H-M "P -1"
_symmetry_group_IT_number 2
_symmetry_cell_setting 'triclinic'
loop_
_space_group_symop_operation_xyz
x,y,z
-x,-y,-z
loop_
_atom_site_type_symbol
_atom_site_label
_atom_site_fract_x
_atom_site_fract_y
_atom_site_fract_z
Si Si1 0.961430 0.705022 0.668129
Si Si2 0.657914 0.532459 0.216407
Si Si3 0.889223 0.203595 0.833300
Si Si4 0.668908 0.110033 0.991858
Si Si5 0.357997 0.196113 0.541998
O O1 0.943514 0.670445 0.485510
O O2 0.306009 0.522136 0.646865
O O3 0.815151 0.916376 0.795474
O O4 0.663460 0.770942 0.818858
O O5 0.279044 0.690219 0.253253
O O6 0.726061 0.646288 0.264526
O O7 0.923253 0.311565 0.984813
O O8 0.605200 0.252573 0.962581
O O9 0.268879 0.950119 0.650645
O O10 0.000000 0.000000 0.000000
O O11 0.500000 0.000000 0.500000
#
# Coordination Sequence:
#
# PCOD9054385 Si02
#       5
#     2   2   2   2   2
#     4  11  23  42  71 104 134 177 231 276 337 402
#     4  11  25  43  69 103 135 178 230 279 336 403
#     4  11  24  46  69  99 138 182 225 275 345 402
#     4  11  20  43  73 100 136 181 221 278 341 400
#     4  12  26  46  66  99 143 180 224 284 338 402
#
# _framework density 27.309828
#
# number of rings (size 3 to 8) (size 9 to 14) (size 15 to 20)
#    0.000    0.800    4.000    3.600    0.000    4.800 
#    0.000    5.000    0.000    0.000    0.000    0.000 
#    0.000    0.000    0.000    0.000    0.000    0.000 
#
# Total GULP energy -56053.468412 kJ/mol
# GULP energy per Si atom -5605.346841 kJ/mol
# Density = 2.724767 g / cm^3
# Si number density = 27.309828 Si / 1000 Ang^3
#
#
#
# Elastic Constant Matrix: (Units=GPa)
#
#
# Indices 1 2 3 4 5 6 
#
# 1 123.7597 52.3061 75.1949 -10.5218 32.8762 23.6613
# 2 52.3061 165.0461 47.5394 -25.1030 31.6507 -9.7418
# 3 75.1949 47.5394 99.8474 -6.0707 38.5142 10.8031
# 4 -10.5218 -25.1030 -6.0707 49.9188 3.6292 14.1012
# 5 32.8762 31.6507 38.5142 3.6292 63.3984 -0.7609
# 6 23.6613 -9.7418 10.8031 14.1012 -0.7609 66.9012
#
#
#
# Elastic Compliance Matrix: (Units=1/GPa)
#
#
# Indices 1 2 3 4 5 6 
#
# 1 0.016927 -0.001886 -0.010441 0.002949 -0.001725 -0.005217
# 2 -0.001886 0.008115 -0.001489 0.003285 -0.002340 0.001370
# 3 -0.010441 -0.001489 0.021196 0.000131 -0.006727 -0.000051
# 4 0.002949 0.003285 0.000131 0.024291 -0.004709 -0.005759
# 5 -0.001725 -0.002340 -0.006727 -0.004709 0.022223 0.002601
# 6 -0.005217 0.001370 -0.000051 -0.005759 0.002601 0.018244
#
#
# Mechanical properties :
#
#
# Convention : Reuss Voigt Hill
#
# Bulk Modulus (GPa) = 53.74700 82.08156 67.91428
# Shear Modulus (GPa) = 34.52330 50.28455 42.40393
#
# Velocity S-wave (km/s) = 3.55932 4.29565 3.94470
# Velocity P-wave (km/s) = 6.05103 7.39759 6.75793
#
# Compressibility (1/GPa) = 0.01860569
#
# Stress axis : x y z
#
# Youngs Moduli (GPa) = 59.07628 123.23106 47.17976
#
# Poissons Ratio (x) = 0.23238 0.49260
# Poissons Ratio (y) = 0.11140 0.07026
# Poissons Ratio (z) = 0.61681 0.18352
#
# Static dielectric constant tensor:
#      x y z
#    x 2.145380 0.030300 -0.063330 
#    y 0.030300 2.169650 -0.049070 
#    z -0.063330 -0.049070 2.088960 
# 
# From -- ./inp_files/16186.got.cif
#   From: 2010.05.17/outbox.cif.g08.bks.cpg/sg2_9_cif.got.tgz:16186.got - 2010.06.03 11:33:40.
