data_PCOD9054656
_publ_section_title
;
Structure prediction by ZEFSAII (Michael W. Deem and Ramdas Pophale) SiO2 
 PCOD9054656
Probable space group: P -1
;
_chemical_formula_sum "Si O2"
_cell_formula_units_Z 12
_cell_length_a 12.629404
_cell_length_b 9.187976
_cell_length_c 14.522064
_cell_angle_alpha 140.300726
_cell_angle_beta 152.134428
_cell_angle_gamma 49.579591
_cell_volume 500.238532
_symmetry_space_group_name_H-M "P -1"
_symmetry_group_IT_number 2
_symmetry_cell_setting 'triclinic'
loop_
_space_group_symop_operation_xyz
x,y,z
-x,-y,-z
loop_
_atom_site_type_symbol
_atom_site_label
_atom_site_fract_x
_atom_site_fract_y
_atom_site_fract_z
Si Si1 0.905274 0.774003 0.024700
Si Si2 0.795002 0.574350 0.659705
Si Si3 0.433579 0.929008 0.518641
Si Si4 0.897953 0.274266 0.191163
Si Si5 0.478459 0.257617 0.140127
Si Si6 0.641426 0.589557 0.267891
O O1 0.173019 0.823673 0.270846
O O2 0.833869 0.010778 0.040273
O O3 0.853224 0.576767 0.812596
O O4 0.753188 0.731187 0.976794
O O5 0.599197 0.744022 0.582424
O O6 0.684946 0.346665 0.412354
O O7 0.015399 0.682972 0.825261
O O8 0.500000 0.000000 0.500000
O O9 0.455372 0.169221 0.707292
O O10 0.725944 0.449651 0.179047
O O11 0.128905 0.339415 0.460845
O O12 0.493106 0.421833 0.142175
O O13 0.500000 0.000000 0.000000
#
# Coordination Sequence:
#
# PCOD9054656 Si02
#       6
#     2   2   2   2   2   2
#     4  11  22  37  65  92 122 161 199 251 309 353
#     4  11  23  40  63  94 122 155 208 252 299 359
#     4  11  21  39  64  91 122 155 207 256 296 356
#     4   9  17  33  61  86 116 156 202 243 298 350
#     4  11  21  37  63  90 123 167 201 238 307 376
#     4   9  18  35  59  92 116 158 206 243 298 360
#
# _framework density 23.988555000000002
#
# number of rings (size 3 to 8) (size 9 to 14) (size 15 to 20)
#    0.000    1.667    6.667    1.000    2.333    0.667 
#    0.000    0.833    3.667    2.000    0.000    0.000 
#    0.000    0.000    0.000    0.000    0.000    0.000 
#
# Total GULP energy -67234.674565 kJ/mol
# GULP energy per Si atom -5602.889547 kJ/mol
# Density = 2.393396 g / cm^3
# Si number density = 23.988555 Si / 1000 Ang^3
#
#
#
# Elastic Constant Matrix: (Units=GPa)
#
#
# Indices 1 2 3 4 5 6 
#
# 1 166.1304 52.0888 55.3576 4.8104 19.0693 -25.1822
# 2 52.0888 129.2899 50.7517 22.3308 -0.7984 -18.6953
# 3 55.3576 50.7517 102.3863 20.1601 -0.4456 -7.3767
# 4 4.8104 22.3308 20.1601 33.6054 -14.3926 -0.8310
# 5 19.0693 -0.7984 -0.4456 -14.3926 47.4480 11.0429
# 6 -25.1822 -18.6953 -7.3767 -0.8310 11.0429 26.8567
#
#
#
# Elastic Compliance Matrix: (Units=1/GPa)
#
#
# Indices 1 2 3 4 5 6 
#
# 1 0.010052 -0.000749 -0.004098 -0.001181 -0.006912 0.010583
# 2 -0.000749 0.011671 -0.003505 -0.006802 -0.003376 0.007636
# 3 -0.004098 -0.003505 0.014644 -0.005664 0.000635 -0.002697
# 4 -0.001181 -0.006802 -0.005664 0.044762 0.016902 -0.012963
# 5 -0.006912 -0.003376 0.000635 0.016902 0.034085 -0.022149
# 6 0.010583 0.007636 -0.002697 -0.012963 -0.022149 0.060439
#
#
# Mechanical properties :
#
#
# Convention : Reuss Voigt Hill
#
# Bulk Modulus (GPa) = 50.86211 79.35587 65.10899
# Shear Modulus (GPa) = 25.13686 37.55594 31.34640
#
# Velocity S-wave (km/s) = 3.24059 3.96103 3.61878
# Velocity P-wave (km/s) = 5.93722 7.35338 6.68292
#
# Compressibility (1/GPa) = 0.01966100
#
# Stress axis : x y z
#
# Youngs Moduli (GPa) = 99.48444 85.68603 68.28796
#
# Poissons Ratio (x) = 0.06420 0.27987
# Poissons Ratio (y) = 0.07454 0.23935
# Poissons Ratio (z) = 0.40772 0.30033
#
# Static dielectric constant tensor:
#      x y z
#    x 1.859620 0.001430 -0.028950 
#    y 0.001430 1.913690 -0.016930 
#    z -0.028950 -0.016930 1.977300 
# 
# From -- ./inp_files/150918.got.cif
#   From: 2010.05.17/outbox.cif.g08.bks.cpg/sg2_76_cif.got.tgz:150918.got - 2010.06.03 11:33:40.
