data_PCOD9054798
_publ_section_title
;
Structure prediction by ZEFSAII (Michael W. Deem and Ramdas Pophale) SiO2 
 PCOD9054798
Probable space group: P -1
;
_chemical_formula_sum "Si O2"
_cell_formula_units_Z 16
_cell_length_a 9.896245
_cell_length_b 15.356977
_cell_length_c 15.858621
_cell_angle_alpha 143.616562
_cell_angle_beta 25.923469
_cell_angle_gamma 142.820763
_cell_volume 599.948285
_symmetry_space_group_name_H-M "P -1"
_symmetry_group_IT_number 2
_symmetry_cell_setting 'triclinic'
loop_
_space_group_symop_operation_xyz
x,y,z
-x,-y,-z
loop_
_atom_site_type_symbol
_atom_site_label
_atom_site_fract_x
_atom_site_fract_y
_atom_site_fract_z
Si Si1 0.670018 0.260221 0.072697
Si Si2 0.658115 0.664774 0.225408
Si Si3 0.279103 0.224972 0.127630
Si Si4 0.231000 0.056068 0.743353
Si Si5 0.694980 0.247898 0.353972
Si Si6 0.192889 0.534006 0.244139
Si Si7 0.281242 0.811833 0.292475
Si Si8 0.322029 0.061307 0.268487
O O1 0.433230 0.329041 0.202023
O O2 0.499945 0.182669 0.192198
O O3 0.014865 0.383289 0.986927
O O4 0.729027 0.110918 0.872602
O O5 0.782416 0.800088 0.191648
O O6 0.561297 0.721403 0.412783
O O7 0.330150 0.567414 0.288685
O O8 0.986957 0.234593 0.240026
O O9 0.585273 0.242853 0.909439
O O10 0.103790 0.068935 0.155596
O O11 0.385905 0.095100 0.777905
O O12 0.500000 0.000000 0.500000
O O13 0.533203 0.111206 0.274123
O O14 0.875227 0.394860 0.312088
O O15 0.145802 0.678252 0.332733
O O16 0.500000 0.500000 0.000000
O O17 0.020266 0.903411 0.498488
#
# Coordination Sequence:
#
# PCOD9054798 Si02
#       8
#     2   2   2   2   2   2   2   2
#     4  11  25  44  68 105 146 180 225 290 357 416
#     4  11  24  44  71 101 138 186 231 290 346 411
#     4  12  25  40  69 104 139 180 230 284 345 422
#     4  11  21  38  65  99 138 174 223 281 348 411
#     4  12  26  45  72 103 139 188 239 283 341 414
#     4  11  24  47  73 100 140 186 237 289 339 406
#     4  11  25  42  69  99 137 184 232 283 344 412
#     4  11  26  46  70 104 145 183 227 290 355 418
#
# _framework density 26.668965
#
# number of rings (size 3 to 8) (size 9 to 14) (size 15 to 20)
#    0.000    0.750    2.500    5.250    7.000    1.500 
#    0.000    0.625    0.000    0.000    0.000    0.000 
#    0.000    0.000    0.000    0.000    0.000    0.000 
#
# Total GULP energy -89597.332899 kJ/mol
# GULP energy per Si atom -5599.833306 kJ/mol
# Density = 2.660827 g / cm^3
# Si number density = 26.668965 Si / 1000 Ang^3
#
#
#
# Elastic Constant Matrix: (Units=GPa)
#
#
# Indices 1 2 3 4 5 6 
#
# 1 137.8409 24.2011 19.9154 -12.8324 3.4256 10.8018
# 2 24.2011 117.3503 22.0377 -24.9339 -4.2730 5.9502
# 3 19.9154 22.0377 103.6692 -29.6694 7.8967 3.3695
# 4 -12.8324 -24.9339 -29.6694 37.5325 4.4161 0.4307
# 5 3.4256 -4.2730 7.8967 4.4161 48.7476 1.2906
# 6 10.8018 5.9502 3.3695 0.4307 1.2906 25.6729
#
#
#
# Elastic Compliance Matrix: (Units=1/GPa)
#
#
# Indices 1 2 3 4 5 6 
#
# 1 0.007936 -0.001040 -0.000713 0.001563 -0.000595 -0.003001
# 2 -0.001040 0.010220 -0.000143 0.006288 0.000476 -0.002042
# 3 -0.000713 -0.000143 0.013045 0.010339 -0.002975 -0.001403
# 4 0.001563 0.006288 0.010339 0.040134 -0.004766 -0.003906
# 5 -0.000595 0.000476 -0.002975 -0.004766 0.021524 -0.000472
# 6 -0.003001 -0.002042 -0.001403 -0.003906 -0.000472 0.040961
#
#
# Mechanical properties :
#
#
# Convention : Reuss Voigt Hill
#
# Bulk Modulus (GPa) = 36.48629 54.57429 45.53029
# Shear Modulus (GPa) = 34.07225 41.90433 37.98829
#
# Velocity S-wave (km/s) = 3.57823 3.96823 3.77827
# Velocity P-wave (km/s) = 5.54820 6.44235 6.01192
#
# Compressibility (1/GPa) = 0.02740756
#
# Stress axis : x y z
#
# Youngs Moduli (GPa) = 126.01041 97.84967 76.65973
#
# Poissons Ratio (x) = 0.10177 0.05467
# Poissons Ratio (y) = 0.13106 0.01097
# Poissons Ratio (z) = 0.08987 0.01400
#
# Static dielectric constant tensor:
#      x y z
#    x 2.217210 0.006100 -0.000980 
#    y 0.006100 2.151710 0.114920 
#    z -0.000980 0.114920 2.087100 
# 
# From -- ./inp_files/507297.got.cif
#   From: 2010.05.17/outbox.cif.g08.bks.cpg/sg2_254_cif.got.tgz:507297.got - 2010.06.03 11:33:40.
