data_PCOD9054097
_publ_section_title
;
Structure prediction by ZEFSAII (Michael W. Deem and Ramdas Pophale) SiO2 
 PCOD9054097
Probable space group: P -1
;
_chemical_formula_sum "Si O2"
_cell_formula_units_Z 16
_cell_length_a 15.078825
_cell_length_b 11.366401
_cell_length_c 13.689851
_cell_angle_alpha 137.792569
_cell_angle_beta 136.541417
_cell_angle_gamma 28.538349
_cell_volume 732.138657
_symmetry_space_group_name_H-M "P -1"
_symmetry_group_IT_number 2
_symmetry_cell_setting 'triclinic'
loop_
_space_group_symop_operation_xyz
x,y,z
-x,-y,-z
loop_
_atom_site_type_symbol
_atom_site_label
_atom_site_fract_x
_atom_site_fract_y
_atom_site_fract_z
Si Si1 0.945921 0.731134 0.888937
Si Si2 0.105132 0.732295 0.188692
Si Si3 0.487873 0.605238 0.661663
Si Si4 0.887043 0.560926 0.348323
Si Si5 0.003819 0.800719 0.518502
Si Si6 0.464605 0.915413 0.277184
Si Si7 0.435034 0.333755 0.597323
Si Si8 0.100423 0.207466 0.761793
O O1 0.989149 0.676019 0.774376
O O2 0.058732 0.450695 0.852300
O O3 0.717841 0.943137 0.848117
O O4 0.032233 0.803210 0.063461
O O5 0.325223 0.463830 0.212969
O O6 0.963653 0.760116 0.159222
O O7 0.090244 0.936836 0.351027
O O8 0.500000 0.500000 0.500000
O O9 0.487069 0.449136 0.645170
O O10 0.303214 0.913087 0.720530
O O11 0.679844 0.683118 0.267638
O O12 0.000000 0.500000 0.500000
O O13 0.870751 0.768588 0.413714
O O14 0.211106 0.572951 0.590917
O O15 0.036838 0.762144 0.404733
O O16 0.452513 0.810305 0.301014
O O17 0.451613 0.133453 0.430168
#
# Coordination Sequence:
#
# PCOD9054097 Si02
#       8
#     2   2   2   2   2   2   2   2
#     4  11  27  43  63 102 137 175 219 274 341 396
#     4  12  25  43  65  96 140 175 216 280 339 391
#     4  12  25  40  70 103 129 173 230 277 331 392
#     4  11  21  41  70  96 125 174 226 271 321 389
#     4  11  20  40  68  98 128 166 225 278 321 394
#     4  11  22  41  70  93 137 172 221 274 328 394
#     4  11  21  41  68 101 125 172 228 275 323 388
#     4  11  23  43  67  96 131 177 223 274 329 397
#
# _framework density 21.853784999999998
#
# number of rings (size 3 to 8) (size 9 to 14) (size 15 to 20)
#    0.000    0.750    6.250    3.000    1.750    1.500 
#    0.000    3.125    0.000    0.000    0.000    0.000 
#    0.000    0.000    0.000    0.000    0.000    0.000 
#
# Total GULP energy -89326.292710 kJ/mol
# GULP energy per Si atom -5582.893294 kJ/mol
# Density = 2.180404 g / cm^3
# Si number density = 21.853785 Si / 1000 Ang^3
#
#
#
# Elastic Constant Matrix: (Units=GPa)
#
#
# Indices 1 2 3 4 5 6 
#
# 1 81.9233 30.4034 14.4673 -6.3002 -9.7412 -9.6219
# 2 30.4034 115.5487 6.9053 -15.9845 -6.1507 -23.8250
# 3 14.4673 6.9053 62.6114 -17.9740 -21.5584 -6.8886
# 4 -6.3002 -15.9845 -17.9740 26.5505 5.0486 10.0854
# 5 -9.7412 -6.1507 -21.5584 5.0486 19.0778 -4.3559
# 6 -9.6219 -23.8250 -6.8886 10.0854 -4.3559 31.4981
#
#
#
# Elastic Compliance Matrix: (Units=1/GPa)
#
#
# Indices 1 2 3 4 5 6 
#
# 1 0.014520 -0.002884 -0.000681 -0.001391 0.006882 0.003502
# 2 -0.002884 0.012065 0.004521 0.004684 0.008315 0.008884
# 3 -0.000681 0.004521 0.034276 0.013984 0.038789 0.011594
# 4 -0.001391 0.004684 0.013984 0.053873 -0.000188 -0.011099
# 5 0.006882 0.008315 0.038789 -0.000188 0.109829 0.032123
# 6 0.003502 0.008884 0.011594 -0.011099 0.032123 0.050069
#
#
# Mechanical properties :
#
#
# Convention : Reuss Voigt Hill
#
# Bulk Modulus (GPa) = 15.93038 40.40395 28.16717
# Shear Modulus (GPa) = 17.02732 29.31243 23.16988
#
# Velocity S-wave (km/s) = 2.79435 3.66635 3.25964
# Velocity P-wave (km/s) = 4.20910 6.03749 5.20422
#
# Compressibility (1/GPa) = 0.06277313
#
# Stress axis : x y z
#
# Youngs Moduli (GPa) = 68.87171 82.88199 29.17452
#
# Poissons Ratio (x) = 0.23901 0.01988
# Poissons Ratio (y) = 0.19860 -0.13189
# Poissons Ratio (z) = 0.04692 -0.37469
#
# Static dielectric constant tensor:
#      x y z
#    x 1.896360 0.005990 -0.020880 
#    y 0.005990 1.873150 -0.006490 
#    z -0.020880 -0.006490 1.794470 
# 
# From -- ./inp_files/532066.got.cif
#   From: 2010.05.17/outbox.cif.g08.bks.cpg/sg2_267_cif.got.tgz:532066.got - 2010.06.03 11:33:40.
