data_PCOD9054483
_publ_section_title
;
Structure prediction by ZEFSAII (Michael W. Deem and Ramdas Pophale) SiO2 
 PCOD9054483
Probable space group: P -1
;
_chemical_formula_sum "Si O2"
_cell_formula_units_Z 14
_cell_length_a 25.798717
_cell_length_b 12.486173
_cell_length_c 25.835936
_cell_angle_alpha 151.092957
_cell_angle_beta 11.100544
_cell_angle_gamma 150.827288
_cell_volume 765.576430
_symmetry_space_group_name_H-M "P -1"
_symmetry_group_IT_number 2
_symmetry_cell_setting 'triclinic'
loop_
_space_group_symop_operation_xyz
x,y,z
-x,-y,-z
loop_
_atom_site_type_symbol
_atom_site_label
_atom_site_fract_x
_atom_site_fract_y
_atom_site_fract_z
Si Si1 0.524110 0.335549 0.250158
Si Si2 0.748003 0.655576 0.008237
Si Si3 0.986419 0.125620 0.648066
Si Si4 0.671735 0.796638 0.255710
Si Si5 0.442917 0.405373 0.572813
Si Si6 0.828558 0.658390 0.553411
Si Si7 0.933152 0.141688 0.005871
O O1 0.478489 0.571948 0.368794
O O2 0.605213 0.402301 0.257534
O O3 0.251314 0.159789 0.439010
O O4 0.758907 0.247537 0.949655
O O5 0.803248 0.730949 0.045668
O O6 0.465594 0.488800 0.216574
O O7 0.773521 0.890008 0.052307
O O8 0.963838 0.514134 0.713909
O O9 0.094508 0.239624 0.535913
O O10 0.866956 0.870502 0.643579
O O11 0.500000 0.000000 0.500000
O O12 0.897057 0.840384 0.098696
O O13 0.500000 0.500000 0.500000
O O14 0.706364 0.302613 0.291098
O O15 0.173186 0.219419 0.762512
#
# Coordination Sequence:
#
# PCOD9054483 Si02
#       7
#     2   2   2   2   2   2   2
#     4  11  21  36  58  81 114 153 191 236 287 338
#     4  12  21  35  54  83 119 161 184 225 282 337
#     4  11  21  37  52  82 115 159 200 231 267 336
#     4  11  21  34  53  83 124 159 187 219 272 357
#     4  11  24  43  63  87 113 146 196 255 298 342
#     4  11  22  34  54  79 120 161 196 228 267 326
#     4  11  24  37  59  87 117 153 197 231 290 361
#
# _framework density 18.286874000000001
#
# number of rings (size 3 to 8) (size 9 to 14) (size 15 to 20)
#    0.000    0.857    2.857    6.857    0.000    2.286 
#    0.000    0.000    0.000    0.000    0.000   20.000 
#    0.000    0.000    0.000    0.000    0.000    0.000 
#
# Total GULP energy -78190.923801 kJ/mol
# GULP energy per Si atom -5585.065986 kJ/mol
# Density = 1.824525 g / cm^3
# Si number density = 18.286874 Si / 1000 Ang^3
#
#
#
# Elastic Constant Matrix: (Units=GPa)
#
#
# Indices 1 2 3 4 5 6 
#
# 1 74.8763 68.5181 45.6791 4.1355 19.2141 0.6132
# 2 68.5181 142.0530 80.0464 -15.3523 9.8714 11.9016
# 3 45.6791 80.0464 164.2161 -1.8234 3.8757 2.3186
# 4 4.1355 -15.3523 -1.8234 34.9543 3.0510 2.9501
# 5 19.2141 9.8714 3.8757 3.0510 22.4103 -3.2500
# 6 0.6132 11.9016 2.3186 2.9501 -3.2500 21.0491
#
#
#
# Elastic Compliance Matrix: (Units=1/GPa)
#
#
# Indices 1 2 3 4 5 6 
#
# 1 0.034675 -0.016114 -0.001522 -0.010066 -0.020043 0.006585
# 2 -0.016114 0.019376 -0.004758 0.010833 0.003032 -0.011012
# 3 -0.001522 -0.004758 0.008718 -0.001878 0.002500 0.002424
# 4 -0.010066 0.010833 -0.001878 0.035581 -0.002251 -0.010960
# 5 -0.020043 0.003032 0.002500 -0.002251 0.061566 0.008415
# 6 0.006585 -0.011012 0.002424 -0.010960 0.008415 0.056111
#
#
# Mechanical properties :
#
#
# Convention : Reuss Voigt Hill
#
# Bulk Modulus (GPa) = 55.61679 85.51472 70.56576
# Shear Modulus (GPa) = 18.73990 28.14288 23.44139
#
# Velocity S-wave (km/s) = 3.20468 3.92722 3.58420
# Velocity P-wave (km/s) = 6.64626 8.21149 7.46998
#
# Compressibility (1/GPa) = 0.01798018
#
# Stress axis : x y z
#
# Youngs Moduli (GPa) = 28.83899 51.60986 114.70175
#
# Poissons Ratio (x) = 0.83165 0.17461
# Poissons Ratio (y) = 0.46472 0.54577
# Poissons Ratio (z) = 0.04390 0.24557
#
# Static dielectric constant tensor:
#      x y z
#    x 1.634990 0.006590 -0.006760 
#    y 0.006590 1.643280 -0.006490 
#    z -0.006760 -0.006490 1.643140 
# 
# From -- ./inp_files/96975.got.cif
#   From: 2010.05.17/outbox.cif.g08.bks.cpg/sg2_49_cif.got.tgz:96975.got - 2010.06.03 11:33:40.
