data_PCOD9054688
_publ_section_title
;
Structure prediction by ZEFSAII (Michael W. Deem and Ramdas Pophale) SiO2 
 PCOD9054688
Probable space group: P -1
;
_chemical_formula_sum "Si O2"
_cell_formula_units_Z 16
_cell_length_a 11.756670
_cell_length_b 23.041157
_cell_length_c 8.640460
_cell_angle_alpha 129.602185
_cell_angle_beta 142.894947
_cell_angle_gamma 32.073748
_cell_volume 744.410081
_symmetry_space_group_name_H-M "P -1"
_symmetry_group_IT_number 2
_symmetry_cell_setting 'triclinic'
loop_
_space_group_symop_operation_xyz
x,y,z
-x,-y,-z
loop_
_atom_site_type_symbol
_atom_site_label
_atom_site_fract_x
_atom_site_fract_y
_atom_site_fract_z
Si Si1 0.459631 0.575064 0.955390
Si Si2 0.660280 0.109936 0.968621
Si Si3 0.244130 0.727759 0.244366
Si Si4 0.405900 0.084006 0.177000
Si Si5 0.742960 0.414856 0.742540
Si Si6 0.851668 0.926063 0.648297
Si Si7 0.686585 0.120956 0.356215
Si Si8 0.928158 0.725990 0.425538
O O1 0.705619 0.493930 0.959698
O O2 0.177667 0.638671 0.665334
O O3 0.500000 0.500000 0.000000
O O4 0.414481 0.661075 0.158927
O O5 0.375009 0.212183 0.747261
O O6 0.794177 0.995261 0.851498
O O7 0.582352 0.120719 0.079433
O O8 0.885115 0.110337 0.205636
O O9 0.282476 0.652937 0.293027
O O10 0.316760 0.788530 0.489035
O O11 0.921748 0.821814 0.006849
O O12 0.508558 0.136290 0.324218
O O13 0.582403 0.012202 0.396263
O O14 0.500000 0.000000 0.000000
O O15 0.500000 0.500000 0.500000
O O16 0.997203 0.330096 0.757608
O O17 0.910307 0.821871 0.559411
O O18 0.000000 0.000000 0.500000
#
# Coordination Sequence:
#
# PCOD9054688 Si02
#       8
#     2   2   2   2   2   2   2   2
#     4   9  21  40  66  90 113 153 209 264 312 353
#     4  11  23  38  54  88 130 157 201 234 291 367
#     4  11  22  38  64  89 122 165 201 250 310 358
#     4  12  22  37  59  90 129 165 206 236 295 375
#     4   9  19  39  64  89 111 153 210 259 307 354
#     4  11  24  36  56  89 127 164 194 241 290 364
#     4  12  23  36  58  88 129 168 199 240 294 363
#     4  11  21  37  66  85 115 160 199 245 309 356
#
# _framework density 21.493528999999999
#
# number of rings (size 3 to 8) (size 9 to 14) (size 15 to 20)
#    0.000    1.250    2.500    4.125    1.750    0.000 
#    0.000    0.000    0.000   60.000    0.000    0.000 
#    0.000    0.000    0.000    0.000    0.000    0.000 
#
# Total GULP energy -89376.646447 kJ/mol
# GULP energy per Si atom -5586.040403 kJ/mol
# Density = 2.144461 g / cm^3
# Si number density = 21.493529 Si / 1000 Ang^3
#
#
#
# Elastic Constant Matrix: (Units=GPa)
#
#
# Indices 1 2 3 4 5 6 
#
# 1 60.1718 32.7239 23.5880 -1.2262 -5.6007 1.2777
# 2 32.7239 114.9380 36.6678 5.6680 -11.6536 -7.9106
# 3 23.5880 36.6678 64.6457 0.6456 -10.9760 8.3097
# 4 -1.2262 5.6680 0.6456 39.9384 -3.9459 -19.5523
# 5 -5.6007 -11.6536 -10.9760 -3.9459 37.4952 2.6984
# 6 1.2777 -7.9106 8.3097 -19.5523 2.6984 33.8905
#
#
#
# Elastic Compliance Matrix: (Units=1/GPa)
#
#
# Indices 1 2 3 4 5 6 
#
# 1 0.021094 -0.004354 -0.005215 0.001552 0.000410 0.000330
# 2 -0.004354 0.012178 -0.005726 0.000642 0.001189 0.004687
# 3 -0.005215 -0.005726 0.022573 -0.003794 0.004313 -0.009207
# 4 0.001552 0.000642 -0.003794 0.035744 0.001534 0.021521
# 5 0.000410 0.001189 0.004313 0.001534 0.028683 -0.002194
# 6 0.000330 0.004687 -0.009207 0.021521 -0.002194 0.045436
#
#
# Mechanical properties :
#
#
# Convention : Reuss Voigt Hill
#
# Bulk Modulus (GPa) = 39.59624 47.30167 43.44896
# Shear Modulus (GPa) = 24.42390 32.04988 28.23689
#
# Velocity S-wave (km/s) = 3.37462 3.86572 3.62849
# Velocity P-wave (km/s) = 5.80056 6.47921 6.14925
#
# Compressibility (1/GPa) = 0.02525492
#
# Stress axis : x y z
#
# Youngs Moduli (GPa) = 47.40602 82.11479 44.30030
#
# Poissons Ratio (x) = 0.35754 0.23105
# Poissons Ratio (y) = 0.20641 0.25365
# Poissons Ratio (z) = 0.24724 0.47017
#
# Static dielectric constant tensor:
#      x y z
#    x 1.807680 -0.022830 -0.044620 
#    y -0.022830 1.836860 -0.027190 
#    z -0.044620 -0.027190 1.816740 
# 
# From -- ./inp_files/284985.got.cif
#   From: 2010.05.17/outbox.cif.g08.bks.cpg/sg2_143_cif.got.tgz:284985.got - 2010.06.03 11:33:40.
