data_PCOD9054176
_publ_section_title
;
Structure prediction by ZEFSAII (Michael W. Deem and Ramdas Pophale) SiO2 
 PCOD9054176
Probable space group: P -1
;
_chemical_formula_sum "Si O2"
_cell_formula_units_Z 16
_cell_length_a 9.104907
_cell_length_b 14.101671
_cell_length_c 18.118050
_cell_angle_alpha 41.607362
_cell_angle_beta 42.161054
_cell_angle_gamma 32.535060
_cell_volume 789.690042
_symmetry_space_group_name_H-M "P -1"
_symmetry_group_IT_number 2
_symmetry_cell_setting 'triclinic'
loop_
_space_group_symop_operation_xyz
x,y,z
-x,-y,-z
loop_
_atom_site_type_symbol
_atom_site_label
_atom_site_fract_x
_atom_site_fract_y
_atom_site_fract_z
Si Si1 0.624990 0.992058 0.535743
Si Si2 0.240560 0.028060 0.788047
Si Si3 0.230634 0.348150 0.672728
Si Si4 0.829138 0.212151 0.469033
Si Si5 0.748425 0.591259 0.599573
Si Si6 0.592266 0.339285 0.832570
Si Si7 0.544275 0.619505 0.967680
Si Si8 0.166507 0.481315 0.782170
O O1 0.457649 0.976831 0.670683
O O2 0.507414 0.202853 0.454636
O O3 0.500000 0.000000 0.500000
O O4 0.964812 0.835228 0.510578
O O5 0.239394 0.174155 0.752854
O O6 0.912673 0.142690 0.819542
O O7 0.338377 0.839545 0.897173
O O8 0.506544 0.307257 0.556274
O O9 0.254410 0.370260 0.737226
O O10 0.927212 0.533998 0.643312
O O11 0.843805 0.344383 0.334096
O O12 0.000000 0.000000 0.500000
O O13 0.627141 0.486085 0.708493
O O14 0.000000 0.500000 0.500000
O O15 0.372843 0.362949 0.843248
O O16 0.499522 0.387237 0.924765
O O17 0.858484 0.549029 0.877414
O O18 0.500000 0.500000 0.000000
#
# Coordination Sequence:
#
# PCOD9054176 Si02
#       8
#     2   2   2   2   2   2   2   2
#     4  12  24  36  65  97 138 164 220 265 328 387
#     4  11  24  47  66  99 131 176 219 271 329 392
#     4  11  23  41  68  97 139 176 211 268 335 396
#     4  12  22  41  63 100 139 178 208 268 332 392
#     4  11  20  41  65  98 133 172 215 265 330 393
#     4  11  25  42  71  95 133 173 219 272 324 392
#     4  12  26  49  71  92 128 177 229 272 327 390
#     4  12  25  43  65 102 132 172 225 270 331 385
#
# _framework density 20.261113000000002
#
# number of rings (size 3 to 8) (size 9 to 14) (size 15 to 20)
#    0.000    0.500    5.000    4.875    3.500    0.000 
#    0.000    3.750    0.000    0.000    0.000    0.000 
#    0.000    0.000    0.000    0.000    0.000    0.000 
#
# Total GULP energy -89334.581832 kJ/mol
# GULP energy per Si atom -5583.411365 kJ/mol
# Density = 2.021500 g / cm^3
# Si number density = 20.261113 Si / 1000 Ang^3
#
#
#
# Elastic Constant Matrix: (Units=GPa)
#
#
# Indices 1 2 3 4 5 6 
#
# 1 133.7656 34.3502 28.9855 -13.2491 9.5653 -25.9997
# 2 34.3502 60.8527 30.2791 -9.5191 -9.0554 -31.9323
# 3 28.9855 30.2791 95.5278 -14.8942 0.5642 -6.5319
# 4 -13.2491 -9.5191 -14.8942 27.2791 -1.6633 -7.8759
# 5 9.5653 -9.0554 0.5642 -1.6633 34.7710 7.7260
# 6 -25.9997 -31.9323 -6.5319 -7.8759 7.7260 40.9443
#
#
#
# Elastic Compliance Matrix: (Units=1/GPa)
#
#
# Indices 1 2 3 4 5 6 
#
# 1 0.010409 -0.000893 -0.001401 0.005922 -0.004496 0.007677
# 2 -0.000893 0.043046 -0.007796 0.020681 0.004833 0.034827
# 3 -0.001401 -0.007796 0.013513 0.002734 -0.000815 -0.004134
# 4 0.005922 0.020681 0.002734 0.057290 -0.000534 0.031446
# 5 -0.004496 0.004833 -0.000815 -0.000534 0.032452 -0.005442
# 6 0.007677 0.034827 -0.004134 0.031446 -0.005442 0.062876
#
#
# Mechanical properties :
#
#
# Convention : Reuss Voigt Hill
#
# Bulk Modulus (GPa) = 21.37275 53.04177 37.20726
# Shear Modulus (GPa) = 19.58027 33.70096 26.64062
#
# Velocity S-wave (km/s) = 3.11206 4.08282 3.63004
# Velocity P-wave (km/s) = 4.84611 6.96145 5.99778
#
# Compressibility (1/GPa) = 0.04678856
#
# Stress axis : x y z
#
# Youngs Moduli (GPa) = 96.07356 23.23110 74.00518
#
# Poissons Ratio (x) = 0.02074 0.10365
# Poissons Ratio (y) = 0.08576 0.57695
# Poissons Ratio (z) = 0.13455 0.18111
#
# Static dielectric constant tensor:
#      x y z
#    x 2.026260 0.364700 -0.075240 
#    y 0.364700 2.265190 -0.153820 
#    z -0.075240 -0.153820 1.729410 
# 
# From -- ./inp_files/294566.got.cif
#   From: 2010.05.17/outbox.cif.g08.bks.cpg/sg2_148_cif.got.tgz:294566.got - 2010.06.03 11:33:40.
