data_PCOD9054660
_publ_section_title
;
Structure prediction by ZEFSAII (Michael W. Deem and Ramdas Pophale) SiO2 
 PCOD9054660
Probable space group: P -1
;
_chemical_formula_sum "Si O2"
_cell_formula_units_Z 12
_cell_length_a 11.386832
_cell_length_b 8.905133
_cell_length_c 10.126328
_cell_angle_alpha 106.225933
_cell_angle_beta 129.026736
_cell_angle_gamma 42.541411
_cell_volume 504.960965
_symmetry_space_group_name_H-M "P -1"
_symmetry_group_IT_number 2
_symmetry_cell_setting 'triclinic'
loop_
_space_group_symop_operation_xyz
x,y,z
-x,-y,-z
loop_
_atom_site_type_symbol
_atom_site_label
_atom_site_fract_x
_atom_site_fract_y
_atom_site_fract_z
Si Si1 0.017191 0.754581 0.753012
Si Si2 0.588054 0.993003 0.201067
Si Si3 0.343236 0.218819 0.544326
Si Si4 0.841269 0.473956 0.918185
Si Si5 0.892890 0.284432 0.479398
Si Si6 0.236226 0.748718 0.368184
O O1 0.895478 0.689047 0.608151
O O2 0.159444 0.693198 0.708416
O O3 0.830493 0.039098 0.699544
O O4 0.121850 0.631537 0.937480
O O5 0.417906 0.260064 0.198628
O O6 0.566119 0.874639 0.266473
O O7 0.849209 0.850026 0.348985
O O8 0.500000 0.000000 0.000000
O O9 0.283450 0.442869 0.529183
O O10 0.500000 0.000000 0.500000
O O11 0.884173 0.302635 0.803000
O O12 0.000000 0.500000 0.000000
O O13 0.847942 0.179797 0.523151
O O14 0.500000 0.500000 0.500000
#
# Coordination Sequence:
#
# PCOD9054660 Si02
#       6
#     2   2   2   2   2   2
#     4  11  23  41  63  94 131 169 214 270 325 384
#     4  11  21  37  63  95 127 166 215 270 318 373
#     4  11  21  38  64  93 126 169 217 266 319 384
#     4  12  25  44  68  97 132 174 221 267 319 390
#     4  11  23  42  65  95 131 173 219 268 323 391
#     4  12  25  44  67  96 132 173 216 271 332 386
#
# _framework density 23.764212000000001
#
# number of rings (size 3 to 8) (size 9 to 14) (size 15 to 20)
#    0.000    0.667    0.000   12.000    0.000    0.000 
#    0.000    6.667    0.000    0.000    0.000    0.000 
#    0.000    0.000    0.000    0.000    0.000    0.000 
#
# Total GULP energy -67139.923479 kJ/mol
# GULP energy per Si atom -5594.993623 kJ/mol
# Density = 2.371012 g / cm^3
# Si number density = 23.764212 Si / 1000 Ang^3
#
#
#
# Elastic Constant Matrix: (Units=GPa)
#
#
# Indices 1 2 3 4 5 6 
#
# 1 94.6836 21.4462 41.9508 -9.8480 -23.6690 -2.7929
# 2 21.4462 110.8274 20.5801 -15.0846 0.3146 2.7646
# 3 41.9508 20.5801 115.3465 0.6541 -34.8065 1.9023
# 4 -9.8480 -15.0846 0.6541 52.2522 5.1292 -5.0615
# 5 -23.6690 0.3146 -34.8065 5.1292 39.1818 0.1714
# 6 -2.7929 2.7646 1.9023 -5.0615 0.1714 51.9636
#
#
#
# Elastic Compliance Matrix: (Units=1/GPa)
#
#
# Indices 1 2 3 4 5 6 
#
# 1 0.013949 -0.001936 -0.003110 0.001681 0.005455 0.001112
# 2 -0.001936 0.010228 -0.002222 0.002944 -0.003610 -0.000268
# 3 -0.003110 -0.002222 0.013338 -0.002486 0.010317 -0.000813
# 4 0.001681 0.002944 -0.002486 0.020926 -0.003965 0.002076
# 5 0.005455 -0.003610 0.010317 -0.003965 0.038532 -0.000406
# 6 0.001112 -0.000268 -0.000813 0.002076 -0.000406 0.019552
#
#
# Mechanical properties :
#
#
# Convention : Reuss Voigt Hill
#
# Bulk Modulus (GPa) = 43.51943 54.31239 48.91591
# Shear Modulus (GPa) = 36.04388 44.47155 40.25771
#
# Velocity S-wave (km/s) = 3.89875 4.33062 4.12035
# Velocity P-wave (km/s) = 6.21448 6.92171 6.57760
#
# Compressibility (1/GPa) = 0.02297824
#
# Stress axis : x y z
#
# Youngs Moduli (GPa) = 71.68960 97.77040 74.97593
#
# Poissons Ratio (x) = 0.18931 0.23315
# Poissons Ratio (y) = 0.13881 0.16662
# Poissons Ratio (z) = 0.22293 0.21728
#
# Static dielectric constant tensor:
#      x y z
#    x 1.931450 -0.030920 -0.040140 
#    y -0.030920 1.973600 0.015410 
#    z -0.040140 0.015410 1.911940 
# 
# From -- ./inp_files/181516.got.cif
#   From: 2010.05.17/outbox.cif.g08.bks.cpg/sg2_91_cif.got.tgz:181516.got - 2010.06.03 11:33:40.
