data_PCOD9054458
_publ_section_title
;
Structure prediction by ZEFSAII (Michael W. Deem and Ramdas Pophale) SiO2 
 PCOD9054458
Probable space group: P -1
;
_chemical_formula_sum "Si O2"
_cell_formula_units_Z 16
_cell_length_a 19.783919
_cell_length_b 7.996906
_cell_length_c 11.441957
_cell_angle_alpha 97.187471
_cell_angle_beta 136.340430
_cell_angle_gamma 51.090693
_cell_volume 768.374060
_symmetry_space_group_name_H-M "P -1"
_symmetry_group_IT_number 2
_symmetry_cell_setting 'triclinic'
loop_
_space_group_symop_operation_xyz
x,y,z
-x,-y,-z
loop_
_atom_site_type_symbol
_atom_site_label
_atom_site_fract_x
_atom_site_fract_y
_atom_site_fract_z
Si Si1 0.688420 0.938422 0.948473
Si Si2 0.902695 0.312038 0.581454
Si Si3 0.321445 0.178176 0.818170
Si Si4 0.345355 0.522332 0.544594
Si Si5 0.093600 0.292366 0.993628
Si Si6 0.681683 0.313764 0.718833
Si Si7 0.538509 0.334095 0.146202
Si Si8 0.762163 0.241857 0.071338
O O1 0.711371 0.806475 0.084779
O O2 0.797931 0.739550 0.958996
O O3 0.729985 0.082225 0.032176
O O4 0.502012 0.194990 0.710352
O O5 0.810791 0.532123 0.383912
O O6 0.777831 0.376931 0.506628
O O7 0.976135 0.350339 0.765802
O O8 0.050864 0.997974 0.698110
O O9 0.333837 0.976315 0.756517
O O10 0.500000 0.000000 0.000000
O O11 0.281438 0.625997 0.343070
O O12 0.399753 0.632378 0.668778
O O13 0.000000 0.500000 0.000000
O O14 0.212056 0.996372 0.172082
O O15 0.500000 0.500000 0.500000
O O16 0.718403 0.347433 0.892645
O O17 0.500000 0.500000 0.000000
O O18 0.366872 0.495983 0.985550
#
# Coordination Sequence:
#
# PCOD9054458 Si02
#       8
#     2   2   2   2   2   2   2   2
#     4   9  18  38  61  81 121 157 200 237 296 358
#     4  10  23  39  61  88 130 151 190 259 300 339
#     4  12  22  39  64  89 119 163 199 243 300 352
#     4  11  19  38  64  88 112 161 205 241 290 353
#     4  10  23  39  59  93 124 151 197 249 304 356
#     4  10  17  35  65  81 111 160 200 236 291 354
#     4  11  20  37  63  86 114 155 209 237 280 369
#     4   9  20  37  58  90 118 152 198 247 296 343
#
# _framework density 20.823191999999999
#
# number of rings (size 3 to 8) (size 9 to 14) (size 15 to 20)
#    0.000    2.000    7.500    0.000    1.750    4.000 
#    0.000    5.625    0.000    0.000    0.000    0.000 
#    0.000    0.000    0.000    0.000    0.000    0.000 
#
# Total GULP energy -89308.493529 kJ/mol
# GULP energy per Si atom -5581.780846 kJ/mol
# Density = 2.077580 g / cm^3
# Si number density = 20.823192 Si / 1000 Ang^3
#
#
#
# Elastic Constant Matrix: (Units=GPa)
#
#
# Indices 1 2 3 4 5 6 
#
# 1 144.6436 29.5518 60.6200 -18.0944 -20.7306 -33.4086
# 2 29.5518 58.9120 36.5562 -8.9298 -6.6192 -35.5957
# 3 60.6200 36.5562 136.0085 -20.6291 -19.8191 -12.8429
# 4 -18.0944 -8.9298 -20.6291 23.2739 -4.4357 8.3094
# 5 -20.7306 -6.6192 -19.8191 -4.4357 46.5823 -1.6660
# 6 -33.4086 -35.5957 -12.8429 8.3094 -1.6660 34.8114
#
#
#
# Elastic Compliance Matrix: (Units=1/GPa)
#
#
# Indices 1 2 3 4 5 6 
#
# 1 0.013096 0.010535 -0.005316 0.003214 0.006117 0.020905
# 2 0.010535 0.065252 -0.014442 -0.003669 0.010072 0.072862
# 3 -0.005316 -0.014442 0.013554 0.008658 0.001570 -0.016861
# 4 0.003214 -0.003669 0.008658 0.057400 0.009676 -0.010711
# 5 0.006117 0.010072 0.001570 0.009676 0.027774 0.015769
# 6 0.020905 0.072862 -0.016861 -0.010711 0.015769 0.120384
#
#
# Mechanical properties :
#
#
# Convention : Reuss Voigt Hill
#
# Bulk Modulus (GPa) = 13.61373 65.89113 39.75243
# Shear Modulus (GPa) = 14.68897 35.12259 24.90578
#
# Velocity S-wave (km/s) = 2.65884 4.11141 3.46216
# Velocity P-wave (km/s) = 3.99724 7.36546 5.92571
#
# Compressibility (1/GPa) = 0.07345524
#
# Stress axis : x y z
#
# Youngs Moduli (GPa) = 76.35683 15.32525 73.78164
#
# Poissons Ratio (x) = -0.16145 0.39221
# Poissons Ratio (y) = -0.80442 1.06559
# Poissons Ratio (z) = 0.40590 0.22133
#
# Static dielectric constant tensor:
#      x y z
#    x 1.771070 0.001850 0.032690 
#    y 0.001850 1.798480 0.020740 
#    z 0.032690 0.020740 1.747010 
# 
# From -- ./inp_files/469408.got.cif
#   From: 2010.05.17/outbox.cif.g08.bks.cpg/sg2_235_cif.got.tgz:469408.got - 2010.06.03 11:33:40.
