data_PCOD9054669
_publ_section_title
;
Structure prediction by ZEFSAII (Michael W. Deem and Ramdas Pophale) SiO2 
 PCOD9054669
Probable space group: P -1
;
_chemical_formula_sum "Si O2"
_cell_formula_units_Z 16
_cell_length_a 22.330361
_cell_length_b 9.438192
_cell_length_c 10.621534
_cell_angle_alpha 151.747123
_cell_angle_beta 128.186728
_cell_angle_gamma 54.399564
_cell_volume 828.640130
_symmetry_space_group_name_H-M "P -1"
_symmetry_group_IT_number 2
_symmetry_cell_setting 'triclinic'
loop_
_space_group_symop_operation_xyz
x,y,z
-x,-y,-z
loop_
_atom_site_type_symbol
_atom_site_label
_atom_site_fract_x
_atom_site_fract_y
_atom_site_fract_z
Si Si1 0.862401 0.899584 0.425852
Si Si2 0.536328 0.316819 0.285018
Si Si3 0.847872 0.476751 0.306606
Si Si4 0.934616 0.873991 0.901614
Si Si5 0.954853 0.463889 0.039823
Si Si6 0.684229 0.430705 0.953724
Si Si7 0.308527 0.891973 0.560658
Si Si8 0.476737 0.668459 0.231284
O O1 0.870624 0.617981 0.312928
O O2 0.910261 0.166908 0.741148
O O3 0.773821 0.032106 0.421277
O O4 0.896774 0.751449 0.226666
O O5 0.500000 0.500000 0.500000
O O6 0.627260 0.274067 0.396565
O O7 0.515696 0.489907 0.263108
O O8 0.500000 0.000000 0.000000
O O9 0.867099 0.736463 0.630021
O O10 0.760622 0.412791 0.123247
O O11 0.898120 0.165559 0.157098
O O12 0.978916 0.605294 0.825713
O O13 0.000000 0.000000 0.000000
O O14 0.000000 0.500000 0.000000
O O15 0.662977 0.785293 0.181298
O O16 0.699192 0.277824 0.715917
O O17 0.613526 0.307678 0.835396
O O18 0.500000 0.000000 0.500000
O O19 0.500000 0.500000 0.000000
#
# Coordination Sequence:
#
# PCOD9054669 Si02
#       8
#     2   2   2   2   2   2   2   2
#     4  11  21  39  62  91 122 159 209 261 319 362
#     4  12  22  42  68 100 127 169 232 270 312 389
#     4  11  21  37  64  94 118 156 212 270 304 360
#     4  12  21  38  62  92 120 154 214 259 306 365
#     4  12  25  40  59  88 127 167 201 251 322 389
#     4  11  22  40  64  95 130 164 211 264 329 374
#     4  11  21  39  68  95 122 161 220 279 304 369
#     4  12  25  42  65  98 140 175 208 265 341 398
#
# _framework density 19.308744999999998
#
# number of rings (size 3 to 8) (size 9 to 14) (size 15 to 20)
#    0.000    0.500    5.000    6.000    0.000    0.000 
#    0.000    3.750    0.000    0.000    0.000    0.000 
#    0.000    0.000    0.000    0.000    0.000    0.000 
#
# Total GULP energy -89361.922831 kJ/mol
# GULP energy per Si atom -5585.120177 kJ/mol
# Density = 1.926480 g / cm^3
# Si number density = 19.308745 Si / 1000 Ang^3
#
#
#
# Elastic Constant Matrix: (Units=GPa)
#
#
# Indices 1 2 3 4 5 6 
#
# 1 109.3590 52.7403 51.1120 -17.8939 5.1527 -9.9815
# 2 52.7403 98.3250 35.3856 -9.4062 1.3133 -4.0570
# 3 51.1120 35.3856 145.3433 4.6113 -1.3411 -1.1699
# 4 -17.8939 -9.4062 4.6113 25.3433 -0.9277 -2.1132
# 5 5.1527 1.3133 -1.3411 -0.9277 39.7227 -2.8309
# 6 -9.9815 -4.0570 -1.1699 -2.1132 -2.8309 27.3343
#
#
#
# Elastic Compliance Matrix: (Units=1/GPa)
#
#
# Indices 1 2 3 4 5 6 
#
# 1 0.016515 -0.005894 -0.004682 0.010742 -0.001453 0.005636
# 2 -0.005894 0.013938 -0.001358 0.001268 0.000286 -0.000014
# 3 -0.004682 -0.001358 0.009026 -0.005584 0.000692 -0.001885
# 4 0.010742 0.001268 -0.005584 0.049172 0.000072 0.007681
# 5 -0.001453 0.000286 0.000692 0.000072 0.025535 0.002192
# 6 0.005636 -0.000014 -0.001885 0.007681 0.002192 0.039380
#
#
# Mechanical properties :
#
#
# Convention : Reuss Voigt Hill
#
# Bulk Modulus (GPa) = 64.05970 70.16701 67.11336
# Shear Modulus (GPa) = 27.37671 32.73269 30.05470
#
# Velocity S-wave (km/s) = 3.76951 4.12178 3.94957
# Velocity P-wave (km/s) = 7.22455 7.68573 7.45871
#
# Compressibility (1/GPa) = 0.01561044
#
# Stress axis : x y z
#
# Youngs Moduli (GPa) = 60.54970 71.74842 110.79504
#
# Poissons Ratio (x) = 0.42290 0.51871
# Poissons Ratio (y) = 0.35689 0.15048
# Poissons Ratio (z) = 0.28347 0.09745
#
# Static dielectric constant tensor:
#      x y z
#    x 1.667680 -0.021330 -0.013180 
#    y -0.021330 1.703900 -0.028780 
#    z -0.013180 -0.028780 1.741590 
# 
# From -- ./inp_files/227980.got.cif
#   From: 2010.05.17/outbox.cif.g08.bks.cpg/sg2_114_cif.got.tgz:227980.got - 2010.06.03 11:33:40.
