data_PCOD9054286
_publ_section_title
;
Structure prediction by ZEFSAII (Michael W. Deem and Ramdas Pophale) SiO2 
 PCOD9054286
Probable space group: P -1
;
_chemical_formula_sum "Si O2"
_cell_formula_units_Z 14
_cell_length_a 8.843340
_cell_length_b 8.401748
_cell_length_c 13.702706
_cell_angle_alpha 73.359307
_cell_angle_beta 49.988639
_cell_angle_gamma 98.610224
_cell_volume 665.344115
_symmetry_space_group_name_H-M "P -1"
_symmetry_group_IT_number 2
_symmetry_cell_setting 'triclinic'
loop_
_space_group_symop_operation_xyz
x,y,z
-x,-y,-z
loop_
_atom_site_type_symbol
_atom_site_label
_atom_site_fract_x
_atom_site_fract_y
_atom_site_fract_z
Si Si1 0.512228 0.970574 0.710668
Si Si2 0.738884 0.674582 0.865157
Si Si3 0.898500 0.322208 0.143710
Si Si4 0.399276 0.721003 0.534744
Si Si5 0.184116 0.216254 0.388256
Si Si6 0.820022 0.669622 0.415849
Si Si7 0.687960 0.049303 0.833692
O O1 0.247909 0.859489 0.828751
O O2 0.593252 0.809637 0.701426
O O3 0.600063 0.109326 0.557829
O O4 0.603730 0.075685 0.756834
O O5 0.837141 0.678429 0.716327
O O6 0.896116 0.678031 0.885151
O O7 0.723870 0.866613 0.840793
O O8 0.500000 0.500000 0.000000
O O9 0.733426 0.315324 0.301900
O O10 0.000000 0.500000 0.000000
O O11 0.653275 0.756619 0.440081
O O12 0.284235 0.534534 0.550533
O O13 0.174805 0.319217 0.471122
O O14 0.000000 0.000000 0.500000
O O15 0.076606 0.786927 0.260096
O O16 0.500000 0.000000 0.000000
#
# Coordination Sequence:
#
# PCOD9054286 Si02
#       7
#     2   2   2   2   2   2   2
#     4  11  23  42  71  98 127 178 228 272 334 394
#     4  11  25  42  68  98 130 177 225 272 334 394
#     4  12  25  43  70 101 137 175 228 279 331 405
#     4  11  26  42  69 102 134 178 223 282 333 396
#     4  11  20  42  68  95 127 172 223 271 323 398
#     4  11  24  44  67  95 142 173 226 272 342 392
#     4  11  26  46  66 101 140 176 219 284 340 400
#
# _framework density 21.041744000000001
#
# number of rings (size 3 to 8) (size 9 to 14) (size 15 to 20)
#    0.000    0.857    4.286    3.857    4.000    1.714 
#    2.571    1.429    0.000    0.000    0.000    0.000 
#    0.000    0.000    0.000    0.000    0.000    0.000 
#
# Total GULP energy -78239.427703 kJ/mol
# GULP energy per Si atom -5588.530550 kJ/mol
# Density = 2.099385 g / cm^3
# Si number density = 21.041744 Si / 1000 Ang^3
#
#
#
# Elastic Constant Matrix: (Units=GPa)
#
#
# Indices 1 2 3 4 5 6 
#
# 1 150.5045 24.6406 62.7476 -11.6311 1.4393 28.4039
# 2 24.6406 46.7397 15.1136 -0.0332 2.2582 21.8776
# 3 62.7476 15.1136 133.3643 -4.8213 8.9511 15.1865
# 4 -11.6311 -0.0332 -4.8213 36.6697 3.7561 -5.0550
# 5 1.4393 2.2582 8.9511 3.7561 46.3667 -8.8845
# 6 28.4039 21.8776 15.1865 -5.0550 -8.8845 35.1513
#
#
#
# Elastic Compliance Matrix: (Units=1/GPa)
#
#
# Indices 1 2 3 4 5 6 
#
# 1 0.009504 -0.001401 -0.003614 0.001898 -0.000668 -0.005142
# 2 -0.001401 0.032013 -0.000414 -0.002745 -0.005103 -0.020298
# 3 -0.003614 -0.000414 0.009547 0.000115 -0.001995 -0.001434
# 4 0.001898 -0.002745 0.000115 0.028572 -0.001525 0.003849
# 5 -0.000668 -0.005103 -0.001995 -0.001525 0.024360 0.010515
# 6 -0.005142 -0.020298 -0.001434 0.003849 0.010515 0.049068
#
#
# Mechanical properties :
#
#
# Convention : Reuss Voigt Hill
#
# Bulk Modulus (GPa) = 24.87200 59.51245 42.19222
# Shear Modulus (GPa) = 28.19708 38.84464 33.52086
#
# Velocity S-wave (km/s) = 3.66465 4.30126 3.99565
# Velocity P-wave (km/s) = 5.45455 7.28095 6.43290
#
# Compressibility (1/GPa) = 0.04020586
#
# Stress axis : x y z
#
# Youngs Moduli (GPa) = 105.22053 31.23712 104.74674
#
# Poissons Ratio (x) = 0.04377 0.37853
# Poissons Ratio (y) = 0.14744 0.04337
# Poissons Ratio (z) = 0.38024 0.01293
#
# Static dielectric constant tensor:
#      x y z
#    x 1.819950 0.025240 -0.009340 
#    y 0.025240 1.742860 0.009360 
#    z -0.009340 0.009360 1.728720 
# 
# From -- ./inp_files/154621.got.cif
#   From: 2010.05.17/outbox.cif.g08.bks.cpg/sg2_78_cif.got.tgz:154621.got - 2010.06.03 11:33:40.
