data_PCOD9054057
_publ_section_title
;
Structure prediction by ZEFSAII (Michael W. Deem and Ramdas Pophale) SiO2 
 PCOD9054057
Probable space group: P -1
;
_chemical_formula_sum "Si O2"
_cell_formula_units_Z 14
_cell_length_a 12.116826
_cell_length_b 8.605850
_cell_length_c 9.439027
_cell_angle_alpha 64.503817
_cell_angle_beta 117.225656
_cell_angle_gamma 129.320325
_cell_volume 662.796097
_symmetry_space_group_name_H-M "P -1"
_symmetry_group_IT_number 2
_symmetry_cell_setting 'triclinic'
loop_
_space_group_symop_operation_xyz
x,y,z
-x,-y,-z
loop_
_atom_site_type_symbol
_atom_site_label
_atom_site_fract_x
_atom_site_fract_y
_atom_site_fract_z
Si Si1 0.485445 0.858383 0.178476
Si Si2 0.194974 0.163729 0.878797
Si Si3 0.807529 0.988344 0.356904
Si Si4 0.285956 0.466385 0.043855
Si Si5 0.238174 0.859666 0.211777
Si Si6 0.137083 0.047637 0.281127
Si Si7 0.958753 0.441450 0.163057
O O1 0.418557 0.638515 0.148942
O O2 0.373589 0.853453 0.230361
O O3 0.645682 0.946926 0.301993
O O4 0.500000 0.000000 0.000000
O O5 0.217944 0.164906 0.725102
O O6 0.306157 0.366409 0.954153
O O7 0.027109 0.106003 0.817962
O O8 0.202951 0.978278 0.024046
O O9 0.917396 0.218780 0.272502
O O10 0.865325 0.958713 0.549493
O O11 0.190289 0.270214 0.165940
O O12 0.187330 0.553924 0.904459
O O13 0.101642 0.628269 0.249185
O O14 0.246722 0.985081 0.306864
O O15 0.000000 0.500000 0.000000
#
# Coordination Sequence:
#
# PCOD9054057 Si02
#       7
#     2   2   2   2   2   2   2
#     4  12  23  42  66  94 124 166 216 253 304 383
#     4  11  20  40  65  95 119 165 212 258 306 365
#     4  12  26  40  63  95 135 163 204 263 314 370
#     4  11  21  38  69  88 120 165 212 254 307 373
#     4  11  21  40  70  91 122 167 214 258 305 375
#     4  11  24  41  62  98 131 159 206 265 322 362
#     4  12  18  38  68  94 115 166 216 255 305 358
#
# _framework density 21.122636
#
# number of rings (size 3 to 8) (size 9 to 14) (size 15 to 20)
#    0.000    0.571    8.571    1.286    0.000    2.286 
#    0.000    0.000    0.000    0.000    0.000    0.000 
#    0.000    0.000    0.000    0.000    0.000    0.000 
#
# Total GULP energy -78204.971035 kJ/mol
# GULP energy per Si atom -5586.069360 kJ/mol
# Density = 2.107456 g / cm^3
# Si number density = 21.122636 Si / 1000 Ang^3
#
#
#
# Elastic Constant Matrix: (Units=GPa)
#
#
# Indices 1 2 3 4 5 6 
#
# 1 88.3034 32.6170 22.4205 8.8328 -5.2560 -1.2792
# 2 32.6170 81.5974 17.1237 2.0235 -4.8519 -8.2478
# 3 22.4205 17.1237 95.3871 6.9339 -21.8365 -12.9742
# 4 8.8328 2.0235 6.9339 13.0055 -1.3433 0.0874
# 5 -5.2560 -4.8519 -21.8365 -1.3433 31.8164 10.4065
# 6 -1.2792 -8.2478 -12.9742 0.0874 10.4065 29.4317
#
#
#
# Elastic Compliance Matrix: (Units=1/GPa)
#
#
# Indices 1 2 3 4 5 6 
#
# 1 0.014629 -0.005387 -0.002044 -0.007944 0.000486 -0.001923
# 2 -0.005387 0.014944 -0.001182 0.001886 -0.000524 0.003612
# 3 -0.002044 -0.001182 0.013700 -0.004953 0.007726 0.002902
# 4 -0.007944 0.001886 -0.004953 0.084635 -0.000130 -0.002206
# 5 0.000486 -0.000524 0.007726 -0.000130 0.040318 -0.010975
# 6 -0.001923 0.003612 0.002902 -0.002206 -0.010975 0.040072
#
#
# Mechanical properties :
#
#
# Convention : Reuss Voigt Hill
#
# Bulk Modulus (GPa) = 38.39440 45.51225 41.95333
# Shear Modulus (GPa) = 21.34864 27.72584 24.53724
#
# Velocity S-wave (km/s) = 3.18260 3.62693 3.41201
# Velocity P-wave (km/s) = 5.63219 6.25563 5.95208
#
# Compressibility (1/GPa) = 0.02604546
#
# Stress axis : x y z
#
# Youngs Moduli (GPa) = 68.35613 66.91635 72.99346
#
# Poissons Ratio (x) = 0.36050 0.14923
# Poissons Ratio (y) = 0.36825 0.08629
# Poissons Ratio (z) = 0.13975 0.07911
#
# Static dielectric constant tensor:
#      x y z
#    x 1.822550 -0.010440 -0.021150 
#    y -0.010440 1.785820 0.029970 
#    z -0.021150 0.029970 1.722520 
# 
# From -- ./inp_files/156702.got.cif
#   From: 2010.05.17/outbox.cif.g08.bks.cpg/sg2_79_cif.got.tgz:156702.got - 2010.06.03 11:33:40.
