data_PCOD9054827
_publ_section_title
;
Structure prediction by ZEFSAII (Michael W. Deem and Ramdas Pophale) SiO2 
 PCOD9054827
Probable space group: P -1
;
_chemical_formula_sum "Si O2"
_cell_formula_units_Z 16
_cell_length_a 21.826905
_cell_length_b 9.243652
_cell_length_c 5.281612
_cell_angle_alpha 126.398215
_cell_angle_beta 114.592561
_cell_angle_gamma 65.544811
_cell_volume 759.343452
_symmetry_space_group_name_H-M "P -1"
_symmetry_group_IT_number 2
_symmetry_cell_setting 'triclinic'
loop_
_space_group_symop_operation_xyz
x,y,z
-x,-y,-z
loop_
_atom_site_type_symbol
_atom_site_label
_atom_site_fract_x
_atom_site_fract_y
_atom_site_fract_z
Si Si1 0.246090 0.944446 0.775354
Si Si2 0.454939 0.068758 0.741785
Si Si3 0.980987 0.819190 0.386958
Si Si4 0.850298 0.802563 0.827900
Si Si5 0.663810 0.150584 0.676616
Si Si6 0.070570 0.557231 0.585060
Si Si7 0.879228 0.084443 0.788887
Si Si8 0.454817 0.486095 0.159971
O O1 0.292263 0.911381 0.567439
O O2 0.175730 0.885546 0.503807
O O3 0.291416 0.850663 0.992442
O O4 0.213560 0.153010 0.040461
O O5 0.500000 0.000000 0.500000
O O6 0.387291 0.987507 0.528555
O O7 0.436671 0.288428 0.931017
O O8 0.500000 0.000000 0.000000
O O9 0.045423 0.652572 0.370419
O O10 0.942519 0.907468 0.666528
O O11 0.921930 0.765895 0.065803
O O12 0.000000 0.000000 0.500000
O O13 0.864688 0.618351 0.492713
O O14 0.844159 0.994910 0.865122
O O15 0.613155 0.350995 0.774549
O O16 0.000000 0.500000 0.500000
O O17 0.093244 0.731338 0.935293
O O18 0.500000 0.500000 0.500000
O O19 0.500000 0.500000 0.000000
#
# Coordination Sequence:
#
# PCOD9054827 Si02
#       8
#     2   2   2   2   2   2   2   2
#     4  11  26  48  70  92 142 200 233 281 340 415
#     4  12  23  43  74 112 146 180 220 294 352 395
#     4  11  21  38  67  97 130 167 220 289 364 420
#     4  11  23  44  65  96 136 180 228 292 348 412
#     4  12  24  46  75 102 142 189 242 275 338 423
#     4  12  23  40  71 103 130 172 232 296 369 424
#     4  11  23  45  65  94 142 177 226 293 354 413
#     4  12  23  43  74 112 144 180 227 285 350 403
#
# _framework density 21.070830999999998
#
# number of rings (size 3 to 8) (size 9 to 14) (size 15 to 20)
#    0.000    0.500    6.250    3.000    0.000    0.000 
#    2.250    2.500    0.000    0.000    0.000    0.000 
#    0.000    0.000    0.000    0.000    0.000    0.000 
#
# Total GULP energy -89271.976500 kJ/mol
# GULP energy per Si atom -5579.498531 kJ/mol
# Density = 2.102287 g / cm^3
# Si number density = 21.070831 Si / 1000 Ang^3
#
#
#
# Elastic Constant Matrix: (Units=GPa)
#
#
# Indices 1 2 3 4 5 6 
#
# 1 107.9033 59.2948 44.4409 6.6183 -27.6232 -10.1232
# 2 59.2948 143.3409 78.7297 8.1489 7.6060 -6.5085
# 3 44.4409 78.7297 128.7489 2.6383 -4.0643 -8.3225
# 4 6.6183 8.1489 2.6383 60.6142 2.6792 3.8703
# 5 -27.6232 7.6060 -4.0643 2.6792 38.1426 -5.0233
# 6 -10.1232 -6.5085 -8.3225 3.8703 -5.0233 31.6794
#
#
#
# Elastic Compliance Matrix: (Units=1/GPa)
#
#
# Indices 1 2 3 4 5 6 
#
# 1 0.018760 -0.007789 -0.000705 -0.002133 0.016140 0.007029
# 2 -0.007789 0.014109 -0.006413 -0.000172 -0.009489 -0.002759
# 3 -0.000705 -0.006413 0.012130 0.000182 0.002310 0.001988
# 4 -0.002133 -0.000172 0.000182 0.017091 -0.003120 -0.003252
# 5 0.016140 -0.009489 0.002310 -0.003120 0.041687 0.010806
# 6 0.007029 -0.002759 0.001988 -0.003252 0.010806 0.035879
#
#
# Mechanical properties :
#
#
# Convention : Reuss Voigt Hill
#
# Bulk Modulus (GPa) = 65.85829 82.76934 74.31381
# Shear Modulus (GPa) = 28.64794 39.25575 33.95185
#
# Velocity S-wave (km/s) = 3.69128 4.32097 4.01848
# Velocity P-wave (km/s) = 7.03498 8.01631 7.54162
#
# Compressibility (1/GPa) = 0.01518412
#
# Stress axis : x y z
#
# Youngs Moduli (GPa) = 53.30373 70.87631 82.44163
#
# Poissons Ratio (x) = 0.55208 0.05811
# Poissons Ratio (y) = 0.41520 0.52873
# Poissons Ratio (z) = 0.03757 0.45456
#
# Static dielectric constant tensor:
#      x y z
#    x 2.050500 0.050790 -0.109480 
#    y 0.050790 1.784370 -0.013310 
#    z -0.109480 -0.013310 1.839710 
# 
# From -- ./inp_files/122742.got.cif
#   From: 2010.05.17/outbox.cif.g08.bks.cpg/sg2_62_cif.got.tgz:122742.got - 2010.06.03 11:33:40.
