data_PCOD9054151
_publ_section_title
;
Structure prediction by ZEFSAII (Michael W. Deem and Ramdas Pophale) SiO2 
 PCOD9054151
Probable space group: P -1
;
_chemical_formula_sum "Si O2"
_cell_formula_units_Z 15
_cell_length_a 18.938169
_cell_length_b 9.081513
_cell_length_c 14.659316
_cell_angle_alpha 140.174737
_cell_angle_beta 152.309019
_cell_angle_gamma 35.770541
_cell_volume 673.359346
_symmetry_space_group_name_H-M "P -1"
_symmetry_group_IT_number 2
_symmetry_cell_setting 'triclinic'
loop_
_space_group_symop_operation_xyz
x,y,z
-x,-y,-z
loop_
_atom_site_type_symbol
_atom_site_label
_atom_site_fract_x
_atom_site_fract_y
_atom_site_fract_z
Si Si1 0.500000 0.000000 0.000000
Si Si2 0.226366 0.636045 0.717621
Si Si3 0.787553 0.888407 0.552057
Si Si4 0.566844 0.724913 0.762583
Si Si5 0.448676 0.515033 0.094703
Si Si6 0.005360 0.892547 0.224537
Si Si7 0.757619 0.675165 0.774968
Si Si8 0.590202 0.211172 0.634917
O O1 0.600190 0.844413 0.948259
O O2 0.567104 0.731214 0.004637
O O3 0.169428 0.408785 0.548052
O O4 0.355238 0.574822 0.751681
O O5 0.076931 0.918957 0.694360
O O6 0.338377 0.616664 0.926543
O O7 0.609690 0.062108 0.379410
O O8 0.745657 0.983411 0.654036
O O9 0.920490 0.963977 0.690104
O O10 0.706389 0.663300 0.815954
O O11 0.554959 0.467298 0.656327
O O12 0.391725 0.714161 0.206771
O O13 0.148022 0.617526 0.289830
O O14 0.878632 0.812928 0.985071
O O15 0.582372 0.817377 0.588693
#
# Coordination Sequence:
#
# PCOD9054151 Si02
#       8
#     1   2   2   2   2   2   2   2
#     4  10  18  34  66  90 118 152 212 270 288 342
#     4  11  24  41  61  92 132 165 196 251 321 378
#     4  11  20  39  62  91 123 162 203 251 314 367
#     4  10  17  35  63  93 116 156 217 257 296 354
#     4  10  23  40  63  96 119 163 213 255 304 361
#     4  11  22  37  61  89 128 172 198 245 316 379
#     4  10  20  37  64  92 123 161 215 254 301 364
#     4  10  20  38  67  91 117 156 220 262 290 357
#
# _framework density 22.276367
#
# number of rings (size 3 to 8) (size 9 to 14) (size 15 to 20)
#    0.000    1.600    4.000    2.000    5.600    0.533 
#    0.000    1.333    8.800    0.000    0.000    0.000 
#    0.000    0.000    0.000    0.000    0.000    0.000 
#
# Total GULP energy -83592.813407 kJ/mol
# GULP energy per Si atom -5572.854227 kJ/mol
# Density = 2.222567 g / cm^3
# Si number density = 22.276367 Si / 1000 Ang^3
#
#
#
# Elastic Constant Matrix: (Units=GPa)
#
#
# Indices 1 2 3 4 5 6 
#
# 1 96.5124 23.1615 18.7162 1.4535 -16.1775 -28.4332
# 2 23.1615 96.0869 0.5835 27.0490 -2.7273 -20.4931
# 3 18.7162 0.5835 32.7936 7.8636 -3.2493 -21.6754
# 4 1.4535 27.0490 7.8636 21.3122 -15.8106 -18.6701
# 5 -16.1775 -2.7273 -3.2493 -15.8106 16.5741 -6.7889
# 6 -28.4332 -20.4931 -21.6754 -18.6701 -6.7889 23.5509
#
#
#
# Elastic Compliance Matrix: (Units=1/GPa)
#
#
# Indices 1 2 3 4 5 6 
#
# 1 0.008465 -0.001766 -0.010373 -0.009709 -0.007745 -0.010793
# 2 -0.001766 0.018220 0.016010 -0.012442 0.000182 0.018646
# 3 -0.010373 0.016010 0.058304 -0.032559 -0.017161 0.024310
# 4 -0.009709 -0.012442 -0.032559 0.013255 -0.025477 -0.049350
# 5 -0.007745 0.000182 -0.017161 -0.025477 0.007518 -0.043016
# 6 -0.010793 0.018646 0.024310 -0.049350 -0.043016 0.016507
#
#
# Mechanical properties :
#
#
# Convention : Reuss Voigt Hill
#
# Bulk Modulus (GPa) = 10.78395 34.47945 22.63170
# Shear Modulus (GPa) = 34.37866 24.48289 29.43077
#
# Velocity S-wave (km/s) = 3.93272 3.31879 3.63873
# Velocity P-wave (km/s) = 5.04710 5.49522 5.27592
#
# Compressibility (1/GPa) = 0.09273044
#
# Stress axis : x y z
#
# Youngs Moduli (GPa) = 118.13243 54.88443 17.15141
#
# Poissons Ratio (x) = 0.09693 0.17791
# Poissons Ratio (y) = 0.20863 -0.27459
# Poissons Ratio (z) = 1.22539 -0.87868
#
# Static dielectric constant tensor:
#      x y z
#    x 1.817440 -0.008650 0.006080 
#    y -0.008650 1.841680 -0.003680 
#    z 0.006080 -0.003680 1.853290 
# 
# From -- ./inp_files/277554.got.cif
#   From: 2010.05.17/outbox.cif.g08.bks.cpg/sg2_139_cif.got.tgz:277554.got - 2010.06.03 11:33:40.
