data_PCOD9054706
_publ_section_title
;
Structure prediction by ZEFSAII (Michael W. Deem and Ramdas Pophale) SiO2 
 PCOD9054706
Probable space group: P -1
;
_chemical_formula_sum "Si O2"
_cell_formula_units_Z 16
_cell_length_a 12.409365
_cell_length_b 9.483404
_cell_length_c 11.776416
_cell_angle_alpha 133.341635
_cell_angle_beta 53.479772
_cell_angle_gamma 108.577897
_cell_volume 800.380179
_symmetry_space_group_name_H-M "P -1"
_symmetry_group_IT_number 2
_symmetry_cell_setting 'triclinic'
loop_
_space_group_symop_operation_xyz
x,y,z
-x,-y,-z
loop_
_atom_site_type_symbol
_atom_site_label
_atom_site_fract_x
_atom_site_fract_y
_atom_site_fract_z
Si Si1 0.856735 0.947980 0.609502
Si Si2 0.991619 0.727142 0.610522
Si Si3 0.776949 0.918006 0.019220
Si Si4 0.380407 0.871033 0.976000
Si Si5 0.358637 0.078257 0.458824
Si Si6 0.480916 0.412692 0.668609
Si Si7 0.566414 0.683775 0.102242
Si Si8 0.250857 0.859408 0.606364
O O1 0.907663 0.784380 0.580819
O O2 0.768734 0.891035 0.528070
O O3 0.000000 0.000000 0.500000
O O4 0.743528 0.097093 0.835521
O O5 0.000000 0.500000 0.500000
O O6 0.138328 0.792213 0.558429
O O7 0.915187 0.845202 0.828142
O O8 0.705105 0.727055 0.984129
O O9 0.685460 0.053987 0.060981
O O10 0.792635 0.033010 0.189069
O O11 0.444752 0.643567 0.802401
O O12 0.500000 0.000000 0.000000
O O13 0.425363 0.274479 0.533822
O O14 0.465346 0.886384 0.252225
O O15 0.318043 0.012584 0.573145
O O16 0.417365 0.357301 0.797386
O O17 0.639620 0.330305 0.538032
O O18 0.500000 0.500000 0.000000
#
# Coordination Sequence:
#
# PCOD9054706 Si02
#       8
#     2   2   2   2   2   2   2   2
#     4  11  24  46  70  91 135 183 222 274 328 398
#     4  11  27  42  66  97 130 178 222 270 334 398
#     4  11  23  43  64  95 137 171 216 273 342 391
#     4  11  26  43  66 102 140 172 219 282 338 393
#     4  11  21  42  68  99 130 167 226 276 318 394
#     4  11  23  40  70 101 129 173 223 272 331 393
#     4  11  21  37  67  99 130 172 218 271 325 392
#     4  11  22  43  66  95 136 171 219 273 330 396
#
# _framework density 19.990500999999998
#
# number of rings (size 3 to 8) (size 9 to 14) (size 15 to 20)
#    0.000    1.000    3.750    3.375    7.000    2.500 
#    0.000    0.625    0.000    0.000    0.000    0.000 
#    0.000    0.000    0.000    0.000    0.000    0.000 
#
# Total GULP energy -89324.816068 kJ/mol
# GULP energy per Si atom -5582.801004 kJ/mol
# Density = 1.994500 g / cm^3
# Si number density = 19.990501 Si / 1000 Ang^3
#
#
#
# Elastic Constant Matrix: (Units=GPa)
#
#
# Indices 1 2 3 4 5 6 
#
# 1 92.0075 16.6422 24.8575 23.7596 1.8476 1.7567
# 2 16.6422 80.5973 46.4220 27.9411 -2.8969 7.7900
# 3 24.8575 46.4220 80.0159 17.6623 -2.5786 -7.6491
# 4 23.7596 27.9411 17.6623 44.6450 -0.0104 5.5098
# 5 1.8476 -2.8969 -2.5786 -0.0104 26.3072 -3.8451
# 6 1.7567 7.7900 -7.6491 5.5098 -3.8451 34.2975
#
#
#
# Elastic Compliance Matrix: (Units=1/GPa)
#
#
# Indices 1 2 3 4 5 6 
#
# 1 0.013331 0.001819 -0.003889 -0.006565 -0.001273 -0.001052
# 2 0.001819 0.023286 -0.012540 -0.009768 0.000241 -0.006582
# 3 -0.003889 -0.012540 0.021757 0.000312 0.002209 0.008097
# 4 -0.006565 -0.009768 0.000312 0.032211 -0.000960 -0.002658
# 5 -0.001273 0.000241 0.002209 -0.000960 0.039081 0.005039
# 6 -0.001052 -0.006582 0.008097 -0.002658 0.005039 0.033503
#
#
# Mechanical properties :
#
#
# Convention : Reuss Voigt Hill
#
# Bulk Modulus (GPa) = 34.29997 47.60712 40.95355
# Shear Modulus (GPa) = 24.73932 32.02987 28.38459
#
# Velocity S-wave (km/s) = 3.52170 4.00716 3.77225
# Velocity P-wave (km/s) = 5.80792 6.72877 6.28523
#
# Compressibility (1/GPa) = 0.02915454
#
# Stress axis : x y z
#
# Youngs Moduli (GPa) = 75.01082 42.94501 45.96148
#
# Poissons Ratio (x) = -0.07813 0.17876
# Poissons Ratio (y) = -0.13647 0.57635
# Poissons Ratio (z) = 0.29174 0.53852
#
# Static dielectric constant tensor:
#      x y z
#    x 1.702090 0.009160 0.007110 
#    y 0.009160 1.695230 -0.041120 
#    z 0.007110 -0.041120 1.752800 
# 
# From -- ./inp_files/243652.got.cif
#   From: 2010.05.17/outbox.cif.g08.bks.cpg/sg2_122_cif.got.tgz:243652.got - 2010.06.03 11:33:40.
