data_PCOD9054585
_publ_section_title
;
Structure prediction by ZEFSAII (Michael W. Deem and Ramdas Pophale) SiO2 
 PCOD9054585
Probable space group: P -1
;
_chemical_formula_sum "Si O2"
_cell_formula_units_Z 12
_cell_length_a 11.698626
_cell_length_b 9.197826
_cell_length_c 20.812161
_cell_angle_alpha 37.949938
_cell_angle_beta 152.570142
_cell_angle_gamma 125.179113
_cell_volume 570.676369
_symmetry_space_group_name_H-M "P -1"
_symmetry_group_IT_number 2
_symmetry_cell_setting 'triclinic'
loop_
_space_group_symop_operation_xyz
x,y,z
-x,-y,-z
loop_
_atom_site_type_symbol
_atom_site_label
_atom_site_fract_x
_atom_site_fract_y
_atom_site_fract_z
Si Si1 0.836148 0.258375 0.948006
Si Si2 0.557607 0.642972 0.379907
Si Si3 0.832639 0.814784 0.732512
Si Si4 0.320047 0.868528 0.722113
Si Si5 0.920096 0.316217 0.778450
Si Si6 0.772214 0.366644 0.116582
O O1 0.513957 0.365778 0.727782
O O2 0.887953 0.509133 0.868745
O O3 0.992247 0.163205 0.126869
O O4 0.957270 0.996789 0.056291
O O5 0.831523 0.423063 0.624701
O O6 0.329032 0.604139 0.322831
O O7 0.565276 0.917090 0.304423
O O8 0.992171 0.831297 0.742809
O O9 0.500000 0.000000 0.500000
O O10 0.326590 0.784288 0.828984
O O11 0.502972 0.599346 0.868932
O O12 0.000000 0.000000 0.500000
O O13 0.101095 0.458353 0.844254
#
# Coordination Sequence:
#
# PCOD9054585 Si02
#       6
#     2   2   2   2   2   2
#     4  11  22  38  62  93 129 164 209 272 314 377
#     4  11  21  36  63  99 123 165 211 268 321 370
#     4  11  25  42  63  95 136 170 212 261 328 381
#     4  11  23  39  65  96 135 165 209 264 327 382
#     4  11  21  37  69  96 125 155 225 280 314 361
#     4  11  23  42  64  99 127 168 213 267 321 382
#
# _framework density 21.027681000000001
#
# number of rings (size 3 to 8) (size 9 to 14) (size 15 to 20)
#    0.000    1.000    5.000    2.500    2.333    2.667 
#    0.000    0.833    0.000    3.000    0.000    0.000 
#    0.000    0.000    0.000    0.000    0.000    0.000 
#
# Total GULP energy -66802.074943 kJ/mol
# GULP energy per Si atom -5566.839579 kJ/mol
# Density = 2.097982 g / cm^3
# Si number density = 21.027681 Si / 1000 Ang^3
#
#
#
# Elastic Constant Matrix: (Units=GPa)
#
#
# Indices 1 2 3 4 5 6 
#
# 1 73.3790 12.6775 31.9391 5.2061 8.9658 1.9159
# 2 12.6775 60.5611 14.2629 14.6150 -10.4229 -9.9093
# 3 31.9391 14.2629 116.4637 18.8406 -8.9926 -13.8947
# 4 5.2061 14.6150 18.8406 42.5390 2.1825 -10.2500
# 5 8.9658 -10.4229 -8.9926 2.1825 32.1851 2.7438
# 6 1.9159 -9.9093 -13.8947 -10.2500 2.7438 33.0807
#
#
#
# Elastic Compliance Matrix: (Units=1/GPa)
#
#
# Indices 1 2 3 4 5 6 
#
# 1 0.017828 -0.004713 -0.005589 0.001423 -0.007835 -0.003701
# 2 -0.004713 0.020986 0.000925 -0.006453 0.008443 0.004248
# 3 -0.005589 0.000925 0.011502 -0.004082 0.005027 0.003750
# 4 0.001423 -0.006453 -0.004082 0.029064 -0.006090 0.005781
# 5 -0.007835 0.008443 0.005027 -0.006090 0.037799 0.000072
# 6 -0.003701 0.004248 0.003750 0.005781 0.000072 0.035076
#
#
# Mechanical properties :
#
#
# Convention : Reuss Voigt Hill
#
# Bulk Modulus (GPa) = 31.68322 40.90697 36.29509
# Shear Modulus (GPa) = 27.54386 34.32925 30.93656
#
# Velocity S-wave (km/s) = 3.62316 4.04490 3.83982
# Velocity P-wave (km/s) = 5.70992 6.42736 6.07923
#
# Compressibility (1/GPa) = 0.03156245
#
# Stress axis : x y z
#
# Youngs Moduli (GPa) = 56.09273 47.64969 86.94411
#
# Poissons Ratio (x) = 0.22458 0.48589
# Poissons Ratio (y) = 0.26437 -0.08043
# Poissons Ratio (z) = 0.31348 -0.04408
#
# Static dielectric constant tensor:
#      x y z
#    x 1.757690 -0.031900 -0.030530 
#    y -0.031900 1.761850 0.037240 
#    z -0.030530 0.037240 1.897550 
# 
# From -- ./inp_files/183482.got.cif
#   From: 2010.05.17/outbox.cif.g08.bks.cpg/sg2_92_cif.got.tgz:183482.got - 2010.06.03 11:33:40.
