data_PCOD9054150
_publ_section_title
;
Structure prediction by ZEFSAII (Michael W. Deem and Ramdas Pophale) SiO2 
 PCOD9054150
Probable space group: P -1
;
_chemical_formula_sum "Si O2"
_cell_formula_units_Z 16
_cell_length_a 9.316290
_cell_length_b 12.551024
_cell_length_c 14.046408
_cell_angle_alpha 111.377909
_cell_angle_beta 99.937449
_cell_angle_gamma 138.809168
_cell_volume 689.787543
_symmetry_space_group_name_H-M "P -1"
_symmetry_group_IT_number 2
_symmetry_cell_setting 'triclinic'
loop_
_space_group_symop_operation_xyz
x,y,z
-x,-y,-z
loop_
_atom_site_type_symbol
_atom_site_label
_atom_site_fract_x
_atom_site_fract_y
_atom_site_fract_z
Si Si1 0.936614 0.716538 0.465108
Si Si2 0.159779 0.038381 0.745512
Si Si3 0.973529 0.154187 0.803312
Si Si4 0.701071 0.606332 0.702629
Si Si5 0.821538 0.442844 0.044306
Si Si6 0.292604 0.599310 0.488541
Si Si7 0.880959 0.043038 0.973069
Si Si8 0.878684 0.469205 0.269499
O O1 0.605851 0.544228 0.341688
O O2 0.855523 0.572969 0.496013
O O3 0.041169 0.706127 0.388930
O O4 0.143860 0.960233 0.617856
O O5 0.151741 0.170374 0.780383
O O6 0.454359 0.194249 0.889856
O O7 0.855243 0.791051 0.695746
O O8 0.008788 0.159971 0.922031
O O9 0.089616 0.362398 0.866697
O O10 0.599973 0.884057 0.647933
O O11 0.594490 0.415839 0.579486
O O12 0.962554 0.769982 0.866823
O O13 0.907351 0.448482 0.157611
O O14 0.000000 0.500000 0.000000
O O15 0.027279 0.486836 0.367905
O O16 0.500803 0.783036 0.842633
O O17 0.000000 0.000000 0.000000
#
# Coordination Sequence:
#
# PCOD9054150 Si02
#       8
#     2   2   2   2   2   2   2   2
#     4  11  21  42  75 109 135 167 223 289 342 397
#     4  11  21  45  71  98 131 181 217 278 339 403
#     4  12  24  45  71  97 139 177 224 279 338 405
#     4  11  20  40  73 107 138 162 225 286 340 397
#     4  12  31  49  62  93 143 190 227 272 337 402
#     4  11  23  39  69 107 138 169 220 280 344 396
#     4  12  21  39  73 106 132 170 231 284 336 400
#     4  12  25  44  67 100 136 184 227 277 339 396
#
# _framework density 23.195547999999999
#
# number of rings (size 3 to 8) (size 9 to 14) (size 15 to 20)
#    0.000    0.500    7.500    1.500    3.500    2.000 
#    0.000    0.625    0.000    0.000    0.000    0.000 
#    0.000    0.000    0.000    0.000    0.000    0.000 
#
# Total GULP energy -89537.148227 kJ/mol
# GULP energy per Si atom -5596.071764 kJ/mol
# Density = 2.314275 g / cm^3
# Si number density = 23.195548 Si / 1000 Ang^3
#
#
#
# Elastic Constant Matrix: (Units=GPa)
#
#
# Indices 1 2 3 4 5 6 
#
# 1 79.6579 4.6930 31.5968 -11.9329 -0.9890 4.1235
# 2 4.6930 15.6916 17.9154 -9.0933 0.8794 0.9779
# 3 31.5968 17.9154 149.9497 -18.5875 -3.9548 -2.6770
# 4 -11.9329 -9.0933 -18.5875 26.7983 -4.8195 -6.5199
# 5 -0.9890 0.8794 -3.9548 -4.8195 49.4598 -8.5814
# 6 4.1235 0.9779 -2.6770 -6.5199 -8.5814 21.5316
#
#
#
# Elastic Compliance Matrix: (Units=1/GPa)
#
#
# Indices 1 2 3 4 5 6 
#
# 1 0.014301 0.001554 -0.002638 0.004712 0.000225 -0.001621
# 2 0.001554 0.086391 -0.007370 0.025809 0.000951 0.003057
# 3 -0.002638 -0.007370 0.008656 0.003542 0.001756 0.003688
# 4 0.004712 0.025809 0.003542 0.056845 0.008767 0.019073
# 5 0.000225 0.000951 0.001756 0.008767 0.023295 0.012071
# 6 -0.001621 0.003057 0.003688 0.019073 0.012071 0.057660
#
#
# Mechanical properties :
#
#
# Convention : Reuss Voigt Hill
#
# Bulk Modulus (GPa) = 10.81788 39.30107 25.05948
# Shear Modulus (GPa) = 16.95657 32.29754 24.62705
#
# Velocity S-wave (km/s) = 2.70668 3.73554 3.26193
# Velocity P-wave (km/s) = 3.80027 5.96539 5.00139
#
# Compressibility (1/GPa) = 0.09243956
#
# Stress axis : x y z
#
# Youngs Moduli (GPa) = 69.92489 11.57527 115.52014
#
# Poissons Ratio (x) = -0.01798 0.30474
# Poissons Ratio (y) = -0.10864 0.85140
# Poissons Ratio (z) = 0.18446 0.08531
#
# Static dielectric constant tensor:
#      x y z
#    x 1.900690 -0.023540 -0.034260 
#    y -0.023540 1.892450 -0.005940 
#    z -0.034260 -0.005940 1.894850 
# 
# From -- ./inp_files/274775.got.cif
#   From: 2010.05.17/outbox.cif.g08.bks.cpg/sg2_138_cif.got.tgz:274775.got - 2010.06.03 11:33:40.
