data_PCOD9054032
_publ_section_title
;
Structure prediction by ZEFSAII (Michael W. Deem and Ramdas Pophale) SiO2 
 PCOD9054032
Probable space group: P -1
;
_chemical_formula_sum "Si O2"
_cell_formula_units_Z 16
_cell_length_a 7.118367
_cell_length_b 16.758513
_cell_length_c 8.016653
_cell_angle_alpha 70.245274
_cell_angle_beta 61.944639
_cell_angle_gamma 82.690251
_cell_volume 793.708894
_symmetry_space_group_name_H-M "P -1"
_symmetry_group_IT_number 2
_symmetry_cell_setting 'triclinic'
loop_
_space_group_symop_operation_xyz
x,y,z
-x,-y,-z
loop_
_atom_site_type_symbol
_atom_site_label
_atom_site_fract_x
_atom_site_fract_y
_atom_site_fract_z
Si Si1 0.966089 0.799069 0.111235
Si Si2 0.195866 0.378483 0.605275
Si Si3 0.328945 0.085726 0.667553
Si Si4 0.352609 0.656192 0.374240
Si Si5 0.464519 0.164732 0.886271
Si Si6 0.582853 0.494454 0.783251
Si Si7 0.608877 0.109691 0.217532
Si Si8 0.856601 0.475206 0.234473
O O1 0.943395 0.707651 0.271821
O O2 0.890166 0.869360 0.226994
O O3 0.777200 0.802550 0.049250
O O4 0.190918 0.824094 0.919617
O O5 0.419634 0.355683 0.617562
O O6 0.255807 0.425967 0.375613
O O7 0.092881 0.452375 0.702474
O O8 0.473735 0.108344 0.754539
O O9 0.445981 0.122638 0.428213
O O10 0.305498 0.984923 0.730201
O O11 0.369054 0.755148 0.253736
O O12 0.343258 0.594892 0.258713
O O13 0.170472 0.617035 0.602231
O O14 0.499356 0.117267 0.077476
O O15 0.381232 0.510066 0.739407
O O16 0.500000 0.500000 0.000000
O O17 0.000000 0.500000 0.000000
#
# Coordination Sequence:
#
# PCOD9054032 Si02
#       8
#     2   2   2   2   2   2   2   2
#     4   9  20  38  58  82 116 151 184 238 284 330
#     4   8  16  34  51  69 105 141 175 215 272 325
#     4   9  22  38  59  86 117 145 190 238 281 347
#     4   8  16  34  51  69 105 141 175 215 272 325
#     4   9  20  38  58  82 116 151 184 238 284 330
#     4   9  17  31  51  72 101 140 173 216 267 320
#     4  11  20  40  59  88 113 147 194 232 285 347
#     4   9  17  31  51  72 101 140 173 216 267 320
#
# _framework density 20.158524
#
# number of rings (size 3 to 8) (size 9 to 14) (size 15 to 20)
#    0.750    2.250    0.000    2.250    0.000    2.000 
#    6.750    2.500    0.000    0.000    0.000    0.000 
#    0.000    0.000    0.000    0.000    0.000    0.000 
#
# Total GULP energy -89096.723386 kJ/mol
# GULP energy per Si atom -5568.545212 kJ/mol
# Density = 2.011264 g / cm^3
# Si number density = 20.158524 Si / 1000 Ang^3
#
#
#
# Elastic Constant Matrix: (Units=GPa)
#
#
# Indices 1 2 3 4 5 6 
#
# 1 46.1165 -0.7902 2.8089 -3.4991 -2.3945 10.8411
# 2 -0.7902 14.6576 20.2620 -13.6348 2.1296 3.1974
# 3 2.8089 20.2620 152.9298 -1.2574 4.6219 8.0969
# 4 -3.4991 -13.6348 -1.2574 27.5438 9.5532 -1.4258
# 5 -2.3945 2.1296 4.6219 9.5532 27.8845 -1.4584
# 6 10.8411 3.1974 8.0969 -1.4258 -1.4584 23.5509
#
#
#
# Elastic Compliance Matrix: (Units=1/GPa)
#
#
# Indices 1 2 3 4 5 6 
#
# 1 0.026488 0.024159 -0.002651 0.016381 -0.005471 -0.013909
# 2 0.024159 0.294620 -0.034003 0.171768 -0.075400 -0.033700
# 3 -0.002651 -0.034003 0.010639 -0.019116 0.007232 0.001469
# 4 0.016381 0.171768 -0.019116 0.141695 -0.058098 -0.019308
# 5 -0.005471 -0.075400 0.007232 -0.058098 0.060405 0.010492
# 6 -0.013909 -0.033700 0.001469 -0.019308 0.010492 0.052415
#
#
# Mechanical properties :
#
#
# Convention : Reuss Voigt Hill
#
# Bulk Modulus (GPa) = 3.25990 28.69615 15.97802
# Shear Modulus (GPa) = 7.00766 28.55737 17.78252
#
# Velocity S-wave (km/s) = 1.86650 3.76791 2.97330
# Velocity P-wave (km/s) = 2.50315 5.76157 4.44193
#
# Compressibility (1/GPa) = 0.30675770
#
# Stress axis : x y z
#
# Youngs Moduli (GPa) = 37.75273 3.39420 93.99142
#
# Poissons Ratio (x) = -0.08200 0.24917
# Poissons Ratio (y) = -0.91208 3.19602
# Poissons Ratio (z) = 0.10008 0.11541
#
# Static dielectric constant tensor:
#      x y z
#    x 1.780050 -0.009200 -0.001620 
#    y -0.009200 1.708170 0.007180 
#    z -0.001620 0.007180 1.788970 
# 
# From -- ./inp_files/214686.got.cif
#   From: 2010.05.17/outbox.cif.g08.bks.cpg/sg2_108_cif.got.tgz:214686.got - 2010.06.03 11:33:40.
