data_PCOD9054613
_publ_section_title
;
Structure prediction by ZEFSAII (Michael W. Deem and Ramdas Pophale) SiO2 
 PCOD9054613
Probable space group: P -1
;
_chemical_formula_sum "Si O2"
_cell_formula_units_Z 16
_cell_length_a 10.804909
_cell_length_b 10.531823
_cell_length_c 13.102875
_cell_angle_alpha 71.384951
_cell_angle_beta 34.893295
_cell_angle_gamma 62.933404
_cell_volume 755.254485
_symmetry_space_group_name_H-M "P -1"
_symmetry_group_IT_number 2
_symmetry_cell_setting 'triclinic'
loop_
_space_group_symop_operation_xyz
x,y,z
-x,-y,-z
loop_
_atom_site_type_symbol
_atom_site_label
_atom_site_fract_x
_atom_site_fract_y
_atom_site_fract_z
Si Si1 0.353477 0.369803 0.819202
Si Si2 0.091942 0.811029 0.759388
Si Si3 0.581403 0.952845 0.069787
Si Si4 0.118779 0.107784 0.445928
Si Si5 0.061089 0.141855 0.934222
Si Si6 0.846936 0.374465 0.434453
Si Si7 0.577384 0.038367 0.546658
Si Si8 0.987298 0.577858 0.161019
O O1 0.416674 0.205748 0.859041
O O2 0.578695 0.404207 0.627650
O O3 0.201648 0.395252 0.811008
O O4 0.214546 0.468178 0.980920
O O5 0.073809 0.713743 0.703189
O O6 0.328900 0.834303 0.571818
O O7 0.846705 0.944491 0.895228
O O8 0.078294 0.768343 0.896430
O O9 0.375367 0.069003 0.238373
O O10 0.500000 0.000000 0.000000
O O11 0.194757 0.070342 0.521864
O O12 0.973199 0.267234 0.467845
O O13 0.000000 0.000000 0.500000
O O14 0.996481 0.268185 0.862960
O O15 0.341607 0.083229 0.760242
O O16 0.000000 0.000000 0.000000
O O17 0.910182 0.512087 0.329402
O O18 0.500000 0.000000 0.500000
#
# Coordination Sequence:
#
# PCOD9054613 Si02
#       8
#     2   2   2   2   2   2   2   2
#     4  11  21  37  58  94 138 174 202 266 339 401
#     4  12  21  37  64  97 131 170 213 263 333 382
#     4  12  19  34  60  98 139 167 204 269 337 386
#     4  12  21  37  64 100 140 165 218 276 325 390
#     4  12  25  44  66  93 125 173 231 275 316 395
#     4  12  23  37  64 100 137 169 206 275 346 383
#     4  12  25  42  65  98 130 175 222 271 328 391
#     4  11  22  40  59  91 133 171 218 265 337 395
#
# _framework density 21.184913000000002
#
# number of rings (size 3 to 8) (size 9 to 14) (size 15 to 20)
#    0.000    0.250    8.750    1.875    0.000    1.000 
#    0.000    0.000    0.000    1.500    0.000    0.000 
#    0.000    0.000    0.000    0.000    0.000    0.000 
#
# Total GULP energy -89111.164922 kJ/mol
# GULP energy per Si atom -5569.447808 kJ/mol
# Density = 2.113669 g / cm^3
# Si number density = 21.184913 Si / 1000 Ang^3
#
#
#
# Elastic Constant Matrix: (Units=GPa)
#
#
# Indices 1 2 3 4 5 6 
#
# 1 67.3964 27.9565 6.9494 -10.7258 0.4592 -8.6374
# 2 27.9565 103.2437 32.9766 -23.6672 -8.6141 -14.7245
# 3 6.9494 32.9766 152.0668 -14.3166 -16.4633 2.4691
# 4 -10.7258 -23.6672 -14.3166 33.6917 -3.6605 3.5910
# 5 0.4592 -8.6141 -16.4633 -3.6605 25.9881 -5.8868
# 6 -8.6374 -14.7245 2.4691 3.5910 -5.8868 23.5129
#
#
#
# Elastic Compliance Matrix: (Units=1/GPa)
#
#
# Indices 1 2 3 4 5 6 
#
# 1 0.017196 -0.003622 0.000161 0.002592 -0.000226 0.003579
# 2 -0.003622 0.014989 -0.001648 0.008524 0.007164 0.008721
# 3 0.000161 -0.001648 0.007687 0.002760 0.004464 -0.001084
# 4 0.002592 0.008524 0.002760 0.038522 0.010581 0.002767
# 5 -0.000226 0.007164 0.004464 0.010581 0.048449 0.014448
# 6 0.003579 0.008721 -0.001084 0.002767 0.014448 0.052614
#
#
# Mechanical properties :
#
#
# Convention : Reuss Voigt Hill
#
# Bulk Modulus (GPa) = 33.72319 50.94130 42.33225
# Shear Modulus (GPa) = 25.05518 33.62684 29.34101
#
# Velocity S-wave (km/s) = 3.44276 3.98842 3.72559
# Velocity P-wave (km/s) = 5.63529 6.73114 6.20744
#
# Compressibility (1/GPa) = 0.02965318
#
# Stress axis : x y z
#
# Youngs Moduli (GPa) = 58.15221 66.71724 130.09217
#
# Poissons Ratio (x) = 0.24165 -0.02095
# Poissons Ratio (y) = 0.21063 0.21443
# Poissons Ratio (z) = -0.00936 0.10997
#
# Static dielectric constant tensor:
#      x y z
#    x 1.860900 -0.035420 0.066600 
#    y -0.035420 1.871300 -0.036810 
#    z 0.066600 -0.036810 1.794030 
# 
# From -- ./inp_files/518824.got.cif
#   From: 2010.05.17/outbox.cif.g08.bks.cpg/sg2_260_cif.got.tgz:518824.got - 2010.06.03 11:33:40.
