data_PCOD9054710
_publ_section_title
;
Structure prediction by ZEFSAII (Michael W. Deem and Ramdas Pophale) SiO2 
 PCOD9054710
Probable space group: P -1
;
_chemical_formula_sum "Si O2"
_cell_formula_units_Z 14
_cell_length_a 13.289711
_cell_length_b 8.549155
_cell_length_c 15.960166
_cell_angle_alpha 50.680938
_cell_angle_beta 25.325340
_cell_angle_gamma 62.309134
_cell_volume 567.195227
_symmetry_space_group_name_H-M "P -1"
_symmetry_group_IT_number 2
_symmetry_cell_setting 'triclinic'
loop_
_space_group_symop_operation_xyz
x,y,z
-x,-y,-z
loop_
_atom_site_type_symbol
_atom_site_label
_atom_site_fract_x
_atom_site_fract_y
_atom_site_fract_z
Si Si1 0.020280 0.170386 0.759642
Si Si2 0.653710 0.855717 0.243906
Si Si3 0.344631 0.576656 0.326845
Si Si4 0.072401 0.169955 0.203652
Si Si5 0.722284 0.073160 0.639215
Si Si6 0.364579 0.640778 0.102423
Si Si7 0.798165 0.433473 0.246923
O O1 0.848175 0.302704 0.807712
O O2 0.287160 0.353661 0.494884
O O3 0.008948 0.985620 0.762954
O O4 0.902478 0.059462 0.973168
O O5 0.482919 0.897854 0.282641
O O6 0.725034 0.643530 0.246204
O O7 0.453425 0.775681 0.497338
O O8 0.202635 0.719612 0.430063
O O9 0.279843 0.540262 0.290515
O O10 0.634290 0.719857 0.060602
O O11 0.943239 0.043882 0.426600
O O12 0.954977 0.362387 0.224680
O O13 0.575724 0.871624 0.873567
O O14 0.500000 0.500000 0.000000
O O15 0.000000 0.500000 0.000000
#
# Coordination Sequence:
#
# PCOD9054710 Si02
#       7
#     2   2   2   2   2   2   2
#     4  11  23  43  61  93 130 163 210 258 315 372
#     4   9  19  37  63  92 127 163 206 258 305 372
#     4  12  24  41  65  92 130 166 208 265 304 376
#     4  11  23  41  65  94 126 168 206 259 315 371
#     4  10  22  41  63  93 128 166 211 259 315 363
#     4  11  24  43  65  92 123 170 215 257 314 371
#     4  10  17  35  69  93 118 168 210 248 313 370
#
# _framework density 24.682860000000002
#
# number of rings (size 3 to 8) (size 9 to 14) (size 15 to 20)
#    0.000    1.429    4.286    1.714    2.000    0.571 
#    0.000    0.714    0.000    5.143    0.000    0.000 
#    0.000    0.000    0.000    0.000    0.000    0.000 
#
# Total GULP energy -78191.108181 kJ/mol
# GULP energy per Si atom -5585.079156 kJ/mol
# Density = 2.462668 g / cm^3
# Si number density = 24.682860 Si / 1000 Ang^3
#
#
#
# Elastic Constant Matrix: (Units=GPa)
#
#
# Indices 1 2 3 4 5 6 
#
# 1 55.8463 20.0803 17.7207 0.5474 20.5990 -5.1533
# 2 20.0803 88.7120 38.5105 -5.0779 -3.5895 -7.8535
# 3 17.7207 38.5105 203.6015 -9.6992 45.0423 15.8968
# 4 0.5474 -5.0779 -9.6992 46.2412 0.3372 4.0398
# 5 20.5990 -3.5895 45.0423 0.3372 35.6450 0.0808
# 6 -5.1533 -7.8535 15.8968 4.0398 0.0808 33.9733
#
#
#
# Elastic Compliance Matrix: (Units=1/GPa)
#
#
# Indices 1 2 3 4 5 6 
#
# 1 0.028188 -0.009117 0.004220 -0.000310 -0.022538 0.000284
# 2 -0.009117 0.017055 -0.006090 0.000128 0.014668 0.005359
# 3 0.004220 -0.006090 0.009557 0.001870 -0.015134 -0.005426
# 4 -0.000310 0.000128 0.001870 0.022363 -0.002375 -0.003546
# 5 -0.022538 0.014668 -0.015134 -0.002375 0.061686 0.007189
# 6 0.000284 0.005359 -0.005426 -0.003546 0.007189 0.033660
#
#
# Mechanical properties :
#
#
# Convention : Reuss Voigt Hill
#
# Bulk Modulus (GPa) = 30.46289 55.64254 43.05272
# Shear Modulus (GPa) = 24.33996 41.29511 32.81754
#
# Velocity S-wave (km/s) = 3.14364 4.09470 3.65028
# Velocity P-wave (km/s) = 5.05422 6.70428 5.93686
#
# Compressibility (1/GPa) = 0.03282682
#
# Stress axis : x y z
#
# Youngs Moduli (GPa) = 35.47629 58.63428 104.63738
#
# Poissons Ratio (x) = 0.53457 -0.44159
# Poissons Ratio (y) = 0.32344 0.63720
# Poissons Ratio (z) = -0.14972 0.35706
#
# Static dielectric constant tensor:
#      x y z
#    x 2.039690 -0.042050 -0.010940 
#    y -0.042050 1.910170 -0.001030 
#    z -0.010940 -0.001030 2.124300 
# 
# From -- ./inp_files/315264.got.cif
#   From: 2010.05.17/outbox.cif.g08.bks.cpg/sg2_158_cif.got.tgz:315264.got - 2010.06.03 11:33:40.
