data_PCOD9054595
_publ_section_title
;
Structure prediction by ZEFSAII (Michael W. Deem and Ramdas Pophale) SiO2 
 PCOD9054595
Probable space group: P -1
;
_chemical_formula_sum "Si O2"
_cell_formula_units_Z 15
_cell_length_a 9.295271
_cell_length_b 12.091660
_cell_length_c 12.277072
_cell_angle_alpha 49.504684
_cell_angle_beta 82.498741
_cell_angle_gamma 116.030362
_cell_volume 748.529526
_symmetry_space_group_name_H-M "P -1"
_symmetry_group_IT_number 2
_symmetry_cell_setting 'triclinic'
loop_
_space_group_symop_operation_xyz
x,y,z
-x,-y,-z
loop_
_atom_site_type_symbol
_atom_site_label
_atom_site_fract_x
_atom_site_fract_y
_atom_site_fract_z
Si Si1 0.147431 0.324609 0.303298
Si Si2 0.763723 0.100176 0.159644
Si Si3 0.447891 0.268772 0.085087
Si Si4 0.588155 0.051439 0.838016
Si Si5 0.366209 0.785335 0.710007
Si Si6 0.953803 0.505393 0.252013
Si Si7 0.014323 0.973807 0.681385
Si Si8 0.000000 0.500000 0.500000
O O1 0.003720 0.150458 0.338827
O O2 0.066913 0.428375 0.273335
O O3 0.373667 0.500163 0.120821
O O4 0.119572 0.195916 0.489592
O O5 0.760573 0.216062 0.184528
O O6 0.856629 0.016706 0.246717
O O7 0.540643 0.935140 0.238632
O O8 0.899399 0.265087 0.947525
O O9 0.507499 0.244520 0.213510
O O10 0.219221 0.165251 0.174994
O O11 0.447802 0.132605 0.090110
O O12 0.818709 0.255614 0.687759
O O13 0.500000 0.000000 0.000000
O O14 0.229856 0.621541 0.734273
O O15 0.500000 0.000000 0.500000
O O16 0.909963 0.480855 0.398825
#
# Coordination Sequence:
#
# PCOD9054595 Si02
#       8
#     2   2   2   2   2   2   2   1
#     4  11  21  40  62  92 138 175 203 260 335 391
#     4  11  22  42  66  97 130 168 219 279 323 385
#     4  11  23  41  65  96 133 175 212 265 329 396
#     4  11  22  44  69  94 128 171 226 271 319 387
#     4  11  21  36  65  99 128 166 220 267 323 385
#     4  12  21  41  68  93 130 174 222 271 319 388
#     4  11  24  38  62 101 138 165 209 266 339 391
#     4  12  24  40  68 100 122 168 228 274 318 376
#
# _framework density 20.039290999999999
#
# number of rings (size 3 to 8) (size 9 to 14) (size 15 to 20)
#    0.000    0.800    5.333    4.800    1.867    0.000 
#    2.400    0.667    0.000    4.000    0.000    0.000 
#    0.000    0.000    0.000    0.000    0.000    0.000 
#
# Total GULP energy -83554.457234 kJ/mol
# GULP energy per Si atom -5570.297149 kJ/mol
# Density = 1.999368 g / cm^3
# Si number density = 20.039291 Si / 1000 Ang^3
#
#
#
# Elastic Constant Matrix: (Units=GPa)
#
#
# Indices 1 2 3 4 5 6 
#
# 1 90.3681 21.4617 2.6279 -1.2745 26.0327 15.1191
# 2 21.4617 98.7264 25.0241 6.4565 2.5766 29.7141
# 3 2.6279 25.0241 98.0055 -14.7972 13.4746 0.3894
# 4 -1.2745 6.4565 -14.7972 36.7097 8.4277 1.3013
# 5 26.0327 2.5766 13.4746 8.4277 23.1045 -3.6905
# 6 15.1191 29.7141 0.3894 1.3013 -3.6905 19.2773
#
#
#
# Elastic Compliance Matrix: (Units=1/GPa)
#
#
# Indices 1 2 3 4 5 6 
#
# 1 0.035877 0.004790 0.009527 0.020133 -0.061666 -0.048878
# 2 0.004790 0.023067 -0.004553 -0.001670 -0.011296 -0.041270
# 3 0.009527 -0.004553 0.016915 0.014246 -0.026376 -0.006807
# 4 0.020133 -0.001670 0.014246 0.046898 -0.052172 -0.026658
# 5 -0.061666 -0.011296 -0.026376 -0.052172 0.164624 0.101347
# 6 -0.048878 -0.041270 -0.006807 -0.026658 0.101347 0.175161
#
#
# Mechanical properties :
#
#
# Convention : Reuss Voigt Hill
#
# Bulk Modulus (GPa) = 10.48367 42.81416 26.64892
# Shear Modulus (GPa) = 10.53052 31.68406 21.10729
#
# Velocity S-wave (km/s) = 2.29485 3.98061 3.24897
# Velocity P-wave (km/s) = 3.50210 6.52216 5.23466
#
# Compressibility (1/GPa) = 0.09538645
#
# Stress axis : x y z
#
# Youngs Moduli (GPa) = 27.87292 43.35167 59.11920
#
# Poissons Ratio (x) = -0.20763 -0.56325
# Poissons Ratio (y) = -0.13350 0.26919
# Poissons Ratio (z) = -0.26555 0.19739
#
# Static dielectric constant tensor:
#      x y z
#    x 1.738210 -0.002940 -0.022730 
#    y -0.002940 1.721830 0.007450 
#    z -0.022730 0.007450 1.735030 
# 
# From -- ./inp_files/270454.got.cif
#   From: 2010.05.17/outbox.cif.g08.bks.cpg/sg2_136_cif.got.tgz:270454.got - 2010.06.03 11:33:40.
