data_PCOD9054790
_publ_section_title
;
Structure prediction by ZEFSAII (Michael W. Deem and Ramdas Pophale) SiO2 
 PCOD9054790
Probable space group: P -1
;
_chemical_formula_sum "Si O2"
_cell_formula_units_Z 12
_cell_length_a 8.779860
_cell_length_b 9.608213
_cell_length_c 10.029277
_cell_angle_alpha 47.071001
_cell_angle_beta 88.706370
_cell_angle_gamma 67.330492
_cell_volume 534.365817
_symmetry_space_group_name_H-M "P -1"
_symmetry_group_IT_number 2
_symmetry_cell_setting 'triclinic'
loop_
_space_group_symop_operation_xyz
x,y,z
-x,-y,-z
loop_
_atom_site_type_symbol
_atom_site_label
_atom_site_fract_x
_atom_site_fract_y
_atom_site_fract_z
Si Si1 0.188647 0.299838 0.086360
Si Si2 0.859897 0.489079 0.315278
Si Si3 0.393926 0.276086 0.617396
Si Si4 0.505560 0.449908 0.737530
Si Si5 0.153133 0.053973 0.477967
Si Si6 0.446624 0.808474 0.841194
O O1 0.209169 0.096786 0.304322
O O2 0.347700 0.335771 0.105938
O O3 0.947495 0.713345 0.588647
O O4 0.000000 0.500000 0.000000
O O5 0.799508 0.582283 0.403504
O O6 0.708486 0.425094 0.325656
O O7 0.814635 0.687332 0.082563
O O8 0.523383 0.287081 0.720592
O O9 0.418752 0.398227 0.411420
O O10 0.433300 0.033341 0.748190
O O11 0.588338 0.313316 0.958447
O O12 0.315670 0.878672 0.675499
O O13 0.000000 0.000000 0.500000
#
# Coordination Sequence:
#
# PCOD9054790 Si02
#       6
#     2   2   2   2   2   2
#     4   9  20  40  60  84 118 161 200 246 302 358
#     4   8  18  39  58  83 123 153 196 248 307 351
#     4   9  18  36  67  90 120 154 194 255 318 354
#     4   8  18  36  60  95 116 153 192 252 312 359
#     4  11  24  39  56  88 125 165 206 251 288 354
#     4  11  21  38  65  93 117 161 209 241 307 368
#
# _framework density 22.456524000000002
#
# number of rings (size 3 to 8) (size 9 to 14) (size 15 to 20)
#    1.000    1.667    0.000    1.000    2.333    0.667 
#    9.000    5.000    0.000    0.000    0.000    0.000 
#    0.000    0.000    0.000    0.000    0.000    0.000 
#
# Total GULP energy -66935.532445 kJ/mol
# GULP energy per Si atom -5577.961037 kJ/mol
# Density = 2.240541 g / cm^3
# Si number density = 22.456524 Si / 1000 Ang^3
#
#
#
# Elastic Constant Matrix: (Units=GPa)
#
#
# Indices 1 2 3 4 5 6 
#
# 1 87.8564 20.4061 72.5426 4.5895 1.6280 -16.6758
# 2 20.4061 74.9293 16.9681 -7.4087 -5.0651 0.1284
# 3 72.5426 16.9681 194.0342 -3.6731 -24.5054 1.1214
# 4 4.5895 -7.4087 -3.6731 13.4444 -2.9269 -1.7768
# 5 1.6280 -5.0651 -24.5054 -2.9269 47.8702 1.9984
# 6 -16.6758 0.1284 1.1214 -1.7768 1.9984 23.4035
#
#
#
# Elastic Compliance Matrix: (Units=1/GPa)
#
#
# Indices 1 2 3 4 5 6 
#
# 1 0.026500 -0.006906 -0.010826 -0.015230 -0.008900 0.019042
# 2 -0.006906 0.016259 0.001902 0.012079 0.003856 -0.004513
# 3 -0.010826 0.001902 0.010056 0.007834 0.006537 -0.008170
# 4 -0.015230 0.012079 0.007834 0.090172 0.011547 -0.005434
# 5 -0.008900 0.003856 0.006537 0.011547 0.025988 -0.008018
# 6 0.019042 -0.004513 -0.008170 -0.005434 -0.008018 0.056985
#
#
# Mechanical properties :
#
#
# Convention : Reuss Voigt Hill
#
# Bulk Modulus (GPa) = 47.27022 64.07258 55.67140
# Shear Modulus (GPa) = 18.89138 33.40383 26.14761
#
# Velocity S-wave (km/s) = 2.90356 3.86098 3.41598
# Velocity P-wave (km/s) = 5.68650 6.96204 6.35635
#
# Compressibility (1/GPa) = 0.02115497
#
# Stress axis : x y z
#
# Youngs Moduli (GPa) = 37.73591 61.50567 99.44306
#
# Poissons Ratio (x) = 0.42473 1.07656
# Poissons Ratio (y) = 0.26059 -0.18910
# Poissons Ratio (z) = 0.40853 -0.11696
#
# Static dielectric constant tensor:
#      x y z
#    x 1.834080 -0.033330 0.006280 
#    y -0.033330 1.903660 -0.002090 
#    z 0.006280 -0.002090 1.831420 
# 
# From -- ./inp_files/251449.got.cif
#   From: 2010.05.17/outbox.cif.g08.bks.cpg/sg2_126_cif.got.tgz:251449.got - 2010.06.03 11:33:40.
