data_PCOD9054417
_publ_section_title
;
Structure prediction by ZEFSAII (Michael W. Deem and Ramdas Pophale) SiO2 
 PCOD9054417
Probable space group: P -1
;
_chemical_formula_sum "Si O2"
_cell_formula_units_Z 12
_cell_length_a 8.843191
_cell_length_b 12.371051
_cell_length_c 12.583407
_cell_angle_alpha 140.888138
_cell_angle_beta 139.910535
_cell_angle_gamma 60.893247
_cell_volume 539.438722
_symmetry_space_group_name_H-M "P -1"
_symmetry_group_IT_number 2
_symmetry_cell_setting 'triclinic'
loop_
_space_group_symop_operation_xyz
x,y,z
-x,-y,-z
loop_
_atom_site_type_symbol
_atom_site_label
_atom_site_fract_x
_atom_site_fract_y
_atom_site_fract_z
Si Si1 0.701496 0.887092 0.016546
Si Si2 0.839700 0.993408 0.514530
Si Si3 0.610618 0.440662 0.280355
Si Si4 0.846804 0.598295 0.745162
Si Si5 0.380615 0.654899 0.017733
Si Si6 0.750078 0.371446 0.727555
O O1 0.600893 0.732007 0.930139
O O2 0.745312 0.769953 0.848989
O O3 0.966794 0.001985 0.283306
O O4 0.500000 0.000000 0.000000
O O5 0.757382 0.173103 0.597673
O O6 0.601393 0.831605 0.271424
O O7 0.000000 0.000000 0.500000
O O8 0.771442 0.508758 0.522117
O O9 0.473990 0.592155 0.301491
O O10 0.712764 0.387065 0.186059
O O11 0.741417 0.443599 0.657376
O O12 0.139801 0.657495 0.955621
O O13 0.500000 0.500000 0.000000
O O14 0.000000 0.500000 0.000000
#
# Coordination Sequence:
#
# PCOD9054417 Si02
#       6
#     2   2   2   2   2   2
#     4  11  25  44  73 105 135 183 235 282 345 419
#     4  12  24  43  74 101 137 182 241 283 340 419
#     4  11  24  44  71  98 142 185 229 283 348 418
#     4  11  25  45  70 104 143 181 226 292 354 403
#     4  12  27  46  69 104 142 184 231 292 351 405
#     4  11  20  44  72 102 132 180 240 282 335 416
#
# _framework density 22.245345
#
# number of rings (size 3 to 8) (size 9 to 14) (size 15 to 20)
#    0.000    0.667    5.000    4.500    7.000    0.667 
#    0.000    1.667    0.000    0.000    0.000    0.000 
#    0.000    0.000    0.000    0.000    0.000    0.000 
#
# Total GULP energy -67041.369420 kJ/mol
# GULP energy per Si atom -5586.780785 kJ/mol
# Density = 2.219471 g / cm^3
# Si number density = 22.245345 Si / 1000 Ang^3
#
#
#
# Elastic Constant Matrix: (Units=GPa)
#
#
# Indices 1 2 3 4 5 6 
#
# 1 102.1565 24.1266 49.7371 9.8133 15.5426 -16.7060
# 2 24.1266 116.6915 56.3107 25.3599 4.4053 -30.7763
# 3 49.7371 56.3107 164.7886 -1.1815 8.2102 -2.2072
# 4 9.8133 25.3599 -1.1815 41.5133 5.9444 -4.6800
# 5 15.5426 4.4053 8.2102 5.9444 38.0251 -10.0431
# 6 -16.7060 -30.7763 -2.2072 -4.6800 -10.0431 33.2826
#
#
#
# Elastic Compliance Matrix: (Units=1/GPa)
#
#
# Indices 1 2 3 4 5 6 
#
# 1 0.013385 0.002239 -0.004620 -0.003517 -0.002253 0.007308
# 2 0.002239 0.018171 -0.006963 -0.010542 0.004729 0.017409
# 3 -0.004620 -0.006963 0.009888 0.005053 -0.002371 -0.008107
# 4 -0.003517 -0.010542 0.005053 0.031348 -0.005564 -0.008450
# 5 -0.002253 0.004729 -0.002371 -0.005564 0.031143 0.011700
# 6 0.007308 0.017409 -0.008107 -0.008450 0.011700 0.051617
#
#
# Mechanical properties :
#
#
# Convention : Reuss Voigt Hill
#
# Bulk Modulus (GPa) = 43.94553 71.55394 57.74973
# Shear Modulus (GPa) = 27.49874 39.46167 33.48021
#
# Velocity S-wave (km/s) = 3.51972 4.21637 3.88370
# Velocity P-wave (km/s) = 6.02625 7.47926 6.79173
#
# Compressibility (1/GPa) = 0.02275544
#
# Stress axis : x y z
#
# Youngs Moduli (GPa) = 74.70895 55.03319 101.13320
#
# Poissons Ratio (x) = -0.12321 0.46724
# Poissons Ratio (y) = -0.16725 0.70419
# Poissons Ratio (z) = 0.34516 0.38320
#
# Static dielectric constant tensor:
#      x y z
#    x 1.941580 -0.054020 -0.078390 
#    y -0.054020 1.810460 -0.032170 
#    z -0.078390 -0.032170 1.847080 
# 
# From -- ./inp_files/156536.got.cif
#   From: 2010.05.17/outbox.cif.g08.bks.cpg/sg2_79_cif.got.tgz:156536.got - 2010.06.03 11:33:40.
