data_PCOD9054008
_publ_section_title
;
Structure prediction by ZEFSAII (Michael W. Deem and Ramdas Pophale) SiO2 
 PCOD9054008
Probable space group: P -1
;
_chemical_formula_sum "Si O2"
_cell_formula_units_Z 14
_cell_length_a 8.629089
_cell_length_b 8.677168
_cell_length_c 11.817526
_cell_angle_alpha 110.326665
_cell_angle_beta 54.706158
_cell_angle_gamma 89.886123
_cell_volume 653.060349
_symmetry_space_group_name_H-M "P -1"
_symmetry_group_IT_number 2
_symmetry_cell_setting 'triclinic'
loop_
_space_group_symop_operation_xyz
x,y,z
-x,-y,-z
loop_
_atom_site_type_symbol
_atom_site_label
_atom_site_fract_x
_atom_site_fract_y
_atom_site_fract_z
Si Si1 0.173165 0.587754 0.477403
Si Si2 0.573121 0.432704 0.183259
Si Si3 0.835040 0.484529 0.291191
Si Si4 0.925662 0.288668 0.854622
Si Si5 0.901379 0.843162 0.011929
Si Si6 0.506971 0.060936 0.141896
Si Si7 0.919306 0.954556 0.640764
O O1 0.076506 0.788057 0.577384
O O2 0.000000 0.500000 0.500000
O O3 0.253546 0.514926 0.547353
O O4 0.348584 0.542592 0.300892
O O5 0.678541 0.498379 0.260444
O O6 0.717519 0.417302 0.011299
O O7 0.565158 0.239176 0.162483
O O8 0.047388 0.241569 0.908281
O O9 0.951790 0.626981 0.260709
O O10 0.995124 0.303209 0.157273
O O11 0.894194 0.115714 0.774245
O O12 0.672762 0.920507 0.102058
O O13 0.000000 0.000000 0.000000
O O14 0.291625 0.084622 0.290365
O O15 0.500000 0.000000 0.000000
O O16 0.000000 0.000000 0.500000
#
# Coordination Sequence:
#
# PCOD9054008 Si02
#       7
#     2   2   2   2   2   2   2
#     4  12  25  44  68  97 134 178 219 271 339 390
#     4  11  23  42  71  98 131 173 225 271 327 394
#     4  11  24  43  69 100 135 171 221 278 331 391
#     4  11  24  45  68  99 136 171 223 276 327 399
#     4  11  20  39  71 101 127 174 222 274 328 388
#     4  12  22  42  70 102 130 174 226 271 327 396
#     4  12  27  46  65  99 138 174 218 277 334 393
#
# _framework density 21.437528
#
# number of rings (size 3 to 8) (size 9 to 14) (size 15 to 20)
#    0.000    0.571    5.714    4.714    0.000    2.286 
#    0.000    3.571    0.000    0.000    0.000    0.000 
#    0.000    0.000    0.000    0.000    0.000    0.000 
#
# Total GULP energy -78359.577121 kJ/mol
# GULP energy per Si atom -5597.112652 kJ/mol
# Density = 2.138874 g / cm^3
# Si number density = 21.437528 Si / 1000 Ang^3
#
#
#
# Elastic Constant Matrix: (Units=GPa)
#
#
# Indices 1 2 3 4 5 6 
#
# 1 68.8854 2.4273 22.8910 4.2831 -24.2491 2.1802
# 2 2.4273 67.9441 0.0056 -2.3395 -8.5312 10.4358
# 3 22.8910 0.0056 87.3996 -10.3777 -13.3772 -6.0007
# 4 4.2831 -2.3395 -10.3777 39.1396 0.8985 -1.4559
# 5 -24.2491 -8.5312 -13.3772 0.8985 41.6599 5.2541
# 6 2.1802 10.4358 -6.0007 -1.4559 5.2541 31.2232
#
#
#
# Elastic Compliance Matrix: (Units=1/GPa)
#
#
# Indices 1 2 3 4 5 6 
#
# 1 0.020303 0.001308 -0.004349 -0.003735 0.011372 -0.004779
# 2 0.001308 0.016274 0.000029 0.000490 0.004890 -0.006325
# 3 -0.004349 0.000029 0.013473 0.004125 0.001353 0.002848
# 4 -0.003735 0.000490 0.004125 0.027210 -0.001643 0.002435
# 5 0.011372 0.004890 0.001353 -0.001643 0.033080 -0.007812
# 6 -0.004779 -0.006325 0.002848 0.002435 -0.007812 0.036451
#
#
# Mechanical properties :
#
#
# Convention : Reuss Voigt Hill
#
# Bulk Modulus (GPa) = 22.71374 30.54188 26.62781
# Shear Modulus (GPa) = 29.85287 35.66491 32.75889
#
# Velocity S-wave (km/s) = 3.73574 4.08323 3.91334
# Velocity P-wave (km/s) = 5.40611 6.04220 5.73298
#
# Compressibility (1/GPa) = 0.04402621
#
# Stress axis : x y z
#
# Youngs Moduli (GPa) = 49.25468 61.44900 74.22248
#
# Poissons Ratio (x) = -0.08040 0.32276
# Poissons Ratio (y) = -0.06444 -0.00213
# Poissons Ratio (z) = 0.21419 -0.00176
#
# Static dielectric constant tensor:
#      x y z
#    x 1.779820 -0.007600 -0.001700 
#    y -0.007600 1.753220 0.010930 
#    z -0.001700 0.010930 1.773970 
# 
# From -- ./inp_files/376571.got.cif
#   From: 2010.05.17/outbox.cif.g08.bks.cpg/sg2_189_cif.got.tgz:376571.got - 2010.06.03 11:33:40.
