data_PCOD9054337
_publ_section_title
;
Structure prediction by ZEFSAII (Michael W. Deem and Ramdas Pophale) SiO2 
 PCOD9054337
Probable space group: P -1
;
_chemical_formula_sum "Si O2"
_cell_formula_units_Z 16
_cell_length_a 15.560322
_cell_length_b 9.642332
_cell_length_c 7.530700
_cell_angle_alpha 82.912004
_cell_angle_beta 74.767013
_cell_angle_gamma 35.412469
_cell_volume 623.344640
_symmetry_space_group_name_H-M "P -1"
_symmetry_group_IT_number 2
_symmetry_cell_setting 'triclinic'
loop_
_space_group_symop_operation_xyz
x,y,z
-x,-y,-z
loop_
_atom_site_type_symbol
_atom_site_label
_atom_site_fract_x
_atom_site_fract_y
_atom_site_fract_z
Si Si1 0.073869 0.005516 0.239782
Si Si2 0.028839 0.681669 0.435715
Si Si3 0.335030 0.076198 0.901859
Si Si4 0.240641 0.185825 0.338434
Si Si5 0.254388 0.675758 0.737027
Si Si6 0.851816 0.913910 0.161348
Si Si7 0.601027 0.515135 0.927770
Si Si8 0.441903 0.197755 0.627643
O O1 0.237728 0.718769 0.226223
O O2 0.008366 0.145949 0.439217
O O3 0.928944 0.114441 0.210679
O O4 0.118061 0.065280 0.056138
O O5 0.894643 0.745871 0.553764
O O6 0.002120 0.727552 0.232210
O O7 0.192131 0.397303 0.413593
O O8 0.489581 0.780926 0.875658
O O9 0.221052 0.144763 0.815098
O O10 0.363365 0.199764 0.817921
O O11 0.260772 0.167883 0.120902
O O12 0.402218 0.931378 0.367490
O O13 0.333608 0.465968 0.592990
O O14 0.265120 0.830284 0.711937
O O15 0.332053 0.536426 0.904865
O O16 0.500000 0.500000 0.000000
O O17 0.500000 0.000000 0.500000
#
# Coordination Sequence:
#
# PCOD9054337 Si02
#       8
#     2   2   2   2   2   2   2   2
#     4  11  24  44  69 107 146 183 241 301 354 418
#     4  11  25  44  73 102 148 187 242 299 349 433
#     4  12  24  45  74 106 137 198 237 291 364 429
#     4  11  24  46  67 104 146 190 236 295 361 426
#     4  11  25  44  71 105 146 189 233 302 359 421
#     4  11  24  44  74 104 136 190 244 284 366 416
#     4  11  20  42  73 102 139 183 240 296 347 426
#     4  12  27  44  67 105 151 185 242 293 359 434
#
# _framework density 25.667984000000001
#
# number of rings (size 3 to 8) (size 9 to 14) (size 15 to 20)
#    0.000    0.750    5.000    3.375    1.750    4.000 
#    0.000    1.875    0.000    0.000    0.000    0.000 
#    0.000    0.000    0.000    0.000    0.000    0.000 
#
# Total GULP energy -89499.858920 kJ/mol
# GULP energy per Si atom -5593.741183 kJ/mol
# Density = 2.560956 g / cm^3
# Si number density = 25.667984 Si / 1000 Ang^3
#
#
#
# Elastic Constant Matrix: (Units=GPa)
#
#
# Indices 1 2 3 4 5 6 
#
# 1 113.4433 38.4542 31.4219 17.5182 6.4976 -6.3224
# 2 38.4542 133.4459 31.1342 34.0453 1.9736 -9.3189
# 3 31.4219 31.1342 75.3718 2.0527 12.3955 6.7611
# 4 17.5182 34.0453 2.0527 41.3549 8.7653 12.6285
# 5 6.4976 1.9736 12.3955 8.7653 29.6396 -5.6081
# 6 -6.3224 -9.3189 6.7611 12.6285 -5.6081 34.9835
#
#
#
# Elastic Compliance Matrix: (Units=1/GPa)
#
#
# Indices 1 2 3 4 5 6 
#
# 1 0.011735 0.000483 -0.006079 -0.007919 0.003577 0.006856
# 2 0.000483 0.015175 -0.009072 -0.019024 0.011051 0.014522
# 3 -0.006079 -0.009072 0.023246 0.017476 -0.016152 -0.016906
# 4 -0.007919 -0.019024 0.017476 0.059366 -0.028655 -0.035900
# 5 0.003577 0.011051 -0.016152 -0.028655 0.052260 0.025433
# 6 0.006856 0.014522 -0.016906 -0.035900 0.025433 0.053996
#
#
# Mechanical properties :
#
#
# Convention : Reuss Voigt Hill
#
# Bulk Modulus (GPa) = 48.03087 58.25351 53.14219
# Shear Modulus (GPa) = 19.83693 35.94565 27.89129
#
# Velocity S-wave (km/s) = 2.78299 3.74626 3.29997
# Velocity P-wave (km/s) = 5.39256 6.43870 5.93871
#
# Compressibility (1/GPa) = 0.02081994
#
# Stress axis : x y z
#
# Youngs Moduli (GPa) = 85.21320 65.89656 43.01761
#
# Poissons Ratio (x) = -0.03182 0.26152
# Poissons Ratio (y) = -0.04115 0.39025
# Poissons Ratio (z) = 0.51805 0.59781
#
# Static dielectric constant tensor:
#      x y z
#    x 2.002200 0.065280 -0.006290 
#    y 0.065280 2.044160 0.021730 
#    z -0.006290 0.021730 2.087720 
# 
# From -- ./inp_files/298525.got.cif
#   From: 2010.05.17/outbox.cif.g08.bks.cpg/sg2_150_cif.got.tgz:298525.got - 2010.06.03 11:33:40.
