data_PCOD9054038
_publ_section_title
;
Structure prediction by ZEFSAII (Michael W. Deem and Ramdas Pophale) SiO2 
 PCOD9054038
Probable space group: P -1
;
_chemical_formula_sum "Si O2"
_cell_formula_units_Z 14
_cell_length_a 9.261250
_cell_length_b 13.049216
_cell_length_c 15.036045
_cell_angle_alpha 146.217301
_cell_angle_beta 81.352946
_cell_angle_gamma 123.474379
_cell_volume 630.017465
_symmetry_space_group_name_H-M "P -1"
_symmetry_group_IT_number 2
_symmetry_cell_setting 'triclinic'
loop_
_space_group_symop_operation_xyz
x,y,z
-x,-y,-z
loop_
_atom_site_type_symbol
_atom_site_label
_atom_site_fract_x
_atom_site_fract_y
_atom_site_fract_z
Si Si1 0.960202 0.631882 0.360365
Si Si2 0.079859 0.390367 0.065422
Si Si3 0.113154 0.071572 0.946827
Si Si4 0.587762 0.746539 0.599941
Si Si5 0.556515 0.736030 0.222113
Si Si6 0.169164 0.519867 0.542970
Si Si7 0.395235 0.422541 0.713078
O O1 0.006837 0.510276 0.201788
O O2 0.816691 0.440127 0.323811
O O3 0.822804 0.660638 0.344677
O O4 0.210863 0.937774 0.595436
O O5 0.324675 0.634586 0.166869
O O6 0.143850 0.304341 0.072459
O O7 0.853133 0.074930 0.816035
O O8 0.366967 0.230733 0.043752
O O9 0.951762 0.792649 0.697643
O O10 0.000000 0.000000 0.000000
O O11 0.500000 0.500000 0.500000
O O12 0.421055 0.753258 0.644225
O O13 0.555271 0.639253 0.426713
O O14 0.626090 0.731533 0.311282
O O15 0.500000 0.500000 0.000000
O O16 0.000000 0.500000 0.500000
#
# Coordination Sequence:
#
# PCOD9054038 Si02
#       7
#     2   2   2   2   2   2   2
#     4  12  25  44  67 105 136 176 231 281 332 403
#     4  11  25  42  66  97 134 178 220 284 332 398
#     4  11  20  40  62  94 132 181 217 268 340 394
#     4  12  22  45  68 100 139 180 222 275 343 405
#     4  11  25  49  73  93 134 182 231 276 344 402
#     4  12  26  40  68 100 142 177 228 277 339 406
#     4  11  23  41  72  97 133 177 227 275 336 404
#
# _framework density 22.221606999999999
#
# number of rings (size 3 to 8) (size 9 to 14) (size 15 to 20)
#    0.000    0.571    4.286    4.286    4.000    0.571 
#    0.000    1.429    0.000    0.000    0.000    0.000 
#    0.000    0.000    0.000    0.000    0.000    0.000 
#
# Total GULP energy -78222.302817 kJ/mol
# GULP energy per Si atom -5587.307344 kJ/mol
# Density = 2.217103 g / cm^3
# Si number density = 22.221607 Si / 1000 Ang^3
#
#
#
# Elastic Constant Matrix: (Units=GPa)
#
#
# Indices 1 2 3 4 5 6 
#
# 1 108.3488 27.3118 6.6237 1.6801 14.6823 35.3754
# 2 27.3118 63.2438 7.9735 -13.3159 8.4279 20.0641
# 3 6.6237 7.9735 71.6401 1.8736 19.1841 16.3369
# 4 1.6801 -13.3159 1.8736 41.4279 13.0615 8.2748
# 5 14.6823 8.4279 19.1841 13.0615 36.8282 5.7042
# 6 35.3754 20.0641 16.3369 8.2748 5.7042 38.5527
#
#
#
# Elastic Compliance Matrix: (Units=1/GPa)
#
#
# Indices 1 2 3 4 5 6 
#
# 1 0.014861 -0.000272 0.003870 0.004375 -0.007103 -0.015022
# 2 -0.000272 0.024662 0.003020 0.013928 -0.009659 -0.015425
# 3 0.003870 0.003020 0.019421 0.006499 -0.012661 -0.012874
# 4 0.004375 0.013928 0.006499 0.037932 -0.018768 -0.019382
# 5 -0.007103 -0.009659 -0.012661 -0.018768 0.043194 0.014547
# 6 -0.015022 -0.015425 -0.012874 -0.019382 0.014547 0.055214
#
#
# Mechanical properties :
#
#
# Convention : Reuss Voigt Hill
#
# Bulk Modulus (GPa) = 13.85435 36.33897 25.09666
# Shear Modulus (GPa) = 24.25916 36.78334 30.52125
#
# Velocity S-wave (km/s) = 3.30766 4.07295 3.71009
# Velocity P-wave (km/s) = 4.56461 6.20540 5.44714
#
# Compressibility (1/GPa) = 0.07217950
#
# Stress axis : x y z
#
# Youngs Moduli (GPa) = 67.29063 40.54845 51.49049
#
# Poissons Ratio (x) = 0.01103 -0.19925
# Poissons Ratio (y) = 0.01830 -0.15551
# Poissons Ratio (z) = -0.26039 -0.12246
#
# Static dielectric constant tensor:
#      x y z
#    x 1.875550 0.031010 0.036310 
#    y 0.031010 1.908980 0.047320 
#    z 0.036310 0.047320 1.822340 
# 
# From -- ./inp_files/177134.got.cif
#   From: 2010.05.17/outbox.cif.g08.bks.cpg/sg2_89_cif.got.tgz:177134.got - 2010.06.03 11:33:40.
