data_PCOD9054704
_publ_section_title
;
Structure prediction by ZEFSAII (Michael W. Deem and Ramdas Pophale) SiO2 
 PCOD9054704
Probable space group: P -1
;
_chemical_formula_sum "Si O2"
_cell_formula_units_Z 14
_cell_length_a 17.109709
_cell_length_b 8.414834
_cell_length_c 14.319275
_cell_angle_alpha 140.982938
_cell_angle_beta 33.856977
_cell_angle_gamma 143.481648
_cell_volume 645.087420
_symmetry_space_group_name_H-M "P -1"
_symmetry_group_IT_number 2
_symmetry_cell_setting 'triclinic'
loop_
_space_group_symop_operation_xyz
x,y,z
-x,-y,-z
loop_
_atom_site_type_symbol
_atom_site_label
_atom_site_fract_x
_atom_site_fract_y
_atom_site_fract_z
Si Si1 0.319811 0.416101 0.462270
Si Si2 0.737684 0.126173 0.837843
Si Si3 0.976463 0.734876 0.070724
Si Si4 0.358372 0.474830 0.781273
Si Si5 0.031652 0.968099 0.304149
Si Si6 0.001313 0.514375 0.393537
Si Si7 0.792138 0.128200 0.270012
O O1 0.472343 0.477951 0.401475
O O2 0.306916 0.696129 0.569770
O O3 0.327973 0.198888 0.277323
O O4 0.153201 0.232854 0.592945
O O5 0.827931 0.332236 0.755266
O O6 0.870312 0.162872 0.799648
O O7 0.631705 0.247681 0.049242
O O8 0.792476 0.624391 0.181839
O O9 0.055591 0.000267 0.184183
O O10 0.076739 0.800899 0.907421
O O11 0.000000 0.500000 0.000000
O O12 0.310656 0.207011 0.775544
O O13 0.065580 0.257351 0.453643
O O14 0.000000 0.500000 0.500000
O O15 0.887963 0.239849 0.322920
#
# Coordination Sequence:
#
# PCOD9054704 Si02
#       7
#     2   2   2   2   2   2   2
#     4  11  22  42  64  91 130 171 208 251 321 377
#     4  11  21  43  65  90 125 171 214 251 307 380
#     4  12  22  40  66  96 128 165 212 261 308 376
#     4  12  25  37  65  96 131 164 205 264 322 364
#     4  11  21  41  69  91 122 172 213 251 308 380
#     4  11  21  37  67  95 120 158 219 263 302 363
#     4  12  23  43  64  95 129 165 209 262 317 368
#
# _framework density 21.702486
#
# number of rings (size 3 to 8) (size 9 to 14) (size 15 to 20)
#    0.000    0.571    7.143    3.000    2.000    0.571 
#    0.000    0.000    0.000    1.714    0.000    0.000 
#    0.000    0.000    0.000    0.000    0.000    0.000 
#
# Total GULP energy -78140.915646 kJ/mol
# GULP energy per Si atom -5581.493975 kJ/mol
# Density = 2.165309 g / cm^3
# Si number density = 21.702486 Si / 1000 Ang^3
#
#
#
# Elastic Constant Matrix: (Units=GPa)
#
#
# Indices 1 2 3 4 5 6 
#
# 1 117.1174 10.9286 60.0838 -17.3255 -8.5866 1.4035
# 2 10.9286 43.3812 11.9440 16.7228 -12.5937 -2.2698
# 3 60.0838 11.9440 90.6428 5.6602 -19.5977 5.0987
# 4 -17.3255 16.7228 5.6602 37.6909 9.1165 -0.9915
# 5 -8.5866 -12.5937 -19.5977 9.1165 47.2257 0.0240
# 6 1.4035 -2.2698 5.0987 -0.9915 0.0240 24.1297
#
#
#
# Elastic Compliance Matrix: (Units=1/GPa)
#
#
# Indices 1 2 3 4 5 6 
#
# 1 0.018418 -0.009618 -0.013865 0.016848 -0.008223 0.001654
# 2 -0.009618 0.038768 0.006354 -0.026481 0.016337 0.001759
# 3 -0.013865 0.006354 0.023145 -0.015631 0.011798 -0.004140
# 4 0.016848 -0.026481 -0.015631 0.053459 -0.020806 0.002049
# 5 -0.008223 0.016337 0.011798 -0.020806 0.032949 -0.001365
# 6 0.001654 0.001759 -0.004140 0.002049 -0.001365 0.042472
#
#
# Mechanical properties :
#
#
# Convention : Reuss Voigt Hill
#
# Bulk Modulus (GPa) = 21.70406 46.33933 34.02169
# Shear Modulus (GPa) = 19.31785 33.02159 26.16972
#
# Velocity S-wave (km/s) = 2.98673 3.90495 3.47629
# Velocity P-wave (km/s) = 4.68150 6.45987 5.64121
#
# Compressibility (1/GPa) = 0.04607433
#
# Stress axis : x y z
#
# Youngs Moduli (GPa) = 54.29334 25.79444 43.20577
#
# Poissons Ratio (x) = 0.24809 0.59903
# Poissons Ratio (y) = 0.52219 -0.27453
# Poissons Ratio (z) = 0.75275 -0.16390
#
# Static dielectric constant tensor:
#      x y z
#    x 1.807610 0.015210 0.005320 
#    y 0.015210 1.859710 0.086570 
#    z 0.005320 0.086570 1.841910 
# 
# From -- ./inp_files/246862.got.cif
#   From: 2010.05.17/outbox.cif.g08.bks.cpg/sg2_124_cif.got.tgz:246862.got - 2010.06.03 11:33:40.
