data_PCOD9054429
_publ_section_title
;
Structure prediction by ZEFSAII (Michael W. Deem and Ramdas Pophale) SiO2 
 PCOD9054429
Probable space group: P -1
;
_chemical_formula_sum "Si O2"
_cell_formula_units_Z 16
_cell_length_a 15.708278
_cell_length_b 9.734940
_cell_length_c 9.026713
_cell_angle_alpha 64.911100
_cell_angle_beta 64.431204
_cell_angle_gamma 35.135935
_cell_volume 709.874610
_symmetry_space_group_name_H-M "P -1"
_symmetry_group_IT_number 2
_symmetry_cell_setting 'triclinic'
loop_
_space_group_symop_operation_xyz
x,y,z
-x,-y,-z
loop_
_atom_site_type_symbol
_atom_site_label
_atom_site_fract_x
_atom_site_fract_y
_atom_site_fract_z
Si Si1 0.607082 0.904844 0.600860
Si Si2 0.834874 0.136307 0.866252
Si Si3 0.205845 0.027013 0.559648
Si Si4 0.108851 0.602403 0.270995
Si Si5 0.680412 0.342404 0.592009
Si Si6 0.060570 0.576155 0.994245
Si Si7 0.624273 0.386595 0.161298
Si Si8 0.361912 0.351109 0.769828
O O1 0.728567 0.626098 0.675581
O O2 0.500000 0.000000 0.500000
O O3 0.708612 0.926407 0.486224
O O4 0.501796 0.075291 0.741573
O O5 0.900519 0.208978 0.850208
O O6 0.805517 0.206805 0.683919
O O7 0.676766 0.306594 0.990480
O O8 0.941103 0.860111 0.930495
O O9 0.278557 0.860730 0.436548
O O10 0.239951 0.862476 0.737553
O O11 0.027729 0.267202 0.577142
O O12 0.089401 0.528179 0.170860
O O13 0.522314 0.514989 0.713317
O O14 0.665977 0.496347 0.415152
O O15 0.216119 0.433322 0.869305
O O16 0.000000 0.500000 0.000000
O O17 0.611291 0.575705 0.141057
#
# Coordination Sequence:
#
# PCOD9054429 Si02
#       8
#     2   2   2   2   2   2   2   2
#     4  12  27  45  73 107 151 190 247 308 370 433
#     4  12  25  47  74 105 150 191 248 296 369 440
#     4  11  23  45  75 102 148 189 248 306 362 433
#     4  12  27  48  73 108 147 200 243 299 375 434
#     4  11  23  42  76 113 138 194 246 302 364 431
#     4  12  29  48  74 108 149 194 245 306 372 436
#     4  11  20  44  76 102 145 194 238 309 362 432
#     4  11  23  47  73 101 149 191 248 302 362 434
#
# _framework density 22.539190999999999
#
# number of rings (size 3 to 8) (size 9 to 14) (size 15 to 20)
#    0.000    0.500    5.000    4.125    3.500    3.500 
#    2.250    0.000    0.000    0.000    0.000    0.000 
#    0.000    0.000    0.000    0.000    0.000    0.000 
#
# Total GULP energy -89574.985285 kJ/mol
# GULP energy per Si atom -5598.436580 kJ/mol
# Density = 2.248789 g / cm^3
# Si number density = 22.539191 Si / 1000 Ang^3
#
#
#
# Elastic Constant Matrix: (Units=GPa)
#
#
# Indices 1 2 3 4 5 6 
#
# 1 61.7305 33.0242 5.8303 -5.9578 -13.3645 1.2864
# 2 33.0242 140.8050 28.7911 1.9811 -10.8572 -11.0196
# 3 5.8303 28.7911 45.5817 6.5522 -1.4498 -9.0860
# 4 -5.9578 1.9811 6.5522 21.7290 -15.5256 -8.4462
# 5 -13.3645 -10.8572 -1.4498 -15.5256 46.4247 4.1167
# 6 1.2864 -11.0196 -9.0860 -8.4462 4.1167 40.6791
#
#
#
# Elastic Compliance Matrix: (Units=1/GPa)
#
#
# Indices 1 2 3 4 5 6 
#
# 1 0.022223 -0.004266 -0.001934 0.014135 0.010100 -0.000378
# 2 -0.004266 0.009334 -0.005118 0.000800 0.000921 0.001593
# 3 -0.001934 -0.005118 0.027390 -0.010456 -0.004669 0.003094
# 4 0.014135 0.000800 -0.010456 0.077858 0.029022 0.010663
# 5 0.010100 0.000921 -0.004669 0.029022 0.034093 0.001463
# 6 -0.000378 0.001593 0.003094 0.010663 0.001463 0.027783
#
#
# Mechanical properties :
#
#
# Convention : Reuss Voigt Hill
#
# Bulk Modulus (GPa) = 27.53995 42.60093 35.07044
# Shear Modulus (GPa) = 21.42053 33.79800 27.60926
#
# Velocity S-wave (km/s) = 3.08615 3.87657 3.50372
# Velocity P-wave (km/s) = 4.99443 6.24331 5.65346
#
# Compressibility (1/GPa) = 0.03631089
#
# Stress axis : x y z
#
# Youngs Moduli (GPa) = 44.99804 107.14000 36.50982
#
# Poissons Ratio (x) = 0.45711 0.07059
# Poissons Ratio (y) = 0.19198 0.18685
# Poissons Ratio (z) = 0.08701 0.54833
#
# Static dielectric constant tensor:
#      x y z
#    x 1.834390 -0.001800 0.015690 
#    y -0.001800 1.840710 -0.012760 
#    z 0.015690 -0.012760 1.833840 
# 
# From -- ./inp_files/297813.got.cif
#   From: 2010.05.17/outbox.cif.g08.bks.cpg/sg2_149_cif.got.tgz:297813.got - 2010.06.03 11:33:40.
