data_PCOD9054042
_publ_section_title
;
Structure prediction by ZEFSAII (Michael W. Deem and Ramdas Pophale) SiO2 
 PCOD9054042
Probable space group: P -1
;
_chemical_formula_sum "Si O2"
_cell_formula_units_Z 16
_cell_length_a 15.393700
_cell_length_b 19.417481
_cell_length_c 25.402779
_cell_angle_alpha 158.567659
_cell_angle_beta 161.079016
_cell_angle_gamma 30.428877
_cell_volume 888.889256
_symmetry_space_group_name_H-M "P -1"
_symmetry_group_IT_number 2
_symmetry_cell_setting 'triclinic'
loop_
_space_group_symop_operation_xyz
x,y,z
-x,-y,-z
loop_
_atom_site_type_symbol
_atom_site_label
_atom_site_fract_x
_atom_site_fract_y
_atom_site_fract_z
Si Si1 0.204045 0.327316 0.889020
Si Si2 0.842530 0.062916 0.796205
Si Si3 0.709688 0.227900 0.729722
Si Si4 0.234809 0.600845 0.927766
Si Si5 0.948259 0.246463 0.568553
Si Si6 0.720475 0.074924 0.892600
Si Si7 0.577202 0.021844 0.892983
Si Si8 0.187752 0.887003 0.406670
O O1 0.110654 0.279279 0.740754
O O2 0.947210 0.260277 0.731738
O O3 0.432915 0.205701 0.954246
O O4 0.297615 0.550606 0.107309
O O5 0.861387 0.148562 0.809291
O O6 0.593481 0.889963 0.529745
O O7 0.761285 0.229018 0.906119
O O8 0.125405 0.998049 0.929439
O O9 0.853338 0.192207 0.731785
O O10 0.003050 0.436153 0.699615
O O11 0.500000 0.500000 0.000000
O O12 0.217676 0.709678 0.940214
O O13 0.638723 0.161772 0.344616
O O14 0.066631 0.081059 0.486774
O O15 0.598584 0.043474 0.857986
O O16 0.506430 0.947958 0.642219
O O17 0.000000 0.000000 0.000000
#
# Coordination Sequence:
#
# PCOD9054042 Si02
#       8
#     2   2   2   2   2   2   2   2
#     4  11  21  38  68  91 118 165 207 252 307 371
#     4  11  24  40  61  87 128 167 199 255 308 364
#     4  11  23  41  60  87 124 167 208 240 309 377
#     4  12  21  37  63  93 120 159 208 247 304 367
#     4  11  21  39  67  95 121 163 206 255 311 364
#     4  12  21  36  62  92 125 153 197 264 308 346
#     4  11  22  42  63  93 126 156 206 263 310 356
#     4  11  20  40  63  90 123 161 205 252 308 368
#
# _framework density 17.999993
#
# number of rings (size 3 to 8) (size 9 to 14) (size 15 to 20)
#    0.000    0.750    7.500    1.125    0.000    1.000 
#    2.250    2.500    0.000    0.000    0.000    0.000 
#    0.000    0.000    0.000    0.000    0.000    0.000 
#
# Total GULP energy -89239.695980 kJ/mol
# GULP energy per Si atom -5577.480999 kJ/mol
# Density = 1.795902 g / cm^3
# Si number density = 17.999993 Si / 1000 Ang^3
#
#
#
# Elastic Constant Matrix: (Units=GPa)
#
#
# Indices 1 2 3 4 5 6 
#
# 1 91.2090 31.3405 22.6566 -1.1055 1.9053 2.2878
# 2 31.3405 104.3875 46.4637 2.5150 3.1140 6.5219
# 3 22.6566 46.4637 83.0806 18.1282 4.3578 2.4847
# 4 -1.1055 2.5150 18.1282 30.3191 7.4421 2.1015
# 5 1.9053 3.1140 4.3578 7.4421 32.3576 8.0751
# 6 2.2878 6.5219 2.4847 2.1015 8.0751 27.0055
#
#
#
# Elastic Compliance Matrix: (Units=1/GPa)
#
#
# Indices 1 2 3 4 5 6 
#
# 1 0.012533 -0.002749 -0.002332 0.002247 -0.000634 -0.000168
# 2 -0.002749 0.013936 -0.007742 0.003632 -0.000321 -0.002607
# 3 -0.002332 -0.007742 0.019398 -0.011260 0.000616 0.000974
# 4 0.002247 0.003632 -0.011260 0.041596 -0.008339 -0.000775
# 5 -0.000634 -0.000321 0.000616 -0.008339 0.035258 -0.009819
# 6 -0.000168 -0.002607 0.000974 -0.000775 -0.009819 0.040580
#
#
# Mechanical properties :
#
#
# Convention : Reuss Voigt Hill
#
# Bulk Modulus (GPa) = 49.45678 53.28876 51.37277
# Shear Modulus (GPa) = 25.55100 29.81753 27.68426
#
# Velocity S-wave (km/s) = 3.77171 4.07446 3.92601
# Velocity P-wave (km/s) = 6.81934 7.19751 7.01098
#
# Compressibility (1/GPa) = 0.02021968
#
# Stress axis : x y z
#
# Youngs Moduli (GPa) = 79.79241 71.75635 51.55283
#
# Poissons Ratio (x) = 0.19728 0.12022
# Poissons Ratio (y) = 0.21938 0.39911
# Poissons Ratio (z) = 0.18608 0.55553
#
# Static dielectric constant tensor:
#      x y z
#    x 1.654560 -0.004090 0.007060 
#    y -0.004090 1.609060 0.007420 
#    z 0.007060 0.007420 1.601870 
# 
# From -- ./inp_files/207642.got.cif
#   From: 2010.05.17/outbox.cif.g08.bks.cpg/sg2_104_cif.got.tgz:207642.got - 2010.06.03 11:33:40.
