data_PCOD9054755
_publ_section_title
;
Structure prediction by ZEFSAII (Michael W. Deem and Ramdas Pophale) SiO2 
 PCOD9054755
Probable space group: P -1
;
_chemical_formula_sum "Si O2"
_cell_formula_units_Z 16
_cell_length_a 15.500809
_cell_length_b 5.143571
_cell_length_c 14.401465
_cell_angle_alpha 102.666986
_cell_angle_beta 141.422408
_cell_angle_gamma 81.270857
_cell_volume 698.209410
_symmetry_space_group_name_H-M "P -1"
_symmetry_group_IT_number 2
_symmetry_cell_setting 'triclinic'
loop_
_space_group_symop_operation_xyz
x,y,z
-x,-y,-z
loop_
_atom_site_type_symbol
_atom_site_label
_atom_site_fract_x
_atom_site_fract_y
_atom_site_fract_z
Si Si1 0.227429 0.886003 0.642211
Si Si2 0.393689 0.677280 0.236265
Si Si3 0.131543 0.570866 0.890757
Si Si4 0.161109 0.170917 0.320408
Si Si5 0.702260 0.790161 0.742226
Si Si6 0.024154 0.245706 0.934208
Si Si7 0.665352 0.662339 0.347052
Si Si8 0.052868 0.334360 0.622435
O O1 0.296003 0.603624 0.697686
O O2 0.089207 0.787187 0.461418
O O3 0.339201 0.078542 0.701197
O O4 0.151222 0.088301 0.663509
O O5 0.348994 0.455398 0.256829
O O6 0.531535 0.610582 0.292520
O O7 0.398648 0.966763 0.310402
O O8 0.274276 0.689151 0.058428
O O9 0.128814 0.520283 0.775401
O O10 0.994053 0.727423 0.811242
O O11 0.103610 0.307978 0.909203
O O12 0.271453 0.284100 0.347900
O O13 0.214338 0.246219 0.472171
O O14 0.125400 0.868698 0.234297
O O15 0.857117 0.890866 0.914985
O O16 0.000000 0.500000 0.000000
O O17 0.000000 0.500000 0.500000
#
# Coordination Sequence:
#
# PCOD9054755 Si02
#       8
#     2   2   2   2   2   2   2   2
#     4  11  23  44  69  97 133 167 212 283 343 380
#     4  11  26  45  61  94 138 180 221 268 330 397
#     4  11  22  40  67  99 129 179 223 273 336 396
#     4  12  22  37  68  97 128 177 231 273 335 381
#     4  11  23  40  64  92 135 176 224 277 320 387
#     4  11  21  38  63 101 135 170 220 282 325 385
#     4  12  26  44  68  94 138 178 221 271 333 406
#     4  11  22  43  72 108 131 162 220 295 329 392
#
# _framework density 22.915762000000001
#
# number of rings (size 3 to 8) (size 9 to 14) (size 15 to 20)
#    0.000    0.750    5.000    3.375    0.000    2.000 
#    0.000    1.250    0.000    0.000    0.000    0.000 
#    0.000    0.000    0.000    0.000    0.000    0.000 
#
# Total GULP energy -89255.135962 kJ/mol
# GULP energy per Si atom -5578.445998 kJ/mol
# Density = 2.286360 g / cm^3
# Si number density = 22.915762 Si / 1000 Ang^3
#
#
#
# Elastic Constant Matrix: (Units=GPa)
#
#
# Indices 1 2 3 4 5 6 
#
# 1 72.1380 30.5371 12.9834 3.9372 5.5750 -6.2313
# 2 30.5371 113.3960 12.0240 4.0045 -6.1459 -12.3082
# 3 12.9834 12.0240 38.5900 2.7727 -8.4220 -1.3974
# 4 3.9372 4.0045 2.7727 17.0254 -3.5899 3.3841
# 5 5.5750 -6.1459 -8.4220 -3.5899 39.9032 -0.7541
# 6 -6.2313 -12.3082 -1.3974 3.3841 -0.7541 34.7323
#
#
#
# Elastic Compliance Matrix: (Units=1/GPa)
#
#
# Indices 1 2 3 4 5 6 
#
# 1 0.017162 -0.004005 -0.005174 -0.003445 -0.004385 0.001692
# 2 -0.004005 0.010533 -0.001309 -0.001581 0.001823 0.003155
# 3 -0.005174 -0.001309 0.029649 -0.001958 0.006606 0.000135
# 4 -0.003445 -0.001581 -0.001958 0.062791 0.005336 -0.007259
# 5 -0.004385 0.001823 0.006606 0.005336 0.027832 0.000210
# 6 0.001692 0.003155 0.000135 -0.007259 0.000210 0.030931
#
#
# Mechanical properties :
#
#
# Convention : Reuss Voigt Hill
#
# Bulk Modulus (GPa) = 27.49671 37.24588 32.37130
# Shear Modulus (GPa) = 23.58517 29.57083 26.57800
#
# Velocity S-wave (km/s) = 3.21161 3.59613 3.40930
# Velocity P-wave (km/s) = 5.07717 5.79064 5.44561
#
# Compressibility (1/GPa) = 0.03636798
#
# Stress axis : x y z
#
# Youngs Moduli (GPa) = 58.26775 94.93849 33.72769
#
# Poissons Ratio (x) = 0.38027 0.17452
# Poissons Ratio (y) = 0.23338 0.04414
# Poissons Ratio (z) = 0.30149 0.12424
#
# Static dielectric constant tensor:
#      x y z
#    x 1.881990 0.050270 -0.000990 
#    y 0.050270 2.097120 0.017910 
#    z -0.000990 0.017910 1.836960 
# 
# From -- ./inp_files/525870.got.cif
#   From: 2010.05.17/outbox.cif.g08.bks.cpg/sg2_263_cif.got.tgz:525870.got - 2010.06.03 11:33:40.
