data_PCOD9054738
_publ_section_title
;
Structure prediction by ZEFSAII (Michael W. Deem and Ramdas Pophale) SiO2 
 PCOD9054738
Probable space group: P -1
;
_chemical_formula_sum "Si O2"
_cell_formula_units_Z 16
_cell_length_a 7.784525
_cell_length_b 11.822163
_cell_length_c 11.966510
_cell_angle_alpha 51.732202
_cell_angle_beta 60.015909
_cell_angle_gamma 83.534016
_cell_volume 716.838635
_symmetry_space_group_name_H-M "P -1"
_symmetry_group_IT_number 2
_symmetry_cell_setting 'triclinic'
loop_
_space_group_symop_operation_xyz
x,y,z
-x,-y,-z
loop_
_atom_site_type_symbol
_atom_site_label
_atom_site_fract_x
_atom_site_fract_y
_atom_site_fract_z
Si Si1 0.981446 0.133246 0.505344
Si Si2 0.657429 0.356295 0.944840
Si Si3 0.637065 0.031795 0.047567
Si Si4 0.952124 0.961771 0.841172
Si Si5 0.048310 0.588987 0.758549
Si Si6 0.447896 0.214571 0.318801
Si Si7 0.551656 0.927026 0.372467
Si Si8 0.240086 0.379270 0.959399
O O1 0.864825 0.248561 0.427175
O O2 0.220440 0.233016 0.377844
O O3 0.000000 0.000000 0.500000
O O4 0.902633 0.053401 0.695521
O O5 0.655911 0.196931 0.989095
O O6 0.883139 0.474382 0.801416
O O7 0.473026 0.404212 0.913816
O O8 0.595588 0.324779 0.115659
O O9 0.858611 0.019615 0.943534
O O10 0.500000 0.000000 0.000000
O O11 0.543656 0.914781 0.249084
O O12 0.838682 0.786384 0.967476
O O13 0.199206 0.993867 0.739325
O O14 0.201133 0.500007 0.811476
O O15 0.915099 0.623049 0.885429
O O16 0.503660 0.203501 0.436698
O O17 0.439623 0.050104 0.372544
#
# Coordination Sequence:
#
# PCOD9054738 Si02
#       8
#     2   2   2   2   2   2   2   2
#     4  11  21  38  61  91 132 165 209 264 318 380
#     4  11  21  41  64  91 133 169 213 263 320 388
#     4  11  22  38  63  92 128 171 221 260 312 379
#     4  11  21  40  64  93 126 170 218 266 312 377
#     4  11  24  38  61  97 132 173 202 265 333 382
#     4   9  18  35  57  91 123 163 198 261 325 364
#     4   9  20  34  58  92 127 159 208 265 315 371
#     4  11  21  38  62  97 130 161 214 259 327 390
#
# _framework density 22.320225000000001
#
# number of rings (size 3 to 8) (size 9 to 14) (size 15 to 20)
#    0.000    1.500    3.750    2.250    1.750    0.000 
#    0.000    0.625    0.000    0.750    0.000    0.000 
#    0.000    0.000    0.000    0.000    0.000    0.000 
#
# Total GULP energy -89479.331636 kJ/mol
# GULP energy per Si atom -5592.458227 kJ/mol
# Density = 2.226942 g / cm^3
# Si number density = 22.320225 Si / 1000 Ang^3
#
#
#
# Elastic Constant Matrix: (Units=GPa)
#
#
# Indices 1 2 3 4 5 6 
#
# 1 135.7121 36.4894 59.2368 -2.8489 31.4686 -11.3852
# 2 36.4894 116.5134 57.2953 -3.4709 7.4462 -5.5983
# 3 59.2368 57.2953 131.2749 -5.2932 30.1633 -0.7040
# 4 -2.8489 -3.4709 -5.2932 44.4287 -2.0525 1.9532
# 5 31.4686 7.4462 30.1633 -2.0525 42.1603 1.3710
# 6 -11.3852 -5.5983 -0.7040 1.9532 1.3710 32.0944
#
#
#
# Elastic Compliance Matrix: (Units=1/GPa)
#
#
# Indices 1 2 3 4 5 6 
#
# 1 0.010636 -0.001385 -0.002854 -0.000197 -0.005783 0.003728
# 2 -0.001385 0.011321 -0.004871 0.000275 0.002491 0.001254
# 3 -0.002854 -0.004871 0.012383 0.000705 -0.005789 -0.001386
# 4 -0.000197 0.000275 0.000705 0.022698 0.000745 -0.001420
# 5 -0.005783 0.002491 -0.005789 0.000745 0.031876 -0.003151
# 6 0.003728 0.001254 -0.001386 -0.001420 -0.003151 0.032890
#
#
# Mechanical properties :
#
#
# Convention : Reuss Voigt Hill
#
# Bulk Modulus (GPa) = 62.03453 76.61593 69.32523
# Shear Modulus (GPa) = 34.38882 39.10194 36.74538
#
# Velocity S-wave (km/s) = 3.92944 4.19007 4.06184
# Velocity P-wave (km/s) = 6.95993 7.60323 7.28868
#
# Compressibility (1/GPa) = 0.01612005
#
# Stress axis : x y z
#
# Youngs Moduli (GPa) = 94.01744 88.33335 80.75805
#
# Poissons Ratio (x) = 0.12230 0.23052
# Poissons Ratio (y) = 0.13017 0.39336
# Poissons Ratio (z) = 0.26837 0.43026
#
# Static dielectric constant tensor:
#      x y z
#    x 1.925020 0.020480 0.002770 
#    y 0.020480 1.783150 -0.032860 
#    z 0.002770 -0.032860 1.824440 
# 
# From -- ./inp_files/392014.got.cif
#   From: 2010.05.17/outbox.cif.g08.bks.cpg/sg2_197_cif.got.tgz:392014.got - 2010.06.03 11:33:40.
