data_PCOD9054913
_publ_section_title
;
Structure prediction by ZEFSAII (Michael W. Deem and Ramdas Pophale) SiO2 
 PCOD9054913
Probable space group: P -1
;
_chemical_formula_sum "Si O2"
_cell_formula_units_Z 16
_cell_length_a 14.517600
_cell_length_b 5.591918
_cell_length_c 11.953725
_cell_angle_alpha 106.634621
_cell_angle_beta 128.927422
_cell_angle_gamma 86.829900
_cell_volume 713.162489
_symmetry_space_group_name_H-M "P -1"
_symmetry_group_IT_number 2
_symmetry_cell_setting 'triclinic'
loop_
_space_group_symop_operation_xyz
x,y,z
-x,-y,-z
loop_
_atom_site_type_symbol
_atom_site_label
_atom_site_fract_x
_atom_site_fract_y
_atom_site_fract_z
Si Si1 0.448448 0.947760 0.663733
Si Si2 0.619191 0.694166 0.649399
Si Si3 0.615593 0.278280 0.981974
Si Si4 0.085607 0.733592 0.541386
Si Si5 0.272640 0.249795 0.022239
Si Si6 0.986640 0.889978 0.278124
Si Si7 0.339497 0.602577 0.718799
Si Si8 0.237385 0.143768 0.435252
O O1 0.558907 0.941832 0.663827
O O2 0.429551 0.712650 0.703692
O O3 0.325920 0.944467 0.503546
O O4 0.491836 0.186673 0.808810
O O5 0.500000 0.500000 0.500000
O O6 0.712026 0.728606 0.623888
O O7 0.681987 0.646721 0.807391
O O8 0.681900 0.530738 0.004401
O O9 0.601117 0.350367 0.109139
O O10 0.681989 0.025452 0.995712
O O11 0.050085 0.705559 0.379532
O O12 0.228344 0.756206 0.657661
O O13 0.000000 0.500000 0.500000
O O14 0.060379 0.956912 0.634145
O O15 0.128531 0.205738 0.896188
O O16 0.097011 0.043429 0.314763
O O17 0.268248 0.332876 0.589047
#
# Coordination Sequence:
#
# PCOD9054913 Si02
#       8
#     2   2   2   2   2   2   2   2
#     4  11  25  45  68 101 139 183 235 292 351 417
#     4  11  24  49  72  96 135 187 241 292 344 410
#     4  11  26  44  71 104 146 181 229 291 362 420
#     4  11  21  39  64  96 145 182 218 281 347 431
#     4  11  26  47  72 103 141 190 231 289 354 415
#     4  11  24  39  67 102 138 182 231 281 353 418
#     4  12  23  40  67 108 140 180 231 286 358 425
#     4  12  25  41  71 102 135 186 241 283 349 415
#
# _framework density 22.435281
#
# number of rings (size 3 to 8) (size 9 to 14) (size 15 to 20)
#    0.000    0.750    5.000    2.250    5.250    2.000 
#    0.000    0.000    0.000    5.250    0.000    0.000 
#    0.000    0.000    0.000    0.000    0.000    0.000 
#
# Total GULP energy -89301.159584 kJ/mol
# GULP energy per Si atom -5581.322474 kJ/mol
# Density = 2.238422 g / cm^3
# Si number density = 22.435281 Si / 1000 Ang^3
#
#
#
# Elastic Constant Matrix: (Units=GPa)
#
#
# Indices 1 2 3 4 5 6 
#
# 1 108.2664 14.2551 46.5630 -6.4289 11.2722 18.6614
# 2 14.2551 61.6285 17.5304 1.2740 -1.2460 16.3834
# 3 46.5630 17.5304 150.6939 -3.0322 9.6462 10.5947
# 4 -6.4289 1.2740 -3.0322 23.9733 1.0045 1.7625
# 5 11.2722 -1.2460 9.6462 1.0045 47.4832 -0.0868
# 6 18.6614 16.3834 10.5947 1.7625 -0.0868 27.8250
#
#
#
# Elastic Compliance Matrix: (Units=1/GPa)
#
#
# Indices 1 2 3 4 5 6 
#
# 1 0.012267 -0.000182 -0.003039 0.003544 -0.002387 -0.007194
# 2 -0.000182 0.019604 -0.001531 -0.000526 0.000860 -0.010802
# 3 -0.003039 -0.001531 0.007822 0.000298 -0.000914 -0.000061
# 4 0.003544 -0.000526 0.000298 0.043168 -0.001838 -0.004921
# 5 -0.002387 0.000860 -0.000914 -0.001838 0.021877 0.001628
# 6 -0.007194 -0.010802 -0.000061 -0.004921 0.001628 0.047464
#
#
# Mechanical properties :
#
#
# Convention : Reuss Voigt Hill
#
# Bulk Modulus (GPa) = 33.12464 53.03175 43.07819
# Shear Modulus (GPa) = 29.10928 36.00567 32.55747
#
# Velocity S-wave (km/s) = 3.60596 4.01043 3.81356
# Velocity P-wave (km/s) = 5.66867 6.71816 6.21561
#
# Compressibility (1/GPa) = 0.03018901
#
# Stress axis : x y z
#
# Youngs Moduli (GPa) = 81.52239 51.01130 127.84676
#
# Poissons Ratio (x) = 0.00927 0.38855
# Poissons Ratio (y) = 0.01482 0.19567
# Poissons Ratio (z) = 0.24776 0.07807
#
# Static dielectric constant tensor:
#      x y z
#    x 1.874660 -0.120770 -0.005800 
#    y -0.120770 2.088480 -0.088850 
#    z -0.005800 -0.088850 1.933310 
# 
# From -- ./inp_files/71921.got.cif
#   From: 2010.05.17/outbox.cif.g08.bks.cpg/sg2_36_cif.got.tgz:71921.got - 2010.06.03 11:33:40.
