data_PCOD9054757
_publ_section_title
;
Structure prediction by ZEFSAII (Michael W. Deem and Ramdas Pophale) SiO2 
 PCOD9054757
Probable space group: P -1
;
_chemical_formula_sum "Si O2"
_cell_formula_units_Z 14
_cell_length_a 21.308929
_cell_length_b 8.581810
_cell_length_c 6.912030
_cell_angle_alpha 145.658884
_cell_angle_beta 54.950866
_cell_angle_gamma 132.819435
_cell_volume 522.756998
_symmetry_space_group_name_H-M "P -1"
_symmetry_group_IT_number 2
_symmetry_cell_setting 'triclinic'
loop_
_space_group_symop_operation_xyz
x,y,z
-x,-y,-z
loop_
_atom_site_type_symbol
_atom_site_label
_atom_site_fract_x
_atom_site_fract_y
_atom_site_fract_z
Si Si1 0.956037 0.232535 0.568248
Si Si2 0.290024 0.755658 0.394827
Si Si3 0.896896 0.650161 0.325254
Si Si4 0.470882 0.208487 0.391843
Si Si5 0.626152 0.434689 0.591499
Si Si6 0.276308 0.884004 0.028842
Si Si7 0.807283 0.940647 0.277387
O O1 0.052988 0.298953 0.509888
O O2 0.904702 0.966295 0.546716
O O3 0.908252 0.102881 0.318394
O O4 0.944798 0.529068 0.960827
O O5 0.342163 0.662128 0.369099
O O6 0.371082 0.035820 0.436899
O O7 0.223075 0.905723 0.681775
O O8 0.233431 0.425418 0.053178
O O9 0.800800 0.392929 0.230302
O O10 0.500000 0.500000 0.500000
O O11 0.526218 0.305065 0.590622
O O12 0.500000 0.000000 0.000000
O O13 0.670672 0.800446 0.856349
O O14 0.661682 0.274564 0.204247
O O15 0.233515 0.972170 0.373497
#
# Coordination Sequence:
#
# PCOD9054757 Si02
#       7
#     2   2   2   2   2   2   2
#     4   9  17  30  53  86 117 146 190 247 291 326
#     4  12  25  41  60  87 122 155 189 236 297 351
#     4   9  17  30  53  86 117 146 190 247 291 326
#     4  12  25  42  65  88 113 148 197 244 285 340
#     4  12  25  41  60  87 122 155 189 236 297 351
#     4  11  21  38  63  88 116 155 201 242 283 342
#     4  11  21  38  63  88 116 155 201 242 283 342
#
# _framework density 26.781086999999999
#
# number of rings (size 3 to 8) (size 9 to 14) (size 15 to 20)
#    0.000    1.143    0.000    9.857    0.000    0.000 
#    0.000    4.286    0.000    5.143    0.000    0.000 
#    0.000    0.000    0.000    0.000    0.000    0.000 
#
# Total GULP energy -78355.548335 kJ/mol
# GULP energy per Si atom -5596.824881 kJ/mol
# Density = 2.672013 g / cm^3
# Si number density = 26.781087 Si / 1000 Ang^3
#
#
#
# Elastic Constant Matrix: (Units=GPa)
#
#
# Indices 1 2 3 4 5 6 
#
# 1 204.9803 21.7106 25.5579 23.6079 29.2510 21.9582
# 2 21.7106 53.3428 13.6867 29.2439 8.1162 5.8132
# 3 25.5579 13.6867 129.9280 38.2921 -5.3573 2.2824
# 4 23.6079 29.2439 38.2921 43.6072 -3.5311 4.2723
# 5 29.2510 8.1162 -5.3573 -3.5311 48.7027 10.0049
# 6 21.9582 5.8132 2.2824 4.2723 10.0049 33.4856
#
#
#
# Elastic Compliance Matrix: (Units=1/GPa)
#
#
# Indices 1 2 3 4 5 6 
#
# 1 0.006017 0.000074 -0.000410 -0.002969 -0.003363 -0.002546
# 2 0.000074 0.033252 0.003965 -0.026316 -0.006921 -0.000666
# 3 -0.000410 0.003965 0.010901 -0.012066 -0.000179 0.000430
# 4 -0.002969 -0.026316 -0.012066 0.053750 0.009205 -0.002270
# 5 -0.003363 -0.006921 -0.000179 0.009205 0.025455 -0.005361
# 6 -0.002546 -0.000666 0.000430 -0.002270 -0.005361 0.033511
#
#
# Mechanical properties :
#
#
# Convention : Reuss Voigt Hill
#
# Bulk Modulus (GPa) = 17.41369 56.68461 37.04915
# Shear Modulus (GPa) = 28.60884 46.97883 37.79384
#
# Velocity S-wave (km/s) = 3.27195 4.19284 3.76069
# Velocity P-wave (km/s) = 4.55967 6.68219 5.72024
#
# Compressibility (1/GPa) = 0.05742607
#
# Stress axis : x y z
#
# Youngs Moduli (GPa) = 166.20842 30.07315 91.73827
#
# Poissons Ratio (x) = -0.00221 0.03762
# Poissons Ratio (y) = -0.01222 -0.36374
# Poissons Ratio (z) = 0.06816 -0.11924
#
# Static dielectric constant tensor:
#      x y z
#    x 2.170790 -0.111490 0.106070 
#    y -0.111490 2.145770 -0.100760 
#    z 0.106070 -0.100760 2.030400 
# 
# From -- ./inp_files/215030.got.cif
#   From: 2010.05.17/outbox.cif.g08.bks.cpg/sg2_108_cif.got.tgz:215030.got - 2010.06.03 11:33:40.
