data_PCOD9054307
_publ_section_title
;
Structure prediction by ZEFSAII (Michael W. Deem and Ramdas Pophale) SiO2 
 PCOD9054307
Probable space group: P -1
;
_chemical_formula_sum "Si O2"
_cell_formula_units_Z 14
_cell_length_a 13.145421
_cell_length_b 23.860417
_cell_length_c 16.413628
_cell_angle_alpha 161.738261
_cell_angle_beta 153.435349
_cell_angle_gamma 27.160060
_cell_volume 690.894620
_symmetry_space_group_name_H-M "P -1"
_symmetry_group_IT_number 2
_symmetry_cell_setting 'triclinic'
loop_
_space_group_symop_operation_xyz
x,y,z
-x,-y,-z
loop_
_atom_site_type_symbol
_atom_site_label
_atom_site_fract_x
_atom_site_fract_y
_atom_site_fract_z
Si Si1 0.636633 0.153146 0.297634
Si Si2 0.811827 0.428984 0.215319
Si Si3 0.622996 0.280909 0.631685
Si Si4 0.639166 0.630936 0.744865
Si Si5 0.802237 0.918547 0.366527
Si Si6 0.097150 0.480924 0.773635
Si Si7 0.539822 0.122796 0.619534
O O1 0.532929 0.289326 0.487113
O O2 0.556454 0.225113 0.250711
O O3 0.921110 0.102746 0.443942
O O4 0.500000 0.000000 0.000000
O O5 0.576548 0.603198 0.290617
O O6 0.898878 0.415083 0.165753
O O7 0.000000 0.500000 0.500000
O O8 0.725299 0.251838 0.939585
O O9 0.726042 0.075352 0.457501
O O10 0.815860 0.391310 0.923528
O O11 0.500000 0.500000 0.500000
O O12 0.834662 0.504850 0.649160
O O13 0.746108 0.737833 0.038107
O O14 0.646000 0.992421 0.437741
O O15 0.286416 0.276166 0.629069
O O16 0.500000 0.000000 0.500000
#
# Coordination Sequence:
#
# PCOD9054307 Si02
#       7
#     2   2   2   2   2   2   2
#     4  12  25  40  75 104 133 181 240 281 344 415
#     4  11  23  40  71 102 138 180 241 286 341 422
#     4  11  20  42  70 104 132 182 232 291 343 401
#     4  12  29  46  68 105 146 186 229 288 361 417
#     4  12  24  46  72 102 143 179 235 294 342 416
#     4  11  22  48  68  98 140 185 231 289 346 416
#     4  11  26  45  72 101 138 189 228 288 366 407
#
# _framework density 20.263583000000001
#
# number of rings (size 3 to 8) (size 9 to 14) (size 15 to 20)
#    0.000    0.571    5.714    3.000    4.000    4.000 
#    0.000    1.429    0.000    0.000    0.000    0.000 
#    0.000    0.000    0.000    0.000    0.000    0.000 
#
# Total GULP energy -78066.119596 kJ/mol
# GULP energy per Si atom -5576.151400 kJ/mol
# Density = 2.021746 g / cm^3
# Si number density = 20.263583 Si / 1000 Ang^3
#
#
#
# Elastic Constant Matrix: (Units=GPa)
#
#
# Indices 1 2 3 4 5 6 
#
# 1 117.2280 37.1102 73.4678 -0.5126 10.4886 -6.6151
# 2 37.1102 72.5583 63.6228 -12.9892 22.8732 2.9241
# 3 73.4678 63.6228 131.0731 -11.4540 7.8445 2.9099
# 4 -0.5126 -12.9892 -11.4540 31.7179 6.8737 -0.0361
# 5 10.4886 22.8732 7.8445 6.8737 41.0085 0.7238
# 6 -6.6151 2.9241 2.9099 -0.0361 0.7238 36.5829
#
#
#
# Elastic Compliance Matrix: (Units=1/GPa)
#
#
# Indices 1 2 3 4 5 6 
#
# 1 0.013806 -0.000323 -0.007769 -0.002382 -0.001521 0.003168
# 2 -0.000323 0.035038 -0.014515 0.013190 -0.018872 -0.001318
# 3 -0.007769 -0.014515 0.018600 -0.000806 0.006693 -0.001857
# 4 -0.002382 0.013190 -0.000806 0.039457 -0.013188 -0.001121
# 5 -0.001521 -0.018872 0.006693 -0.013188 0.036231 -0.000029
# 6 0.003168 -0.001318 -0.001857 -0.001121 -0.000029 0.028161
#
#
# Mechanical properties :
#
#
# Convention : Reuss Voigt Hill
#
# Bulk Modulus (GPa) = 44.98507 74.36234 59.67370
# Shear Modulus (GPa) = 22.32971 31.63910 26.98440
#
# Velocity S-wave (km/s) = 3.32318 3.95571 3.65316
# Velocity P-wave (km/s) = 6.08053 7.59215 6.87800
#
# Compressibility (1/GPa) = 0.02222960
#
# Stress axis : x y z
#
# Youngs Moduli (GPa) = 72.43203 28.54011 53.76439
#
# Poissons Ratio (x) = 0.00923 0.41769
# Poissons Ratio (y) = 0.02343 0.78039
# Poissons Ratio (z) = 0.56271 0.41426
#
# Static dielectric constant tensor:
#      x y z
#    x 1.728580 -0.032460 -0.037790 
#    y -0.032460 1.638530 0.159530 
#    z -0.037790 0.159530 1.508680 
# 
# From -- ./inp_files/186578.got.cif
#   From: 2010.05.17/outbox.cif.g08.bks.cpg/sg2_94_cif.got.tgz:186578.got - 2010.06.03 11:33:40.
