data_PCOD9054377
_publ_section_title
;
Structure prediction by ZEFSAII (Michael W. Deem and Ramdas Pophale) SiO2 
 PCOD9054377
Probable space group: P -1
;
_chemical_formula_sum "Si O2"
_cell_formula_units_Z 16
_cell_length_a 15.227105
_cell_length_b 8.708312
_cell_length_c 5.801259
_cell_angle_alpha 85.451530
_cell_angle_beta 71.211063
_cell_angle_gamma 82.620580
_cell_volume 721.646234
_symmetry_space_group_name_H-M "P -1"
_symmetry_group_IT_number 2
_symmetry_cell_setting 'triclinic'
loop_
_space_group_symop_operation_xyz
x,y,z
-x,-y,-z
loop_
_atom_site_type_symbol
_atom_site_label
_atom_site_fract_x
_atom_site_fract_y
_atom_site_fract_z
Si Si1 0.826776 0.651642 0.649032
Si Si2 0.525902 0.327471 0.902608
Si Si3 0.640032 0.857181 0.813435
Si Si4 0.309472 0.863642 0.009842
Si Si5 0.429221 0.880401 0.492194
Si Si6 0.875571 0.166649 0.049383
Si Si7 0.942722 0.914211 0.374262
Si Si8 0.112254 0.498256 0.884684
O O1 0.718249 0.716345 0.725709
O O2 0.884585 0.799382 0.572952
O O3 0.855454 0.572467 0.385366
O O4 0.848966 0.571761 0.890402
O O5 0.514414 0.270901 0.656283
O O6 0.500000 0.500000 0.000000
O O7 0.459431 0.210363 0.091654
O O8 0.634118 0.263184 0.858518
O O9 0.636571 0.998071 0.621812
O O10 0.665917 0.959197 0.999115
O O11 0.360154 0.815311 0.735265
O O12 0.200424 0.856542 0.078764
O O13 0.500000 0.000000 0.500000
O O14 0.855970 0.330785 0.166572
O O15 0.879185 0.030486 0.249516
O O16 0.977839 0.167229 0.851531
O O17 0.000000 0.000000 0.500000
O O18 0.000000 0.500000 0.000000
#
# Coordination Sequence:
#
# PCOD9054377 Si02
#       8
#     2   2   2   2   2   2   2   2
#     4  12  28  45  77 104 146 193 243 297 366 439
#     4  11  25  42  65 102 142 180 230 293 364 426
#     4  11  24  43  69  99 136 186 241 291 353 432
#     4  11  23  44  69 100 135 184 236 295 352 428
#     4  11  20  43  71  92 133 188 235 291 355 425
#     4  11  26  42  72 104 141 182 244 297 359 433
#     4  11  24  45  71 102 136 187 240 302 353 434
#     4  12  27  50  70 105 150 195 232 300 380 437
#
# _framework density 22.171527999999999
#
# number of rings (size 3 to 8) (size 9 to 14) (size 15 to 20)
#    0.000    0.750    3.750    3.375    8.750    2.500 
#    0.000    0.000    0.000    0.000    0.000    0.000 
#    0.000    0.000    0.000    0.000    0.000    0.000 
#
# Total GULP energy -89183.496104 kJ/mol
# GULP energy per Si atom -5573.968506 kJ/mol
# Density = 2.212106 g / cm^3
# Si number density = 22.171528 Si / 1000 Ang^3
#
#
#
# Elastic Constant Matrix: (Units=GPa)
#
#
# Indices 1 2 3 4 5 6 
#
# 1 94.2372 36.9039 1.6831 5.5150 6.5682 -11.6122
# 2 36.9039 95.9535 16.2760 23.6303 8.9993 1.5150
# 3 1.6831 16.2760 72.1941 16.3755 8.9898 -14.4551
# 4 5.5150 23.6303 16.3755 24.3404 5.6675 -1.7709
# 5 6.5682 8.9993 8.9898 5.6675 23.6926 0.0791
# 6 -11.6122 1.5150 -14.4551 -1.7709 0.0791 34.7291
#
#
#
# Elastic Compliance Matrix: (Units=1/GPa)
#
#
# Indices 1 2 3 4 5 6 
#
# 1 0.013718 -0.006058 0.001997 0.002524 -0.002883 0.005818
# 2 -0.006058 0.016532 -0.001082 -0.014044 -0.000817 -0.003911
# 3 0.001997 -0.001082 0.018540 -0.010189 -0.004767 0.007923
# 4 0.002524 -0.014044 -0.010189 0.062536 -0.006460 0.000419
# 5 -0.002883 -0.000817 -0.004767 -0.006460 0.046682 -0.003348
# 6 0.005818 -0.003911 0.007923 0.000419 -0.003348 0.034237
#
#
# Mechanical properties :
#
#
# Convention : Reuss Voigt Hill
#
# Bulk Modulus (GPa) = 25.97027 41.34566 33.65797
# Shear Modulus (GPa) = 23.21645 30.38720 26.80183
#
# Velocity S-wave (km/s) = 3.23945 3.70611 3.48061
# Velocity P-wave (km/s) = 5.07255 6.08295 5.60058
#
# Compressibility (1/GPa) = 0.03850557
#
# Stress axis : x y z
#
# Youngs Moduli (GPa) = 72.89551 60.48892 53.93758
#
# Poissons Ratio (x) = 0.36643 -0.10773
# Poissons Ratio (y) = 0.44159 0.05835
# Poissons Ratio (z) = -0.14560 0.06544
#
# Static dielectric constant tensor:
#      x y z
#    x 1.992260 -0.003850 0.116080 
#    y -0.003850 1.801460 0.067130 
#    z 0.116080 0.067130 1.997300 
# 
# From -- ./inp_files/90333.got.cif
#   From: 2010.05.17/outbox.cif.g08.bks.cpg/sg2_46_cif.got.tgz:90333.got - 2010.06.03 11:33:40.
