data_PCOD9054285
_publ_section_title
;
Structure prediction by ZEFSAII (Michael W. Deem and Ramdas Pophale) SiO2 
 PCOD9054285
Probable space group: P -1
;
_chemical_formula_sum "Si O2"
_cell_formula_units_Z 16
_cell_length_a 14.996917
_cell_length_b 11.587845
_cell_length_c 13.925520
_cell_angle_alpha 137.584877
_cell_angle_beta 46.517026
_cell_angle_gamma 152.915200
_cell_volume 739.440684
_symmetry_space_group_name_H-M "P -1"
_symmetry_group_IT_number 2
_symmetry_cell_setting 'triclinic'
loop_
_space_group_symop_operation_xyz
x,y,z
-x,-y,-z
loop_
_atom_site_type_symbol
_atom_site_label
_atom_site_fract_x
_atom_site_fract_y
_atom_site_fract_z
Si Si1 0.214497 0.325721 0.280502
Si Si2 0.039577 0.768250 0.731623
Si Si3 0.059175 0.710726 0.466566
Si Si4 0.607310 0.618885 0.095353
Si Si5 0.771177 0.126179 0.856619
Si Si6 0.280197 0.200694 0.463669
Si Si7 0.093610 0.269731 0.766798
Si Si8 0.373594 0.682062 0.979079
O O1 0.438966 0.513781 0.226768
O O2 0.140810 0.311929 0.221971
O O3 0.149033 0.411597 0.450918
O O4 0.068406 0.013992 0.227527
O O5 0.128281 0.802318 0.582979
O O6 0.971428 0.519158 0.677893
O O7 0.200726 0.053292 0.842312
O O8 0.206436 0.976613 0.455388
O O9 0.658901 0.487206 0.016180
O O10 0.500000 0.500000 0.000000
O O11 0.993744 0.338695 0.855100
O O12 0.734353 0.907999 0.693764
O O13 0.606177 0.960272 0.959547
O O14 0.729046 0.244610 0.894521
O O15 0.500000 0.500000 0.500000
O O16 0.152357 0.227179 0.603030
O O17 0.278335 0.497069 0.839405
#
# Coordination Sequence:
#
# PCOD9054285 Si02
#       8
#     2   2   2   2   2   2   2   2
#     4   9  19  37  63  90 122 166 215 261 322 392
#     4   9  19  42  64  88 128 169 215 268 324 387
#     4   8  19  40  64  94 128 171 212 267 339 377
#     4  12  24  39  65  96 125 175 225 266 328 393
#     4  11  24  39  66  94 133 169 219 268 326 392
#     4  11  21  38  67 103 133 165 217 280 326 389
#     4  11  20  42  68  91 126 177 218 260 333 393
#     4  11  23  44  61  93 133 174 215 272 325 391
#
# _framework density 21.637975999999998
#
# number of rings (size 3 to 8) (size 9 to 14) (size 15 to 20)
#    0.750    1.000    3.750    0.750    0.000    2.000 
#    2.250    0.000    5.500    0.000    0.000    0.000 
#    0.000    0.000    0.000    0.000    0.000    0.000 
#
# Total GULP energy -89271.262231 kJ/mol
# GULP energy per Si atom -5579.453889 kJ/mol
# Density = 2.158873 g / cm^3
# Si number density = 21.637976 Si / 1000 Ang^3
#
#
#
# Elastic Constant Matrix: (Units=GPa)
#
#
# Indices 1 2 3 4 5 6 
#
# 1 100.3381 36.6607 42.3928 3.4257 -29.3116 6.7915
# 2 36.6607 74.6296 14.1148 1.7727 -21.6027 -6.2647
# 3 42.3928 14.1148 82.4099 8.3467 -23.0621 -6.0613
# 4 3.4257 1.7727 8.3467 29.6585 0.1181 -0.9034
# 5 -29.3116 -21.6027 -23.0621 0.1181 39.6171 -1.0304
# 6 6.7915 -6.2647 -6.0613 -0.9034 -1.0304 21.1404
#
#
#
# Elastic Compliance Matrix: (Units=1/GPa)
#
#
# Indices 1 2 3 4 5 6 
#
# 1 0.017479 -0.006597 -0.007189 0.000093 0.004906 -0.009388
# 2 -0.006597 0.019006 0.002979 -0.000970 0.007452 0.008927
# 3 -0.007189 0.002979 0.018428 -0.004300 0.007271 0.008646
# 4 0.000093 -0.000970 -0.004300 0.034980 -0.003073 -0.000205
# 5 0.004906 0.007452 0.007271 -0.003073 0.037291 0.004403
# 6 -0.009388 0.008927 0.008646 -0.000205 0.004403 0.055649
#
#
# Mechanical properties :
#
#
# Convention : Reuss Voigt Hill
#
# Bulk Modulus (GPa) = 30.03029 49.30158 39.66593
# Shear Modulus (GPa) = 23.19654 29.03047 26.11351
#
# Velocity S-wave (km/s) = 3.27774 3.66682 3.47772
# Velocity P-wave (km/s) = 5.31351 6.38448 5.87346
#
# Compressibility (1/GPa) = 0.03329971
#
# Stress axis : x y z
#
# Youngs Moduli (GPa) = 57.21022 52.61392 54.26405
#
# Poissons Ratio (x) = 0.34710 0.39009
# Poissons Ratio (y) = 0.37742 -0.16163
# Poissons Ratio (z) = 0.41127 -0.15671
#
# Static dielectric constant tensor:
#      x y z
#    x 1.825020 -0.000310 -0.001450 
#    y -0.000310 1.754210 -0.034620 
#    z -0.001450 -0.034620 1.829810 
# 
# From -- ./inp_files/532042.got.cif
#   From: 2010.05.17/outbox.cif.g08.bks.cpg/sg2_267_cif.got.tgz:532042.got - 2010.06.03 11:33:40.
