data_PCOD9054194
_publ_section_title
;
Structure prediction by ZEFSAII (Michael W. Deem and Ramdas Pophale) SiO2 
 PCOD9054194
Probable space group: P -1
;
_chemical_formula_sum "Si O2"
_cell_formula_units_Z 14
_cell_length_a 9.165104
_cell_length_b 12.191444
_cell_length_c 9.063940
_cell_angle_alpha 46.145067
_cell_angle_beta 131.147659
_cell_angle_gamma 132.780975
_cell_volume 501.271849
_symmetry_space_group_name_H-M "P -1"
_symmetry_group_IT_number 2
_symmetry_cell_setting 'triclinic'
loop_
_space_group_symop_operation_xyz
x,y,z
-x,-y,-z
loop_
_atom_site_type_symbol
_atom_site_label
_atom_site_fract_x
_atom_site_fract_y
_atom_site_fract_z
Si Si1 0.300213 0.780539 0.796261
Si Si2 0.974242 0.077762 0.756676
Si Si3 0.803705 0.719594 0.851347
Si Si4 0.394327 0.858669 0.405739
Si Si5 0.215736 0.532353 0.714851
Si Si6 0.263380 0.698414 0.166840
Si Si7 0.818826 0.682510 0.559923
O O1 0.235565 0.614099 0.814068
O O2 0.071909 0.785115 0.658531
O O3 0.464747 0.944879 0.674128
O O4 0.368806 0.756203 0.026022
O O5 0.823584 0.166195 0.631207
O O6 0.181766 0.208159 0.686909
O O7 0.853796 0.913547 0.729914
O O8 0.000000 0.000000 0.000000
O O9 0.724852 0.675556 0.667895
O O10 0.740138 0.626558 0.058876
O O11 0.033417 0.704170 0.010201
O O12 0.413479 0.688210 0.628873
O O13 0.381202 0.826078 0.253661
O O14 0.000000 0.500000 0.500000
O O15 0.240135 0.508628 0.348832
#
# Coordination Sequence:
#
# PCOD9054194 Si02
#       7
#     2   2   2   2   2   2   2
#     4  11  22  39  65  96 124 154 212 263 313 356
#     4  12  24  38  61  93 130 160 206 255 310 376
#     4  11  21  39  62  91 119 164 213 250 300 370
#     4  12  24  38  63  97 128 160 200 266 315 358
#     4  12  20  39  66  92 122 161 215 257 301 364
#     4  11  20  41  68  90 119 164 214 254 300 369
#     4  11  22  41  68  89 117 166 215 256 297 370
#
# _framework density 27.928957
#
# number of rings (size 3 to 8) (size 9 to 14) (size 15 to 20)
#    0.000    0.571    7.143    2.143    2.000    0.000 
#    0.000    0.714    0.000    0.857    0.000    0.000 
#    0.000    0.000    0.000    0.000    0.000    0.000 
#
# Total GULP energy -78082.404675 kJ/mol
# GULP energy per Si atom -5577.314620 kJ/mol
# Density = 2.786539 g / cm^3
# Si number density = 27.928957 Si / 1000 Ang^3
#
#
#
# Elastic Constant Matrix: (Units=GPa)
#
#
# Indices 1 2 3 4 5 6 
#
# 1 63.6710 -2.3755 2.8280 3.3040 -0.6755 -4.5437
# 2 -2.3755 124.0076 22.9099 -24.0845 15.2685 -19.2326
# 3 2.8280 22.9099 125.0814 -17.5133 -17.9512 -1.8847
# 4 3.3040 -24.0845 -17.5133 64.0616 -6.0774 -13.9120
# 5 -0.6755 15.2685 -17.9512 -6.0774 15.0248 -4.0151
# 6 -4.5437 -19.2326 -1.8847 -13.9120 -4.0151 48.9598
#
#
#
# Elastic Compliance Matrix: (Units=1/GPa)
#
#
# Indices 1 2 3 4 5 6 
#
# 1 0.015882 0.000599 -0.000554 -0.000443 -0.000326 0.001535
# 2 0.000599 0.011697 -0.003680 0.002951 -0.013939 0.004204
# 3 -0.000554 -0.003680 0.012293 0.004385 0.020689 0.001919
# 4 -0.000443 0.002951 0.004385 0.020971 0.012923 0.008306
# 5 -0.000326 -0.013939 0.020689 0.012923 0.112849 0.008217
# 6 0.001535 0.004204 0.001919 0.008306 0.008217 0.025327
#
#
# Mechanical properties :
#
#
# Convention : Reuss Voigt Hill
#
# Bulk Modulus (GPa) = 30.67362 39.94275 35.30818
# Shear Modulus (GPa) = 23.02489 44.90240 33.96364
#
# Velocity S-wave (km/s) = 2.87437 4.01401 3.49101
# Velocity P-wave (km/s) = 4.69282 5.98462 5.37765
#
# Compressibility (1/GPa) = 0.03260131
#
# Stress axis : x y z
#
# Youngs Moduli (GPa) = 62.96516 85.49370 81.34381
#
# Poissons Ratio (x) = -0.05120 0.04510
# Poissons Ratio (y) = -0.03771 0.29933
# Poissons Ratio (z) = 0.03491 0.31460
#
# Static dielectric constant tensor:
#      x y z
#    x 2.476080 -0.010620 0.144220 
#    y -0.010620 2.143440 0.040720 
#    z 0.144220 0.040720 2.538850 
# 
# From -- ./inp_files/261781.got.cif
#   From: 2010.05.17/outbox.cif.g08.bks.cpg/sg2_131_cif.got.tgz:261781.got - 2010.06.03 11:33:40.
