data_PCOD9054601
_publ_section_title
;
Structure prediction by ZEFSAII (Michael W. Deem and Ramdas Pophale) SiO2 
 PCOD9054601
Probable space group: P -1
;
_chemical_formula_sum "Si O2"
_cell_formula_units_Z 16
_cell_length_a 14.341112
_cell_length_b 9.623887
_cell_length_c 13.099908
_cell_angle_alpha 137.978004
_cell_angle_beta 45.973535
_cell_angle_gamma 111.696985
_cell_volume 828.889270
_symmetry_space_group_name_H-M "P -1"
_symmetry_group_IT_number 2
_symmetry_cell_setting 'triclinic'
loop_
_space_group_symop_operation_xyz
x,y,z
-x,-y,-z
loop_
_atom_site_type_symbol
_atom_site_label
_atom_site_fract_x
_atom_site_fract_y
_atom_site_fract_z
Si Si1 0.491213 0.768814 0.337746
Si Si2 0.642721 0.272013 0.378817
Si Si3 0.037268 0.035231 0.816849
Si Si4 0.118045 0.602246 0.000218
Si Si5 0.350826 0.330683 0.538322
Si Si6 0.718953 0.086235 0.596377
Si Si7 0.217450 0.553523 0.117429
Si Si8 0.887843 0.818841 0.946041
O O1 0.403516 0.694678 0.450110
O O2 0.417427 0.804879 0.304709
O O3 0.500000 0.000000 0.500000
O O4 0.638573 0.600233 0.118060
O O5 0.509613 0.262793 0.411288
O O6 0.678082 0.482316 0.423432
O O7 0.762853 0.044209 0.153982
O O8 0.167084 0.985136 0.617859
O O9 0.058449 0.171957 0.974114
O O10 0.914600 0.174598 0.915924
O O11 0.000287 0.835169 0.787889
O O12 0.123172 0.633159 0.133554
O O13 0.261012 0.444241 0.765708
O O14 0.000000 0.500000 0.000000
O O15 0.302615 0.120007 0.440690
O O16 0.759333 0.250756 0.730034
O O17 0.158477 0.394278 0.142839
#
# Coordination Sequence:
#
# PCOD9054601 Si02
#       8
#     2   2   2   2   2   2   2   2
#     4  12  20  41  68  92 116 159 214 252 294 360
#     4  11  21  36  69  92 114 150 216 263 289 340
#     4  11  23  38  65  90 121 160 211 254 291 362
#     4  12  21  40  64  88 117 164 218 246 288 365
#     4  11  22  39  63  92 119 158 205 259 299 354
#     4  12  24  41  60  93 132 160 194 249 321 369
#     4  12  25  39  63  93 127 162 196 252 317 367
#     4  11  21  40  64  95 115 158 212 256 297 349
#
# _framework density 19.302941000000001
#
# number of rings (size 3 to 8) (size 9 to 14) (size 15 to 20)
#    0.000    0.500    8.750    0.375    0.000    1.000 
#    0.000    1.875    0.000    0.000    0.000    0.000 
#    0.000    0.000    0.000    0.000    0.000    0.000 
#
# Total GULP energy -89382.565215 kJ/mol
# GULP energy per Si atom -5586.410326 kJ/mol
# Density = 1.925901 g / cm^3
# Si number density = 19.302941 Si / 1000 Ang^3
#
#
#
# Elastic Constant Matrix: (Units=GPa)
#
#
# Indices 1 2 3 4 5 6 
#
# 1 95.4172 45.7800 18.4074 16.3101 14.0341 -5.9545
# 2 45.7800 173.2625 38.7303 13.4767 26.5111 9.3479
# 3 18.4074 38.7303 25.9213 4.6335 5.6833 3.8029
# 4 16.3101 13.4767 4.6335 26.8597 6.8847 -3.0539
# 5 14.0341 26.5111 5.6833 6.8847 31.7100 2.3607
# 6 -5.9545 9.3479 3.8029 -3.0539 2.3607 30.5798
#
#
#
# Elastic Compliance Matrix: (Units=1/GPa)
#
#
# Indices 1 2 3 4 5 6 
#
# 1 0.014098 -0.001601 -0.006569 -0.005481 -0.002811 0.003721
# 2 -0.001601 0.009798 -0.012044 -0.000741 -0.005053 -0.001493
# 3 -0.006569 -0.012044 0.061826 -0.001986 0.002751 -0.005697
# 4 -0.005481 -0.000741 -0.001986 0.043377 -0.006331 0.004227
# 5 -0.002811 -0.005053 0.002751 -0.006331 0.038103 -0.002919
# 6 0.003721 -0.001493 -0.005697 0.004227 -0.002919 0.035238
#
#
# Mechanical properties :
#
#
# Convention : Reuss Voigt Hill
#
# Bulk Modulus (GPa) = 22.07776 55.60407 38.84092
# Shear Modulus (GPa) = 19.38241 30.60878 24.99560
#
# Velocity S-wave (km/s) = 3.17222 3.98641 3.60239
# Velocity P-wave (km/s) = 4.98795 7.07511 6.12114
#
# Compressibility (1/GPa) = 0.04529444
#
# Stress axis : x y z
#
# Youngs Moduli (GPa) = 70.93091 102.06103 16.17442
#
# Poissons Ratio (x) = 0.16340 0.10626
# Poissons Ratio (y) = 0.11356 0.19480
# Poissons Ratio (z) = 0.46597 1.22918
#
# Static dielectric constant tensor:
#      x y z
#    x 1.724480 -0.000240 -0.059810 
#    y -0.000240 1.717170 0.000930 
#    z -0.059810 0.000930 1.662660 
# 
# From -- ./inp_files/175024.got.cif
#   From: 2010.05.17/outbox.cif.g08.bks.cpg/sg2_88_cif.got.tgz:175024.got - 2010.06.03 11:33:40.
