data_PCOD9054686
_publ_section_title
;
Structure prediction by ZEFSAII (Michael W. Deem and Ramdas Pophale) SiO2 
 PCOD9054686
Probable space group: P -1
;
_chemical_formula_sum "Si O2"
_cell_formula_units_Z 12
_cell_length_a 9.800833
_cell_length_b 11.857209
_cell_length_c 9.178562
_cell_angle_alpha 50.958444
_cell_angle_beta 101.274277
_cell_angle_gamma 63.397294
_cell_volume 537.792308
_symmetry_space_group_name_H-M "P -1"
_symmetry_group_IT_number 2
_symmetry_cell_setting 'triclinic'
loop_
_space_group_symop_operation_xyz
x,y,z
-x,-y,-z
loop_
_atom_site_type_symbol
_atom_site_label
_atom_site_fract_x
_atom_site_fract_y
_atom_site_fract_z
Si Si1 0.467342 0.844273 0.015930
Si Si2 0.154461 0.966344 0.451532
Si Si3 0.152755 0.549106 0.105037
Si Si4 0.517227 0.483234 0.197465
Si Si5 0.564311 0.814789 0.759271
Si Si6 0.813791 0.677621 0.428873
O O1 0.591663 0.825545 0.924475
O O2 0.246520 0.103721 0.757857
O O3 0.478559 0.667449 0.115506
O O4 0.600193 0.770114 0.247975
O O5 0.254469 0.766949 0.528689
O O6 0.354473 0.880618 0.644645
O O7 0.000000 0.000000 0.500000
O O8 0.039440 0.191159 0.168569
O O9 0.348924 0.503427 0.210566
O O10 0.227976 0.418150 0.075564
O O11 0.137146 0.437722 0.313768
O O12 0.500000 0.500000 0.000000
O O13 0.500000 0.000000 0.500000
O O14 0.000000 0.500000 0.500000
#
# Coordination Sequence:
#
# PCOD9054686 Si02
#       6
#     2   2   2   2   2   2
#     4  11  23  46  67  92 139 173 220 277 335 394
#     4  11  21  37  66 101 137 163 213 285 340 397
#     4  11  23  42  67 101 133 172 223 275 336 403
#     4  11  21  42  69 101 130 168 222 283 344 386
#     4  11  22  39  68 101 127 171 225 283 339 382
#     4  11  28  44  64  94 140 185 221 264 329 408
#
# _framework density 22.313447
#
# number of rings (size 3 to 8) (size 9 to 14) (size 15 to 20)
#    0.000    1.000    6.667    0.000    2.333    6.667 
#    0.000    1.667    0.000    0.000    0.000    0.000 
#    0.000    0.000    0.000    0.000    0.000    0.000 
#
# Total GULP energy -66972.599305 kJ/mol
# GULP energy per Si atom -5581.049942 kJ/mol
# Density = 2.226266 g / cm^3
# Si number density = 22.313447 Si / 1000 Ang^3
#
#
#
# Elastic Constant Matrix: (Units=GPa)
#
#
# Indices 1 2 3 4 5 6 
#
# 1 74.7186 20.7308 27.8845 -6.4832 3.9821 4.4652
# 2 20.7308 116.5234 54.1951 -39.1012 -1.8270 7.6639
# 3 27.8845 54.1951 147.6625 -38.2597 -11.7821 1.2068
# 4 -6.4832 -39.1012 -38.2597 55.1057 4.3022 -8.4516
# 5 3.9821 -1.8270 -11.7821 4.3022 19.2294 -12.3379
# 6 4.4652 7.6639 1.2068 -8.4516 -12.3379 33.1851
#
#
#
# Elastic Compliance Matrix: (Units=1/GPa)
#
#
# Indices 1 2 3 4 5 6 
#
# 1 0.015739 -0.001574 -0.003509 -0.001844 -0.008525 -0.005266
# 2 -0.001574 0.012471 -0.002770 0.006669 -0.002937 -0.001961
# 3 -0.003509 -0.002770 0.010433 0.004978 0.009227 0.005431
# 4 -0.001844 0.006669 0.004978 0.026902 0.001967 0.006109
# 5 -0.008525 -0.002937 0.009227 0.001967 0.078772 0.031277
# 6 -0.005266 -0.001961 0.005431 0.006109 0.031277 0.044282
#
#
# Mechanical properties :
#
#
# Convention : Reuss Voigt Hill
#
# Bulk Modulus (GPa) = 43.59906 60.50281 52.05093
# Shear Modulus (GPa) = 23.59025 37.24365 30.41695
#
# Velocity S-wave (km/s) = 3.25502 4.08991 3.69611
# Velocity P-wave (km/s) = 5.80592 7.03399 6.44925
#
# Compressibility (1/GPa) = 0.02293627
#
# Stress axis : x y z
#
# Youngs Moduli (GPa) = 63.53658 80.18383 95.84735
#
# Poissons Ratio (x) = 0.12620 0.33636
# Poissons Ratio (y) = 0.10000 0.26553
# Poissons Ratio (z) = 0.22297 0.22214
#
# Static dielectric constant tensor:
#      x y z
#    x 1.880140 0.036430 0.043780 
#    y 0.036430 1.862110 -0.018960 
#    z 0.043780 -0.018960 2.035130 
# 
# From -- ./inp_files/134580.got.cif
#   From: 2010.05.17/outbox.cif.g08.bks.cpg/sg2_68_cif.got.tgz:134580.got - 2010.06.03 11:33:40.
