data_PCOD9054463
_publ_section_title
;
Structure prediction by ZEFSAII (Michael W. Deem and Ramdas Pophale) SiO2 
 PCOD9054463
Probable space group: P -1
;
_chemical_formula_sum "Si O2"
_cell_formula_units_Z 10
_cell_length_a 16.844241
_cell_length_b 6.348505
_cell_length_c 13.472119
_cell_angle_alpha 33.709652
_cell_angle_beta 144.784472
_cell_angle_gamma 144.332316
_cell_volume 419.494380
_symmetry_space_group_name_H-M "P -1"
_symmetry_group_IT_number 2
_symmetry_cell_setting 'triclinic'
loop_
_space_group_symop_operation_xyz
x,y,z
-x,-y,-z
loop_
_atom_site_type_symbol
_atom_site_label
_atom_site_fract_x
_atom_site_fract_y
_atom_site_fract_z
Si Si1 0.858404 0.806381 0.194089
Si Si2 0.170112 0.933072 0.413531
Si Si3 0.646939 0.931026 0.259874
Si Si4 0.415426 0.892688 0.560018
Si Si5 0.404238 0.000792 0.105269
O O1 0.878748 0.552295 0.410829
O O2 0.020890 0.014353 0.227606
O O3 0.745652 0.427555 0.156865
O O4 0.768869 0.077875 0.028700
O O5 0.273663 0.003923 0.394808
O O6 0.272910 0.157600 0.525477
O O7 0.647179 0.612720 0.302137
O O8 0.475431 0.837614 0.153009
O O9 0.532036 0.089169 0.691246
O O10 0.500000 0.000000 0.500000
O O11 0.500000 0.500000 0.000000
#
# Coordination Sequence:
#
# PCOD9054463 Si02
#       5
#     2   2   2   2   2
#     4   8  15  34  52  74  97 122 160 208 243 282
#     4   8  17  33  49  74 101 123 158 204 244 287
#     4   8  17  31  51  73  96 132 156 202 243 281
#     4  11  21  32  49  74 101 132 165 193 237 296
#     4   9  17  33  50  73 100 123 163 204 238 285
#
# _framework density 23.838221000000001
#
# number of rings (size 3 to 8) (size 9 to 14) (size 15 to 20)
#    1.200    2.000    2.000    0.000    0.000    7.200 
#    0.000    1.000    0.000    2.400    0.000    0.000 
#    0.000    0.000    0.000    0.000    0.000    0.000 
#
# Total GULP energy -55734.866723 kJ/mol
# GULP energy per Si atom -5573.486672 kJ/mol
# Density = 2.378396 g / cm^3
# Si number density = 23.838221 Si / 1000 Ang^3
#
#
#
# Elastic Constant Matrix: (Units=GPa)
#
#
# Indices 1 2 3 4 5 6 
#
# 1 125.4027 19.6656 54.1149 19.8793 40.7124 14.6556
# 2 19.6656 45.9127 29.5548 -5.4765 16.2406 1.5617
# 3 54.1149 29.5548 122.5587 29.4484 65.7349 11.5805
# 4 19.8793 -5.4765 29.4484 26.6505 11.5633 9.8559
# 5 40.7124 16.2406 65.7349 11.5633 59.0090 1.7070
# 6 14.6556 1.5617 11.5805 9.8559 1.7070 36.5660
#
#
#
# Elastic Compliance Matrix: (Units=1/GPa)
#
#
# Indices 1 2 3 4 5 6 
#
# 1 0.011807 -0.004524 0.002085 -0.007705 -0.007633 -0.002766
# 2 -0.004524 0.034860 -0.015632 0.025991 0.005906 -0.002006
# 3 0.002085 -0.015632 0.033492 -0.028657 -0.028781 -0.001707
# 4 -0.007705 0.025991 -0.028657 0.077597 0.015186 -0.010570
# 5 -0.007633 0.005906 -0.028781 0.015186 0.049513 0.005517
# 6 -0.002766 -0.002006 -0.001707 -0.010570 0.005517 0.031674
#
#
# Mechanical properties :
#
#
# Convention : Reuss Voigt Hill
#
# Bulk Modulus (GPa) = 22.71872 55.61609 39.16740
# Shear Modulus (GPa) = 17.25571 37.14769 27.20170
#
# Velocity S-wave (km/s) = 2.69340 3.95184 3.38168
# Velocity P-wave (km/s) = 4.38447 6.64861 5.63150
#
# Compressibility (1/GPa) = 0.04401656
#
# Stress axis : x y z
#
# Youngs Moduli (GPa) = 84.69453 28.68590 29.85772
#
# Poissons Ratio (x) = 0.12978 -0.06224
# Poissons Ratio (y) = 0.38317 0.46674
# Poissons Ratio (z) = -0.17655 0.44842
#
# Static dielectric constant tensor:
#      x y z
#    x 1.921330 0.091130 -0.053460 
#    y 0.091130 1.960640 -0.081650 
#    z -0.053460 -0.081650 2.006120 
# 
# From -- ./inp_files/20249.got.cif
#   From: 2010.05.17/outbox.cif.g08.bks.cpg/sg2_11_cif.got.tgz:20249.got - 2010.06.03 11:33:40.
