data_PCOD9054926
_publ_section_title
;
Structure prediction by ZEFSAII (Michael W. Deem and Ramdas Pophale) SiO2 
 PCOD9054926
Probable space group: P -1
;
_chemical_formula_sum "Si O2"
_cell_formula_units_Z 16
_cell_length_a 8.318426
_cell_length_b 9.757541
_cell_length_c 11.527477
_cell_angle_alpha 54.139665
_cell_angle_beta 109.826158
_cell_angle_gamma 119.170070
_cell_volume 660.224411
_symmetry_space_group_name_H-M "P -1"
_symmetry_group_IT_number 2
_symmetry_cell_setting 'triclinic'
loop_
_space_group_symop_operation_xyz
x,y,z
-x,-y,-z
loop_
_atom_site_type_symbol
_atom_site_label
_atom_site_fract_x
_atom_site_fract_y
_atom_site_fract_z
Si Si1 0.710646 0.244830 0.083894
Si Si2 0.739520 0.396960 0.781459
Si Si3 0.465789 0.201790 0.519982
Si Si4 0.835102 0.927471 0.302854
Si Si5 0.219923 0.003559 0.366382
Si Si6 0.859577 0.364228 0.318593
Si Si7 0.652909 0.016242 0.817822
Si Si8 0.337873 0.433191 0.682116
O O1 0.783613 0.302095 0.202129
O O2 0.754699 0.065375 0.157641
O O3 0.486016 0.165817 0.066401
O O4 0.793201 0.391552 0.932126
O O5 0.701460 0.194171 0.820278
O O6 0.543586 0.424350 0.730746
O O7 0.918299 0.534733 0.689300
O O8 0.291861 0.171842 0.571351
O O9 0.541220 0.055359 0.660817
O O10 0.622758 0.398362 0.480837
O O11 0.394176 0.158401 0.393367
O O12 0.808352 0.760362 0.294548
O O13 0.037932 0.036962 0.343459
O O14 0.190750 0.808881 0.518983
O O15 0.197653 0.008598 0.217972
O O16 0.755584 0.495498 0.271888
#
# Coordination Sequence:
#
# PCOD9054926 Si02
#       8
#     2   2   2   2   2   2   2   2
#     4  11  25  50  66  93 138 183 230 265 329 407
#     4  12  27  46  70  95 138 188 221 275 331 393
#     4  11  21  39  65  99 138 168 217 275 340 402
#     4  11  24  40  68  99 135 179 221 274 337 404
#     4  12  23  41  68 106 136 170 219 283 352 390
#     4  12  26  45  70 103 138 172 224 284 333 402
#     4  11  22  42  70  96 131 178 219 278 336 396
#     4  12  25  42  69 104 134 174 225 279 337 395
#
# _framework density 24.234183999999999
#
# number of rings (size 3 to 8) (size 9 to 14) (size 15 to 20)
#    0.000    0.500    6.250    4.125    3.500    1.500 
#    2.250    1.250    0.000    0.000    0.000    0.000 
#    0.000    0.000    0.000    0.000    0.000    0.000 
#
# Total GULP energy -89294.082549 kJ/mol
# GULP energy per Si atom -5580.880159 kJ/mol
# Density = 2.417903 g / cm^3
# Si number density = 24.234184 Si / 1000 Ang^3
#
#
#
# Elastic Constant Matrix: (Units=GPa)
#
#
# Indices 1 2 3 4 5 6 
#
# 1 49.5471 10.6058 13.3321 -12.5255 -11.6780 11.7720
# 2 10.6058 69.5640 9.7054 -1.1404 1.6369 -1.1415
# 3 13.3321 9.7054 53.1615 4.6343 -16.7227 -8.5304
# 4 -12.5255 -1.1404 4.6343 19.0076 9.0067 -7.1635
# 5 -11.6780 1.6369 -16.7227 9.0067 16.2256 1.9006
# 6 11.7720 -1.1415 -8.5304 -7.1635 1.9006 37.6146
#
#
#
# Elastic Compliance Matrix: (Units=1/GPa)
#
#
# Indices 1 2 3 4 5 6 
#
# 1 0.030604 -0.003761 -0.007178 0.014529 0.007993 -0.008957
# 2 -0.003761 0.016974 -0.009279 0.011771 -0.020854 0.002883
# 3 -0.007178 -0.009279 0.053346 -0.058167 0.083181 -0.001218
# 4 0.014529 0.011771 -0.058167 0.147431 -0.134567 0.017496
# 5 0.007993 -0.020854 0.083181 -0.134567 0.232449 -0.021643
# 6 -0.008957 0.002883 -0.001218 0.017496 -0.021643 0.033625
#
#
# Mechanical properties :
#
#
# Convention : Reuss Voigt Hill
#
# Bulk Modulus (GPa) = 16.53241 26.61768 21.57504
# Shear Modulus (GPa) = 8.69522 23.81151 16.25336
#
# Velocity S-wave (km/s) = 1.89626 3.13798 2.59256
# Velocity P-wave (km/s) = 3.41044 4.91290 4.22893
#
# Compressibility (1/GPa) = 0.06048725
#
# Stress axis : x y z
#
# Youngs Moduli (GPa) = 32.67528 58.91265 18.74568
#
# Poissons Ratio (x) = 0.22159 0.13456
# Poissons Ratio (y) = 0.12290 0.17394
# Poissons Ratio (z) = 0.23454 0.54665
#
# Static dielectric constant tensor:
#      x y z
#    x 2.441560 -0.226780 -0.247290 
#    y -0.226780 2.010120 0.143340 
#    z -0.247290 0.143340 2.074170 
# 
# From -- ./inp_files/185364.got.cif
#   From: 2010.05.17/outbox.cif.g08.bks.cpg/sg2_93_cif.got.tgz:185364.got - 2010.06.03 11:33:40.
