data_PCOD9054129
_publ_section_title
;
Structure prediction by ZEFSAII (Michael W. Deem and Ramdas Pophale) SiO2 
 PCOD9054129
Probable space group: P -1
;
_chemical_formula_sum "Si O2"
_cell_formula_units_Z 14
_cell_length_a 18.273512
_cell_length_b 12.677870
_cell_length_c 9.441546
_cell_angle_alpha 36.701672
_cell_angle_beta 46.425314
_cell_angle_gamma 28.899600
_cell_volume 631.158160
_symmetry_space_group_name_H-M "P -1"
_symmetry_group_IT_number 2
_symmetry_cell_setting 'triclinic'
loop_
_space_group_symop_operation_xyz
x,y,z
-x,-y,-z
loop_
_atom_site_type_symbol
_atom_site_label
_atom_site_fract_x
_atom_site_fract_y
_atom_site_fract_z
Si Si1 0.157596 0.750497 0.133174
Si Si2 0.570974 0.415171 0.152061
Si Si3 0.332219 0.683601 0.419883
Si Si4 0.909156 0.488866 0.336056
Si Si5 0.232721 0.436971 0.859813
Si Si6 0.274334 0.016927 0.384135
Si Si7 0.088151 0.103290 0.094360
O O1 0.158755 0.557060 0.409836
O O2 0.158309 0.891121 0.108270
O O3 0.300277 0.602630 0.002664
O O4 0.000000 0.000000 0.000000
O O5 0.437257 0.616152 0.226102
O O6 0.660224 0.122670 0.400267
O O7 0.500000 0.500000 0.000000
O O8 0.340754 0.462661 0.665553
O O9 0.347514 0.778363 0.437539
O O10 0.161172 0.940620 0.317100
O O11 0.844185 0.523536 0.229735
O O12 0.091918 0.233669 0.381205
O O13 0.875416 0.737720 0.141623
O O14 0.092719 0.677655 0.887894
O O15 0.306756 0.170612 0.120609
#
# Coordination Sequence:
#
# PCOD9054129 Si02
#       7
#     2   2   2   2   2   2   2
#     4  12  25  44  66  92 134 180 227 265 321 398
#     4  12  26  45  65  95 139 182 214 269 335 396
#     4  12  22  41  68  96 136 175 213 271 337 394
#     4  11  20  40  70 102 127 167 224 281 323 385
#     4  11  21  38  72 104 127 165 224 275 337 380
#     4  11  23  42  67  97 132 170 225 276 321 395
#     4  11  21  38  69  99 132 169 218 277 331 380
#
# _framework density 22.181445
#
# number of rings (size 3 to 8) (size 9 to 14) (size 15 to 20)
#    0.000    0.571    7.143    2.571    0.000    1.143 
#    0.000    2.143    0.000    0.000    0.000    0.000 
#    0.000    0.000    0.000    0.000    0.000    0.000 
#
# Total GULP energy -78324.450359 kJ/mol
# GULP energy per Si atom -5594.603597 kJ/mol
# Density = 2.213096 g / cm^3
# Si number density = 22.181445 Si / 1000 Ang^3
#
#
#
# Elastic Constant Matrix: (Units=GPa)
#
#
# Indices 1 2 3 4 5 6 
#
# 1 83.8074 14.4114 48.9446 -1.9426 2.0459 -8.5658
# 2 14.4114 45.2581 29.7654 12.6088 -15.9241 -12.5896
# 3 48.9446 29.7654 191.5515 1.1541 -8.8581 -9.2121
# 4 -1.9426 12.6088 1.1541 34.5267 -16.0251 0.2962
# 5 2.0459 -15.9241 -8.8581 -16.0251 48.8110 -2.6805
# 6 -8.5658 -12.5896 -9.2121 0.2962 -2.6805 22.3442
#
#
#
# Elastic Compliance Matrix: (Units=1/GPa)
#
#
# Indices 1 2 3 4 5 6 
#
# 1 0.014632 -0.002661 -0.003281 0.001161 -0.001556 0.002555
# 2 -0.002661 0.036555 -0.003578 -0.009163 0.009443 0.019356
# 3 -0.003281 -0.003578 0.006608 0.001146 0.000518 -0.000502
# 4 0.001161 -0.009163 0.001146 0.036527 0.008961 -0.003655
# 5 -0.001556 0.009443 0.000518 0.008961 0.027112 0.008071
# 6 0.002555 0.019356 -0.000502 -0.003655 0.008071 0.057449
#
#
# Mechanical properties :
#
#
# Convention : Reuss Voigt Hill
#
# Bulk Modulus (GPa) = 25.80308 56.31777 41.06043
# Shear Modulus (GPa) = 23.71435 36.30274 30.00855
#
# Velocity S-wave (km/s) = 3.27327 4.04991 3.68212
# Velocity P-wave (km/s) = 5.09350 6.87850 6.05217
#
# Compressibility (1/GPa) = 0.03875506
#
# Stress axis : x y z
#
# Youngs Moduli (GPa) = 68.34305 27.35567 151.33677
#
# Poissons Ratio (x) = 0.07280 0.49658
# Poissons Ratio (y) = 0.18187 0.54143
# Poissons Ratio (z) = 0.22425 0.09787
#
# Static dielectric constant tensor:
#      x y z
#    x 1.965060 -0.045070 0.057680 
#    y -0.045070 1.819820 0.005520 
#    z 0.057680 0.005520 1.817880 
# 
# From -- ./inp_files/244318.got.cif
#   From: 2010.05.17/outbox.cif.g08.bks.cpg/sg2_123_cif.got.tgz:244318.got - 2010.06.03 11:33:40.
