data_PCOD9054571
_publ_section_title
;
Structure prediction by ZEFSAII (Michael W. Deem and Ramdas Pophale) SiO2 
 PCOD9054571
Probable space group: P -1
;
_chemical_formula_sum "Si O2"
_cell_formula_units_Z 12
_cell_length_a 9.139606
_cell_length_b 13.411170
_cell_length_c 9.463692
_cell_angle_alpha 152.174403
_cell_angle_beta 104.493768
_cell_angle_gamma 70.860556
_cell_volume 509.457220
_symmetry_space_group_name_H-M "P -1"
_symmetry_group_IT_number 2
_symmetry_cell_setting 'triclinic'
loop_
_space_group_symop_operation_xyz
x,y,z
-x,-y,-z
loop_
_atom_site_type_symbol
_atom_site_label
_atom_site_fract_x
_atom_site_fract_y
_atom_site_fract_z
Si Si1 0.601469 0.822700 0.697654
Si Si2 0.931333 0.305152 0.486199
Si Si3 0.156093 0.062944 0.666561
Si Si4 0.741125 0.752946 0.361797
Si Si5 0.650428 0.384659 0.714073
Si Si6 0.073856 0.211917 0.124940
O O1 0.640082 0.895296 0.639709
O O2 0.512509 0.629416 0.410243
O O3 0.767617 0.762235 0.734323
O O4 0.500000 0.000000 0.000000
O O5 0.771285 0.418843 0.665387
O O6 0.084973 0.338808 0.647577
O O7 0.943486 0.335638 0.358597
O O8 0.939311 0.043136 0.183459
O O9 0.235787 0.129583 0.630481
O O10 0.275988 0.857032 0.507285
O O11 0.092665 0.239135 0.996361
O O12 0.000000 0.000000 0.500000
O O13 0.658039 0.561023 0.056709
#
# Coordination Sequence:
#
# PCOD9054571 Si02
#       6
#     2   2   2   2   2   2
#     4  11  21  40  64  84 119 168 193 235 302 360
#     4   9  17  33  62  82 115 157 192 237 294 343
#     4  11  21  36  62  91 120 151 198 248 294 345
#     4  11  23  38  63  91 118 154 200 247 295 346
#     4  11  22  39  63  89 121 155 199 242 296 350
#     4   9  18  35  58  87 116 154 200 237 289 354
#
# _framework density 23.554480000000002
#
# number of rings (size 3 to 8) (size 9 to 14) (size 15 to 20)
#    0.000    1.667    6.667    1.000    0.000    0.667 
#    0.000    1.667    7.333    0.000    0.000    0.000 
#    0.000    0.000    0.000    0.000    0.000    0.000 
#
# Total GULP energy -67048.780294 kJ/mol
# GULP energy per Si atom -5587.398358 kJ/mol
# Density = 2.350087 g / cm^3
# Si number density = 23.554480 Si / 1000 Ang^3
#
#
#
# Elastic Constant Matrix: (Units=GPa)
#
#
# Indices 1 2 3 4 5 6 
#
# 1 98.2165 19.9808 62.0953 -27.6778 12.2212 30.5344
# 2 19.9808 92.2868 40.6550 -28.5736 -18.5644 41.9024
# 3 62.0953 40.6550 154.2851 -42.9193 0.1610 12.4299
# 4 -27.6778 -28.5736 -42.9193 41.2665 9.8837 -14.6278
# 5 12.2212 -18.5644 0.1610 9.8837 67.8027 -25.6463
# 6 30.5344 41.9024 12.4299 -14.6278 -25.6463 43.1942
#
#
#
# Elastic Compliance Matrix: (Units=1/GPa)
#
#
# Indices 1 2 3 4 5 6 
#
# 1 0.034458 0.018792 -0.011569 0.012248 -0.020769 -0.047443
# 2 0.018792 0.033130 -0.008879 0.013087 -0.013852 -0.046661
# 3 -0.011569 -0.008879 0.013435 0.005094 0.005702 0.018036
# 4 0.012248 0.013087 0.005094 0.044342 -0.010384 -0.013968
# 5 -0.020769 -0.013852 0.005702 -0.010384 0.032093 0.042017
# 6 -0.047443 -0.046661 0.018036 -0.013968 0.042017 0.116982
#
#
# Mechanical properties :
#
#
# Convention : Reuss Voigt Hill
#
# Bulk Modulus (GPa) = 12.86818 65.58339 39.22578
# Shear Modulus (GPa) = 16.46589 45.25648 30.86119
#
# Velocity S-wave (km/s) = 2.64683 4.38808 3.62360
# Velocity P-wave (km/s) = 3.84915 7.31966 5.84779
#
# Compressibility (1/GPa) = 0.07771106
#
# Stress axis : x y z
#
# Youngs Moduli (GPa) = 29.02051 30.18373 74.43037
#
# Poissons Ratio (x) = -0.56720 0.86110
# Poissons Ratio (y) = -0.54534 0.66086
# Poissons Ratio (z) = 0.33575 0.26800
#
# Static dielectric constant tensor:
#      x y z
#    x 1.891580 0.063290 -0.006140 
#    y 0.063290 1.964460 0.050880 
#    z -0.006140 0.050880 1.961550 
# 
# From -- ./inp_files/151055.got.cif
#   From: 2010.05.17/outbox.cif.g08.bks.cpg/sg2_76_cif.got.tgz:151055.got - 2010.06.03 11:33:40.
