data_PCOD9054171
_publ_section_title
;
Structure prediction by ZEFSAII (Michael W. Deem and Ramdas Pophale) SiO2 
 PCOD9054171
Probable space group: P -1
;
_chemical_formula_sum "Si O2"
_cell_formula_units_Z 16
_cell_length_a 12.131825
_cell_length_b 9.107946
_cell_length_c 9.006483
_cell_angle_alpha 105.356196
_cell_angle_beta 55.695566
_cell_angle_gamma 95.399359
_cell_volume 790.821508
_symmetry_space_group_name_H-M "P -1"
_symmetry_group_IT_number 2
_symmetry_cell_setting 'triclinic'
loop_
_space_group_symop_operation_xyz
x,y,z
-x,-y,-z
loop_
_atom_site_type_symbol
_atom_site_label
_atom_site_fract_x
_atom_site_fract_y
_atom_site_fract_z
Si Si1 0.143034 0.396484 0.852163
Si Si2 0.963094 0.180659 0.785678
Si Si3 0.362455 0.553257 0.537092
Si Si4 0.897595 0.383990 0.608926
Si Si5 0.962305 0.139680 0.278781
Si Si6 0.742547 0.787046 0.014542
Si Si7 0.627867 0.561049 0.842340
Si Si8 0.756282 0.127429 0.177015
O O1 0.235329 0.479844 0.689829
O O2 0.086064 0.240519 0.799197
O O3 0.238036 0.339646 0.902831
O O4 0.000000 0.500000 0.000000
O O5 0.951740 0.286380 0.679984
O O6 0.826320 0.186485 0.988596
O O7 0.002638 0.004219 0.682383
O O8 0.500000 0.500000 0.500000
O O9 0.373296 0.483807 0.343079
O O10 0.336244 0.735997 0.640243
O O11 0.873009 0.268239 0.464802
O O12 0.760503 0.470673 0.778713
O O13 0.000000 0.500000 0.500000
O O14 0.882859 0.097472 0.182413
O O15 0.104236 0.203459 0.151921
O O16 0.651755 0.730087 0.933184
O O17 0.699850 0.961501 0.145634
O O18 0.500000 0.500000 0.000000
#
# Coordination Sequence:
#
# PCOD9054171 Si02
#       8
#     2   2   2   2   2   2   2   2
#     4  12  21  38  68 102 132 170 227 273 336 402
#     4  11  22  36  66 103 138 171 219 280 346 398
#     4  12  27  46  69  97 133 179 234 283 335 408
#     4  12  24  40  67 103 137 174 229 287 341 395
#     4  11  20  41  65 105 140 172 220 282 344 406
#     4  11  22  42  68  99 138 178 217 277 346 402
#     4  12  27  46  67  95 138 182 230 279 338 395
#     4  11  22  44  69 101 139 177 223 279 345 410
#
# _framework density 20.232125
#
# number of rings (size 3 to 8) (size 9 to 14) (size 15 to 20)
#    0.000    0.500    6.250    3.375    1.750    0.000 
#    0.000    4.375    0.000    0.000    0.000    0.000 
#    0.000    0.000    0.000    0.000    0.000    0.000 
#
# Total GULP energy -89232.735553 kJ/mol
# GULP energy per Si atom -5577.045972 kJ/mol
# Density = 2.018608 g / cm^3
# Si number density = 20.232125 Si / 1000 Ang^3
#
#
#
# Elastic Constant Matrix: (Units=GPa)
#
#
# Indices 1 2 3 4 5 6 
#
# 1 79.2726 48.5315 44.1267 8.5722 -1.4532 6.3572
# 2 48.5315 112.2536 75.7843 6.1277 17.1514 3.7825
# 3 44.1267 75.7843 115.3113 3.3133 5.5506 7.9848
# 4 8.5722 6.1277 3.3133 39.7891 6.2111 11.5933
# 5 -1.4532 17.1514 5.5506 6.2111 36.5202 1.1416
# 6 6.3572 3.7825 7.9848 11.5933 1.1416 33.2447
#
#
#
# Elastic Compliance Matrix: (Units=1/GPa)
#
#
# Indices 1 2 3 4 5 6 
#
# 1 0.018883 -0.006803 -0.002817 -0.003207 0.004958 -0.001212
# 2 -0.006803 0.019942 -0.010234 0.000001 -0.008137 0.001769
# 3 -0.002817 -0.010234 0.016533 0.001300 0.002047 -0.002792
# 4 -0.003207 0.000001 0.001300 0.029341 -0.005011 -0.009759
# 5 0.004958 -0.008137 0.002047 -0.005011 0.031937 0.000137
# 6 -0.001212 0.001769 -0.002792 -0.009759 0.000137 0.034180
#
#
# Mechanical properties :
#
#
# Convention : Reuss Voigt Hill
#
# Bulk Modulus (GPa) = 63.89889 71.52471 67.71180
# Shear Modulus (GPa) = 25.54389 31.13714 28.34052
#
# Velocity S-wave (km/s) = 3.55708 3.92726 3.74674
# Velocity P-wave (km/s) = 6.96576 7.48287 7.22894
#
# Compressibility (1/GPa) = 0.01564972
#
# Stress axis : x y z
#
# Youngs Moduli (GPa) = 52.95799 50.14473 60.48364
#
# Poissons Ratio (x) = 0.34116 0.17040
# Poissons Ratio (y) = 0.36030 0.61897
# Poissons Ratio (z) = 0.14919 0.51317
#
# Static dielectric constant tensor:
#      x y z
#    x 1.712710 0.010730 0.067460 
#    y 0.010730 1.758500 0.026620 
#    z 0.067460 0.026620 1.763050 
# 
# From -- ./inp_files/239570.got.cif
#   From: 2010.05.17/outbox.cif.g08.bks.cpg/sg2_120_cif.got.tgz:239570.got - 2010.06.03 11:33:40.
