data_PCOD9054272
_publ_section_title
;
Structure prediction by ZEFSAII (Michael W. Deem and Ramdas Pophale) SiO2 
 PCOD9054272
Probable space group: P -1
;
_chemical_formula_sum "Si O2"
_cell_formula_units_Z 16
_cell_length_a 15.615089
_cell_length_b 14.346991
_cell_length_c 21.652319
_cell_angle_alpha 160.694857
_cell_angle_beta 156.764346
_cell_angle_gamma 28.953366
_cell_volume 631.534600
_symmetry_space_group_name_H-M "P -1"
_symmetry_group_IT_number 2
_symmetry_cell_setting 'triclinic'
loop_
_space_group_symop_operation_xyz
x,y,z
-x,-y,-z
loop_
_atom_site_type_symbol
_atom_site_label
_atom_site_fract_x
_atom_site_fract_y
_atom_site_fract_z
Si Si1 0.198268 0.880683 0.706579
Si Si2 0.770641 0.830919 0.960128
Si Si3 0.476130 0.245238 0.588064
Si Si4 0.542433 0.393779 0.597996
Si Si5 0.344950 0.204492 0.893539
Si Si6 0.996424 0.239118 0.286380
Si Si7 0.197621 0.400943 0.789795
Si Si8 0.337252 0.867988 0.104828
O O1 0.417028 0.678444 0.718573
O O2 0.000773 0.698277 0.442856
O O3 0.187808 0.015778 0.851265
O O4 0.211437 0.110958 0.805437
O O5 0.959916 0.941659 0.111385
O O6 0.726416 0.506940 0.745774
O O7 0.539543 0.961578 0.860593
O O8 0.610539 0.227387 0.602027
O O9 0.221303 0.256289 0.410379
O O10 0.500000 0.000000 0.500000
O O11 0.532423 0.523373 0.835326
O O12 0.365262 0.201921 0.329507
O O13 0.200252 0.287740 0.790505
O O14 0.000000 0.500000 0.500000
O O15 0.797700 0.256296 0.118064
O O16 0.415455 0.251412 0.811862
O O17 0.229270 0.733913 0.009822
#
# Coordination Sequence:
#
# PCOD9054272 Si02
#       8
#     2   2   2   2   2   2   2   2
#     4  11  22  41  71  94 129 175 220 265 325 390
#     4  11  21  43  72  92 128 180 224 261 319 398
#     4  12  24  40  65  97 133 167 217 276 324 381
#     4  11  23  43  65  95 133 174 216 271 326 385
#     4  11  20  42  65  95 127 173 221 263 322 394
#     4  12  23  44  70  95 125 180 225 257 324 401
#     4  11  23  41  64  97 131 170 215 271 327 384
#     4  11  25  42  65  94 137 169 215 271 328 387
#
# _framework density 25.335111999999999
#
# number of rings (size 3 to 8) (size 9 to 14) (size 15 to 20)
#    0.000    0.750    5.000    3.375    0.000    6.500 
#    2.250    1.250    0.000    0.000    0.000    0.000 
#    0.000    0.000    0.000    0.000    0.000    0.000 
#
# Total GULP energy -89564.308398 kJ/mol
# GULP energy per Si atom -5597.769275 kJ/mol
# Density = 2.527745 g / cm^3
# Si number density = 25.335112 Si / 1000 Ang^3
#
#
#
# Elastic Constant Matrix: (Units=GPa)
#
#
# Indices 1 2 3 4 5 6 
#
# 1 64.0231 24.4401 23.9101 14.6477 11.1207 34.5995
# 2 24.4401 62.1981 37.4899 2.9839 2.9705 29.0497
# 3 23.9101 37.4899 137.9160 14.4759 12.4996 14.0087
# 4 14.6477 2.9839 14.4759 46.1114 17.0114 9.7507
# 5 11.1207 2.9705 12.4996 17.0114 50.4164 8.0893
# 6 34.5995 29.0497 14.0087 9.7507 8.0893 43.7111
#
#
#
# Elastic Compliance Matrix: (Units=1/GPa)
#
#
# Indices 1 2 3 4 5 6 
#
# 1 0.028959 0.000286 -0.002457 -0.003497 -0.001194 -0.021325
# 2 0.000286 0.027792 -0.006292 0.003236 0.001607 -0.017700
# 3 -0.002457 -0.006292 0.009334 -0.002068 -0.001320 0.003841
# 4 -0.003497 0.003236 -0.002068 0.026654 -0.007371 -0.003302
# 5 -0.001194 0.001607 -0.001320 -0.007371 0.023195 -0.002348
# 6 -0.021325 -0.017700 0.003841 -0.003302 -0.002348 0.051460
#
#
# Mechanical properties :
#
#
# Convention : Reuss Voigt Hill
#
# Bulk Modulus (GPa) = 20.34190 48.42417 34.38304
# Shear Modulus (GPa) = 24.91196 39.93424 32.42310
#
# Velocity S-wave (km/s) = 3.13916 3.97450 3.58127
# Velocity P-wave (km/s) = 4.60279 6.34170 5.54088
#
# Compressibility (1/GPa) = 0.04915961
#
# Stress axis : x y z
#
# Youngs Moduli (GPa) = 34.53110 35.98112 107.13910
#
# Poissons Ratio (x) = -0.01030 0.26326
# Poissons Ratio (y) = -0.00988 0.67411
# Poissons Ratio (z) = 0.08485 0.22639
#
# Static dielectric constant tensor:
#      x y z
#    x 2.014680 0.039100 0.023760 
#    y 0.039100 2.105230 0.073150 
#    z 0.023760 0.073150 1.985470 
# 
# From -- ./inp_files/176625.got.cif
#   From: 2010.05.17/outbox.cif.g08.bks.cpg/sg2_89_cif.got.tgz:176625.got - 2010.06.03 11:33:40.
