data_PCOD9054588
_publ_section_title
;
Structure prediction by ZEFSAII (Michael W. Deem and Ramdas Pophale) SiO2 
 PCOD9054588
Probable space group: P -1
;
_chemical_formula_sum "Si O2"
_cell_formula_units_Z 16
_cell_length_a 29.322895
_cell_length_b 6.993982
_cell_length_c 8.252752
_cell_angle_alpha 98.607833
_cell_angle_beta 127.761277
_cell_angle_gamma 44.406456
_cell_volume 799.597402
_symmetry_space_group_name_H-M "P -1"
_symmetry_group_IT_number 2
_symmetry_cell_setting 'triclinic'
loop_
_space_group_symop_operation_xyz
x,y,z
-x,-y,-z
loop_
_atom_site_type_symbol
_atom_site_label
_atom_site_fract_x
_atom_site_fract_y
_atom_site_fract_z
Si Si1 0.482717 0.310772 0.314728
Si Si2 0.816360 0.225967 0.332445
Si Si3 0.828402 0.851028 0.063081
Si Si4 0.396460 0.203777 0.935212
Si Si5 0.082717 0.665223 0.546525
Si Si6 0.371651 0.779383 0.436888
Si Si7 0.565937 0.526488 0.119714
Si Si8 0.015685 0.460053 0.218011
O O1 0.436749 0.490353 0.408762
O O2 0.590698 0.102806 0.507263
O O3 0.458439 0.153578 0.200350
O O4 0.430765 0.550568 0.072124
O O5 0.710651 0.531597 0.209279
O O6 0.855485 0.335057 0.401906
O O7 0.809550 0.107058 0.143132
O O8 0.892935 0.909210 0.571840
O O9 0.856347 0.622818 0.232334
O O10 0.921508 0.634008 0.127034
O O11 0.735428 0.006640 0.799618
O O12 0.394723 0.360095 0.802232
O O13 0.454990 0.860711 0.966356
O O14 0.035322 0.629724 0.327759
O O15 0.000000 0.000000 0.500000
O O16 0.389856 0.686182 0.653479
O O17 0.000000 0.500000 0.000000
#
# Coordination Sequence:
#
# PCOD9054588 Si02
#       8
#     2   2   2   2   2   2   2   2
#     4   9  20  38  56  87 124 153 211 247 303 377
#     4  11  21  43  68  88 124 171 208 254 318 379
#     4  11  22  42  63  95 123 163 214 254 318 379
#     4   9  20  40  57  86 124 159 203 254 306 368
#     4  11  21  44  68  86 122 170 210 259 312 382
#     4  11  21  36  64  88 122 167 201 256 315 373
#     4   9  20  40  57  84 127 160 201 259 310 363
#     4  11  25  41  64  96 131 157 208 271 319 372
#
# _framework density 20.010071
#
# number of rings (size 3 to 8) (size 9 to 14) (size 15 to 20)
#    0.750    1.000    3.750    1.125    1.750    3.000 
#    4.500    0.000    0.000    0.000    0.000    0.000 
#    0.000    0.000    0.000    0.000    0.000    0.000 
#
# Total GULP energy -89116.791140 kJ/mol
# GULP energy per Si atom -5569.799446 kJ/mol
# Density = 1.996453 g / cm^3
# Si number density = 20.010071 Si / 1000 Ang^3
#
#
#
# Elastic Constant Matrix: (Units=GPa)
#
#
# Indices 1 2 3 4 5 6 
#
# 1 84.8208 32.3804 62.0592 6.1618 20.6923 1.9920
# 2 32.3804 54.7270 45.2133 17.1531 6.4874 8.2005
# 3 62.0592 45.2133 122.7944 24.1776 18.9046 5.7295
# 4 6.1618 17.1531 24.1776 20.0899 -7.0888 6.8576
# 5 20.6923 6.4874 18.9046 -7.0888 41.3633 1.7191
# 6 1.9920 8.2005 5.7295 6.8576 1.7191 30.2002
#
#
#
# Elastic Compliance Matrix: (Units=1/GPa)
#
#
# Indices 1 2 3 4 5 6 
#
# 1 0.022021 -0.007835 -0.009720 0.010222 -0.003610 0.000403
# 2 -0.007835 0.033521 -0.003220 -0.022744 -0.003656 -0.002602
# 3 -0.009720 -0.003220 0.019394 -0.021219 -0.007260 0.003068
# 4 0.010222 -0.022744 -0.021219 0.106709 0.027114 -0.016247
# 5 -0.003610 -0.003656 -0.007260 0.027114 0.034750 -0.005527
# 6 0.000403 -0.002602 0.003068 -0.016247 -0.005527 0.037214
#
#
# Mechanical properties :
#
#
# Convention : Reuss Voigt Hill
#
# Bulk Modulus (GPa) = 29.95385 60.18311 45.06848
# Shear Modulus (GPa) = 16.32452 26.50997 21.41725
#
# Velocity S-wave (km/s) = 2.85935 3.64377 3.27513
# Velocity P-wave (km/s) = 5.08950 6.91697 6.07238
#
# Compressibility (1/GPa) = 0.03338469
#
# Stress axis : x y z
#
# Youngs Moduli (GPa) = 45.41145 29.83237 51.56183
#
# Poissons Ratio (x) = 0.23375 0.50118
# Poissons Ratio (y) = 0.35582 0.16604
# Poissons Ratio (z) = 0.44140 0.09607
#
# Static dielectric constant tensor:
#      x y z
#    x 1.760250 -0.020650 0.005430 
#    y -0.020650 1.795190 0.053590 
#    z 0.005430 0.053590 1.729990 
# 
# From -- ./inp_files/356003.got.cif
#   From: 2010.05.17/outbox.cif.g08.bks.cpg/sg2_179_cif.got.tgz:356003.got - 2010.06.03 11:33:40.
