data_PCOD9054837
_publ_section_title
;
Structure prediction by ZEFSAII (Michael W. Deem and Ramdas Pophale) SiO2 
 PCOD9054837
Probable space group: P -1
;
_chemical_formula_sum "Si O2"
_cell_formula_units_Z 14
_cell_length_a 5.788966
_cell_length_b 9.339016
_cell_length_c 14.262153
_cell_angle_alpha 124.236734
_cell_angle_beta 62.516536
_cell_angle_gamma 90.761764
_cell_volume 532.654340
_symmetry_space_group_name_H-M "P -1"
_symmetry_group_IT_number 2
_symmetry_cell_setting 'triclinic'
loop_
_space_group_symop_operation_xyz
x,y,z
-x,-y,-z
loop_
_atom_site_type_symbol
_atom_site_label
_atom_site_fract_x
_atom_site_fract_y
_atom_site_fract_z
Si Si1 0.310896 0.246458 0.201164
Si Si2 0.591250 0.271391 0.983037
Si Si3 0.463583 0.329951 0.388460
Si Si4 0.931433 0.624924 0.371528
Si Si5 0.309002 0.357770 0.885926
Si Si6 0.944051 0.035405 0.289590
Si Si7 0.609381 0.206936 0.598364
O O1 0.441347 0.350734 0.290173
O O2 0.179641 0.124812 0.244719
O O3 0.064848 0.405655 0.254607
O O4 0.539500 0.175819 0.052119
O O5 0.381063 0.262949 0.938102
O O6 0.892851 0.173129 0.845895
O O7 0.542029 0.485159 0.090694
O O8 0.500000 0.500000 0.500000
O O9 0.174837 0.336064 0.487532
O O10 0.696695 0.144966 0.307631
O O11 0.661221 0.698380 0.383186
O O12 0.164555 0.718885 0.366512
O O13 0.434947 0.205096 0.725692
O O14 0.000000 0.500000 0.000000
O O15 0.811344 0.068375 0.431549
#
# Coordination Sequence:
#
# PCOD9054837 Si02
#       7
#     2   2   2   2   2   2   2
#     4  12  21  39  69 100 148 185 226 290 362 434
#     4  11  27  45  67 102 141 184 244 290 365 422
#     4  11  22  36  63 103 145 186 232 282 352 433
#     4  11  21  38  68 109 134 184 238 287 344 428
#     4  11  26  49  74  95 133 194 244 298 349 430
#     4  11  25  42  66 108 143 181 230 301 361 429
#     4  11  24  44  77 102 142 185 245 296 353 421
#
# _framework density 26.283460999999999
#
# number of rings (size 3 to 8) (size 9 to 14) (size 15 to 20)
#    0.000    0.857    4.286    3.429    2.000    3.429 
#    0.000    0.714    0.000    0.000    0.000    0.000 
#    0.000    0.000    0.000    0.000    0.000    0.000 
#
# Total GULP energy -78057.178873 kJ/mol
# GULP energy per Si atom -5575.512777 kJ/mol
# Density = 2.622364 g / cm^3
# Si number density = 26.283461 Si / 1000 Ang^3
#
#
#
# Elastic Constant Matrix: (Units=GPa)
#
#
# Indices 1 2 3 4 5 6 
#
# 1 89.7313 36.2818 50.5506 -8.9539 -8.4925 -1.8834
# 2 36.2818 65.0532 33.9390 -4.3666 12.8998 0.9189
# 3 50.5506 33.9390 226.1934 -30.2693 -4.4056 -6.2454
# 4 -8.9539 -4.3666 -30.2693 53.5650 -9.7769 0.4311
# 5 -8.4925 12.8998 -4.4056 -9.7769 39.0171 -0.0025
# 6 -1.8834 0.9189 -6.2454 0.4311 -0.0025 33.9668
#
#
#
# Elastic Compliance Matrix: (Units=1/GPa)
#
#
# Indices 1 2 3 4 5 6 
#
# 1 0.017155 -0.009915 -0.001865 0.002348 0.007390 0.000847
# 2 -0.009915 0.023972 -0.002019 -0.002844 -0.011024 -0.001534
# 3 -0.001865 -0.002019 0.005597 0.002978 0.001640 0.000943
# 4 0.002348 -0.002844 0.002978 0.021834 0.007259 0.000478
# 5 0.007390 -0.011024 0.001640 0.007259 0.032887 0.000920
# 6 0.000847 -0.001534 0.000943 0.000478 0.000920 0.029696
#
#
# Mechanical properties :
#
#
# Convention : Reuss Voigt Hill
#
# Bulk Modulus (GPa) = 52.28009 69.16894 60.72452
# Shear Modulus (GPa) = 30.28215 42.65688 36.46952
#
# Velocity S-wave (km/s) = 3.39800 4.03296 3.72902
# Velocity P-wave (km/s) = 5.94384 6.93253 6.45714
#
# Compressibility (1/GPa) = 0.01912774
#
# Stress axis : x y z
#
# Youngs Moduli (GPa) = 58.29103 41.71573 178.66162
#
# Poissons Ratio (x) = 0.41360 0.33316
# Poissons Ratio (y) = 0.57794 0.36066
# Poissons Ratio (z) = 0.10870 0.08421
#
# Static dielectric constant tensor:
#      x y z
#    x 2.139810 0.101990 -0.018490 
#    y 0.101990 2.175440 0.036620 
#    z -0.018490 0.036620 2.076500 
# 
# From -- ./inp_files/93040.got.cif
#   From: 2010.05.17/outbox.cif.g08.bks.cpg/sg2_47_cif.got.tgz:93040.got - 2010.06.03 11:33:40.
