data_PCOD9054277
_publ_section_title
;
Structure prediction by ZEFSAII (Michael W. Deem and Ramdas Pophale) SiO2 
 PCOD9054277
Probable space group: P -1
;
_chemical_formula_sum "Si O2"
_cell_formula_units_Z 12
_cell_length_a 12.442023
_cell_length_b 8.943935
_cell_length_c 9.681689
_cell_angle_alpha 62.634729
_cell_angle_beta 129.062003
_cell_angle_gamma 84.668783
_cell_volume 618.111743
_symmetry_space_group_name_H-M "P -1"
_symmetry_group_IT_number 2
_symmetry_cell_setting 'triclinic'
loop_
_space_group_symop_operation_xyz
x,y,z
-x,-y,-z
loop_
_atom_site_type_symbol
_atom_site_label
_atom_site_fract_x
_atom_site_fract_y
_atom_site_fract_z
Si Si1 0.386592 0.440604 0.517041
Si Si2 0.379338 0.611613 0.723206
Si Si3 0.446417 0.013964 0.793120
Si Si4 0.880774 0.000619 0.517157
Si Si5 0.578020 0.788622 0.733042
Si Si6 0.117028 0.576371 0.032305
O O1 0.500000 0.500000 0.500000
O O2 0.387133 0.469348 0.669888
O O3 0.426608 0.215279 0.628685
O O4 0.208157 0.578590 0.242590
O O5 0.442362 0.733838 0.641963
O O6 0.201123 0.785333 0.562175
O O7 0.500000 0.500000 0.000000
O O8 0.277420 0.013035 0.648574
O O9 0.582574 0.834685 0.879404
O O10 0.500000 0.000000 0.000000
O O11 0.000000 0.000000 0.500000
O O12 0.003185 0.800730 0.787501
O O13 0.742412 0.592971 0.886136
O O14 0.500000 0.000000 0.500000
O O15 0.000000 0.500000 0.000000
#
# Coordination Sequence:
#
# PCOD9054277 Si02
#       6
#     2   2   2   2   2   2
#     4  12  23  41  70  98 125 174 225 262 317 394
#     4  11  23  43  68  94 127 173 221 261 319 398
#     4  11  24  43  67  96 127 174 226 258 314 402
#     4  11  25  44  64  95 135 170 208 276 337 368
#     4  11  20  42  67  90 125 175 214 257 320 387
#     4  12  23  42  66  97 137 164 213 281 326 374
#
# _framework density 19.413965999999999
#
# number of rings (size 3 to 8) (size 9 to 14) (size 15 to 20)
#    0.000    0.667    5.000    4.000    2.333    0.667 
#    3.000    1.667    0.000    0.000    0.000    0.000 
#    0.000    0.000    0.000    0.000    0.000    0.000 
#
# Total GULP energy -66904.192175 kJ/mol
# GULP energy per Si atom -5575.349348 kJ/mol
# Density = 1.936978 g / cm^3
# Si number density = 19.413966 Si / 1000 Ang^3
#
#
#
# Elastic Constant Matrix: (Units=GPa)
#
#
# Indices 1 2 3 4 5 6 
#
# 1 99.8650 19.3481 11.2765 0.8061 5.7737 -7.8946
# 2 19.3481 104.1256 24.9657 6.9473 -2.9589 -26.1748
# 3 11.2765 24.9657 111.4610 6.7325 -14.0798 -14.4952
# 4 0.8061 6.9473 6.7325 44.7542 0.1529 -2.1489
# 5 5.7737 -2.9589 -14.0798 0.1529 31.0073 -5.6018
# 6 -7.8946 -26.1748 -14.4952 -2.1489 -5.6018 54.5037
#
#
#
# Elastic Compliance Matrix: (Units=1/GPa)
#
#
# Indices 1 2 3 4 5 6 
#
# 1 0.010631 -0.001786 -0.000995 0.000252 -0.002573 0.000163
# 2 -0.001786 0.011708 -0.001485 -0.001323 0.001702 0.005092
# 3 -0.000995 -0.001485 0.010454 -0.001226 0.005232 0.002412
# 4 0.000252 -0.001323 -0.001226 0.022727 -0.000863 -0.000118
# 5 -0.002573 0.001702 0.005232 -0.000863 0.036271 0.005530
# 6 0.000163 0.005092 0.002412 -0.000118 0.005530 0.022022
#
#
# Mechanical properties :
#
#
# Convention : Reuss Voigt Hill
#
# Bulk Modulus (GPa) = 41.21510 47.40355 44.30932
# Shear Modulus (GPa) = 38.33433 43.37714 40.85573
#
# Velocity S-wave (km/s) = 4.44844 4.73199 4.59241
# Velocity P-wave (km/s) = 6.90366 7.37061 7.14095
#
# Compressibility (1/GPa) = 0.02426295
#
# Stress axis : x y z
#
# Youngs Moduli (GPa) = 94.06016 85.40962 95.66027
#
# Poissons Ratio (x) = 0.15254 0.09515
# Poissons Ratio (y) = 0.16799 0.14202
# Poissons Ratio (z) = 0.09356 0.12680
#
# Static dielectric constant tensor:
#      x y z
#    x 1.750740 0.018270 -0.050820 
#    y 0.018270 1.481250 0.112280 
#    z -0.050820 0.112280 1.626130 
# 
# From -- ./inp_files/144395.got.cif
#   From: 2010.05.17/outbox.cif.g08.bks.cpg/sg2_73_cif.got.tgz:144395.got - 2010.06.03 11:33:40.
