data_PCOD9054814
_publ_section_title
;
Structure prediction by ZEFSAII (Michael W. Deem and Ramdas Pophale) SiO2 
 PCOD9054814
Probable space group: P -1
;
_chemical_formula_sum "Si O2"
_cell_formula_units_Z 14
_cell_length_a 14.175984
_cell_length_b 9.902544
_cell_length_c 13.549775
_cell_angle_alpha 147.245471
_cell_angle_beta 37.958822
_cell_angle_gamma 121.074004
_cell_volume 567.954374
_symmetry_space_group_name_H-M "P -1"
_symmetry_group_IT_number 2
_symmetry_cell_setting 'triclinic'
loop_
_space_group_symop_operation_xyz
x,y,z
-x,-y,-z
loop_
_atom_site_type_symbol
_atom_site_label
_atom_site_fract_x
_atom_site_fract_y
_atom_site_fract_z
Si Si1 0.110045 0.981750 0.298896
Si Si2 0.261339 0.052246 0.691741
Si Si3 0.359964 0.013546 0.246620
Si Si4 0.615529 0.570579 0.064932
Si Si5 0.200577 0.412099 0.785477
Si Si6 0.000157 0.146850 0.270797
Si Si7 0.707106 0.734100 0.885312
O O1 0.249978 0.078389 0.278124
O O2 0.215479 0.665393 0.980347
O O3 0.000000 0.000000 0.500000
O O4 0.003864 0.121604 0.372861
O O5 0.265514 0.295076 0.904803
O O6 0.286854 0.144786 0.618466
O O7 0.429163 0.758842 0.384526
O O8 0.081764 0.037282 0.825321
O O9 0.279134 0.304986 0.549860
O O10 0.332372 0.749846 0.151241
O O11 0.560363 0.897422 0.029105
O O12 0.625884 0.630390 0.977492
O O13 0.000000 0.500000 0.000000
O O14 0.863346 0.456593 0.545488
O O15 0.192474 0.091277 0.051956
#
# Coordination Sequence:
#
# PCOD9054814 Si02
#       7
#     2   2   2   2   2   2   2
#     4  12  24  41  69  99 132 172 219 276 332 387
#     4  11  21  38  67 101 127 162 230 278 317 393
#     4  12  23  41  70  98 133 173 220 276 327 387
#     4  11  22  38  71 100 123 171 226 276 328 372
#     4  12  22  36  64 102 125 163 220 274 323 386
#     4  11  25  43  65  96 134 176 220 268 334 397
#     4  11  24  43  65  94 135 179 215 273 332 388
#
# _framework density 24.649868000000001
#
# number of rings (size 3 to 8) (size 9 to 14) (size 15 to 20)
#    0.000    0.571    7.143    2.143    0.000    1.143 
#    0.000    0.714    0.000    0.000    0.000    0.000 
#    0.000    0.000    0.000    0.000    0.000    0.000 
#
# Total GULP energy -78176.934018 kJ/mol
# GULP energy per Si atom -5584.066716 kJ/mol
# Density = 2.459376 g / cm^3
# Si number density = 24.649868 Si / 1000 Ang^3
#
#
#
# Elastic Constant Matrix: (Units=GPa)
#
#
# Indices 1 2 3 4 5 6 
#
# 1 139.1260 15.9818 33.3348 -12.3400 -11.2886 39.2595
# 2 15.9818 76.2599 22.9012 -22.9826 7.6352 15.4895
# 3 33.3348 22.9012 96.2219 7.0011 -4.3962 7.6998
# 4 -12.3400 -22.9826 7.0011 28.9599 8.2589 -1.5259
# 5 -11.2886 7.6352 -4.3962 8.2589 50.6832 1.2443
# 6 39.2595 15.4895 7.6998 -1.5259 1.2443 44.4712
#
#
#
# Elastic Compliance Matrix: (Units=1/GPa)
#
#
# Indices 1 2 3 4 5 6 
#
# 1 0.011565 0.003385 -0.004537 0.007987 0.000625 -0.010346
# 2 0.003385 0.025259 -0.008639 0.025286 -0.007695 -0.009207
# 3 -0.004537 -0.008639 0.014836 -0.013207 0.003634 0.003890
# 4 0.007987 0.025286 -0.013207 0.064438 -0.013406 -0.010986
# 5 0.000625 -0.007695 0.003634 -0.013406 0.023519 0.000381
# 6 -0.010346 -0.009207 0.003890 -0.010986 0.000381 0.033766
#
#
# Mechanical properties :
#
#
# Convention : Reuss Voigt Hill
#
# Bulk Modulus (GPa) = 31.17391 50.67149 40.92270
# Shear Modulus (GPa) = 24.55110 40.78219 32.66665
#
# Velocity S-wave (km/s) = 3.15936 4.07192 3.64431
# Velocity P-wave (km/s) = 5.09734 6.53517 5.86052
#
# Compressibility (1/GPa) = 0.03207811
#
# Stress axis : x y z
#
# Youngs Moduli (GPa) = 86.47066 39.59003 67.40307
#
# Poissons Ratio (x) = -0.13401 0.30579
# Poissons Ratio (y) = -0.29269 0.58229
# Poissons Ratio (z) = 0.39229 0.34202
#
# Static dielectric constant tensor:
#      x y z
#    x 2.062900 0.020900 -0.024270 
#    y 0.020900 2.050710 -0.001000 
#    z -0.024270 -0.001000 1.943680 
# 
# From -- ./inp_files/532758.got.cif
#   From: 2010.05.17/outbox.cif.g08.bks.cpg/sg2_267_cif.got.tgz:532758.got - 2010.06.03 11:33:40.
