data_PCOD9054809
_publ_section_title
;
Structure prediction by ZEFSAII (Michael W. Deem and Ramdas Pophale) SiO2 
 PCOD9054809
Probable space group: P -1
;
_chemical_formula_sum "Si O2"
_cell_formula_units_Z 14
_cell_length_a 6.277891
_cell_length_b 14.983730
_cell_length_c 17.402933
_cell_angle_alpha 148.048409
_cell_angle_beta 57.274514
_cell_angle_gamma 131.444201
_cell_volume 648.483425
_symmetry_space_group_name_H-M "P -1"
_symmetry_group_IT_number 2
_symmetry_cell_setting 'triclinic'
loop_
_space_group_symop_operation_xyz
x,y,z
-x,-y,-z
loop_
_atom_site_type_symbol
_atom_site_label
_atom_site_fract_x
_atom_site_fract_y
_atom_site_fract_z
Si Si1 0.245024 0.867326 0.397389
Si Si2 0.713874 0.602964 0.754330
Si Si3 0.652841 0.801231 0.496481
Si Si4 0.296317 0.591322 0.067847
Si Si5 0.699462 0.229098 0.305465
Si Si6 0.767015 0.879416 0.074170
Si Si7 0.598753 0.847208 0.840692
O O1 0.228104 0.682760 0.223123
O O2 0.956660 0.809866 0.458879
O O3 0.500000 0.000000 0.500000
O O4 0.276345 0.008128 0.423511
O O5 0.524891 0.387408 0.656580
O O6 0.549753 0.695839 0.806155
O O7 0.969641 0.630527 0.667791
O O8 0.825037 0.738359 0.904839
O O9 0.462612 0.775282 0.588933
O O10 0.527246 0.756690 0.091058
O O11 0.500000 0.500000 0.000000
O O12 0.000000 0.500000 0.000000
O O13 0.554583 0.265099 0.286610
O O14 0.670864 0.016850 0.147464
O O15 0.070288 0.029963 0.156830
O O16 0.500000 0.000000 0.000000
#
# Coordination Sequence:
#
# PCOD9054809 Si02
#       7
#     2   2   2   2   2   2   2
#     4  11  28  48  71 104 144 198 246 306 384 440
#     4  11  23  40  64 105 130 182 240 298 362 448
#     4  11  26  45  69  94 150 184 240 301 375 445
#     4  12  30  50  81 114 146 196 263 313 369 444
#     4  11  22  42  67  95 140 184 236 292 372 434
#     4  11  23  40  69  99 140 182 238 307 366 426
#     4  11  21  38  66  97 136 183 236 302 365 434
#
# _framework density 21.588833000000001
#
# number of rings (size 3 to 8) (size 9 to 14) (size 15 to 20)
#    0.000    0.857    4.286    2.143   10.000    2.857 
#    0.000    0.000    0.000    0.000    0.000    0.000 
#    0.000    0.000    0.000    0.000    0.000    0.000 
#
# Total GULP energy -77985.792993 kJ/mol
# GULP energy per Si atom -5570.413785 kJ/mol
# Density = 2.153970 g / cm^3
# Si number density = 21.588833 Si / 1000 Ang^3
#
#
#
# Elastic Constant Matrix: (Units=GPa)
#
#
# Indices 1 2 3 4 5 6 
#
# 1 79.0728 -1.0659 27.6720 -3.1615 0.3253 11.5555
# 2 -1.0659 61.6463 -1.8772 -1.4900 -10.0529 25.5913
# 3 27.6720 -1.8772 91.3788 -6.9037 -1.2999 21.0150
# 4 -3.1615 -1.4900 -6.9037 40.8715 -0.4826 -4.2179
# 5 0.3253 -10.0529 -1.2999 -0.4826 20.1205 -3.8908
# 6 11.5555 25.5913 21.0150 -4.2179 -3.8908 25.9896
#
#
#
# Elastic Compliance Matrix: (Units=1/GPa)
#
#
# Indices 1 2 3 4 5 6 
#
# 1 0.014746 0.003385 -0.002600 0.000015 -0.000227 -0.007819
# 2 0.003385 0.036604 0.009962 -0.001166 0.010292 -0.044252
# 3 -0.002600 0.009962 0.017097 0.000795 0.001876 -0.022069
# 4 0.000015 -0.001166 0.000795 0.025058 0.000981 0.004712
# 5 -0.000227 0.010292 0.001876 0.000981 0.054362 -0.003253
# 6 -0.007819 -0.044252 -0.022069 0.004712 -0.003253 0.103649
#
#
# Mechanical properties :
#
#
# Convention : Reuss Voigt Hill
#
# Bulk Modulus (GPa) = 11.11830 31.28396 21.20113
# Shear Modulus (GPa) = 19.23055 31.22093 25.22574
#
# Velocity S-wave (km/s) = 2.98780 3.80697 3.42199
# Velocity P-wave (km/s) = 4.13084 5.81775 5.04530
#
# Compressibility (1/GPa) = 0.08994184
#
# Stress axis : x y z
#
# Youngs Moduli (GPa) = 67.81390 27.31946 58.48832
#
# Poissons Ratio (x) = -0.09248 0.15207
# Poissons Ratio (y) = -0.22955 -0.58267
# Poissons Ratio (z) = 0.17631 -0.27216
#
# Static dielectric constant tensor:
#      x y z
#    x 1.884410 0.023770 -0.016080 
#    y 0.023770 1.713820 -0.033830 
#    z -0.016080 -0.033830 1.770250 
# 
# From -- ./inp_files/28322.got.cif
#   From: 2010.05.17/outbox.cif.g08.bks.cpg/sg2_15_cif.got.tgz:28322.got - 2010.06.03 11:33:40.
