data_PCOD9054208
_publ_section_title
;
Structure prediction by ZEFSAII (Michael W. Deem and Ramdas Pophale) SiO2 
 PCOD9054208
Probable space group: P -1
;
_chemical_formula_sum "Si O2"
_cell_formula_units_Z 16
_cell_length_a 8.760460
_cell_length_b 17.336762
_cell_length_c 12.182934
_cell_angle_alpha 123.849280
_cell_angle_beta 147.163550
_cell_angle_gamma 51.358961
_cell_volume 781.380323
_symmetry_space_group_name_H-M "P -1"
_symmetry_group_IT_number 2
_symmetry_cell_setting 'triclinic'
loop_
_space_group_symop_operation_xyz
x,y,z
-x,-y,-z
loop_
_atom_site_type_symbol
_atom_site_label
_atom_site_fract_x
_atom_site_fract_y
_atom_site_fract_z
Si Si1 0.814510 0.056735 0.607048
Si Si2 0.782380 0.764544 0.601083
Si Si3 0.049156 0.697622 0.300923
Si Si4 0.754824 0.618273 0.640309
Si Si5 0.238295 0.399046 0.110483
Si Si6 0.270502 0.083943 0.741322
Si Si7 0.086710 0.602677 0.481098
Si Si8 0.940159 0.065847 0.126185
O O1 0.563926 0.164202 0.556159
O O2 0.118904 0.062561 0.743193
O O3 0.697639 0.000013 0.397037
O O4 0.875041 0.997301 0.710006
O O5 0.847051 0.702065 0.702929
O O6 0.868162 0.682171 0.492849
O O7 0.970028 0.837604 0.760139
O O8 0.394102 0.650066 0.434844
O O9 0.011645 0.639522 0.340106
O O10 0.960944 0.813262 0.364526
O O11 0.830945 0.685861 0.065432
O O12 0.809638 0.611003 0.797512
O O13 0.907619 0.509136 0.595380
O O14 0.574204 0.398521 0.296112
O O15 0.000000 0.500000 0.000000
O O16 0.590163 0.093123 0.961656
O O17 0.000000 0.000000 0.000000
#
# Coordination Sequence:
#
# PCOD9054208 Si02
#       8
#     2   2   2   2   2   2   2   2
#     4  11  25  47  70  95 135 176 225 278 328 401
#     4  12  25  46  65 100 140 178 218 272 339 397
#     4  11  21  40  70  98 125 176 222 270 328 394
#     4  11  23  43  65  98 134 175 225 268 321 399
#     4  11  20  41  69  94 130 172 224 273 322 387
#     4  11  24  45  73  98 127 175 231 271 333 394
#     4  11  23  40  68  94 137 176 220 269 330 390
#     4  12  26  44  69 100 138 171 218 280 341 393
#
# _framework density 20.476583000000002
#
# number of rings (size 3 to 8) (size 9 to 14) (size 15 to 20)
#    0.000    0.750    5.000    3.375    1.750    2.000 
#    0.000    0.625    0.000    0.000    0.000    0.000 
#    0.000    0.000    0.000    0.000    0.000    0.000 
#
# Total GULP energy -89492.384715 kJ/mol
# GULP energy per Si atom -5593.274045 kJ/mol
# Density = 2.042998 g / cm^3
# Si number density = 20.476583 Si / 1000 Ang^3
#
#
#
# Elastic Constant Matrix: (Units=GPa)
#
#
# Indices 1 2 3 4 5 6 
#
# 1 114.7818 68.9732 49.6479 -4.3552 -2.0209 9.8981
# 2 68.9732 150.3648 26.7629 -0.8818 -9.2472 -1.0443
# 3 49.6479 26.7629 79.4375 -4.7364 -6.3649 1.0153
# 4 -4.3552 -0.8818 -4.7364 8.7983 2.6667 -1.4346
# 5 -2.0209 -9.2472 -6.3649 2.6667 19.3320 3.0967
# 6 9.8981 -1.0443 1.0153 -1.4346 3.0967 49.6597
#
#
#
# Elastic Compliance Matrix: (Units=1/GPa)
#
#
# Indices 1 2 3 4 5 6 
#
# 1 0.016339 -0.006291 -0.008152 0.003832 -0.004056 -0.002859
# 2 -0.006291 0.009649 0.000854 -0.002864 0.004461 0.001078
# 3 -0.008152 0.000854 0.018027 0.004514 0.004690 0.001112
# 4 0.003832 -0.002864 0.004514 0.123492 -0.017113 0.003719
# 5 -0.004056 0.004461 0.004690 -0.017113 0.057871 -0.003297
# 6 -0.002859 0.001078 0.001112 0.003719 -0.003297 0.021020
#
#
# Mechanical properties :
#
#
# Convention : Reuss Voigt Hill
#
# Bulk Modulus (GPa) = 59.39525 70.59471 64.99498
# Shear Modulus (GPa) = 17.90910 28.83800 23.37355
#
# Velocity S-wave (km/s) = 2.96060 3.75686 3.38224
# Velocity P-wave (km/s) = 6.38406 7.30543 6.86023
#
# Compressibility (1/GPa) = 0.01683636
#
# Stress axis : x y z
#
# Youngs Moduli (GPa) = 61.20329 103.63619 55.47279
#
# Poissons Ratio (x) = 0.65193 0.45224
# Poissons Ratio (y) = 0.38500 -0.04736
# Poissons Ratio (z) = 0.49895 -0.08847
#
# Static dielectric constant tensor:
#      x y z
#    x 1.727730 -0.008180 0.014650 
#    y -0.008180 1.734390 0.016590 
#    z 0.014650 0.016590 1.704870 
# 
# From -- ./inp_files/98198.got.cif
#   From: 2010.05.17/outbox.cif.g08.bks.cpg/sg2_50_cif.got.tgz:98198.got - 2010.06.03 11:33:40.
