data_PCOD9054604
_publ_section_title
;
Structure prediction by ZEFSAII (Michael W. Deem and Ramdas Pophale) SiO2 
 PCOD9054604
Probable space group: P -1
;
_chemical_formula_sum "Si O2"
_cell_formula_units_Z 14
_cell_length_a 8.641628
_cell_length_b 25.421471
_cell_length_c 15.230744
_cell_angle_alpha 160.217986
_cell_angle_beta 147.175783
_cell_angle_gamma 31.103826
_cell_volume 573.397810
_symmetry_space_group_name_H-M "P -1"
_symmetry_group_IT_number 2
_symmetry_cell_setting 'triclinic'
loop_
_space_group_symop_operation_xyz
x,y,z
-x,-y,-z
loop_
_atom_site_type_symbol
_atom_site_label
_atom_site_fract_x
_atom_site_fract_y
_atom_site_fract_z
Si Si1 0.096788 0.611411 0.114423
Si Si2 0.449578 0.493637 0.363866
Si Si3 0.931552 0.830215 0.217927
Si Si4 0.818501 0.668315 0.733873
Si Si5 0.358603 0.271634 0.761512
Si Si6 0.773287 0.988588 0.799681
Si Si7 0.896156 0.154009 0.956107
O O1 0.126038 0.729683 0.236450
O O2 0.902911 0.702927 0.249803
O O3 0.873606 0.521343 0.828919
O O4 0.375008 0.452553 0.032863
O O5 0.500000 0.500000 0.500000
O O6 0.510650 0.643698 0.579405
O O7 0.700530 0.325393 0.181665
O O8 0.572302 0.880659 0.150566
O O9 0.964326 0.711875 0.961968
O O10 0.000000 0.000000 0.500000
O O11 0.000000 0.500000 0.500000
O O12 0.811083 0.818806 0.902734
O O13 0.669964 0.149799 0.762626
O O14 0.282337 0.184054 0.503691
O O15 0.920508 0.016769 0.823070
O O16 0.000000 0.000000 0.000000
#
# Coordination Sequence:
#
# PCOD9054604 Si02
#       7
#     2   2   2   2   2   2   2
#     4  10  22  40  70  98 130 184 233 284 336 425
#     4  10  17  35  66  94 128 169 227 277 342 392
#     4  12  25  45  72 104 144 186 234 288 354 420
#     4  10  22  37  68 101 134 181 227 285 352 405
#     4  10  22  40  68  99 132 179 233 277 347 417
#     4  12  26  43  70 102 141 184 232 288 356 416
#     4  10  21  41  63  97 136 181 221 284 350 416
#
# _framework density 24.415859999999999
#
# number of rings (size 3 to 8) (size 9 to 14) (size 15 to 20)
#    0.000    1.429    4.286    1.286    6.000    0.000 
#    0.000   10.714    0.000    0.000    0.000    0.000 
#    0.000    0.000    0.000    0.000    0.000    0.000 
#
# Total GULP energy -78214.887465 kJ/mol
# GULP energy per Si atom -5586.777676 kJ/mol
# Density = 2.436029 g / cm^3
# Si number density = 24.415860 Si / 1000 Ang^3
#
#
#
# Elastic Constant Matrix: (Units=GPa)
#
#
# Indices 1 2 3 4 5 6 
#
# 1 102.8496 27.5835 41.3592 5.8663 19.3982 20.3921
# 2 27.5835 81.7213 39.5302 3.6585 4.4756 27.9085
# 3 41.3592 39.5302 125.5265 -4.2098 -0.7968 17.1290
# 4 5.8663 3.6585 -4.2098 41.0072 13.3405 6.0525
# 5 19.3982 4.4756 -0.7968 13.3405 55.8879 1.7906
# 6 20.3921 27.9085 17.1290 6.0525 1.7906 27.1611
#
#
#
# Elastic Compliance Matrix: (Units=1/GPa)
#
#
# Indices 1 2 3 4 5 6 
#
# 1 0.013464 -0.000039 -0.003389 0.000349 -0.004555 -0.007709
# 2 -0.000039 0.020572 -0.003877 0.000976 -0.001320 -0.018795
# 3 -0.003389 -0.003877 0.010430 0.001556 0.001279 -0.000481
# 4 0.000349 0.000976 0.001556 0.027715 -0.006537 -0.007991
# 5 -0.004555 -0.001320 0.001279 -0.006537 0.021029 0.004039
# 6 -0.007709 -0.018795 -0.000481 -0.007991 0.004039 0.063735
#
#
# Mechanical properties :
#
#
# Convention : Reuss Voigt Hill
#
# Bulk Modulus (GPa) = 33.49322 58.56034 46.02678
# Shear Modulus (GPa) = 27.54742 38.25287 32.90015
#
# Velocity S-wave (km/s) = 3.36260 3.96248 3.67480
# Velocity P-wave (km/s) = 5.36877 6.70609 6.07434
#
# Compressibility (1/GPa) = 0.02985679
#
# Stress axis : x y z
#
# Youngs Moduli (GPa) = 74.27322 48.60926 95.87805
#
# Poissons Ratio (x) = 0.00187 0.32496
# Poissons Ratio (y) = 0.00286 0.37170
# Poissons Ratio (z) = 0.25173 0.18845
#
# Static dielectric constant tensor:
#      x y z
#    x 2.027030 0.270960 -0.067250 
#    y 0.270960 3.266530 -0.248550 
#    z -0.067250 -0.248550 2.040850 
# 
# From -- ./inp_files/508682.got.cif
#   From: 2010.05.17/outbox.cif.g08.bks.cpg/sg2_255_cif.got.tgz:508682.got - 2010.06.03 11:33:40.
