data_PCOD9054916
_publ_section_title
;
Structure prediction by ZEFSAII (Michael W. Deem and Ramdas Pophale) SiO2 
 PCOD9054916
Probable space group: P -1
;
_chemical_formula_sum "Si O2"
_cell_formula_units_Z 14
_cell_length_a 6.895605
_cell_length_b 17.355779
_cell_length_c 9.937622
_cell_angle_alpha 127.211103
_cell_angle_beta 107.591663
_cell_angle_gamma 106.890037
_cell_volume 705.932623
_symmetry_space_group_name_H-M "P -1"
_symmetry_group_IT_number 2
_symmetry_cell_setting 'triclinic'
loop_
_space_group_symop_operation_xyz
x,y,z
-x,-y,-z
loop_
_atom_site_type_symbol
_atom_site_label
_atom_site_fract_x
_atom_site_fract_y
_atom_site_fract_z
Si Si1 0.002852 0.077081 0.880373
Si Si2 0.963142 0.263290 0.512997
Si Si3 0.176023 0.459257 0.529072
Si Si4 0.907964 0.366858 0.882689
Si Si5 0.613929 0.905657 0.829698
Si Si6 0.666634 0.809421 0.474687
Si Si7 0.214379 0.345086 0.148781
O O1 0.254639 0.094775 0.008591
O O2 0.078324 0.200474 0.964210
O O3 0.817634 0.034687 0.929597
O O4 0.835855 0.954034 0.624473
O O5 0.067002 0.373770 0.547420
O O6 0.160757 0.233926 0.536526
O O7 0.937883 0.304139 0.696521
O O8 0.678393 0.143632 0.276726
O O9 0.175394 0.381676 0.325343
O O10 0.479246 0.576379 0.732775
O O11 0.000000 0.500000 0.500000
O O12 0.599799 0.278455 0.754811
O O13 0.000000 0.500000 0.000000
O O14 0.081195 0.377499 0.049945
O O15 0.599939 0.811439 0.620698
#
# Coordination Sequence:
#
# PCOD9054916 Si02
#       7
#     2   2   2   2   2   2   2
#     4   9  18  39  60  87 123 158 192 242 303 356
#     4  11  21  39  65  89 116 158 201 247 295 348
#     4  11  24  40  62  92 120 152 204 251 292 349
#     4  11  24  41  61  85 121 162 202 240 295 357
#     4   8  18  36  59  90 122 151 194 241 297 352
#     4   9  20  37  58  88 117 155 198 242 287 359
#     4  11  24  42  61  88 125 160 190 249 305 344
#
# _framework density 19.831923
#
# number of rings (size 3 to 8) (size 9 to 14) (size 15 to 20)
#    0.857    1.143    0.000    3.429    0.000    9.143 
#    2.571    0.714    0.000    0.000    0.000    0.000 
#    0.000    0.000    0.000    0.000    0.000    0.000 
#
# Total GULP energy -78135.851237 kJ/mol
# GULP energy per Si atom -5581.132231 kJ/mol
# Density = 1.978678 g / cm^3
# Si number density = 19.831923 Si / 1000 Ang^3
#
#
#
# Elastic Constant Matrix: (Units=GPa)
#
#
# Indices 1 2 3 4 5 6 
#
# 1 90.3471 14.1915 15.1888 -1.4810 27.7848 -26.1219
# 2 14.1915 69.0241 -0.8950 22.2444 1.4983 -28.4577
# 3 15.1888 -0.8950 56.1338 12.4385 11.6527 -26.1718
# 4 -1.4810 22.2444 12.4385 24.8416 -1.5007 -5.5185
# 5 27.7848 1.4983 11.6527 -1.5007 19.5150 -10.8312
# 6 -26.1219 -28.4577 -26.1718 -5.5185 -10.8312 29.0645
#
#
#
# Elastic Compliance Matrix: (Units=1/GPa)
#
#
# Indices 1 2 3 4 5 6 
#
# 1 0.016748 -0.031087 -0.026474 0.030735 -0.027508 -0.043641
# 2 -0.031087 -0.141075 -0.155435 0.140934 0.004713 -0.277519
# 3 -0.026474 -0.155435 -0.134927 0.143556 -0.011029 -0.274335
# 4 0.030735 0.140934 0.143556 -0.093269 0.008027 0.280166
# 5 -0.027508 0.004713 -0.011029 0.008027 0.102655 0.009740
# 6 -0.043641 -0.277519 -0.274335 0.280166 0.009740 -0.466748
#
#
# Mechanical properties :
#
#
# Convention : Reuss Voigt Hill
#
# Bulk Modulus (GPa) = -1.45933 30.27508 14.40788
# Shear Modulus (GPa) = -9.63322 27.15219 8.75949
#
# Velocity S-wave (km/s) = -2.20635 3.70417 2.10391
# Velocity P-wave (km/s) = 2.68851 5.79599 3.63080
#
# Compressibility (1/GPa) = -0.68524658
#
# Stress axis : x y z
#
# Youngs Moduli (GPa) = 59.70848 -7.08845 -7.41144
#
# Poissons Ratio (x) = -0.22036 -0.19621
# Poissons Ratio (y) = 1.85616 -1.15200
# Poissons Ratio (z) = 1.58075 -1.10180
#
# Static dielectric constant tensor:
#      x y z
#    x 1.667320 -0.000780 -0.037570 
#    y -0.000780 1.635430 -0.015430 
#    z -0.037570 -0.015430 1.700300 
# 
# From -- ./inp_files/368121.got.cif
#   From: 2010.05.17/outbox.cif.g08.bks.cpg/sg2_185_cif.got.tgz:368121.got - 2010.06.03 11:33:40.
