data_PCOD9054310
_publ_section_title
;
Structure prediction by ZEFSAII (Michael W. Deem and Ramdas Pophale) SiO2 
 PCOD9054310
Probable space group: P -1
;
_chemical_formula_sum "Si O2"
_cell_formula_units_Z 16
_cell_length_a 9.220139
_cell_length_b 9.666133
_cell_length_c 12.085619
_cell_angle_alpha 34.543228
_cell_angle_beta 91.087457
_cell_angle_gamma 84.346964
_cell_volume 598.136824
_symmetry_space_group_name_H-M "P -1"
_symmetry_group_IT_number 2
_symmetry_cell_setting 'triclinic'
loop_
_space_group_symop_operation_xyz
x,y,z
-x,-y,-z
loop_
_atom_site_type_symbol
_atom_site_label
_atom_site_fract_x
_atom_site_fract_y
_atom_site_fract_z
Si Si1 0.177813 0.914544 0.050038
Si Si2 0.170897 0.525997 0.493958
Si Si3 0.036360 0.339750 0.250182
Si Si4 0.728813 0.836969 0.438473
Si Si5 0.514446 0.337829 0.303968
Si Si6 0.270840 0.300048 0.947698
Si Si7 0.738007 0.346294 0.010273
Si Si8 0.775203 0.060865 0.614418
O O1 0.211184 0.703796 0.281554
O O2 0.236933 0.788784 0.019636
O O3 0.241172 0.148373 0.938871
O O4 0.000000 0.000000 0.000000
O O5 0.254770 0.262166 0.622256
O O6 0.203344 0.680566 0.499665
O O7 0.000000 0.500000 0.500000
O O8 0.869672 0.476308 0.179304
O O9 0.923549 0.908818 0.659381
O O10 0.129403 0.280963 0.405384
O O11 0.116664 0.537054 0.057389
O O12 0.592425 0.735533 0.554721
O O13 0.714386 0.134447 0.233861
O O14 0.585629 0.583909 0.145069
O O15 0.398546 0.418214 0.149713
O O16 0.655520 0.119068 0.475588
O O17 0.273223 0.108321 0.176966
#
# Coordination Sequence:
#
# PCOD9054310 Si02
#       8
#     2   2   2   2   2   2   2   2
#     4  11  20  42  70 108 140 184 244 302 359 430
#     4  11  24  44  74 109 145 189 242 305 368 430
#     4  11  25  49  76 111 143 192 253 305 359 440
#     4  11  25  47  76 108 148 194 246 298 372 435
#     4  11  26  48  68 113 150 197 240 304 364 449
#     4  11  25  45  73 107 153 188 242 306 373 428
#     4  11  24  45  77 104 149 194 243 300 367 434
#     4  11  28  46  74 110 150 191 247 303 371 430
#
# _framework density 26.749731000000001
#
# number of rings (size 3 to 8) (size 9 to 14) (size 15 to 20)
#    0.000    1.000    3.750    1.875    7.000    4.500 
#    0.000    3.750    0.000    0.000    0.000    0.000 
#    0.000    0.000    0.000    0.000    0.000    0.000 
#
# Total GULP energy -89602.097125 kJ/mol
# GULP energy per Si atom -5600.131070 kJ/mol
# Density = 2.668885 g / cm^3
# Si number density = 26.749731 Si / 1000 Ang^3
#
#
#
# Elastic Constant Matrix: (Units=GPa)
#
#
# Indices 1 2 3 4 5 6 
#
# 1 139.7450 32.3908 54.7431 -5.9564 -23.1574 7.3245
# 2 32.3908 175.6552 51.9858 -0.9093 -13.1471 8.5278
# 3 54.7431 51.9858 183.6815 -2.3728 -12.8576 -2.3442
# 4 -5.9564 -0.9093 -2.3728 53.5552 0.8634 -10.7247
# 5 -23.1574 -13.1471 -12.8576 0.8634 62.1976 -6.0305
# 6 7.3245 8.5278 -2.3442 -10.7247 -6.0305 21.1316
#
#
#
# Elastic Compliance Matrix: (Units=1/GPa)
#
#
# Indices 1 2 3 4 5 6 
#
# 1 0.008726 -0.000651 -0.002268 0.000395 0.002432 -0.002119
# 2 -0.000651 0.006467 -0.001641 -0.000587 0.000530 -0.002713
# 3 -0.002268 -0.001641 0.006654 0.000523 0.000426 0.002574
# 4 0.000395 -0.000587 0.000523 0.020925 0.000911 0.011038
# 5 0.002432 0.000530 0.000426 0.000911 0.017605 0.004477
# 6 -0.002119 -0.002713 0.002574 0.011038 0.004477 0.056317
#
#
# Mechanical properties :
#
#
# Convention : Reuss Voigt Hill
#
# Bulk Modulus (GPa) = 78.57643 86.36902 82.47272
# Shear Modulus (GPa) = 38.44452 51.37435 44.90943
#
# Velocity S-wave (km/s) = 3.79515 4.38717 4.10185
# Velocity P-wave (km/s) = 6.97442 7.61715 7.30286
#
# Compressibility (1/GPa) = 0.01272646
#
# Stress axis : x y z
#
# Youngs Moduli (GPa) = 114.59824 154.62737 150.28055
#
# Poissons Ratio (x) = 0.10065 0.34086
# Poissons Ratio (y) = 0.07459 0.24667
# Poissons Ratio (z) = 0.25993 0.25381
#
# Static dielectric constant tensor:
#      x y z
#    x 1.923640 0.073390 -0.001770 
#    y 0.073390 2.081530 0.025560 
#    z -0.001770 0.025560 2.120530 
# 
# From -- ./inp_files/336972.got.cif
#   From: 2010.05.17/outbox.cif.g08.bks.cpg/sg2_169_cif.got.tgz:336972.got - 2010.06.03 11:33:40.
