data_PCOD9054453
_publ_section_title
;
Structure prediction by ZEFSAII (Michael W. Deem and Ramdas Pophale) SiO2 
 PCOD9054453
Probable space group: P -1
;
_chemical_formula_sum "Si O2"
_cell_formula_units_Z 16
_cell_length_a 10.312831
_cell_length_b 8.181242
_cell_length_c 9.207690
_cell_angle_alpha 120.218641
_cell_angle_beta 91.453586
_cell_angle_gamma 65.379103
_cell_volume 593.233347
_symmetry_space_group_name_H-M "P -1"
_symmetry_group_IT_number 2
_symmetry_cell_setting 'triclinic'
loop_
_space_group_symop_operation_xyz
x,y,z
-x,-y,-z
loop_
_atom_site_type_symbol
_atom_site_label
_atom_site_fract_x
_atom_site_fract_y
_atom_site_fract_z
Si Si1 0.861694 0.943858 0.339969
Si Si2 0.556891 0.574959 0.260949
Si Si3 0.390998 0.269128 0.358314
Si Si4 0.323977 0.906309 0.865389
Si Si5 0.751713 0.356698 0.717367
Si Si6 0.108824 0.261781 0.450849
Si Si7 0.825873 0.542722 0.088256
Si Si8 0.049346 0.167525 0.127428
O O1 0.899538 0.785286 0.406878
O O2 0.860724 0.738365 0.147764
O O3 0.767646 0.104637 0.280554
O O4 0.849329 0.140135 0.536828
O O5 0.554364 0.651392 0.462087
O O6 0.623362 0.318590 0.151149
O O7 0.390577 0.665355 0.243726
O O8 0.662528 0.633037 0.193583
O O9 0.533037 0.092943 0.199487
O O10 0.307905 0.454953 0.320200
O O11 0.274319 0.206587 0.394680
O O12 0.216530 0.092703 0.051285
O O13 0.823633 0.414393 0.883503
O O14 0.056646 0.134944 0.285544
O O15 0.000000 0.500000 0.500000
O O16 0.932585 0.383499 0.144443
O O17 0.000000 0.000000 0.000000
#
# Coordination Sequence:
#
# PCOD9054453 Si02
#       8
#     2   2   2   2   2   2   2   2
#     4  12  25  46  74 108 148 191 246 310 362 438
#     4  11  20  49  72 104 152 193 244 301 371 447
#     4  11  23  49  75 106 152 194 245 302 368 448
#     4  11  25  44  76 107 143 199 240 305 370 430
#     4  11  25  45  74 112 145 195 245 303 375 433
#     4  12  27  48  75 104 148 197 244 301 375 435
#     4  12  26  45  73 110 147 190 250 312 356 446
#     4  12  26  50  74 102 148 196 249 300 374 442
#
# _framework density 26.970837
#
# number of rings (size 3 to 8) (size 9 to 14) (size 15 to 20)
#    0.000    0.500    6.250    1.875    1.750    4.000 
#    2.250    1.875    0.000    0.000    0.000    0.000 
#    0.000    0.000    0.000    0.000    0.000    0.000 
#
# Total GULP energy -89202.739567 kJ/mol
# GULP energy per Si atom -5575.171223 kJ/mol
# Density = 2.690945 g / cm^3
# Si number density = 26.970837 Si / 1000 Ang^3
#
#
#
# Elastic Constant Matrix: (Units=GPa)
#
#
# Indices 1 2 3 4 5 6 
#
# 1 110.0373 43.8710 17.6160 55.9298 54.4565 -4.8539
# 2 43.8710 30.6259 5.1065 -47.4954 -63.2518 -28.2774
# 3 17.6160 5.1065 131.6954 -26.8620 20.4434 -14.0922
# 4 55.9298 -47.4954 -26.8620 -3.2819 -68.1746 -16.5559
# 5 54.4565 -63.2518 20.4434 -68.1746 -63.1171 -29.2195
# 6 -4.8539 -28.2774 -14.0922 -16.5559 -29.2195 13.4895
#
#
#
# Elastic Compliance Matrix: (Units=1/GPa)
#
#
# Indices 1 2 3 4 5 6 
#
# 1 0.008667 0.001351 -0.001482 -0.003228 0.004456 0.010095
# 2 0.001351 0.011669 0.000098 -0.004057 -0.007692 0.003409
# 3 -0.001482 0.000098 0.010567 0.006408 -0.006728 0.004003
# 4 -0.003228 -0.004057 0.006408 0.021873 -0.015638 -0.010002
# 5 0.004456 -0.007692 -0.006728 -0.015638 0.014621 -0.009071
# 6 0.010095 0.003409 0.004003 -0.010002 -0.009071 0.057166
#
#
# Mechanical properties :
#
#
# Convention : Reuss Voigt Hill
#
# Bulk Modulus (GPa) = 32.42700 45.06061 38.74381
# Shear Modulus (GPa) = 37.06238 3.13577 20.09907
#
# Velocity S-wave (km/s) = 3.71099 1.07943 2.73282
# Velocity P-wave (km/s) = 5.51462 4.27750 4.93498
#
# Compressibility (1/GPa) = 0.03083850
#
# Stress axis : x y z
#
# Youngs Moduli (GPa) = 115.38422 85.69707 94.63097
#
# Poissons Ratio (x) = -0.11580 0.14020
# Poissons Ratio (y) = -0.15591 -0.00928
# Poissons Ratio (z) = 0.17095 -0.00840
#
# Static dielectric constant tensor:
#      x y z
#    x 2.357670 -0.073410 0.077020 
#    y -0.073410 2.034070 0.192080 
#    z 0.077020 0.192080 2.030580 
# 
# From -- ./inp_files/245570.got.cif
#   From: 2010.05.17/outbox.cif.g08.bks.cpg/sg2_123_cif.got.tgz:245570.got - 2010.06.03 11:33:40.
