data_PCOD9054269
_publ_section_title
;
Structure prediction by ZEFSAII (Michael W. Deem and Ramdas Pophale) SiO2 
 PCOD9054269
Probable space group: P -1
;
_chemical_formula_sum "Si O2"
_cell_formula_units_Z 16
_cell_length_a 9.331732
_cell_length_b 17.771987
_cell_length_c 11.745039
_cell_angle_alpha 143.098771
_cell_angle_beta 42.661141
_cell_angle_gamma 109.269599
_cell_volume 612.795211
_symmetry_space_group_name_H-M "P -1"
_symmetry_group_IT_number 2
_symmetry_cell_setting 'triclinic'
loop_
_space_group_symop_operation_xyz
x,y,z
-x,-y,-z
loop_
_atom_site_type_symbol
_atom_site_label
_atom_site_fract_x
_atom_site_fract_y
_atom_site_fract_z
Si Si1 0.229338 0.845451 0.490117
Si Si2 0.657138 0.213069 0.399760
Si Si3 0.200515 0.674656 0.734547
Si Si4 0.821607 0.691089 0.352351
Si Si5 0.796063 0.795390 0.734548
Si Si6 0.707661 0.098630 0.727908
Si Si7 0.748161 0.345520 0.070091
Si Si8 0.734285 0.467374 0.694938
O O1 0.261471 0.882825 0.646326
O O2 0.243816 0.921716 0.459613
O O3 0.957771 0.860817 0.682919
O O4 0.501772 0.655972 0.079271
O O5 0.841651 0.185153 0.147927
O O6 0.413474 0.232116 0.508492
O O7 0.587373 0.384239 0.683651
O O8 0.524121 0.537967 0.413027
O O9 0.095845 0.707497 0.964021
O O10 0.137371 0.588806 0.576358
O O11 0.719665 0.752247 0.612006
O O12 0.000000 0.500000 0.000000
O O13 0.026415 0.725940 0.244602
O O14 0.021092 0.634385 0.481394
O O15 0.519414 0.912836 0.110601
O O16 0.589256 0.277616 0.056125
O O17 0.000000 0.000000 0.500000
#
# Coordination Sequence:
#
# PCOD9054269 Si02
#       8
#     2   2   2   2   2   2   2   2
#     4  11  20  42  61  93 128 162 206 265 313 380
#     4   9  18  31  56  86 126 156 191 243 317 383
#     4   9  18  33  57  88 130 154 183 257 337 369
#     4  12  19  32  60  98 129 165 192 249 338 394
#     4  11  23  38  67  91 130 167 205 256 325 373
#     4  12  27  44  62  88 126 177 228 258 287 364
#     4  11  21  36  55  92 133 159 207 263 306 378
#     4   9  18  36  60  95 132 157 189 262 326 392
#
# _framework density 26.109864999999999
#
# number of rings (size 3 to 8) (size 9 to 14) (size 15 to 20)
#    0.750    0.750    3.750    3.750    1.750    2.000 
#    0.000    0.000    0.000    6.000    0.000    0.000 
#    0.000    0.000    0.000    0.000    0.000    0.000 
#
# Total GULP energy -89341.911925 kJ/mol
# GULP energy per Si atom -5583.869495 kJ/mol
# Density = 2.605044 g / cm^3
# Si number density = 26.109865 Si / 1000 Ang^3
#
#
#
# Elastic Constant Matrix: (Units=GPa)
#
#
# Indices 1 2 3 4 5 6 
#
# 1 155.7845 56.9255 36.1152 -13.9229 -0.9678 -43.4339
# 2 56.9255 126.0189 56.4522 -20.8134 -2.7459 -41.1071
# 3 36.1152 56.4522 108.1785 -28.2869 -6.7592 -16.2653
# 4 -13.9229 -20.8134 -28.2869 49.2163 -11.5831 6.4146
# 5 -0.9678 -2.7459 -6.7592 -11.5831 38.5524 -9.9031
# 6 -43.4339 -41.1071 -16.2653 6.4146 -9.9031 60.7274
#
#
#
# Elastic Compliance Matrix: (Units=1/GPa)
#
#
# Indices 1 2 3 4 5 6 
#
# 1 0.008746 -0.001721 -0.000944 0.000904 0.001484 0.004985
# 2 -0.001721 0.013447 -0.004688 0.002209 0.002501 0.006791
# 3 -0.000944 -0.004688 0.014016 0.006790 0.004103 -0.000142
# 4 0.000904 0.002209 0.006790 0.027486 0.010333 0.002742
# 5 0.001484 0.002501 0.004103 0.010333 0.032029 0.007985
# 6 0.004985 0.006791 -0.000142 0.002742 0.007985 0.025603
#
#
# Mechanical properties :
#
#
# Convention : Reuss Voigt Hill
#
# Bulk Modulus (GPa) = 46.50062 76.55195 61.52628
# Shear Modulus (GPa) = 34.91626 45.73184 40.32405
#
# Velocity S-wave (km/s) = 3.66085 4.18965 3.93415
# Velocity P-wave (km/s) = 5.97640 7.26547 6.65223
#
# Compressibility (1/GPa) = 0.02150509
#
# Stress axis : x y z
#
# Youngs Moduli (GPa) = 114.33326 74.36586 71.34744
#
# Poissons Ratio (x) = 0.12796 0.06732
# Poissons Ratio (y) = 0.19673 0.33447
# Poissons Ratio (z) = 0.10788 0.34862
#
# Static dielectric constant tensor:
#      x y z
#    x 1.978460 0.005930 0.038900 
#    y 0.005930 2.165910 0.062490 
#    z 0.038900 0.062490 2.133090 
# 
# From -- ./inp_files/405555.got.cif
#   From: 2010.05.17/outbox.cif.g08.bks.cpg/sg2_203_cif.got.tgz:405555.got - 2010.06.03 11:33:40.
