data_PCOD9054579
_publ_section_title
;
Structure prediction by ZEFSAII (Michael W. Deem and Ramdas Pophale) SiO2 
 PCOD9054579
Probable space group: P -1
;
_chemical_formula_sum "Si O2"
_cell_formula_units_Z 12
_cell_length_a 9.488624
_cell_length_b 12.807046
_cell_length_c 9.062385
_cell_angle_alpha 63.532959
_cell_angle_beta 80.702228
_cell_angle_gamma 35.735672
_cell_volume 531.896124
_symmetry_space_group_name_H-M "P -1"
_symmetry_group_IT_number 2
_symmetry_cell_setting 'triclinic'
loop_
_space_group_symop_operation_xyz
x,y,z
-x,-y,-z
loop_
_atom_site_type_symbol
_atom_site_label
_atom_site_fract_x
_atom_site_fract_y
_atom_site_fract_z
Si Si1 0.708353 0.107189 0.579782
Si Si2 0.582706 0.586951 0.800696
Si Si3 0.992739 0.500817 0.827779
Si Si4 0.780444 0.866007 0.497664
Si Si5 0.248052 0.257069 0.677430
Si Si6 0.121758 0.852617 0.928777
O O1 0.568782 0.310950 0.394332
O O2 0.500665 0.158036 0.651949
O O3 0.822469 0.958602 0.512647
O O4 0.911303 0.997449 0.741116
O O5 0.734321 0.605488 0.764201
O O6 0.388210 0.718498 0.891059
O O7 0.789289 0.340965 0.929452
O O8 0.983916 0.637299 0.680951
O O9 0.218858 0.277883 0.844342
O O10 0.000000 0.500000 0.000000
O O11 0.780914 0.847529 0.333141
O O12 0.500000 0.000000 0.500000
O O13 0.000000 0.500000 0.500000
O O14 0.000000 0.000000 0.000000
#
# Coordination Sequence:
#
# PCOD9054579 Si02
#       6
#     2   2   2   2   2   2
#     4  11  21  44  71  94 132 177 214 271 340 391
#     4  11  24  47  66  92 138 173 226 278 322 390
#     4  11  21  36  63 100 132 167 201 273 342 385
#     4   9  17  36  60  92 127 157 205 260 317 406
#     4   9  18  36  62  99 132 162 212 258 330 413
#     4  11  28  47  64  97 130 178 238 276 314 392
#
# _framework density 22.560794999999999
#
# number of rings (size 3 to 8) (size 9 to 14) (size 15 to 20)
#    0.000    1.667    5.000    1.500    2.333    2.000 
#    3.000    4.167    0.000    0.000    0.000    0.000 
#    0.000    0.000    0.000    0.000    0.000    0.000 
#
# Total GULP energy -66951.548627 kJ/mol
# GULP energy per Si atom -5579.295719 kJ/mol
# Density = 2.250945 g / cm^3
# Si number density = 22.560795 Si / 1000 Ang^3
#
#
#
# Elastic Constant Matrix: (Units=GPa)
#
#
# Indices 1 2 3 4 5 6 
#
# 1 43.5980 20.3572 10.0204 2.9010 -2.5054 -5.7223
# 2 20.3572 120.0123 46.1960 33.8538 10.9940 11.0888
# 3 10.0204 46.1960 115.3426 16.3486 7.9118 19.5082
# 4 2.9010 33.8538 16.3486 46.5152 5.5528 3.0155
# 5 -2.5054 10.9940 7.9118 5.5528 29.6195 3.9400
# 6 -5.7223 11.0888 19.5082 3.0155 3.9400 28.0634
#
#
#
# Elastic Compliance Matrix: (Units=1/GPa)
#
#
# Indices 1 2 3 4 5 6 
#
# 1 0.027146 -0.005464 -0.002130 0.002080 0.003376 0.008478
# 2 -0.005464 0.013083 -0.002993 -0.007613 -0.002692 -0.003007
# 3 -0.002130 -0.002993 0.011461 -0.001148 -0.000990 -0.006956
# 4 0.002080 -0.007613 -0.001148 0.027456 -0.002047 0.001567
# 5 0.003376 -0.002692 -0.000990 -0.002047 0.036013 -0.002396
# 6 0.008478 -0.003007 -0.006956 0.001567 -0.002396 0.043554
#
#
# Mechanical properties :
#
#
# Convention : Reuss Voigt Hill
#
# Bulk Modulus (GPa) = 32.76969 48.01111 40.39040
# Shear Modulus (GPa) = 26.30760 34.33158 30.31959
#
# Velocity S-wave (km/s) = 3.41849 3.90518 3.66991
# Velocity P-wave (km/s) = 5.48981 6.45452 5.99161
#
# Compressibility (1/GPa) = 0.03051601
#
# Stress axis : x y z
#
# Youngs Moduli (GPa) = 36.83786 76.43270 87.25428
#
# Poissons Ratio (x) = 0.41762 0.18586
# Poissons Ratio (y) = 0.20128 0.26116
# Poissons Ratio (z) = 0.07847 0.22877
#
# Static dielectric constant tensor:
#      x y z
#    x 1.835040 -0.001150 -0.019010 
#    y -0.001150 1.958970 -0.012380 
#    z -0.019010 -0.012380 1.936860 
# 
# From -- ./inp_files/177293.got.cif
#   From: 2010.05.17/outbox.cif.g08.bks.cpg/sg2_89_cif.got.tgz:177293.got - 2010.06.03 11:33:40.
