data_PCOD9054274
_publ_section_title
;
Structure prediction by ZEFSAII (Michael W. Deem and Ramdas Pophale) SiO2 
 PCOD9054274
Probable space group: P -1
;
_chemical_formula_sum "Si O2"
_cell_formula_units_Z 16
_cell_length_a 13.810690
_cell_length_b 14.819594
_cell_length_c 9.998142
_cell_angle_alpha 120.781365
_cell_angle_beta 32.853191
_cell_angle_gamma 139.111009
_cell_volume 681.450703
_symmetry_space_group_name_H-M "P -1"
_symmetry_group_IT_number 2
_symmetry_cell_setting 'triclinic'
loop_
_space_group_symop_operation_xyz
x,y,z
-x,-y,-z
loop_
_atom_site_type_symbol
_atom_site_label
_atom_site_fract_x
_atom_site_fract_y
_atom_site_fract_z
Si Si1 0.755843 0.633925 0.885311
Si Si2 0.408832 0.626108 0.455274
Si Si3 0.299538 0.197546 0.507512
Si Si4 0.110848 0.356722 0.797200
Si Si5 0.030870 0.452387 0.232371
Si Si6 0.298825 0.936543 0.069831
Si Si7 0.469213 0.768015 0.019410
Si Si8 0.931030 0.862748 0.660357
O O1 0.949791 0.773020 0.669342
O O2 0.894875 0.600241 0.780457
O O3 0.500000 0.500000 0.000000
O O4 0.648266 0.671389 0.146242
O O5 0.511468 0.737911 0.541294
O O6 0.238799 0.467160 0.605995
O O7 0.247754 0.623965 0.532972
O O8 0.239243 0.297302 0.638611
O O9 0.424968 0.207300 0.234332
O O10 0.061765 0.024392 0.676203
O O11 0.827664 0.209460 0.973965
O O12 0.119626 0.437089 0.976241
O O13 0.185947 0.619212 0.221561
O O14 0.060928 0.888103 0.388004
O O15 0.442292 0.081078 0.924500
O O16 0.500000 0.000000 0.000000
O O17 0.636674 0.758350 0.903802
#
# Coordination Sequence:
#
# PCOD9054274 Si02
#       8
#     2   2   2   2   2   2   2   2
#     4  12  26  46  68  90 134 186 222 266 328 403
#     4  12  26  42  67 101 133 170 223 279 332 388
#     4  11  21  40  69  96 130 172 218 274 339 392
#     4  12  21  41  69 102 132 168 222 279 334 390
#     4  12  26  43  69 102 132 172 227 276 331 391
#     4  11  23  38  67 104 134 166 217 279 333 387
#     4  11  20  42  65  97 131 169 216 279 333 382
#     4  11  23  43  65  94 134 176 220 264 332 397
#
# _framework density 23.479322
#
# number of rings (size 3 to 8) (size 9 to 14) (size 15 to 20)
#    0.000    0.500    6.250    3.750    3.500    1.000 
#    2.250    0.625    0.000    0.000    0.000    0.000 
#    0.000    0.000    0.000    0.000    0.000    0.000 
#
# Total GULP energy -89477.905558 kJ/mol
# GULP energy per Si atom -5592.369097 kJ/mol
# Density = 2.342588 g / cm^3
# Si number density = 23.479322 Si / 1000 Ang^3
#
#
#
# Elastic Constant Matrix: (Units=GPa)
#
#
# Indices 1 2 3 4 5 6 
#
# 1 119.9319 32.8221 23.0984 -14.3924 -30.1834 -7.4945
# 2 32.8221 96.7291 21.8336 -12.0268 -2.8667 5.3908
# 3 23.0984 21.8336 55.1900 8.5285 -14.9714 -0.1900
# 4 -14.3924 -12.0268 8.5285 28.2884 5.9393 -6.7366
# 5 -30.1834 -2.8667 -14.9714 5.9393 37.7887 -7.8214
# 6 -7.4945 5.3908 -0.1900 -6.7366 -7.8214 34.1490
#
#
#
# Elastic Compliance Matrix: (Units=1/GPa)
#
#
# Indices 1 2 3 4 5 6 
#
# 1 0.013332 -0.003377 -0.002376 0.005595 0.009987 0.006837
# 2 -0.003377 0.013832 -0.006737 0.006737 -0.005999 -0.003007
# 3 -0.002376 -0.006737 0.026850 -0.014313 0.010537 0.000281
# 4 0.005595 0.006737 -0.014313 0.048720 -0.006657 0.008171
# 5 0.009987 -0.005999 0.010537 -0.006657 0.041566 0.011404
# 6 0.006837 -0.003007 0.000281 0.008171 0.011404 0.035484
#
#
# Mechanical properties :
#
#
# Convention : Reuss Voigt Hill
#
# Bulk Modulus (GPa) = 34.44232 47.48436 40.96334
# Shear Modulus (GPa) = 23.31629 32.98500 28.15065
#
# Velocity S-wave (km/s) = 3.15470 3.75220 3.46635
# Velocity P-wave (km/s) = 5.28872 6.24819 5.78837
#
# Compressibility (1/GPa) = 0.02903405
#
# Stress axis : x y z
#
# Youngs Moduli (GPa) = 75.00821 72.29460 37.24404
#
# Poissons Ratio (x) = 0.24414 0.08847
# Poissons Ratio (y) = 0.25330 0.25093
# Poissons Ratio (z) = 0.17818 0.48708
#
# Static dielectric constant tensor:
#      x y z
#    x 1.940610 -0.024810 -0.018470 
#    y -0.024810 1.919630 0.018440 
#    z -0.018470 0.018440 1.900320 
# 
# From -- ./inp_files/404767.got.cif
#   From: 2010.05.17/outbox.cif.g08.bks.cpg/sg2_203_cif.got.tgz:404767.got - 2010.06.03 11:33:40.
