data_PCOD9054834
_publ_section_title
;
Structure prediction by ZEFSAII (Michael W. Deem and Ramdas Pophale) SiO2 
 PCOD9054834
Probable space group: P -1
;
_chemical_formula_sum "Si O2"
_cell_formula_units_Z 16
_cell_length_a 7.624205
_cell_length_b 15.564210
_cell_length_c 12.115874
_cell_angle_alpha 40.954576
_cell_angle_beta 55.570650
_cell_angle_gamma 84.461404
_cell_volume 615.159534
_symmetry_space_group_name_H-M "P -1"
_symmetry_group_IT_number 2
_symmetry_cell_setting 'triclinic'
loop_
_space_group_symop_operation_xyz
x,y,z
-x,-y,-z
loop_
_atom_site_type_symbol
_atom_site_label
_atom_site_fract_x
_atom_site_fract_y
_atom_site_fract_z
Si Si1 0.750521 0.444996 0.717424
Si Si2 0.666219 0.342626 0.075484
Si Si3 0.182611 0.889247 0.834583
Si Si4 0.538455 0.893473 0.966327
Si Si5 0.931843 0.923200 0.479292
Si Si6 0.469969 0.239985 0.472154
Si Si7 0.360015 0.364865 0.584720
Si Si8 0.875954 0.039380 0.904813
O O1 0.540390 0.250938 0.948750
O O2 0.651043 0.539832 0.607094
O O3 0.000000 0.500000 0.500000
O O4 0.817116 0.473869 0.795451
O O5 0.721024 0.210446 0.154420
O O6 0.353597 0.254072 0.247597
O O7 0.677901 0.363218 0.183839
O O8 0.092515 0.953358 0.706823
O O9 0.415564 0.062703 0.644698
O O10 0.935806 0.768135 0.124480
O O11 0.657724 0.889831 0.045434
O O12 0.714855 0.109207 0.923773
O O13 0.809444 0.063452 0.661759
O O14 0.000000 0.000000 0.500000
O O15 0.509959 0.303391 0.522173
O O16 0.164393 0.176022 0.613549
O O17 0.500000 0.500000 0.500000
O O18 0.000000 0.000000 0.000000
#
# Coordination Sequence:
#
# PCOD9054834 Si02
#       8
#     2   2   2   2   2   2   2   2
#     4  12  25  45  71 100 153 206 251 298 381 473
#     4  11  24  44  73 109 145 198 254 311 394 445
#     4  11  23  46  74 108 144 197 253 309 384 454
#     4  11  24  42  67 111 146 190 257 313 377 455
#     4  11  21  38  68 103 145 179 239 319 372 428
#     4  11  24  43  75 107 145 191 256 321 379 441
#     4  12  27  44  71 104 147 208 256 306 375 465
#     4  11  24  40  71 107 151 188 245 325 386 437
#
# _framework density 26.009512999999998
#
# number of rings (size 3 to 8) (size 9 to 14) (size 15 to 20)
#    0.000    0.750    5.000    4.125    3.500    1.500 
#    0.000    0.625    0.000    0.000    0.000    0.000 
#    0.000    0.000    0.000    0.000    0.000    0.000 
#
# Total GULP energy -89216.469405 kJ/mol
# GULP energy per Si atom -5576.029338 kJ/mol
# Density = 2.595031 g / cm^3
# Si number density = 26.009513 Si / 1000 Ang^3
#
#
#
# Elastic Constant Matrix: (Units=GPa)
#
#
# Indices 1 2 3 4 5 6 
#
# 1 111.2517 20.9222 17.6443 18.3439 5.6153 0.9991
# 2 20.9222 121.8673 33.6689 35.6653 7.9765 19.1693
# 3 17.6443 33.6689 137.4467 51.9224 10.8150 2.4278
# 4 18.3439 35.6653 51.9224 48.4954 7.7733 -3.6626
# 5 5.6153 7.9765 10.8150 7.7733 42.4074 11.6092
# 6 0.9991 19.1693 2.4278 -3.6626 11.6092 43.3404
#
#
#
# Elastic Compliance Matrix: (Units=1/GPa)
#
#
# Indices 1 2 3 4 5 6 
#
# 1 0.009658 -0.000718 0.000217 -0.003265 -0.000591 -0.000035
# 2 -0.000718 0.012044 0.001120 -0.010488 0.001273 -0.006600
# 3 0.000217 0.001120 0.012473 -0.014420 -0.000124 -0.002384
# 4 -0.003265 -0.010488 -0.014420 0.046710 -0.005473 0.010935
# 5 -0.000591 0.001273 -0.000124 -0.005473 0.026687 -0.008153
# 6 -0.000035 -0.006600 -0.002384 0.010935 -0.008153 0.029235
#
#
# Mechanical properties :
#
#
# Convention : Reuss Voigt Hill
#
# Bulk Modulus (GPa) = 28.23995 57.22628 42.73312
# Shear Modulus (GPa) = 33.92761 46.73733 40.33247
#
# Velocity S-wave (km/s) = 3.61561 4.24362 3.94214
# Velocity P-wave (km/s) = 5.32084 6.78682 6.09804
#
# Compressibility (1/GPa) = 0.03541083
#
# Stress axis : x y z
#
# Youngs Moduli (GPa) = 103.54315 83.03142 80.17620
#
# Poissons Ratio (x) = 0.05965 -0.01736
# Poissons Ratio (y) = 0.07438 -0.08982
# Poissons Ratio (z) = -0.02242 -0.09302
#
# Static dielectric constant tensor:
#      x y z
#    x 2.137490 -0.043820 0.102690 
#    y -0.043820 2.303720 -0.050840 
#    z 0.102690 -0.050840 2.300460 
# 
# From -- ./inp_files/405870.got.cif
#   From: 2010.05.17/outbox.cif.g08.bks.cpg/sg2_203_cif.got.tgz:405870.got - 2010.06.03 11:33:40.
