data_PCOD9054622
_publ_section_title
;
Structure prediction by ZEFSAII (Michael W. Deem and Ramdas Pophale) SiO2 
 PCOD9054622
Probable space group: P -1
;
_chemical_formula_sum "Si O2"
_cell_formula_units_Z 16
_cell_length_a 12.684237
_cell_length_b 13.045308
_cell_length_c 7.113599
_cell_angle_alpha 62.999602
_cell_angle_beta 127.708080
_cell_angle_gamma 132.373938
_cell_volume 686.202610
_symmetry_space_group_name_H-M "P -1"
_symmetry_group_IT_number 2
_symmetry_cell_setting 'triclinic'
loop_
_space_group_symop_operation_xyz
x,y,z
-x,-y,-z
loop_
_atom_site_type_symbol
_atom_site_label
_atom_site_fract_x
_atom_site_fract_y
_atom_site_fract_z
Si Si1 0.012992 0.515274 0.277964
Si Si2 0.355738 0.702372 0.407599
Si Si3 0.226442 0.788354 0.879305
Si Si4 0.966549 0.115449 0.560741
Si Si5 0.292372 0.196893 0.317018
Si Si6 0.968950 0.759847 0.061491
Si Si7 0.774808 0.929719 0.059832
Si Si8 0.541289 0.110945 0.287737
O O1 0.872280 0.373391 0.151234
O O2 0.000000 0.500000 0.500000
O O3 0.184852 0.555143 0.353263
O O4 0.000946 0.646583 0.124465
O O5 0.518958 0.721195 0.498144
O O6 0.378892 0.752544 0.607691
O O7 0.327457 0.799575 0.161202
O O8 0.338186 0.873491 0.751934
O O9 0.100536 0.831609 0.712597
O O10 0.016406 0.216109 0.714663
O O11 0.120501 0.112178 0.678146
O O12 0.822269 0.957576 0.590570
O O13 0.200641 0.273230 0.171241
O O14 0.282161 0.164105 0.111342
O O15 0.104634 0.914988 0.013945
O O16 0.613583 0.911947 0.968926
O O17 0.500000 0.000000 0.500000
#
# Coordination Sequence:
#
# PCOD9054622 Si02
#       8
#     2   2   2   2   2   2   2   2
#     4  12  22  39  60  82 115 155 203 242 283 341
#     4  11  23  40  58  87 119 153 197 242 288 342
#     4  12  24  38  60  87 120 156 196 239 287 345
#     4   9  16  32  56  89 116 148 189 233 289 350
#     4   8  17  33  58  85 117 148 186 238 295 344
#     4   9  16  34  59  84 113 154 191 236 286 340
#     4   8  16  31  58  87 116 147 189 234 289 349
#     4  11  21  37  61  90 119 152 191 239 294 344
#
# _framework density 23.316728999999999
#
# number of rings (size 3 to 8) (size 9 to 14) (size 15 to 20)
#    0.000    2.000    2.500    4.875    0.000    2.000 
#    0.000    3.750    0.000    3.750    0.000    0.000 
#    0.000    0.000    0.000    0.000    0.000    0.000 
#
# Total GULP energy -89445.632125 kJ/mol
# GULP energy per Si atom -5590.352008 kJ/mol
# Density = 2.326366 g / cm^3
# Si number density = 23.316729 Si / 1000 Ang^3
#
#
#
# Elastic Constant Matrix: (Units=GPa)
#
#
# Indices 1 2 3 4 5 6 
#
# 1 77.0642 26.2610 52.0760 13.0602 20.3498 12.7418
# 2 26.2610 61.7837 27.2322 5.9275 19.4517 9.9136
# 3 52.0760 27.2322 158.0562 10.9055 28.1803 9.3574
# 4 13.0602 5.9275 10.9055 21.4748 -1.6435 -1.2504
# 5 20.3498 19.4517 28.1803 -1.6435 55.0646 5.3306
# 6 12.7418 9.9136 9.3574 -1.2504 5.3306 24.6103
#
#
#
# Elastic Compliance Matrix: (Units=1/GPa)
#
#
# Indices 1 2 3 4 5 6 
#
# 1 0.021307 -0.003639 -0.004546 -0.010378 -0.003843 -0.007532
# 2 -0.003639 0.020989 -0.000912 -0.003823 -0.005205 -0.005291
# 3 -0.004546 -0.000912 0.008516 -0.001496 -0.002393 -0.000074
# 4 -0.010378 -0.003823 -0.001496 0.055725 0.006758 0.008849
# 5 -0.003843 -0.005205 -0.002393 0.006758 0.022807 0.000400
# 6 -0.007532 -0.005291 -0.000074 0.008849 0.000400 0.047056
#
#
# Mechanical properties :
#
#
# Convention : Reuss Voigt Hill
#
# Bulk Modulus (GPa) = 30.65831 56.44917 43.55374
# Shear Modulus (GPa) = 24.33486 32.98561 28.66024
#
# Velocity S-wave (km/s) = 3.23409 3.76530 3.50976
# Velocity P-wave (km/s) = 5.20797 6.57005 5.92826
#
# Compressibility (1/GPa) = 0.03261759
#
# Stress axis : x y z
#
# Youngs Moduli (GPa) = 46.93278 47.64501 117.42268
#
# Poissons Ratio (x) = 0.17336 0.53382
# Poissons Ratio (y) = 0.17077 0.10714
# Poissons Ratio (z) = 0.21336 0.04347
#
# Static dielectric constant tensor:
#      x y z
#    x 1.897480 0.008720 0.013660 
#    y 0.008720 1.886050 0.028390 
#    z 0.013660 0.028390 1.925390 
# 
# From -- ./inp_files/312582.got.cif
#   From: 2010.05.17/outbox.cif.g08.bks.cpg/sg2_157_cif.got.tgz:312582.got - 2010.06.03 11:33:40.
