data_PCOD9054857
_publ_section_title
;
Structure prediction by ZEFSAII (Michael W. Deem and Ramdas Pophale) SiO2 
 PCOD9054857
Probable space group: P -1
;
_chemical_formula_sum "Si O2"
_cell_formula_units_Z 12
_cell_length_a 5.441212
_cell_length_b 9.224657
_cell_length_c 16.418465
_cell_angle_alpha 35.650770
_cell_angle_beta 90.016326
_cell_angle_gamma 92.762921
_cell_volume 478.689745
_symmetry_space_group_name_H-M "P -1"
_symmetry_group_IT_number 2
_symmetry_cell_setting 'triclinic'
loop_
_space_group_symop_operation_xyz
x,y,z
-x,-y,-z
loop_
_atom_site_type_symbol
_atom_site_label
_atom_site_fract_x
_atom_site_fract_y
_atom_site_fract_z
Si Si1 0.112883 0.441456 0.723224
Si Si2 0.030192 0.434571 0.911035
Si Si3 0.367719 0.958121 0.931485
Si Si4 0.572610 0.099799 0.544125
Si Si5 0.182572 0.892945 0.209752
Si Si6 0.058354 0.971633 0.693231
O O1 0.111946 0.517044 0.781986
O O2 0.306407 0.618132 0.594526
O O3 0.848580 0.382570 0.708821
O O4 0.154147 0.146740 0.853213
O O5 0.076161 0.681611 0.850862
O O6 0.162973 0.187179 0.045696
O O7 0.747558 0.320605 0.953581
O O8 0.521149 0.065299 0.806004
O O9 0.500000 0.000000 0.000000
O O10 0.500000 0.000000 0.500000
O O11 0.813535 0.967719 0.637232
O O12 0.320738 0.063686 0.612317
O O13 0.025158 0.874098 0.300145
#
# Coordination Sequence:
#
# PCOD9054857 Si02
#       6
#     2   2   2   2   2   2
#     4  11  24  43  73 101 140 187 244 285 344 428
#     4  11  23  43  71 106 139 185 235 293 354 424
#     4  11  21  38  72 102 138 183 233 289 352 415
#     4  12  29  50  74 101 142 196 242 286 345 433
#     4  11  25  45  69 110 143 179 234 301 362 413
#     4  12  30  47  74 107 145 187 235 296 361 412
#
# _framework density 25.068431
#
# number of rings (size 3 to 8) (size 9 to 14) (size 15 to 20)
#    0.000    0.667    5.000    2.000   11.667    2.000 
#    0.000    0.000    0.000    0.000    0.000    0.000 
#    0.000    0.000    0.000    0.000    0.000    0.000 
#
# Total GULP energy -66886.427099 kJ/mol
# GULP energy per Si atom -5573.868925 kJ/mol
# Density = 2.501137 g / cm^3
# Si number density = 25.068431 Si / 1000 Ang^3
#
#
#
# Elastic Constant Matrix: (Units=GPa)
#
#
# Indices 1 2 3 4 5 6 
#
# 1 75.8339 -13.4304 46.2135 9.7668 -28.7016 -7.8669
# 2 -13.4304 54.6782 6.6261 8.6266 -2.9160 -3.6118
# 3 46.2135 6.6261 103.3291 -0.7927 -35.2308 -2.9155
# 4 9.7668 8.6266 -0.7927 44.1972 -6.1616 -8.6011
# 5 -28.7016 -2.9160 -35.2308 -6.1616 52.9476 10.5224
# 6 -7.8669 -3.6118 -2.9155 -8.6011 10.5224 36.8619
#
#
#
# Elastic Compliance Matrix: (Units=1/GPa)
#
#
# Indices 1 2 3 4 5 6 
#
# 1 0.023255 0.008129 -0.008818 -0.005640 0.006134 0.001995
# 2 0.008129 0.021912 -0.004476 -0.005583 0.001636 0.001758
# 3 -0.008818 -0.004476 0.016100 0.003618 0.006518 -0.002063
# 4 -0.005640 -0.005583 0.003618 0.026027 0.001225 0.004259
# 5 0.006134 0.001636 0.006518 0.001225 0.027913 -0.005697
# 6 0.001995 0.001758 -0.002063 0.004259 -0.005697 0.030183
#
#
# Mechanical properties :
#
#
# Convention : Reuss Voigt Hill
#
# Bulk Modulus (GPa) = 19.63178 34.73997 27.18588
# Shear Modulus (GPa) = 28.95211 39.76346 34.35779
#
# Velocity S-wave (km/s) = 3.40210 3.98703 3.70612
# Velocity P-wave (km/s) = 4.82501 5.92312 5.40204
#
# Compressibility (1/GPa) = 0.05093781
#
# Stress axis : x y z
#
# Youngs Moduli (GPa) = 43.00206 45.63640 62.11066
#
# Poissons Ratio (x) = -0.37099 0.54767
# Poissons Ratio (y) = -0.34958 0.27804
# Poissons Ratio (z) = 0.37917 0.20429
#
# Static dielectric constant tensor:
#      x y z
#    x 1.504540 -0.433730 -0.136130 
#    y -0.433730 1.651980 -0.061420 
#    z -0.136130 -0.061420 1.944790 
# 
# From -- ./inp_files/366051.got.cif
#   From: 2010.05.17/outbox.cif.g08.bks.cpg/sg2_184_cif.got.tgz:366051.got - 2010.06.03 11:33:40.
