data_PCOD9054987
_publ_section_title
;
Structure prediction by ZEFSAII (Michael W. Deem and Ramdas Pophale) SiO2 
 PCOD9054987
Probable space group: P -1
;
_chemical_formula_sum "Si O2"
_cell_formula_units_Z 16
_cell_length_a 9.602302
_cell_length_b 11.515643
_cell_length_c 12.410671
_cell_angle_alpha 130.560691
_cell_angle_beta 48.805645
_cell_angle_gamma 105.048830
_cell_volume 749.617816
_symmetry_space_group_name_H-M "P -1"
_symmetry_group_IT_number 2
_symmetry_cell_setting 'triclinic'
loop_
_space_group_symop_operation_xyz
x,y,z
-x,-y,-z
loop_
_atom_site_type_symbol
_atom_site_label
_atom_site_fract_x
_atom_site_fract_y
_atom_site_fract_z
Si Si1 0.570292 0.157069 0.080671
Si Si2 0.996141 0.039432 0.898390
Si Si3 0.681033 0.836936 0.301695
Si Si4 0.190151 0.403503 0.493743
Si Si5 0.133372 0.208267 0.590730
Si Si6 0.113173 0.680764 0.555898
Si Si7 0.736238 0.135967 0.764495
Si Si8 0.441531 0.642670 0.200428
O O1 0.411499 0.296000 0.307056
O O2 0.597000 0.212566 0.979017
O O3 0.500000 0.000000 0.000000
O O4 0.776968 0.112090 0.009440
O O5 0.080440 0.867094 0.695818
O O6 0.144288 0.135067 0.841939
O O7 0.000000 0.000000 0.000000
O O8 0.747145 0.794135 0.364460
O O9 0.612487 0.693431 0.200300
O O10 0.500000 0.000000 0.500000
O O11 0.108429 0.363699 0.624406
O O12 0.153454 0.587671 0.592492
O O13 0.074131 0.342974 0.421873
O O14 0.934551 0.177036 0.707715
O O15 0.229941 0.054026 0.372771
O O16 0.295670 0.610838 0.343285
O O17 0.667008 0.203718 0.723695
O O18 0.500000 0.500000 0.000000
#
# Coordination Sequence:
#
# PCOD9054987 Si02
#       8
#     2   2   2   2   2   2   2   2
#     4  12  23  40  66 108 141 185 244 293 343 437
#     4  12  27  45  70 107 146 186 241 302 359 423
#     4  12  25  45  74 102 139 186 241 302 355 420
#     4  11  24  40  74 101 145 191 231 292 361 425
#     4  11  21  41  68 102 131 186 235 288 351 416
#     4  11  23  47  68 107 146 186 241 294 359 429
#     4  11  21  39  69  97 137 178 238 289 342 415
#     4  12  26  45  74 104 139 186 239 294 364 427
#
# _framework density 21.344208999999999
#
# number of rings (size 3 to 8) (size 9 to 14) (size 15 to 20)
#    0.000    0.500    7.500    0.750    3.500    2.000 
#    0.000    4.375    0.000    0.000    0.000    0.000 
#    0.000    0.000    0.000    0.000    0.000    0.000 
#
# Total GULP energy -89467.428340 kJ/mol
# GULP energy per Si atom -5591.714271 kJ/mol
# Density = 2.129563 g / cm^3
# Si number density = 21.344209 Si / 1000 Ang^3
#
#
#
# Elastic Constant Matrix: (Units=GPa)
#
#
# Indices 1 2 3 4 5 6 
#
# 1 129.5480 40.8696 23.9490 -6.9536 -3.1380 0.9472
# 2 40.8696 82.4488 18.3577 -8.0939 -4.8476 -12.2854
# 3 23.9490 18.3577 59.7247 -3.4337 -2.8891 18.3183
# 4 -6.9536 -8.0939 -3.4337 19.2718 -5.7121 5.0156
# 5 -3.1380 -4.8476 -2.8891 -5.7121 26.3837 -5.5906
# 6 0.9472 -12.2854 18.3183 5.0156 -5.5906 38.3331
#
#
#
# Elastic Compliance Matrix: (Units=1/GPa)
#
#
# Indices 1 2 3 4 5 6 
#
# 1 0.009541 -0.004155 -0.002243 0.001565 0.000326 -0.000652
# 2 -0.004155 0.017470 -0.005919 0.003928 0.004764 0.008711
# 3 -0.002243 -0.005919 0.023966 0.004393 -0.000741 -0.013977
# 4 0.001565 0.003928 0.004393 0.060546 0.013035 -0.006900
# 5 0.000326 0.004764 -0.000741 0.013035 0.042919 0.006427
# 6 -0.000652 0.008711 -0.013977 -0.006900 0.006427 0.037414
#
#
# Mechanical properties :
#
#
# Convention : Reuss Voigt Hill
#
# Bulk Modulus (GPa) = 37.96043 48.67492 43.31768
# Shear Modulus (GPa) = 22.19553 29.36740 25.78146
#
# Velocity S-wave (km/s) = 3.22822 3.71333 3.47924
# Velocity P-wave (km/s) = 5.63194 6.42179 6.03979
#
# Compressibility (1/GPa) = 0.02634322
#
# Stress axis : x y z
#
# Youngs Moduli (GPa) = 104.80936 57.24169 41.72574
#
# Poissons Ratio (x) = 0.23781 0.09359
# Poissons Ratio (y) = 0.43543 0.24699
# Poissons Ratio (z) = 0.23509 0.33883
#
# Static dielectric constant tensor:
#      x y z
#    x 1.695550 -0.016900 -0.023150 
#    y -0.016900 1.812240 0.011180 
#    z -0.023150 0.011180 1.763660 
# 
# From -- ./inp_files/299083.got.cif
#   From: 2010.05.17/outbox.cif.g08.bks.cpg/sg2_150_cif.got.tgz:299083.got - 2010.06.03 11:33:40.
