data_PCOD9054245
_publ_section_title
;
Structure prediction by ZEFSAII (Michael W. Deem and Ramdas Pophale) SiO2 
 PCOD9054245
Probable space group: P -1
;
_chemical_formula_sum "Si O2"
_cell_formula_units_Z 14
_cell_length_a 22.835102
_cell_length_b 16.836792
_cell_length_c 13.707240
_cell_angle_alpha 35.498351
_cell_angle_beta 25.778285
_cell_angle_gamma 18.882144
_cell_volume 714.314555
_symmetry_space_group_name_H-M "P -1"
_symmetry_group_IT_number 2
_symmetry_cell_setting 'triclinic'
loop_
_space_group_symop_operation_xyz
x,y,z
-x,-y,-z
loop_
_atom_site_type_symbol
_atom_site_label
_atom_site_fract_x
_atom_site_fract_y
_atom_site_fract_z
Si Si1 0.025183 0.608301 0.427931
Si Si2 0.341989 0.997327 0.239661
Si Si3 0.793162 0.284571 0.486048
Si Si4 0.975027 0.391519 0.219981
Si Si5 0.206906 0.715422 0.934537
Si Si6 0.803846 0.398205 0.146021
Si Si7 0.221672 0.282903 0.634515
O O1 0.195788 0.398149 0.464305
O O2 0.000000 0.500000 0.500000
O O3 0.144788 0.626996 0.169425
O O4 0.808022 0.859795 0.574271
O O5 0.532628 0.706701 0.244369
O O6 0.192343 0.139856 0.217627
O O7 0.500000 0.000000 0.000000
O O8 0.500009 0.500016 0.727527
O O9 0.828758 0.284427 0.318146
O O10 0.855232 0.372988 0.357877
O O11 0.000000 0.000000 0.500000
O O12 0.804709 0.601410 0.347835
O O13 0.000000 0.500000 0.000000
O O14 0.171389 0.715594 0.872982
O O15 0.000000 0.000000 0.000000
O O16 0.012512 0.341595 0.889541
O O17 0.500000 0.000000 0.500000
#
# Coordination Sequence:
#
# PCOD9054245 Si02
#       7
#     2   2   2   2   2   2   2
#     4  11  23  44  71 104 134 178 236 285 341 411
#     4  11  20  41  72 104 133 176 234 289 338 404
#     4  12  28  47  71 103 144 187 228 291 357 424
#     4  11  23  44  71 104 134 178 236 285 341 411
#     4  12  28  47  71 103 144 187 228 291 357 424
#     4  12  24  48  70 101 137 186 240 287 343 426
#     4  11  25  40  69 105 137 174 231 300 339 395
#
# _framework density 19.599208000000001
#
# number of rings (size 3 to 8) (size 9 to 14) (size 15 to 20)
#    0.000    0.571    5.714    2.143    4.000    5.714 
#    0.000    3.571    0.000    0.000    0.000    0.000 
#    0.000    0.000    0.000    0.000    0.000    0.000 
#
# Total GULP energy -78030.398095 kJ/mol
# GULP energy per Si atom -5573.599864 kJ/mol
# Density = 1.955460 g / cm^3
# Si number density = 19.599208 Si / 1000 Ang^3
#
#
#
# Elastic Constant Matrix: (Units=GPa)
#
#
# Indices 1 2 3 4 5 6 
#
# 1 151.5203 82.4830 126.3508 8.6676 41.9435 35.3475
# 2 82.4830 178.7407 81.8895 6.2480 14.7474 0.6536
# 3 126.3508 81.8895 104.9000 -26.3196 -19.0507 -33.8641
# 4 8.6676 6.2480 -26.3196 34.7263 -9.3203 -7.0046
# 5 41.9435 14.7474 -19.0507 -9.3203 31.1030 -23.2782
# 6 35.3475 0.6536 -33.8641 -7.0046 -23.2782 17.0847
#
#
#
# Elastic Compliance Matrix: (Units=1/GPa)
#
#
# Indices 1 2 3 4 5 6 
#
# 1 0.003266 -0.003201 0.002495 0.004171 0.004628 0.006328
# 2 -0.003201 0.008018 -0.002033 -0.001632 0.000416 0.002184
# 3 0.002495 -0.002033 0.003459 -0.001475 -0.007501 -0.009054
# 4 0.004171 -0.001632 -0.001475 0.023831 -0.005068 -0.008626
# 5 0.004628 0.000416 -0.007501 -0.005068 0.013253 -0.008480
# 6 0.006328 0.002184 -0.009054 -0.008626 -0.008480 0.012319
#
#
# Mechanical properties :
#
#
# Convention : Reuss Voigt Hill
#
# Bulk Modulus (GPa) = 107.92484 112.95639 110.44061
# Shear Modulus (GPa) = 68.76550 26.21198 47.48874
#
# Velocity S-wave (km/s) = 5.92976 3.66102 4.92773
# Velocity P-wave (km/s) = 10.10288 8.69649 9.42595
#
# Compressibility (1/GPa) = 0.00926571
#
# Stress axis : x y z
#
# Youngs Moduli (GPa) = 306.23001 124.72266 289.11862
#
# Poissons Ratio (x) = 0.39923 -0.72142
# Poissons Ratio (y) = 0.98021 0.58764
# Poissons Ratio (z) = -0.76412 0.25350
#
# Static dielectric constant tensor:
#      x y z
#    x 1.627940 -0.074040 -0.029710 
#    y -0.074040 0.768920 -0.001850 
#    z -0.029710 -0.001850 1.667170 
# 
# From -- ./inp_files/190882.got.cif
#   From: 2010.05.17/outbox.cif.g08.bks.cpg/sg2_96_cif.got.tgz:190882.got - 2010.06.03 11:33:40.
