data_PCOD9054239
_publ_section_title
;
Structure prediction by ZEFSAII (Michael W. Deem and Ramdas Pophale) SiO2 
 PCOD9054239
Probable space group: P -1
;
_chemical_formula_sum "Si O2"
_cell_formula_units_Z 14
_cell_length_a 9.821299
_cell_length_b 11.576520
_cell_length_c 9.881661
_cell_angle_alpha 139.965910
_cell_angle_beta 65.767295
_cell_angle_gamma 131.097035
_cell_volume 534.532597
_symmetry_space_group_name_H-M "P -1"
_symmetry_group_IT_number 2
_symmetry_cell_setting 'triclinic'
loop_
_space_group_symop_operation_xyz
x,y,z
-x,-y,-z
loop_
_atom_site_type_symbol
_atom_site_label
_atom_site_fract_x
_atom_site_fract_y
_atom_site_fract_z
Si Si1 0.467057 0.643870 0.737124
Si Si2 0.051897 0.323353 0.589064
Si Si3 0.994823 0.210768 0.214822
Si Si4 0.591806 0.880947 0.154330
Si Si5 0.334304 0.002289 0.252209
Si Si6 0.067409 0.386436 0.046065
Si Si7 0.256320 0.177332 0.690508
O O1 0.500000 0.500000 0.500000
O O2 0.551135 0.861651 0.805676
O O3 0.251124 0.503145 0.727867
O O4 0.570739 0.711742 0.898298
O O5 0.091998 0.344469 0.431022
O O6 0.943257 0.063253 0.428631
O O7 0.923046 0.391858 0.759430
O O8 0.783719 0.111233 0.244189
O O9 0.064068 0.342599 0.167393
O O10 0.000000 0.000000 0.000000
O O11 0.433706 0.911643 0.211466
O O12 0.381375 0.180448 0.762270
O O13 0.326519 0.163908 0.504632
O O14 0.129320 0.808409 0.112182
O O15 0.217949 0.359590 0.896659
#
# Coordination Sequence:
#
# PCOD9054239 Si02
#       7
#     2   2   2   2   2   2   2
#     4  12  24  43  75 105 139 177 240 297 344 407
#     4  11  24  42  73 104 134 183 241 283 341 416
#     4  11  20  41  71  99 138 179 233 285 341 409
#     4  11  22  46  71  98 139 189 227 286 353 413
#     4  12  25  46  71 103 144 184 229 292 360 408
#     4  12  22  42  71 101 140 183 239 281 348 417
#     4  11  27  48  71  99 148 190 227 284 358 423
#
# _framework density 26.191106999999999
#
# number of rings (size 3 to 8) (size 9 to 14) (size 15 to 20)
#    0.000    0.571    5.714    4.286    0.000    1.714 
#    2.571    0.714    0.000    0.000    0.000    0.000 
#    0.000    0.000    0.000    0.000    0.000    0.000 
#
# Total GULP energy -78517.628219 kJ/mol
# GULP energy per Si atom -5608.402016 kJ/mol
# Density = 2.613149 g / cm^3
# Si number density = 26.191107 Si / 1000 Ang^3
#
#
#
# Elastic Constant Matrix: (Units=GPa)
#
#
# Indices 1 2 3 4 5 6 
#
# 1 108.7924 36.5284 33.6747 2.4818 5.5926 -4.9648
# 2 36.5284 90.6599 14.6610 -24.0767 17.1773 -21.2213
# 3 33.6747 14.6610 151.9053 -13.7736 -6.0081 -20.8014
# 4 2.4818 -24.0767 -13.7736 22.3127 1.3282 12.0420
# 5 5.5926 17.1773 -6.0081 1.3282 65.4596 -6.7294
# 6 -4.9648 -21.2213 -20.8014 12.0420 -6.7294 30.4723
#
#
#
# Elastic Compliance Matrix: (Units=1/GPa)
#
#
# Indices 1 2 3 4 5 6 
#
# 1 0.013230 -0.008419 -0.003318 -0.012133 0.000920 -0.000974
# 2 -0.008419 0.022680 0.002421 0.024294 -0.004950 0.005383
# 3 -0.003318 0.002421 0.008269 0.005440 0.000792 0.004815
# 4 -0.012133 0.024294 0.005440 0.085363 -0.008310 -0.016913
# 5 0.000920 -0.004950 0.000792 -0.008310 0.017182 0.004322
# 6 -0.000974 0.005383 0.004815 -0.016913 0.004322 0.047332
#
#
# Mechanical properties :
#
#
# Convention : Reuss Voigt Hill
#
# Bulk Modulus (GPa) = 39.13942 57.89843 48.51893
# Shear Modulus (GPa) = 22.60369 41.41514 32.00941
#
# Velocity S-wave (km/s) = 2.94092 3.98083 3.49972
# Velocity P-wave (km/s) = 5.14862 6.57902 5.90727
#
# Compressibility (1/GPa) = 0.02554969
#
# Stress axis : x y z
#
# Youngs Moduli (GPa) = 75.58307 44.09094 120.93715
#
# Poissons Ratio (x) = 0.37120 0.40121
# Poissons Ratio (y) = 0.63633 -0.29284
# Poissons Ratio (z) = 0.25075 -0.10676
#
# Static dielectric constant tensor:
#      x y z
#    x 2.078370 0.010620 -0.048440 
#    y 0.010620 2.054530 0.017960 
#    z -0.048440 0.017960 2.017090 
# 
# From -- ./inp_files/433451.got.cif
#   From: 2010.05.17/outbox.cif.g08.bks.cpg/sg2_217_cif.got.tgz:433451.got - 2010.06.03 11:33:40.
