data_PCOD9054599
_publ_section_title
;
Structure prediction by ZEFSAII (Michael W. Deem and Ramdas Pophale) SiO2 
 PCOD9054599
Probable space group: P -1
;
_chemical_formula_sum "Si O2"
_cell_formula_units_Z 14
_cell_length_a 12.633701
_cell_length_b 14.305745
_cell_length_c 11.421871
_cell_angle_alpha 148.140792
_cell_angle_beta 150.075245
_cell_angle_gamma 47.829450
_cell_volume 526.867728
_symmetry_space_group_name_H-M "P -1"
_symmetry_group_IT_number 2
_symmetry_cell_setting 'triclinic'
loop_
_space_group_symop_operation_xyz
x,y,z
-x,-y,-z
loop_
_atom_site_type_symbol
_atom_site_label
_atom_site_fract_x
_atom_site_fract_y
_atom_site_fract_z
Si Si1 0.475867 0.980724 0.317771
Si Si2 0.481966 0.860980 0.698643
Si Si3 0.184846 0.775410 0.520220
Si Si4 0.765686 0.731119 0.208143
Si Si5 0.661316 0.543364 0.557882
Si Si6 0.965813 0.269683 0.323355
Si Si7 0.286178 0.438700 0.650858
O O1 0.637678 0.861533 0.293763
O O2 0.500000 0.000000 0.500000
O O3 0.531455 0.156191 0.473041
O O4 0.216730 0.888514 0.959925
O O5 0.245180 0.799136 0.466367
O O6 0.635130 0.742488 0.777075
O O7 0.607448 0.071396 0.066225
O O8 0.197871 0.574896 0.365724
O O9 0.962147 0.814549 0.396171
O O10 0.878232 0.643328 0.327514
O O11 0.585548 0.582731 0.809733
O O12 0.709625 0.562297 0.485934
O O13 0.822278 0.390977 0.255438
O O14 0.133108 0.254329 0.364059
O O15 0.500000 0.500000 0.000000
#
# Coordination Sequence:
#
# PCOD9054599 Si02
#       7
#     2   2   2   2   2   2   2
#     4  12  27  46  69 108 148 187 245 297 363 438
#     4  11  26  47  76 104 143 197 236 302 367 427
#     4  11  25  53  70 103 149 187 248 298 362 430
#     4  12  22  46  74  95 153 190 228 312 357 419
#     4  12  24  45  73 109 142 185 248 300 357 436
#     4  11  22  40  65  99 141 194 227 293 361 417
#     4  11  21  36  67 102 138 187 233 282 362 433
#
# _framework density 26.572133999999998
#
# number of rings (size 3 to 8) (size 9 to 14) (size 15 to 20)
#    0.000    0.571    7.143    0.429    4.000    2.857 
#    2.571    0.000    0.000    0.000    0.000    0.000 
#    0.000    0.000    0.000    0.000    0.000    0.000 
#
# Total GULP energy -78247.927065 kJ/mol
# GULP energy per Si atom -5589.137647 kJ/mol
# Density = 2.651165 g / cm^3
# Si number density = 26.572134 Si / 1000 Ang^3
#
#
#
# Elastic Constant Matrix: (Units=GPa)
#
#
# Indices 1 2 3 4 5 6 
#
# 1 229.5120 44.0731 48.0220 6.8085 51.9264 29.6839
# 2 44.0731 140.3479 30.6385 -3.8473 -1.6176 2.2140
# 3 48.0220 30.6385 54.8157 -16.9210 17.5825 3.8284
# 4 6.8085 -3.8473 -16.9210 32.7868 7.5757 -4.5041
# 5 51.9264 -1.6176 17.5825 7.5757 49.1437 -0.4307
# 6 29.6839 2.2140 3.8284 -4.5041 -0.4307 49.5273
#
#
#
# Elastic Compliance Matrix: (Units=1/GPa)
#
#
# Indices 1 2 3 4 5 6 
#
# 1 0.007666 -0.001466 -0.004733 -0.003451 -0.005963 -0.004529
# 2 -0.001466 0.008845 -0.005922 -0.002622 0.004370 0.000741
# 3 -0.004733 -0.005922 0.035908 0.021751 -0.011375 0.002205
# 4 -0.003451 -0.002622 0.021751 0.045338 -0.011171 0.004530
# 5 -0.005963 0.004370 -0.011375 -0.011171 0.032615 0.003525
# 6 -0.004529 0.000741 0.002205 0.004530 0.003525 0.023144
#
#
# Mechanical properties :
#
#
# Convention : Reuss Voigt Hill
#
# Bulk Modulus (GPa) = 35.48975 74.46032 54.97503
# Shear Modulus (GPa) = 26.71615 46.42101 36.56858
#
# Velocity S-wave (km/s) = 3.17428 4.18422 3.71374
# Velocity P-wave (km/s) = 5.17877 7.17122 6.25484
#
# Compressibility (1/GPa) = 0.02817715
#
# Stress axis : x y z
#
# Youngs Moduli (GPa) = 130.44498 113.05578 27.84863
#
# Poissons Ratio (x) = 0.16574 0.13181
# Poissons Ratio (y) = 0.19124 0.16493
# Poissons Ratio (z) = 0.61739 0.66955
#
# Static dielectric constant tensor:
#      x y z
#    x 2.244070 -0.038270 0.034330 
#    y -0.038270 2.124410 0.041130 
#    z 0.034330 0.041130 2.128810 
# 
# From -- ./inp_files/433394.got.cif
#   From: 2010.05.17/outbox.cif.g08.bks.cpg/sg2_217_cif.got.tgz:433394.got - 2010.06.03 11:33:40.
