data_PCOD9054156
_publ_section_title
;
Structure prediction by ZEFSAII (Michael W. Deem and Ramdas Pophale) SiO2 
 PCOD9054156
Probable space group: P -1
;
_chemical_formula_sum "Si O2"
_cell_formula_units_Z 16
_cell_length_a 8.012553
_cell_length_b 13.480889
_cell_length_c 6.986790
_cell_angle_alpha 57.746927
_cell_angle_beta 101.012615
_cell_angle_gamma 81.835772
_cell_volume 598.822295
_symmetry_space_group_name_H-M "P -1"
_symmetry_group_IT_number 2
_symmetry_cell_setting 'triclinic'
loop_
_space_group_symop_operation_xyz
x,y,z
-x,-y,-z
loop_
_atom_site_type_symbol
_atom_site_label
_atom_site_fract_x
_atom_site_fract_y
_atom_site_fract_z
Si Si1 0.576625 0.823759 0.126071
Si Si2 0.724983 0.843391 0.778064
Si Si3 0.466074 0.749131 0.588123
Si Si4 0.112961 0.756028 0.962047
Si Si5 0.933326 0.197041 0.642009
Si Si6 0.878566 0.602532 0.500349
Si Si7 0.613153 0.491488 0.731656
Si Si8 0.791238 0.018622 0.292866
O O1 0.550839 0.804071 0.368005
O O2 0.706754 0.685955 0.259982
O O3 0.688501 0.888774 0.943156
O O4 0.379985 0.895942 0.944103
O O5 0.917375 0.743612 0.895208
O O6 0.430906 0.214825 0.250945
O O7 0.724376 0.952293 0.520684
O O8 0.255701 0.802305 0.482824
O O9 0.499667 0.602001 0.724368
O O10 0.107029 0.883620 0.730972
O O11 0.106473 0.780345 0.163820
O O12 0.292579 0.651038 0.055158
O O13 0.010426 0.309977 0.487801
O O14 0.084972 0.078592 0.725566
O O15 0.790368 0.534390 0.701332
O O16 0.000000 0.500000 0.500000
O O17 0.500000 0.500000 0.500000
#
# Coordination Sequence:
#
# PCOD9054156 Si02
#       8
#     2   2   2   2   2   2   2   2
#     4  11  24  47  73 107 149 197 245 310 378 434
#     4  12  28  47  73 113 153 197 256 312 381 448
#     4  11  26  47  77 113 147 195 255 314 378 456
#     4  12  24  47  75 109 152 204 244 316 381 447
#     4  12  24  47  74 110 150 198 253 305 376 447
#     4  11  20  40  75 109 142 194 247 305 378 446
#     4  11  20  43  79 112 149 195 253 307 383 455
#     4  12  27  46  74 107 155 200 258 309 371 457
#
# _framework density 26.719111999999999
#
# number of rings (size 3 to 8) (size 9 to 14) (size 15 to 20)
#    0.000    0.500    5.000    3.375    0.000    5.500 
#    0.000    1.250    0.000    7.500    0.000    0.000 
#    0.000    0.000    0.000    0.000    0.000    0.000 
#
# Total GULP energy -89469.686905 kJ/mol
# GULP energy per Si atom -5591.855432 kJ/mol
# Density = 2.665830 g / cm^3
# Si number density = 26.719112 Si / 1000 Ang^3
#
#
#
# Elastic Constant Matrix: (Units=GPa)
#
#
# Indices 1 2 3 4 5 6 
#
# 1 157.7749 70.3556 39.2792 -9.8978 22.4947 0.1051
# 2 70.3556 148.6447 53.2782 -14.6015 14.3040 -19.1159
# 3 39.2792 53.2782 109.7859 -8.6238 2.3292 -0.0219
# 4 -9.8978 -14.6015 -8.6238 49.1151 -7.7803 4.2408
# 5 22.4947 14.3040 2.3292 -7.7803 56.1479 -3.9126
# 6 0.1051 -19.1159 -0.0219 4.2408 -3.9126 53.7301
#
#
#
# Elastic Compliance Matrix: (Units=1/GPa)
#
#
# Indices 1 2 3 4 5 6 
#
# 1 0.008619 -0.003539 -0.001298 0.000176 -0.002576 -0.001478
# 2 -0.003539 0.010353 -0.003640 0.001319 -0.000639 0.003538
# 3 -0.001298 -0.003640 0.011391 0.000928 0.001014 -0.001287
# 4 0.000176 0.001319 0.000928 0.021429 0.002452 -0.001044
# 5 -0.002576 -0.000639 0.001014 0.002452 0.019372 0.000995
# 6 -0.001478 0.003538 -0.001287 -0.001044 0.000995 0.020028
#
#
# Mechanical properties :
#
#
# Convention : Reuss Voigt Hill
#
# Bulk Modulus (GPa) = 74.58071 82.44795 78.51433
# Shear Modulus (GPa) = 44.39866 48.68480 46.54173
#
# Velocity S-wave (km/s) = 4.08080 4.27323 4.17812
# Velocity P-wave (km/s) = 7.08360 7.43449 7.26116
#
# Compressibility (1/GPa) = 0.01340829
#
# Stress axis : x y z
#
# Youngs Moduli (GPa) = 116.02628 96.58642 87.79011
#
# Poissons Ratio (x) = 0.34182 0.11395
# Poissons Ratio (y) = 0.41062 0.31959
# Poissons Ratio (z) = 0.15060 0.35161
#
# Static dielectric constant tensor:
#      x y z
#    x 2.111120 -0.000920 0.010140 
#    y -0.000920 2.219950 -0.044910 
#    z 0.010140 -0.044910 2.231080 
# 
# From -- ./inp_files/199574.got.cif
#   From: 2010.05.17/outbox.cif.g08.bks.cpg/sg2_100_cif.got.tgz:199574.got - 2010.06.03 11:33:40.
