data_PCOD9054414
_publ_section_title
;
Structure prediction by ZEFSAII (Michael W. Deem and Ramdas Pophale) SiO2 
 PCOD9054414
Probable space group: P -1
;
_chemical_formula_sum "Si O2"
_cell_formula_units_Z 16
_cell_length_a 9.298632
_cell_length_b 9.416863
_cell_length_c 11.815389
_cell_angle_alpha 61.453010
_cell_angle_beta 118.038992
_cell_angle_gamma 102.365251
_cell_volume 802.077109
_symmetry_space_group_name_H-M "P -1"
_symmetry_group_IT_number 2
_symmetry_cell_setting 'triclinic'
loop_
_space_group_symop_operation_xyz
x,y,z
-x,-y,-z
loop_
_atom_site_type_symbol
_atom_site_label
_atom_site_fract_x
_atom_site_fract_y
_atom_site_fract_z
Si Si1 0.717303 0.034777 0.341233
Si Si2 0.465994 0.560260 0.641788
Si Si3 0.444311 0.761346 0.336405
Si Si4 0.821910 0.662102 0.798703
Si Si5 0.948618 0.997334 0.647414
Si Si6 0.090308 0.875190 0.163641
Si Si7 0.931399 0.590120 0.103956
Si Si8 0.636811 0.398034 0.159224
O O1 0.630191 0.204762 0.212653
O O2 0.864793 0.984958 0.329957
O O3 0.585649 0.892837 0.356214
O O4 0.818195 0.065338 0.482839
O O5 0.399496 0.666783 0.472169
O O6 0.496763 0.379132 0.674706
O O7 0.637021 0.643818 0.702592
O O8 0.374286 0.563179 0.726017
O O9 0.276824 0.847886 0.204551
O O10 0.908169 0.807741 0.712316
O O11 0.912085 0.496918 0.859892
O O12 0.842137 0.683510 0.932366
O O13 0.917863 0.067997 0.732429
O O14 0.993995 0.709088 0.176657
O O15 0.000000 0.000000 0.000000
O O16 0.808806 0.458451 0.154044
O O17 0.500000 0.500000 0.000000
#
# Coordination Sequence:
#
# PCOD9054414 Si02
#       8
#     2   2   2   2   2   2   2   2
#     4  11  26  45  67  98 133 172 222 273 330 391
#     4  11  24  45  69  98 129 173 217 276 329 388
#     4  11  26  45  67  98 133 172 222 273 330 391
#     4  11  20  44  71  90 133 178 219 263 321 402
#     4  11  24  45  69  98 129 173 217 276 329 388
#     4  12  26  42  66  99 132 172 222 268 329 389
#     4  11  24  42  65  97 136 174 218 268 323 397
#     4  12  26  42  66  99 132 172 222 268 329 389
#
# _framework density 19.948208999999999
#
# number of rings (size 3 to 8) (size 9 to 14) (size 15 to 20)
#    0.000    0.750    6.250    0.750    5.250    2.000 
#    0.000    2.500    0.000    0.000    0.000    0.000 
#    0.000    0.000    0.000    0.000    0.000    0.000 
#
# Total GULP energy -89392.135440 kJ/mol
# GULP energy per Si atom -5587.008465 kJ/mol
# Density = 1.990281 g / cm^3
# Si number density = 19.948209 Si / 1000 Ang^3
#
#
#
# Elastic Constant Matrix: (Units=GPa)
#
#
# Indices 1 2 3 4 5 6 
#
# 1 72.2228 16.3258 30.8490 -3.2897 -0.8980 1.6803
# 2 16.3258 83.5371 22.6024 -4.2352 9.0563 -0.1498
# 3 30.8490 22.6024 70.7163 -15.9666 11.5305 -0.5664
# 4 -3.2897 -4.2352 -15.9666 23.8289 -0.7054 -1.3362
# 5 -0.8980 9.0563 11.5305 -0.7054 30.9949 -0.2992
# 6 1.6803 -0.1498 -0.5664 -1.3362 -0.2992 23.6988
#
#
#
# Elastic Compliance Matrix: (Units=1/GPa)
#
#
# Indices 1 2 3 4 5 6 
#
# 1 0.017921 -0.001772 -0.008785 -0.003695 0.004205 -0.001647
# 2 -0.001772 0.013454 -0.003059 0.000019 -0.002843 0.000103
# 3 -0.008785 -0.003059 0.023326 0.013749 -0.007708 0.001839
# 4 -0.003695 0.000019 0.013749 0.050743 -0.004040 0.003401
# 5 0.004205 -0.002843 -0.007708 -0.004040 0.035989 -0.000274
# 6 -0.001647 0.000103 0.001839 0.003401 -0.000274 0.042546
#
#
# Mechanical properties :
#
#
# Convention : Reuss Voigt Hill
#
# Bulk Modulus (GPa) = 36.40114 40.67008 38.53561
# Shear Modulus (GPa) = 22.68958 26.15111 24.42035
#
# Velocity S-wave (km/s) = 3.37623 3.62463 3.50263
# Velocity P-wave (km/s) = 5.78671 6.16031 5.97643
#
# Compressibility (1/GPa) = 0.02747167
#
# Stress axis : x y z
#
# Youngs Moduli (GPa) = 55.80039 74.32787 42.86975
#
# Poissons Ratio (x) = 0.13168 0.37659
# Poissons Ratio (y) = 0.09886 0.13112
# Poissons Ratio (z) = 0.49018 0.22734
#
# Static dielectric constant tensor:
#      x y z
#    x 1.683300 -0.028470 0.001840 
#    y -0.028470 1.705370 -0.007390 
#    z 0.001840 -0.007390 1.738050 
# 
# From -- ./inp_files/381454.got.cif
#   From: 2010.05.17/outbox.cif.g08.bks.cpg/sg2_191_cif.got.tgz:381454.got - 2010.06.03 11:33:40.
