data_PCOD9054826
_publ_section_title
;
Structure prediction by ZEFSAII (Michael W. Deem and Ramdas Pophale) SiO2 
 PCOD9054826
Probable space group: P -1
;
_chemical_formula_sum "Si O2"
_cell_formula_units_Z 14
_cell_length_a 11.786403
_cell_length_b 6.817669
_cell_length_c 13.105088
_cell_angle_alpha 83.930308
_cell_angle_beta 132.842152
_cell_angle_gamma 124.682912
_cell_volume 561.664766
_symmetry_space_group_name_H-M "P -1"
_symmetry_group_IT_number 2
_symmetry_cell_setting 'triclinic'
loop_
_space_group_symop_operation_xyz
x,y,z
-x,-y,-z
loop_
_atom_site_type_symbol
_atom_site_label
_atom_site_fract_x
_atom_site_fract_y
_atom_site_fract_z
Si Si1 0.335734 0.538670 0.910220
Si Si2 0.896246 0.174145 0.552094
Si Si3 0.253330 0.329782 0.358671
Si Si4 0.543693 0.847314 0.835914
Si Si5 0.448089 0.852138 0.365241
Si Si6 0.903193 0.853399 0.056408
Si Si7 0.866083 0.621663 0.501112
O O1 0.437657 0.798734 0.885332
O O2 0.249310 0.459399 0.980130
O O3 0.113080 0.302667 0.731531
O O4 0.500000 0.500000 0.000000
O O5 0.892128 0.409511 0.544329
O O6 0.936086 0.150075 0.460567
O O7 0.662021 0.923239 0.458997
O O8 0.500000 0.500000 0.500000
O O9 0.254791 0.535736 0.283490
O O10 0.152848 0.291893 0.407824
O O11 0.121168 0.044510 0.241113
O O12 0.359569 0.554487 0.685070
O O13 0.589919 0.041495 0.762146
O O14 0.754533 0.911533 0.985820
O O15 0.500000 0.000000 0.500000
O O16 0.000000 0.000000 0.000000
#
# Coordination Sequence:
#
# PCOD9054826 Si02
#       7
#     2   2   2   2   2   2   2
#     4   9  19  37  61  89 123 172 210 254 320 385
#     4   9  17  34  64  91 120 162 214 257 321 373
#     4  12  24  39  62 100 134 167 219 267 321 387
#     4   9  19  39  61  87 123 164 212 256 319 381
#     4  11  21  38  67  97 127 168 211 270 322 383
#     4  11  24  38  60  89 129 176 209 261 326 372
#     4   9  18  36  63  92 118 165 213 264 310 381
#
# _framework density 24.925898
#
# number of rings (size 3 to 8) (size 9 to 14) (size 15 to 20)
#    0.000    2.000    2.857    2.571    2.000    0.571 
#    0.000   10.714    0.000   18.857    0.000    0.000 
#    0.000    0.000    0.000    0.000    0.000    0.000 
#
# Total GULP energy -77941.538891 kJ/mol
# GULP energy per Si atom -5567.252778 kJ/mol
# Density = 2.486917 g / cm^3
# Si number density = 24.925898 Si / 1000 Ang^3
#
#
#
# Elastic Constant Matrix: (Units=GPa)
#
#
# Indices 1 2 3 4 5 6 
#
# 1 105.1707 43.9042 7.2742 -4.8734 -8.8920 43.1699
# 2 43.9042 111.6543 -5.5612 -24.3360 -10.7528 52.7880
# 3 7.2742 -5.5612 71.7216 -10.5773 24.3201 7.4585
# 4 -4.8734 -24.3360 -10.5773 37.2127 12.5249 -6.4167
# 5 -8.8920 -10.7528 24.3201 12.5249 41.6992 -10.4170
# 6 43.1699 52.7880 7.4585 -6.4167 -10.4170 59.9295
#
#
#
# Elastic Compliance Matrix: (Units=1/GPa)
#
#
# Indices 1 2 3 4 5 6 
#
# 1 0.013752 -0.002157 -0.001836 -0.002187 0.002198 -0.007630
# 2 -0.002157 0.022135 0.010096 0.017335 -0.010642 -0.019194
# 3 -0.001836 0.010096 0.026615 0.019230 -0.022258 -0.012693
# 4 -0.002187 0.017335 0.019230 0.049466 -0.025889 -0.015291
# 5 0.002198 -0.010642 -0.022258 -0.025889 0.046425 0.015858
# 6 -0.007630 -0.019194 -0.012693 -0.015291 0.015858 0.041789
#
#
# Mechanical properties :
#
#
# Convention : Reuss Voigt Hill
#
# Bulk Modulus (GPa) = 13.38516 42.19788 27.79152
# Shear Modulus (GPa) = 23.48758 43.96356 33.72557
#
# Velocity S-wave (km/s) = 3.07301 4.20428 3.68235
# Velocity P-wave (km/s) = 4.23944 6.36664 5.40865
#
# Compressibility (1/GPa) = 0.07470960
#
# Stress axis : x y z
#
# Youngs Moduli (GPa) = 72.71573 45.17671 37.57245
#
# Poissons Ratio (x) = 0.09743 0.06900
# Poissons Ratio (y) = 0.15682 -0.37935
# Poissons Ratio (z) = 0.13354 -0.45612
#
# Static dielectric constant tensor:
#      x y z
#    x 1.979060 0.023640 -0.068460 
#    y 0.023640 2.223000 -0.224960 
#    z -0.068460 -0.224960 2.068710 
# 
# From -- ./inp_files/341889.got.cif
#   From: 2010.05.17/outbox.cif.g08.bks.cpg/sg2_171_cif.got.tgz:341889.got - 2010.06.03 11:33:40.
