data_PCOD9054694
_publ_section_title
;
Structure prediction by ZEFSAII (Michael W. Deem and Ramdas Pophale) SiO2 
 PCOD9054694
Probable space group: P -1
;
_chemical_formula_sum "Si O2"
_cell_formula_units_Z 16
_cell_length_a 20.429383
_cell_length_b 8.273865
_cell_length_c 14.546555
_cell_angle_alpha 124.081430
_cell_angle_beta 158.777385
_cell_angle_gamma 67.922419
_cell_volume 643.186255
_symmetry_space_group_name_H-M "P -1"
_symmetry_group_IT_number 2
_symmetry_cell_setting 'triclinic'
loop_
_space_group_symop_operation_xyz
x,y,z
-x,-y,-z
loop_
_atom_site_type_symbol
_atom_site_label
_atom_site_fract_x
_atom_site_fract_y
_atom_site_fract_z
Si Si1 0.880841 0.720891 0.888124
Si Si2 0.951642 0.723478 0.287890
Si Si3 0.891872 0.533785 0.484144
Si Si4 0.340641 0.586773 0.343266
Si Si5 0.213401 0.223044 0.731587
Si Si6 0.633104 0.556528 0.322147
Si Si7 0.733982 0.054676 0.819690
Si Si8 0.317940 0.986855 0.468452
O O1 0.797856 0.511843 0.779069
O O2 0.783735 0.634717 0.632719
O O3 0.779153 0.858835 0.846222
O O4 0.126785 0.880580 0.254681
O O5 0.785049 0.724098 0.141393
O O6 0.109290 0.690287 0.551838
O O7 0.829312 0.516518 0.993552
O O8 0.066459 0.954636 0.454239
O O9 0.857399 0.622320 0.369628
O O10 0.747759 0.564324 0.381067
O O11 0.126278 0.723840 0.872286
O O12 0.500000 0.500000 0.500000
O O13 0.443776 0.852433 0.580801
O O14 0.442366 0.315644 0.020106
O O15 0.562705 0.747217 0.281007
O O16 0.791723 0.066550 0.791929
O O17 0.500000 0.000000 0.500000
#
# Coordination Sequence:
#
# PCOD9054694 Si02
#       8
#     2   2   2   2   2   2   2   2
#     4  11  21  40  66 100 143 177 219 293 360 416
#     4  11  26  49  69  99 144 184 239 298 342 417
#     4  12  23  47  73 101 140 187 239 287 350 421
#     4  12  24  42  69 106 139 179 233 293 363 421
#     4  11  27  48  69  98 142 192 244 285 345 415
#     4  11  23  45  69 104 143 179 237 287 346 436
#     4  11  21  37  66  97 133 172 219 285 351 412
#     4  11  22  41  65 102 142 175 218 291 365 414
#
# _framework density 24.876152999999999
#
# number of rings (size 3 to 8) (size 9 to 14) (size 15 to 20)
#    0.000    0.750    3.750    4.125    3.500    0.500 
#    6.750    0.000    0.000    0.000    0.000    0.000 
#    0.000    0.000    0.000    0.000    0.000    0.000 
#
# Total GULP energy -89382.336275 kJ/mol
# GULP energy per Si atom -5586.396017 kJ/mol
# Density = 2.481953 g / cm^3
# Si number density = 24.876153 Si / 1000 Ang^3
#
#
#
# Elastic Constant Matrix: (Units=GPa)
#
#
# Indices 1 2 3 4 5 6 
#
# 1 115.7236 41.0980 33.5637 9.3103 16.1014 13.9853
# 2 41.0980 98.3637 28.9318 4.8416 4.7208 8.5439
# 3 33.5637 28.9318 76.2254 9.8274 22.9134 10.3299
# 4 9.3103 4.8416 9.8274 27.0877 3.5093 6.9521
# 5 16.1014 4.7208 22.9134 3.5093 35.6201 0.5718
# 6 13.9853 8.5439 10.3299 6.9521 0.5718 39.3977
#
#
#
# Elastic Compliance Matrix: (Units=1/GPa)
#
#
# Indices 1 2 3 4 5 6 
#
# 1 0.011425 -0.003704 -0.002187 -0.001462 -0.003084 -0.002376
# 2 -0.003704 0.012783 -0.003932 0.000220 0.002496 -0.000502
# 3 -0.002187 -0.003932 0.019628 -0.003577 -0.010720 -0.002731
# 4 -0.001462 0.000220 -0.003577 0.040258 -0.000942 -0.005681
# 5 -0.003084 0.002496 -0.010720 -0.000942 0.036078 0.003007
# 6 -0.002376 -0.000502 -0.002731 -0.005681 0.003007 0.028009
#
#
# Mechanical properties :
#
#
# Convention : Reuss Voigt Hill
#
# Bulk Modulus (GPa) = 41.33773 55.27775 48.30774
# Shear Modulus (GPa) = 28.42673 32.86903 30.64788
#
# Velocity S-wave (km/s) = 3.38410 3.63892 3.51382
# Velocity P-wave (km/s) = 5.65004 6.31863 5.99367
#
# Compressibility (1/GPa) = 0.02419097
#
# Stress axis : x y z
#
# Youngs Moduli (GPa) = 87.52776 78.22732 50.94754
#
# Poissons Ratio (x) = 0.28974 0.11143
# Poissons Ratio (y) = 0.32419 0.20031
# Poissons Ratio (z) = 0.19144 0.30756
#
# Static dielectric constant tensor:
#      x y z
#    x 1.929000 0.029590 -0.010070 
#    y 0.029590 2.108290 -0.067540 
#    z -0.010070 -0.067540 1.956360 
# 
# From -- ./inp_files/540545.got.cif
#   From: 2010.05.17/outbox.cif.g08.bks.cpg/sg2_271_cif.got.tgz:540545.got - 2010.06.03 11:33:40.
