data_PCOD9054605
_publ_section_title
;
Structure prediction by ZEFSAII (Michael W. Deem and Ramdas Pophale) SiO2 
 PCOD9054605
Probable space group: P -1
;
_chemical_formula_sum "Si O2"
_cell_formula_units_Z 16
_cell_length_a 8.941065
_cell_length_b 24.570996
_cell_length_c 5.255516
_cell_angle_alpha 86.368879
_cell_angle_beta 92.301126
_cell_angle_gamma 140.637725
_cell_volume 730.724299
_symmetry_space_group_name_H-M "P -1"
_symmetry_group_IT_number 2
_symmetry_cell_setting 'triclinic'
loop_
_space_group_symop_operation_xyz
x,y,z
-x,-y,-z
loop_
_atom_site_type_symbol
_atom_site_label
_atom_site_fract_x
_atom_site_fract_y
_atom_site_fract_z
Si Si1 0.405060 0.414092 0.932490
Si Si2 0.784623 0.898581 0.472146
Si Si3 0.076492 0.377495 0.585624
Si Si4 0.149979 0.505288 0.274224
Si Si5 0.760735 0.818213 0.997342
Si Si6 0.269563 0.804514 0.494000
Si Si7 0.032118 0.781322 0.962584
Si Si8 0.220561 0.635179 0.099868
O O1 0.279804 0.392406 0.661313
O O2 0.631144 0.439974 0.922451
O O3 0.194335 0.321804 0.080292
O O4 0.500000 0.500000 0.000000
O O5 0.818397 0.874115 0.221398
O O6 0.539957 0.863729 0.460676
O O7 0.771417 0.853653 0.722744
O O8 0.000000 0.000000 0.500000
O O9 0.187887 0.464274 0.467490
O O10 0.876419 0.292500 0.431242
O O11 0.929734 0.354647 0.831013
O O12 0.177162 0.575936 0.330006
O O13 0.909375 0.425647 0.134582
O O14 0.926756 0.811790 0.993372
O O15 0.491188 0.723909 0.055456
O O16 0.162697 0.797911 0.224529
O O17 0.207507 0.825747 0.721149
#
# Coordination Sequence:
#
# PCOD9054605 Si02
#       8
#     2   2   2   2   2   2   2   2
#     4  11  21  37  56  88 134 175 243 276 330 375
#     4  12  27  49  81 111 136 172 230 295 359 434
#     4  11  22  37  62  87 129 182 231 283 335 393
#     4  11  22  38  54  93 131 180 238 286 332 384
#     4  12  25  49  73 106 145 185 230 288 358 426
#     4  11  24  45  72  99 142 181 237 273 354 418
#     4  11  25  45  68 103 141 196 226 282 345 421
#     4  11  23  39  60  92 133 181 229 285 340 401
#
# _framework density 21.896086
#
# number of rings (size 3 to 8) (size 9 to 14) (size 15 to 20)
#    0.000    0.750    3.750    4.125    3.500    1.000 
#    2.250    3.750    0.000    0.000    0.000    0.000 
#    0.000    0.000    0.000    0.000    0.000    0.000 
#
# Total GULP energy -89400.349518 kJ/mol
# GULP energy per Si atom -5587.521845 kJ/mol
# Density = 2.184625 g / cm^3
# Si number density = 21.896086 Si / 1000 Ang^3
#
#
#
# Elastic Constant Matrix: (Units=GPa)
#
#
# Indices 1 2 3 4 5 6 
#
# 1 155.7985 47.4487 40.8431 15.9007 -7.2959 14.6757
# 2 47.4487 87.5952 4.6703 17.8220 2.8209 15.3599
# 3 40.8431 4.6703 97.5751 14.7479 -6.6429 5.2119
# 4 15.9007 17.8220 14.7479 21.4211 -10.5691 0.3496
# 5 -7.2959 2.8209 -6.6429 -10.5691 38.8739 0.5665
# 6 14.6757 15.3599 5.2119 0.3496 0.5665 21.4975
#
#
#
# Elastic Compliance Matrix: (Units=1/GPa)
#
#
# Indices 1 2 3 4 5 6 
#
# 1 0.008862 -0.004278 -0.003286 -0.000008 0.001442 -0.002234
# 2 -0.004278 0.019585 0.003869 -0.018805 -0.006508 -0.011534
# 3 -0.003286 0.003869 0.013108 -0.010463 -0.001451 -0.003491
# 4 -0.000008 -0.018805 -0.010463 0.079687 0.021035 0.014129
# 5 0.001442 -0.006508 -0.001451 0.021035 0.031897 0.002834
# 6 -0.002234 -0.011534 -0.003491 0.014129 0.002834 0.056825
#
#
# Mechanical properties :
#
#
# Convention : Reuss Voigt Hill
#
# Bulk Modulus (GPa) = 29.27008 58.54367 43.90688
# Shear Modulus (GPa) = 21.85872 32.89227 27.37549
#
# Velocity S-wave (km/s) = 3.16301 3.88003 3.53972
# Velocity P-wave (km/s) = 5.17071 6.84601 6.06647
#
# Compressibility (1/GPa) = 0.03416458
#
# Stress axis : x y z
#
# Youngs Moduli (GPa) = 112.84601 51.05855 76.29057
#
# Poissons Ratio (x) = 0.21843 0.25067
# Poissons Ratio (y) = 0.48275 -0.29514
# Poissons Ratio (z) = 0.37078 -0.19752
#
# Static dielectric constant tensor:
#      x y z
#    x 1.839490 -0.025250 -0.026940 
#    y -0.025250 1.782590 -0.036060 
#    z -0.026940 -0.036060 1.915660 
# 
# From -- ./inp_files/54937.got.cif
#   From: 2010.05.17/outbox.cif.g08.bks.cpg/sg2_28_cif.got.tgz:54937.got - 2010.06.03 11:33:40.
