data_PCOD9054164
_publ_section_title
;
Structure prediction by ZEFSAII (Michael W. Deem and Ramdas Pophale) SiO2 
 PCOD9054164
Probable space group: P -1
;
_chemical_formula_sum "Si O2"
_cell_formula_units_Z 14
_cell_length_a 9.320796
_cell_length_b 12.410114
_cell_length_c 17.928121
_cell_angle_alpha 160.617735
_cell_angle_beta 68.833670
_cell_angle_gamma 111.977156
_cell_volume 637.995500
_symmetry_space_group_name_H-M "P -1"
_symmetry_group_IT_number 2
_symmetry_cell_setting 'triclinic'
loop_
_space_group_symop_operation_xyz
x,y,z
-x,-y,-z
loop_
_atom_site_type_symbol
_atom_site_label
_atom_site_fract_x
_atom_site_fract_y
_atom_site_fract_z
Si Si1 0.343811 0.596210 0.624359
Si Si2 0.952149 0.753399 0.613161
Si Si3 0.098639 0.357220 0.209838
Si Si4 0.584231 0.670725 0.897475
Si Si5 0.308405 0.418997 0.688721
Si Si6 0.621601 0.305888 0.803511
Si Si7 0.969920 0.523579 0.869223
O O1 0.500000 0.500000 0.500000
O O2 0.222323 0.356423 0.445933
O O3 0.308898 0.559551 0.695856
O O4 0.352274 0.976925 0.851086
O O5 0.000000 0.500000 0.500000
O O6 0.035688 0.652113 0.457171
O O7 0.984230 0.122898 0.872880
O O8 0.274997 0.367368 0.210378
O O9 0.087511 0.434299 0.176089
O O10 0.000000 0.000000 0.000000
O O11 0.421574 0.649879 0.872341
O O12 0.586181 0.412709 0.795227
O O13 0.134039 0.366506 0.723525
O O14 0.390860 0.086477 0.448916
O O15 0.804065 0.385100 0.846549
O O16 0.500000 0.500000 0.000000
#
# Coordination Sequence:
#
# PCOD9054164 Si02
#       7
#     2   2   2   2   2   2   2
#     4  12  25  41  66 106 141 171 228 287 338 405
#     4  12  23  38  70 100 139 180 228 273 346 408
#     4  11  20  41  64 100 138 178 225 276 334 417
#     4  11  24  43  70  97 137 182 227 274 350 407
#     4  12  25  46  70  98 145 181 223 291 348 397
#     4  11  26  48  70  98 135 182 237 281 335 422
#     4  11  24  44  68  99 135 180 227 285 343 400
#
# _framework density 21.943729999999999
#
# number of rings (size 3 to 8) (size 9 to 14) (size 15 to 20)
#    0.000    0.571    4.286    3.857    4.000    0.000 
#    0.000    1.429    0.000    0.000    0.000    0.000 
#    0.000    0.000    0.000    0.000    0.000    0.000 
#
# Total GULP energy -78041.229171 kJ/mol
# GULP energy per Si atom -5574.373512 kJ/mol
# Density = 2.189378 g / cm^3
# Si number density = 21.943730 Si / 1000 Ang^3
#
#
#
# Elastic Constant Matrix: (Units=GPa)
#
#
# Indices 1 2 3 4 5 6 
#
# 1 121.4496 25.0430 0.5059 -22.4112 6.8035 24.4946
# 2 25.0430 41.1912 13.6470 -5.8560 0.3307 4.4523
# 3 0.5059 13.6470 104.1327 -17.6719 -5.4669 3.9902
# 4 -22.4112 -5.8560 -17.6719 34.2056 1.7312 -13.4612
# 5 6.8035 0.3307 -5.4669 1.7312 43.5535 -13.1475
# 6 24.4946 4.4523 3.9902 -13.4612 -13.1475 41.1113
#
#
#
# Elastic Compliance Matrix: (Units=1/GPa)
#
#
# Indices 1 2 3 4 5 6 
#
# 1 0.011964 -0.006400 0.001750 0.005482 -0.003620 -0.005968
# 2 -0.006400 0.029247 -0.003958 -0.000896 0.000596 0.000927
# 3 0.001750 -0.003958 0.011253 0.006540 0.001152 0.000804
# 4 0.005482 -0.000896 0.006540 0.039779 0.001299 0.009637
# 5 -0.003620 0.000596 0.001152 0.001299 0.026941 0.011022
# 6 -0.005968 0.000927 0.000804 0.009637 0.011022 0.034382
#
#
# Mechanical properties :
#
#
# Convention : Reuss Voigt Hill
#
# Bulk Modulus (GPa) = 28.37140 38.35170 33.36155
# Shear Modulus (GPa) = 27.39237 38.94592 33.16915
#
# Velocity S-wave (km/s) = 3.53696 4.21742 3.89209
# Velocity P-wave (km/s) = 5.44402 6.42112 5.95265
#
# Compressibility (1/GPa) = 0.03524677
#
# Stress axis : x y z
#
# Youngs Moduli (GPa) = 83.58224 34.19151 88.86528
#
# Poissons Ratio (x) = 0.21883 -0.15547
# Poissons Ratio (y) = 0.53493 0.35175
# Poissons Ratio (z) = -0.14623 0.13534
#
# Static dielectric constant tensor:
#      x y z
#    x 1.676400 -0.040770 0.054520 
#    y -0.040770 1.822720 0.014310 
#    z 0.054520 0.014310 1.717730 
# 
# From -- ./inp_files/190289.got.cif
#   From: 2010.05.17/outbox.cif.g08.bks.cpg/sg2_96_cif.got.tgz:190289.got - 2010.06.03 11:33:40.
