data_PCOD9054230
_publ_section_title
;
Structure prediction by ZEFSAII (Michael W. Deem and Ramdas Pophale) SiO2 
 PCOD9054230
Probable space group: P -1
;
_chemical_formula_sum "Si O2"
_cell_formula_units_Z 16
_cell_length_a 7.216866
_cell_length_b 17.129780
_cell_length_c 8.149131
_cell_angle_alpha 123.933899
_cell_angle_beta 106.749659
_cell_angle_gamma 46.386514
_cell_volume 597.235172
_symmetry_space_group_name_H-M "P -1"
_symmetry_group_IT_number 2
_symmetry_cell_setting 'triclinic'
loop_
_space_group_symop_operation_xyz
x,y,z
-x,-y,-z
loop_
_atom_site_type_symbol
_atom_site_label
_atom_site_fract_x
_atom_site_fract_y
_atom_site_fract_z
Si Si1 0.860963 0.812895 0.705208
Si Si2 0.191215 0.455592 0.149556
Si Si3 0.658257 0.375362 0.594867
Si Si4 0.252922 0.957722 0.928911
Si Si5 0.528200 0.807317 0.142350
Si Si6 0.959878 0.249160 0.828480
Si Si7 0.074062 0.591939 0.712608
Si Si8 0.327435 0.952144 0.583242
O O1 0.620335 0.897452 0.617978
O O2 0.138705 0.742041 0.610397
O O3 0.892131 0.698890 0.655184
O O4 0.789713 0.915822 0.938806
O O5 0.258538 0.542065 0.287896
O O6 0.057902 0.447372 0.261606
O O7 0.447449 0.311954 0.007276
O O8 0.000000 0.500000 0.000000
O O9 0.358319 0.467410 0.583284
O O10 0.718614 0.320465 0.728423
O O11 0.293624 0.909127 0.697741
O O12 0.465395 0.866317 0.014132
O O13 0.000000 0.000000 0.000000
O O14 0.812988 0.756551 0.194620
O O15 0.338268 0.897878 0.346820
O O16 0.107953 0.102530 0.703155
O O17 0.880052 0.333271 0.066997
#
# Coordination Sequence:
#
# PCOD9054230 Si02
#       8
#     2   2   2   2   2   2   2   2
#     4  12  24  48  71 103 139 187 243 294 369 427
#     4  11  23  43  68 104 139 185 247 288 352 435
#     4  12  25  45  72 102 145 191 239 298 357 435
#     4  12  28  46  67 110 149 180 238 305 363 432
#     4  11  23  43  72 106 139 184 240 297 357 433
#     4  11  20  41  71 104 129 185 242 286 360 427
#     4  11  25  43  67 104 144 188 231 298 363 421
#     4  12  22  46  80  99 139 189 240 299 361 432
#
# _framework density 26.790116999999999
#
# number of rings (size 3 to 8) (size 9 to 14) (size 15 to 20)
#    0.000    0.500    6.250    3.750    1.750    1.000 
#    4.500    0.000    0.000    0.000    0.000    0.000 
#    0.000    0.000    0.000    0.000    0.000    0.000 
#
# Total GULP energy -89695.859708 kJ/mol
# GULP energy per Si atom -5605.991232 kJ/mol
# Density = 2.672914 g / cm^3
# Si number density = 26.790117 Si / 1000 Ang^3
#
#
#
# Elastic Constant Matrix: (Units=GPa)
#
#
# Indices 1 2 3 4 5 6 
#
# 1 94.9540 29.7368 28.8557 7.1099 -5.5859 -1.9970
# 2 29.7368 171.1536 38.9614 9.6126 8.1177 2.5324
# 3 28.8557 38.9614 119.5562 4.3372 -21.5073 2.4418
# 4 7.1099 9.6126 4.3372 37.0142 -0.9331 -6.3361
# 5 -5.5859 8.1177 -21.5073 -0.9331 30.7119 0.1486
# 6 -1.9970 2.5324 2.4418 -6.3361 0.1486 40.4540
#
#
#
# Elastic Compliance Matrix: (Units=1/GPa)
#
#
# Indices 1 2 3 4 5 6 
#
# 1 0.011847 -0.001547 -0.002128 -0.001501 0.001025 0.000571
# 2 -0.001547 0.006965 -0.002543 -0.001410 -0.003943 -0.000565
# 3 -0.002128 -0.002543 0.011186 -0.000152 0.008117 -0.000675
# 4 -0.001501 -0.001410 -0.000152 0.028477 0.000836 0.004480
# 5 0.001025 -0.003943 0.008117 0.000836 0.039500 -0.000207
# 6 0.000571 -0.000565 -0.000675 0.004480 -0.000207 0.025526
#
#
# Mechanical properties :
#
#
# Convention : Reuss Voigt Hill
#
# Bulk Modulus (GPa) = 56.93998 64.53018 60.73508
# Shear Modulus (GPa) = 35.26287 40.84336 38.05311
#
# Velocity S-wave (km/s) = 3.63197 3.90881 3.77293
# Velocity P-wave (km/s) = 6.23607 6.67168 6.45755
#
# Compressibility (1/GPa) = 0.01756235
#
# Stress axis : x y z
#
# Youngs Moduli (GPa) = 84.40787 143.57667 89.39533
#
# Poissons Ratio (x) = 0.22207 0.19025
# Poissons Ratio (y) = 0.13055 0.22734
# Poissons Ratio (z) = 0.17964 0.36513
#
# Static dielectric constant tensor:
#      x y z
#    x 2.108960 -0.024140 -0.004840 
#    y -0.024140 2.094420 -0.022310 
#    z -0.004840 -0.022310 2.127220 
# 
# From -- ./inp_files/218327.got.cif
#   From: 2010.05.17/outbox.cif.g08.bks.cpg/sg2_110_cif.got.tgz:218327.got - 2010.06.03 11:33:40.
