data_PCOD9054555
_publ_section_title
;
Structure prediction by ZEFSAII (Michael W. Deem and Ramdas Pophale) SiO2 
 PCOD9054555
Probable space group: P -1
;
_chemical_formula_sum "Si O2"
_cell_formula_units_Z 12
_cell_length_a 7.060173
_cell_length_b 13.331080
_cell_length_c 21.016251
_cell_angle_alpha 22.245405
_cell_angle_beta 58.914565
_cell_angle_gamma 58.420490
_cell_volume 634.872897
_symmetry_space_group_name_H-M "P -1"
_symmetry_group_IT_number 2
_symmetry_cell_setting 'triclinic'
loop_
_space_group_symop_operation_xyz
x,y,z
-x,-y,-z
loop_
_atom_site_type_symbol
_atom_site_label
_atom_site_fract_x
_atom_site_fract_y
_atom_site_fract_z
Si Si1 0.207029 0.597270 0.941416
Si Si2 0.693754 0.344405 0.969965
Si Si3 0.696837 0.913964 0.124272
Si Si4 0.161066 0.564858 0.239259
Si Si5 0.663650 0.403258 0.586719
Si Si6 0.168004 0.213595 0.566738
O O1 0.433765 0.406812 0.995950
O O2 0.235109 0.897248 0.740199
O O3 0.177085 0.607477 0.016838
O O4 0.000000 0.500000 0.000000
O O5 0.753083 0.519828 0.796510
O O6 0.742204 0.044596 0.108828
O O7 0.461335 0.810193 0.228373
O O8 0.897797 0.678677 0.214495
O O9 0.721171 0.167407 0.926207
O O10 0.203981 0.351190 0.412410
O O11 0.500000 0.500000 0.500000
O O12 0.701514 0.644267 0.485352
O O13 0.905219 0.277436 0.592699
#
# Coordination Sequence:
#
# PCOD9054555 Si02
#       6
#     2   2   2   2   2   2
#     4  11  23  41  62  85 117 170 206 238 292 366
#     4   9  21  42  61  81 125 160 192 249 296 357
#     4   9  18  39  65  85 127 156 189 240 327 344
#     4   9  20  39  62  94 122 151 195 259 298 358
#     4  11  21  36  60  93 124 159 190 250 304 356
#     4  11  24  36  62  96 119 149 218 245 285 364
#
# _framework density 18.901422
#
# number of rings (size 3 to 8) (size 9 to 14) (size 15 to 20)
#    1.000    1.000    1.667    2.000    2.333    2.667 
#    3.000    0.833    0.000    0.000    0.000    0.000 
#    0.000    0.000    0.000    0.000    0.000    0.000 
#
# Total GULP energy -66900.661827 kJ/mol
# GULP energy per Si atom -5575.055152 kJ/mol
# Density = 1.885840 g / cm^3
# Si number density = 18.901422 Si / 1000 Ang^3
#
#
#
# Elastic Constant Matrix: (Units=GPa)
#
#
# Indices 1 2 3 4 5 6 
#
# 1 98.8728 24.0322 16.2061 13.3798 -15.9957 10.8298
# 2 24.0322 65.2505 2.6717 13.3682 -5.7071 12.4680
# 3 16.2061 2.6717 66.7611 27.5450 -1.5687 6.9679
# 4 13.3798 13.3682 27.5450 29.5804 0.5641 1.1335
# 5 -15.9957 -5.7071 -1.5687 0.5641 29.2925 6.4205
# 6 10.8298 12.4680 6.9679 1.1335 6.4205 17.3529
#
#
#
# Elastic Compliance Matrix: (Units=1/GPa)
#
#
# Indices 1 2 3 4 5 6 
#
# 1 0.014007 -0.000662 0.000815 -0.006533 0.010316 -0.011983
# 2 -0.000662 0.024611 0.009887 -0.019316 0.010571 -0.023890
# 3 0.000815 0.009887 0.030089 -0.032227 0.009205 -0.020995
# 4 -0.006533 -0.019316 -0.032227 0.074589 -0.017626 0.032545
# 5 0.010316 0.010571 0.009205 -0.017626 0.050383 -0.035220
# 6 -0.011983 -0.023890 -0.020995 0.032545 -0.035220 0.101606
#
#
# Mechanical properties :
#
#
# Convention : Reuss Voigt Hill
#
# Bulk Modulus (GPa) = 11.26279 35.18938 23.22608
# Shear Modulus (GPa) = 16.40414 27.77680 22.09047
#
# Velocity S-wave (km/s) = 2.94917 3.83764 3.42236
# Velocity P-wave (km/s) = 4.19148 6.18825 5.28502
#
# Compressibility (1/GPa) = 0.08878798
#
# Stress axis : x y z
#
# Youngs Moduli (GPa) = 71.39414 40.63155 33.23439
#
# Poissons Ratio (x) = 0.02689 -0.02708
# Poissons Ratio (y) = 0.04725 -0.32860
# Poissons Ratio (z) = -0.05817 -0.40173
#
# Static dielectric constant tensor:
#      x y z
#    x 1.634540 0.013840 0.009750 
#    y 0.013840 1.663350 0.022710 
#    z 0.009750 0.022710 1.680200 
# 
# From -- ./inp_files/380000.got.cif
#   From: 2010.05.17/outbox.cif.g08.bks.cpg/sg2_190_cif.got.tgz:380000.got - 2010.06.03 11:33:40.
