data_PCOD9054456
_publ_section_title
;
Structure prediction by ZEFSAII (Michael W. Deem and Ramdas Pophale) SiO2 
 PCOD9054456
Probable space group: P -1
;
_chemical_formula_sum "Si O2"
_cell_formula_units_Z 12
_cell_length_a 9.919995
_cell_length_b 6.879040
_cell_length_c 9.346774
_cell_angle_alpha 120.725337
_cell_angle_beta 69.801811
_cell_angle_gamma 92.050846
_cell_volume 506.696030
_symmetry_space_group_name_H-M "P -1"
_symmetry_group_IT_number 2
_symmetry_cell_setting 'triclinic'
loop_
_space_group_symop_operation_xyz
x,y,z
-x,-y,-z
loop_
_atom_site_type_symbol
_atom_site_label
_atom_site_fract_x
_atom_site_fract_y
_atom_site_fract_z
Si Si1 0.085395 0.611916 0.840848
Si Si2 0.954826 0.320102 0.561231
Si Si3 0.631299 0.588449 0.163506
Si Si4 0.518916 0.147383 0.912024
Si Si5 0.092444 0.012153 0.756812
Si Si6 0.333655 0.852091 0.414914
O O1 0.018275 0.407299 0.714890
O O2 0.231531 0.504953 0.827256
O O3 0.112505 0.798683 0.780983
O O4 0.978672 0.764146 0.049135
O O5 0.000000 0.500000 0.500000
O O6 0.781521 0.320059 0.636077
O O7 0.002689 0.072477 0.371328
O O8 0.489964 0.713753 0.351515
O O9 0.751503 0.985368 0.373276
O O10 0.583843 0.363071 0.026794
O O11 0.372170 0.244004 0.911297
O O12 0.630277 0.032956 0.704048
O O13 0.500000 0.000000 0.000000
#
# Coordination Sequence:
#
# PCOD9054456 Si02
#       6
#     2   2   2   2   2   2
#     4  10  17  35  65 104 143 185 227 298 353 420
#     4   8  16  34  61  98 145 190 217 283 367 422
#     4   9  20  37  68 105 128 182 253 290 342 440
#     4   9  19  42  67  98 138 191 230 299 371 411
#     4   8  18  34  60 103 151 182 227 278 369 433
#     4   8  17  38  65  97 138 185 240 282 349 444
#
# _framework density 23.682839999999999
#
# number of rings (size 3 to 8) (size 9 to 14) (size 15 to 20)
#    2.000    1.333    0.000    0.000    0.000    0.667 
#    9.000    1.667    3.667    3.000    4.333    1.167 
#    0.000    0.000    0.000    0.000    0.000    0.000 
#
# Total GULP energy -66935.591304 kJ/mol
# GULP energy per Si atom -5577.965942 kJ/mol
# Density = 2.362894 g / cm^3
# Si number density = 23.682840 Si / 1000 Ang^3
#
#
#
# Elastic Constant Matrix: (Units=GPa)
#
#
# Indices 1 2 3 4 5 6 
#
# 1 195.5738 59.5075 84.2446 1.7533 9.3783 -23.3435
# 2 59.5075 155.7755 65.1746 -22.5481 -0.1271 -11.9361
# 3 84.2446 65.1746 198.1605 -14.4815 2.6713 -13.2672
# 4 1.7533 -22.5481 -14.4815 42.7593 11.2394 0.2412
# 5 9.3783 -0.1271 2.6713 11.2394 44.3337 -4.2661
# 6 -23.3435 -11.9361 -13.2672 0.2412 -4.2661 28.7739
#
#
#
# Elastic Compliance Matrix: (Units=1/GPa)
#
#
# Indices 1 2 3 4 5 6 
#
# 1 0.007161 -0.001725 -0.002343 -0.001882 -0.000521 0.003952
# 2 -0.001725 0.008458 -0.001662 0.004073 -0.000423 0.001246
# 3 -0.002343 -0.001662 0.006738 0.001570 -0.000269 0.000464
# 4 -0.001882 0.004073 0.001570 0.027933 -0.006800 -0.000356
# 5 -0.000521 -0.000423 -0.000269 -0.006800 0.024694 0.002996
# 6 0.003952 0.001246 0.000464 -0.000356 0.002996 0.039138
#
#
# Mechanical properties :
#
#
# Convention : Reuss Voigt Hill
#
# Bulk Modulus (GPa) = 91.76035 107.48478 99.62257
# Shear Modulus (GPa) = 38.69538 45.87892 42.28715
#
# Velocity S-wave (km/s) = 4.04654 4.40616 4.23017
# Velocity P-wave (km/s) = 7.78860 8.44804 8.12501
#
# Compressibility (1/GPa) = 0.01089795
#
# Stress axis : x y z
#
# Youngs Moduli (GPa) = 139.64759 118.22478 148.40403
#
# Poissons Ratio (x) = 0.20398 0.34768
# Poissons Ratio (y) = 0.24094 0.24661
# Poissons Ratio (z) = 0.32716 0.19646
#
# Static dielectric constant tensor:
#      x y z
#    x 1.954840 0.027520 0.061520 
#    y 0.027520 1.952000 0.010500 
#    z 0.061520 0.010500 1.974590 
# 
# From -- ./inp_files/380763.got.cif
#   From: 2010.05.17/outbox.cif.g08.bks.cpg/sg2_191_cif.got.tgz:380763.got - 2010.06.03 11:33:40.
