data_PCOD9054324
_publ_section_title
;
Structure prediction by ZEFSAII (Michael W. Deem and Ramdas Pophale) SiO2 
 PCOD9054324
Probable space group: P -1
;
_chemical_formula_sum "Si O2"
_cell_formula_units_Z 16
_cell_length_a 15.060235
_cell_length_b 15.177141
_cell_length_c 11.261161
_cell_angle_alpha 53.992257
_cell_angle_beta 28.562818
_cell_angle_gamma 36.417213
_cell_volume 663.435291
_symmetry_space_group_name_H-M "P -1"
_symmetry_group_IT_number 2
_symmetry_cell_setting 'triclinic'
loop_
_space_group_symop_operation_xyz
x,y,z
-x,-y,-z
loop_
_atom_site_type_symbol
_atom_site_label
_atom_site_fract_x
_atom_site_fract_y
_atom_site_fract_z
Si Si1 0.271588 0.059522 0.314887
Si Si2 0.130587 0.553949 0.845866
Si Si3 0.686608 0.540348 0.039859
Si Si4 0.939936 0.187435 0.374092
Si Si5 0.001690 0.013596 0.222163
Si Si6 0.123864 0.328221 0.430163
Si Si7 0.414361 0.324729 0.281222
Si Si8 0.368158 0.678153 0.734549
O O1 0.221427 0.175543 0.376456
O O2 0.021899 0.148247 0.445566
O O3 0.270023 0.944903 0.473948
O O4 0.500000 0.000000 0.000000
O O5 0.117036 0.560786 0.997322
O O6 0.988012 0.723817 0.826980
O O7 0.438254 0.423111 0.528775
O O8 0.000000 0.500000 0.000000
O O9 0.387453 0.689519 0.333908
O O10 0.679752 0.423694 0.080299
O O11 0.751690 0.621881 0.827829
O O12 0.065207 0.049054 0.242133
O O13 0.909080 0.140239 0.129463
O O14 0.271909 0.825909 0.016951
O O15 0.246108 0.294444 0.445900
O O16 0.792681 0.489155 0.669231
O O17 0.465653 0.325342 0.359291
#
# Coordination Sequence:
#
# PCOD9054324 Si02
#       8
#     2   2   2   2   2   2   2   2
#     4  12  26  42  68 102 132 175 219 287 349 382
#     4  11  21  37  69 101 131 168 215 285 339 384
#     4  11  20  42  71  97 128 170 220 289 334 383
#     4  11  21  40  67  98 132 166 222 274 339 399
#     4  12  24  44  65  97 142 177 220 271 334 417
#     4  11  25  46  66  97 134 171 241 279 320 399
#     4  11  26  46  67  95 134 190 229 266 327 396
#     4  11  23  43  66 101 134 178 226 265 337 406
#
# _framework density 24.116897999999999
#
# number of rings (size 3 to 8) (size 9 to 14) (size 15 to 20)
#    0.000    0.750    2.500    6.750    1.750    3.000 
#    0.000    1.250    0.000    0.000    0.000    0.000 
#    0.000    0.000    0.000    0.000    0.000    0.000 
#
# Total GULP energy -89398.166397 kJ/mol
# GULP energy per Si atom -5587.385400 kJ/mol
# Density = 2.406201 g / cm^3
# Si number density = 24.116898 Si / 1000 Ang^3
#
#
#
# Elastic Constant Matrix: (Units=GPa)
#
#
# Indices 1 2 3 4 5 6 
#
# 1 161.2012 30.3413 1.0812 1.1107 8.1736 12.4651
# 2 30.3413 90.9456 27.7871 -20.3473 0.9229 26.3255
# 3 1.0812 27.7871 74.8736 -4.4361 -2.2359 9.5633
# 4 1.1107 -20.3473 -4.4361 36.9899 4.1310 4.5109
# 5 8.1736 0.9229 -2.2359 4.1310 26.7677 3.9916
# 6 12.4651 26.3255 9.5633 4.5109 3.9916 37.6639
#
#
#
# Elastic Compliance Matrix: (Units=1/GPa)
#
#
# Indices 1 2 3 4 5 6 
#
# 1 0.006830 -0.002781 0.000821 -0.001428 -0.001674 -0.000177
# 2 -0.002781 0.019978 -0.004974 0.012105 -0.000153 -0.013214
# 3 0.000821 -0.004974 0.015264 -0.001007 0.001456 -0.000705
# 4 -0.001428 0.012105 -0.001007 0.035452 -0.003811 -0.011575
# 5 -0.001674 -0.000153 0.001456 -0.003811 0.039091 -0.003395
# 6 -0.000177 -0.013214 -0.000705 -0.011575 -0.003395 0.037770
#
#
# Mechanical properties :
#
#
# Convention : Reuss Voigt Hill
#
# Bulk Modulus (GPa) = 35.45448 49.49329 42.47389
# Shear Modulus (GPa) = 28.14493 38.13835 33.14164
#
# Velocity S-wave (km/s) = 3.41988 3.98099 3.71105
# Velocity P-wave (km/s) = 5.50700 6.45739 6.00104
#
# Compressibility (1/GPa) = 0.02820518
#
# Stress axis : x y z
#
# Youngs Moduli (GPa) = 146.41919 50.05613 65.51519
#
# Poissons Ratio (x) = 0.13919 -0.05381
# Poissons Ratio (y) = 0.40715 0.32584
# Poissons Ratio (z) = -0.12026 0.24896
#
# Static dielectric constant tensor:
#      x y z
#    x 1.960190 -0.068910 0.019180 
#    y -0.068910 1.968280 -0.015850 
#    z 0.019180 -0.015850 2.042550 
# 
# From -- ./inp_files/455598.got.cif
#   From: 2010.05.17/outbox.cif.g08.bks.cpg/sg2_228_cif.got.tgz:455598.got - 2010.06.03 11:33:40.
