data_PCOD9054609
_publ_section_title
;
Structure prediction by ZEFSAII (Michael W. Deem and Ramdas Pophale) SiO2 
 PCOD9054609
Probable space group: P -1
;
_chemical_formula_sum "Si O2"
_cell_formula_units_Z 16
_cell_length_a 7.633481
_cell_length_b 9.635849
_cell_length_c 23.128716
_cell_angle_alpha 153.669010
_cell_angle_beta 99.111620
_cell_angle_gamma 75.318553
_cell_volume 720.512843
_symmetry_space_group_name_H-M "P -1"
_symmetry_group_IT_number 2
_symmetry_cell_setting 'triclinic'
loop_
_space_group_symop_operation_xyz
x,y,z
-x,-y,-z
loop_
_atom_site_type_symbol
_atom_site_label
_atom_site_fract_x
_atom_site_fract_y
_atom_site_fract_z
Si Si1 0.912800 0.187480 0.121161
Si Si2 0.413100 0.750692 0.809735
Si Si3 0.828834 0.386843 0.672686
Si Si4 0.897623 0.258616 0.932309
Si Si5 0.780856 0.718154 0.669904
Si Si6 0.685229 0.802193 0.467744
Si Si7 0.309604 0.554305 0.546602
Si Si8 0.624336 0.880491 0.170073
O O1 0.000317 0.495431 0.248995
O O2 0.694316 0.216996 0.123511
O O3 0.996452 0.939287 0.083513
O O4 0.000000 0.000000 0.000000
O O5 0.630169 0.584536 0.762689
O O6 0.294186 0.530181 0.689088
O O7 0.388717 0.036354 0.868283
O O8 0.806825 0.487330 0.641355
O O9 0.829065 0.015154 0.544867
O O10 0.893119 0.982310 0.782821
O O11 0.708961 0.498012 0.035563
O O12 0.000000 0.500000 0.000000
O O13 0.818544 0.519809 0.538732
O O14 0.576698 0.955695 0.754419
O O15 0.665878 0.709176 0.498708
O O16 0.500000 0.000000 0.500000
O O17 0.500000 0.500000 0.500000
O O18 0.265911 0.903254 0.706134
#
# Coordination Sequence:
#
# PCOD9054609 Si02
#       8
#     2   2   2   2   2   2   2   2
#     4  11  24  40  54  81 117 145 194 241 269 328
#     4   9  18  37  60  80 112 150 180 230 286 331
#     4   9  20  38  60  81 112 153 185 222 291 344
#     4  11  21  37  58  75 111 155 185 224 289 338
#     4   9  19  35  57  86 111 139 189 240 274 331
#     4   9  17  33  58  84 114 150 184 220 289 347
#     4   9  17  32  57  89 114 135 184 247 272 322
#     4   9  17  35  59  81 110 146 184 225 287 337
#
# _framework density 22.206403999999999
#
# number of rings (size 3 to 8) (size 9 to 14) (size 15 to 20)
#    0.000    2.500    1.250    2.625    0.000    2.000 
#   11.250    0.625    0.000    0.000    0.000    0.000 
#    0.000    0.000    0.000    0.000    0.000    0.000 
#
# Total GULP energy -89147.703821 kJ/mol
# GULP energy per Si atom -5571.731489 kJ/mol
# Density = 2.215586 g / cm^3
# Si number density = 22.206404 Si / 1000 Ang^3
#
#
#
# Elastic Constant Matrix: (Units=GPa)
#
#
# Indices 1 2 3 4 5 6 
#
# 1 97.5356 12.9305 4.9898 0.1322 -11.2471 13.8016
# 2 12.9305 53.2641 22.5613 3.5928 10.6385 18.8925
# 3 4.9898 22.5613 40.9777 -5.2923 11.2576 7.0553
# 4 0.1322 3.5928 -5.2923 40.7565 3.9666 -1.6310
# 5 -11.2471 10.6385 11.2576 3.9666 39.6491 10.1358
# 6 13.8016 18.8925 7.0553 -1.6310 10.1358 32.1397
#
#
#
# Elastic Compliance Matrix: (Units=1/GPa)
#
#
# Indices 1 2 3 4 5 6 
#
# 1 0.012005 -0.001289 -0.001430 -0.000911 0.005769 -0.005949
# 2 -0.001289 0.031024 -0.015045 -0.005253 -0.000162 -0.014596
# 3 -0.001430 -0.015045 0.035213 0.006894 -0.008253 0.004681
# 4 -0.000911 -0.005253 0.006894 0.026545 -0.004686 0.004790
# 5 0.005769 -0.000162 -0.008253 -0.004686 0.032544 -0.011072
# 6 -0.005949 -0.014596 0.004681 0.004790 -0.011072 0.044956
#
#
# Mechanical properties :
#
#
# Convention : Reuss Voigt Hill
#
# Bulk Modulus (GPa) = 23.41230 30.30451 26.85840
# Shear Modulus (GPa) = 21.54687 32.59545 27.07116
#
# Velocity S-wave (km/s) = 3.11834 3.83540 3.49531
# Velocity P-wave (km/s) = 4.85091 5.76975 5.33017
#
# Compressibility (1/GPa) = 0.04271260
#
# Stress axis : x y z
#
# Youngs Moduli (GPa) = 83.29785 32.23361 28.39880
#
# Poissons Ratio (x) = 0.04156 0.04062
# Poissons Ratio (y) = 0.10740 0.42725
# Poissons Ratio (z) = 0.11914 0.48495
#
# Static dielectric constant tensor:
#      x y z
#    x 2.046240 -0.033630 0.054560 
#    y -0.033630 1.802460 -0.121740 
#    z 0.054560 -0.121740 2.120510 
# 
# From -- ./inp_files/203676.got.cif
#   From: 2010.05.17/outbox.cif.g08.bks.cpg/sg2_102_cif.got.tgz:203676.got - 2010.06.03 11:33:40.
