data_PCOD9054055
_publ_section_title
;
Structure prediction by ZEFSAII (Michael W. Deem and Ramdas Pophale) SiO2 
 PCOD9054055
Probable space group: P -1
;
_chemical_formula_sum "Si O2"
_cell_formula_units_Z 12
_cell_length_a 8.300988
_cell_length_b 8.530114
_cell_length_c 6.760357
_cell_angle_alpha 76.181288
_cell_angle_beta 109.124404
_cell_angle_gamma 108.112326
_cell_volume 424.828215
_symmetry_space_group_name_H-M "P -1"
_symmetry_group_IT_number 2
_symmetry_cell_setting 'triclinic'
loop_
_space_group_symop_operation_xyz
x,y,z
-x,-y,-z
loop_
_atom_site_type_symbol
_atom_site_label
_atom_site_fract_x
_atom_site_fract_y
_atom_site_fract_z
Si Si1 0.790090 0.105179 0.729759
Si Si2 0.427250 0.148838 0.025167
Si Si3 0.038029 0.254598 0.136457
Si Si4 0.662852 0.416076 0.557195
Si Si5 0.147209 0.246941 0.601562
Si Si6 0.758800 0.439089 0.046803
O O1 0.667696 0.226547 0.575286
O O2 0.956756 0.156260 0.637146
O O3 0.892053 0.135379 0.977733
O O4 0.665927 0.926533 0.787121
O O5 0.300092 0.187722 0.792499
O O6 0.576113 0.320449 0.081866
O O7 0.500000 0.000000 0.000000
O O8 0.139008 0.203008 0.377414
O O9 0.168535 0.361555 0.990514
O O10 0.920389 0.359459 0.175605
O O11 0.500000 0.500000 0.500000
O O12 0.792202 0.548808 0.426304
O O13 0.738767 0.421870 0.805943
#
# Coordination Sequence:
#
# PCOD9054055 Si02
#       6
#     2   2   2   2   2   2
#     4  11  23  40  64  94 127 162 205 261 311 362
#     4  12  21  40  65  89 129 169 200 254 323 366
#     4   9  20  39  66  88 123 161 208 256 311 361
#     4  10  17  35  63  89 116 163 208 241 301 370
#     4  11  23  38  67  92 122 166 213 249 308 379
#     4   9  18  36  62  89 121 163 200 254 305 368
#
# _framework density 28.246714000000001
#
# number of rings (size 3 to 8) (size 9 to 14) (size 15 to 20)
#    0.000    1.667    5.000    2.000    0.000    0.667 
#    0.000    1.667   11.000    3.000    0.000    0.000 
#    0.000    0.000    0.000    0.000    0.000    0.000 
#
# Total GULP energy -67061.699450 kJ/mol
# GULP energy per Si atom -5588.474954 kJ/mol
# Density = 2.818242 g / cm^3
# Si number density = 28.246714 Si / 1000 Ang^3
#
#
#
# Elastic Constant Matrix: (Units=GPa)
#
#
# Indices 1 2 3 4 5 6 
#
# 1 167.4407 71.1528 75.2736 -25.5965 4.8258 28.3085
# 2 71.1528 148.1694 56.2535 -47.3332 10.1381 49.8247
# 3 75.2736 56.2535 184.3379 -34.9188 20.1746 18.7631
# 4 -25.5965 -47.3332 -34.9188 59.2998 13.4465 -8.2048
# 5 4.8258 10.1381 20.1746 13.4465 53.2688 -15.4703
# 6 28.3085 49.8247 18.7631 -8.2048 -15.4703 62.9381
#
#
#
# Elastic Compliance Matrix: (Units=1/GPa)
#
#
# Indices 1 2 3 4 5 6 
#
# 1 0.008471 -0.003287 -0.002695 -0.000819 0.001009 -0.000263
# 2 -0.003287 0.017805 0.001215 0.014115 -0.011144 -0.013878
# 3 -0.002695 0.001215 0.007998 0.005308 -0.005142 -0.002706
# 4 -0.000819 0.014115 0.005308 0.032956 -0.016467 -0.012139
# 5 0.001009 -0.011144 -0.005142 -0.016467 0.031400 0.015473
# 6 -0.000263 -0.013878 -0.002706 -0.012139 0.015473 0.030021
#
#
# Mechanical properties :
#
#
# Convention : Reuss Voigt Hill
#
# Bulk Modulus (GPa) = 40.42050 100.58974 70.50512
# Shear Modulus (GPa) = 34.14585 54.91920 44.53253
#
# Velocity S-wave (km/s) = 3.48061 4.41417 3.97489
# Velocity P-wave (km/s) = 5.52212 7.85292 6.78830
#
# Compressibility (1/GPa) = 0.02473992
#
# Stress axis : x y z
#
# Youngs Moduli (GPa) = 118.05530 56.16553 125.02955
#
# Poissons Ratio (x) = 0.18461 0.33692
# Poissons Ratio (y) = 0.38803 -0.15190
# Poissons Ratio (z) = 0.31813 -0.06824
#
# Static dielectric constant tensor:
#      x y z
#    x 2.416660 -0.141190 0.023640 
#    y -0.141190 2.486050 -0.048850 
#    z 0.023640 -0.048850 2.148200 
# 
# From -- ./inp_files/184539.got.cif
#   From: 2010.05.17/outbox.cif.g08.bks.cpg/sg2_93_cif.got.tgz:184539.got - 2010.06.03 11:33:40.
