data_PCOD9054967
_publ_section_title
;
Structure prediction by ZEFSAII (Michael W. Deem and Ramdas Pophale) SiO2 
 PCOD9054967
Probable space group: P -1
;
_chemical_formula_sum "Si O2"
_cell_formula_units_Z 14
_cell_length_a 15.317659
_cell_length_b 10.564921
_cell_length_c 8.431782
_cell_angle_alpha 121.393452
_cell_angle_beta 76.108198
_cell_angle_gamma 57.430091
_cell_volume 677.544200
_symmetry_space_group_name_H-M "P -1"
_symmetry_group_IT_number 2
_symmetry_cell_setting 'triclinic'
loop_
_space_group_symop_operation_xyz
x,y,z
-x,-y,-z
loop_
_atom_site_type_symbol
_atom_site_label
_atom_site_fract_x
_atom_site_fract_y
_atom_site_fract_z
Si Si1 0.416643 0.730695 0.468620
Si Si2 0.303015 0.303933 0.372592
Si Si3 0.967359 0.166140 0.253805
Si Si4 0.592518 0.108488 0.095052
Si Si5 0.715896 0.370565 0.723410
Si Si6 0.271874 0.808121 0.069794
Si Si7 0.539255 0.076226 0.660107
O O1 0.367255 0.852761 0.740629
O O2 0.355280 0.655465 0.384284
O O3 0.382410 0.898399 0.460389
O O4 0.596964 0.473114 0.235609
O O5 0.132329 0.578819 0.624751
O O6 0.417392 0.291470 0.292616
O O7 0.361871 0.138608 0.392441
O O8 0.328196 0.155200 0.121503
O O9 0.858834 0.250990 0.496539
O O10 0.122552 0.007316 0.162059
O O11 0.000000 0.000000 0.000000
O O12 0.652173 0.130459 0.939129
O O13 0.756395 0.217348 0.759442
O O14 0.602082 0.649730 0.018365
O O15 0.500000 0.000000 0.500000
#
# Coordination Sequence:
#
# PCOD9054967 Si02
#       7
#     2   2   2   2   2   2   2
#     4  11  21  40  70 100 126 166 224 270 319 374
#     4  11  23  41  63  98 131 166 217 271 327 376
#     4  12  26  42  64  91 133 176 214 259 327 398
#     4  11  21  39  68  97 128 166 220 275 316 375
#     4  11  24  44  67  97 131 170 220 272 314 382
#     4  11  23  40  63  95 132 172 210 261 322 385
#     4  11  22  40  68 100 128 166 215 274 321 368
#
# _framework density 20.662859000000001
#
# number of rings (size 3 to 8) (size 9 to 14) (size 15 to 20)
#    0.000    0.857    1.429    8.571    2.000    0.571 
#    0.000    0.000    0.000    3.429    0.000    0.000 
#    0.000    0.000    0.000    0.000    0.000    0.000 
#
# Total GULP energy -78200.057377 kJ/mol
# GULP energy per Si atom -5585.718384 kJ/mol
# Density = 2.061583 g / cm^3
# Si number density = 20.662859 Si / 1000 Ang^3
#
#
#
# Elastic Constant Matrix: (Units=GPa)
#
#
# Indices 1 2 3 4 5 6 
#
# 1 113.9257 61.4280 42.0913 8.8050 11.3061 -3.6579
# 2 61.4280 156.8558 47.5076 13.1312 -5.5309 6.4700
# 3 42.0913 47.5076 90.2267 -0.3607 17.2803 -16.6114
# 4 8.8050 13.1312 -0.3607 36.7541 -2.5603 -10.2413
# 5 11.3061 -5.5309 17.2803 -2.5603 42.1405 -4.4111
# 6 -3.6579 6.4700 -16.6114 -10.2413 -4.4111 42.4982
#
#
#
# Elastic Compliance Matrix: (Units=1/GPa)
#
#
# Indices 1 2 3 4 5 6 
#
# 1 0.012464 -0.003748 -0.003434 -0.001986 -0.002595 -0.000447
# 2 -0.003748 0.009978 -0.005021 -0.003657 0.003701 -0.004301
# 3 -0.003434 -0.005021 0.017963 0.004598 -0.005989 0.007976
# 4 -0.001986 -0.003657 0.004598 0.031899 0.001151 0.009990
# 5 -0.002595 0.003701 -0.005989 0.001151 0.027438 -0.000003
# 6 -0.000447 -0.004301 0.007976 0.009990 -0.000003 0.029672
#
#
# Mechanical properties :
#
#
# Convention : Reuss Voigt Hill
#
# Bulk Modulus (GPa) = 62.50442 73.67356 68.08899
# Shear Modulus (GPa) = 31.41663 38.27731 34.84697
#
# Velocity S-wave (km/s) = 3.90351 4.30870 4.11110
# Velocity P-wave (km/s) = 7.11561 7.77725 7.45378
#
# Compressibility (1/GPa) = 0.01599887
#
# Stress axis : x y z
#
# Youngs Moduli (GPa) = 80.23117 100.22387 55.67049
#
# Poissons Ratio (x) = 0.37562 0.19120
# Poissons Ratio (y) = 0.30069 0.27950
# Poissons Ratio (z) = 0.27555 0.50319
#
# Static dielectric constant tensor:
#      x y z
#    x 1.746930 0.004190 0.011860 
#    y 0.004190 1.802400 -0.022210 
#    z 0.011860 -0.022210 1.740440 
# 
# From -- ./inp_files/305888.got.cif
#   From: 2010.05.17/outbox.cif.g08.bks.cpg/sg2_153_cif.got.tgz:305888.got - 2010.06.03 11:33:40.
