data_PCOD9054103
_publ_section_title
;
Structure prediction by ZEFSAII (Michael W. Deem and Ramdas Pophale) SiO2 
 PCOD9054103
Probable space group: P -1
;
_chemical_formula_sum "Si O2"
_cell_formula_units_Z 14
_cell_length_a 8.937751
_cell_length_b 9.793617
_cell_length_c 12.786503
_cell_angle_alpha 121.039093
_cell_angle_beta 115.580437
_cell_angle_gamma 101.924047
_cell_volume 719.290928
_symmetry_space_group_name_H-M "P -1"
_symmetry_group_IT_number 2
_symmetry_cell_setting 'triclinic'
loop_
_space_group_symop_operation_xyz
x,y,z
-x,-y,-z
loop_
_atom_site_type_symbol
_atom_site_label
_atom_site_fract_x
_atom_site_fract_y
_atom_site_fract_z
Si Si1 0.488002 0.493965 0.698931
Si Si2 0.042711 0.845506 0.482856
Si Si3 0.068412 0.217630 0.133948
Si Si4 0.069538 0.359068 0.424092
Si Si5 0.464824 0.109664 0.619462
Si Si6 0.838719 0.333976 0.963857
Si Si7 0.646038 0.482758 0.117626
O O1 0.696607 0.631526 0.758737
O O2 0.304558 0.456304 0.557447
O O3 0.457630 0.290942 0.646876
O O4 0.479812 0.592506 0.842867
O O5 0.034506 0.810522 0.589524
O O6 0.858739 0.660782 0.296990
O O7 0.264827 0.941779 0.548201
O O8 0.000000 0.000000 0.500000
O O9 0.027725 0.274188 0.259888
O O10 0.952021 0.258701 0.029870
O O11 0.000000 0.000000 0.000000
O O12 0.000000 0.500000 0.500000
O O13 0.654554 0.189014 0.780502
O O14 0.500000 0.000000 0.500000
O O15 0.728390 0.381535 0.036140
O O16 0.000000 0.500000 0.000000
O O17 0.500000 0.500000 0.000000
#
# Coordination Sequence:
#
# PCOD9054103 Si02
#       7
#     2   2   2   2   2   2   2
#     4  11  24  47  69  99 141 186 226 289 350 412
#     4  11  22  42  69 102 131 177 239 281 333 414
#     4  12  28  46  69 104 144 185 229 291 354 417
#     4  11  26  47  72  98 143 188 226 283 356 426
#     4  12  25  40  72 107 135 177 239 291 335 411
#     4  12  24  45  70 100 137 185 231 287 345 408
#     4  11  20  40  69 102 136 172 225 291 346 391
#
# _framework density 19.463612999999999
#
# number of rings (size 3 to 8) (size 9 to 14) (size 15 to 20)
#    0.000    0.571    5.714    3.000    4.000    4.571 
#    0.000    2.143    0.000    0.000    0.000    0.000 
#    0.000    0.000    0.000    0.000    0.000    0.000 
#
# Total GULP energy -77962.872845 kJ/mol
# GULP energy per Si atom -5568.776632 kJ/mol
# Density = 1.941931 g / cm^3
# Si number density = 19.463613 Si / 1000 Ang^3
#
#
#
# Elastic Constant Matrix: (Units=GPa)
#
#
# Indices 1 2 3 4 5 6 
#
# 1 159.0051 70.0241 68.0025 -0.9402 3.1044 8.7069
# 2 70.0241 123.3450 52.9882 -14.6283 -6.8881 -1.5227
# 3 68.0025 52.9882 134.8110 -24.9112 -7.1309 8.9483
# 4 -0.9402 -14.6283 -24.9112 23.6417 0.5068 12.3403
# 5 3.1044 -6.8881 -7.1309 0.5068 54.4722 -2.5478
# 6 8.7069 -1.5227 8.9483 12.3403 -2.5478 42.3747
#
#
#
# Elastic Compliance Matrix: (Units=1/GPa)
#
#
# Indices 1 2 3 4 5 6 
#
# 1 0.010575 -0.004887 -0.005176 -0.008618 -0.001764 0.001148
# 2 -0.004887 0.012172 -0.001093 0.006164 0.001616 -0.000026
# 3 -0.005176 -0.001093 0.014316 0.017884 0.001532 -0.007115
# 4 -0.008618 0.006164 0.017884 0.077184 0.001764 -0.024156
# 5 -0.001764 0.001616 0.001532 0.001764 0.018881 0.000719
# 6 0.001148 -0.000026 -0.007115 -0.024156 0.000719 0.031942
#
#
# Mechanical properties :
#
#
# Convention : Reuss Voigt Hill
#
# Bulk Modulus (GPa) = 67.78551 88.79896 78.29223
# Shear Modulus (GPa) = 26.00105 39.17414 32.58759
#
# Velocity S-wave (km/s) = 3.65893 4.49116 4.09624
# Velocity P-wave (km/s) = 7.26311 8.52151 7.91735
#
# Compressibility (1/GPa) = 0.01475242
#
# Stress axis : x y z
#
# Youngs Moduli (GPa) = 94.55959 82.15506 69.85051
#
# Poissons Ratio (x) = 0.40146 0.36154
# Poissons Ratio (y) = 0.46208 0.07636
# Poissons Ratio (z) = 0.48943 0.08981
#
# Static dielectric constant tensor:
#      x y z
#    x 1.786090 0.106000 0.068060 
#    y 0.106000 1.802140 0.076180 
#    z 0.068060 0.076180 1.622580 
# 
# From -- ./inp_files/155607.got.cif
#   From: 2010.05.17/outbox.cif.g08.bks.cpg/sg2_78_cif.got.tgz:155607.got - 2010.06.03 11:33:40.
