data_PCOD9054317
_publ_section_title
;
Structure prediction by ZEFSAII (Michael W. Deem and Ramdas Pophale) SiO2 
 PCOD9054317
Probable space group: P -1
;
_chemical_formula_sum "Si O2"
_cell_formula_units_Z 16
_cell_length_a 17.727739
_cell_length_b 8.073042
_cell_length_c 11.067855
_cell_angle_alpha 116.745910
_cell_angle_beta 146.610185
_cell_angle_gamma 55.133031
_cell_volume 713.926925
_symmetry_space_group_name_H-M "P -1"
_symmetry_group_IT_number 2
_symmetry_cell_setting 'triclinic'
loop_
_space_group_symop_operation_xyz
x,y,z
-x,-y,-z
loop_
_atom_site_type_symbol
_atom_site_label
_atom_site_fract_x
_atom_site_fract_y
_atom_site_fract_z
Si Si1 0.527808 0.099221 0.952471
Si Si2 0.953256 0.520627 0.082439
Si Si3 0.433151 0.744146 0.504101
Si Si4 0.258966 0.692806 0.924372
Si Si5 0.746963 0.543635 0.408813
Si Si6 0.876036 0.178211 0.970499
Si Si7 0.421649 0.631624 0.713115
Si Si8 0.321079 0.090848 0.117496
O O1 0.378771 0.237115 0.725790
O O2 0.647736 0.911665 0.983159
O O3 0.592850 0.252914 0.141989
O O4 0.500000 0.000000 0.000000
O O5 0.094884 0.459557 0.340317
O O6 0.866490 0.381520 0.958348
O O7 0.840806 0.751534 0.017758
O O8 0.000000 0.500000 0.000000
O O9 0.500000 0.500000 0.500000
O O10 0.279225 0.846714 0.260999
O O11 0.385440 0.768499 0.590400
O O12 0.549028 0.837549 0.641763
O O13 0.229119 0.603400 0.726702
O O14 0.123833 0.778945 0.870252
O O15 0.402809 0.508734 0.110195
O O16 0.323694 0.867415 0.058494
O O17 0.681210 0.486502 0.426500
O O18 0.000000 0.000000 0.000000
#
# Coordination Sequence:
#
# PCOD9054317 Si02
#       8
#     2   2   2   2   2   2   2   2
#     4  11  22  42  70 106 135 175 234 285 338 414
#     4  12  28  49  68 100 144 185 231 287 348 417
#     4  12  24  44  71  98 134 189 229 287 351 398
#     4  11  23  45  70 102 138 179 232 291 340 418
#     4  11  25  44  72 104 140 185 225 287 358 403
#     4  12  28  47  65  99 142 182 236 289 346 414
#     4  11  20  42  71 100 141 172 231 287 336 416
#     4  12  24  45  69 103 134 177 238 281 337 421
#
# _framework density 22.411256000000002
#
# number of rings (size 3 to 8) (size 9 to 14) (size 15 to 20)
#    0.000    0.500    6.250    2.250    3.500    1.500 
#    2.250    0.000    0.000    0.000    0.000    0.000 
#    0.000    0.000    0.000    0.000    0.000    0.000 
#
# Total GULP energy -89168.352112 kJ/mol
# GULP energy per Si atom -5573.022007 kJ/mol
# Density = 2.236025 g / cm^3
# Si number density = 22.411256 Si / 1000 Ang^3
#
#
#
# Elastic Constant Matrix: (Units=GPa)
#
#
# Indices 1 2 3 4 5 6 
#
# 1 122.6214 11.7828 14.0425 2.1588 -8.1590 -23.5814
# 2 11.7828 71.7560 2.6698 5.6565 -2.5259 -23.2540
# 3 14.0425 2.6698 68.6517 1.8540 -9.7321 -11.7801
# 4 2.1588 5.6565 1.8540 18.8615 0.3007 7.4437
# 5 -8.1590 -2.5259 -9.7321 0.3007 28.8629 1.0117
# 6 -23.5814 -23.2540 -11.7801 7.4437 1.0117 56.3670
#
#
#
# Elastic Compliance Matrix: (Units=1/GPa)
#
#
# Indices 1 2 3 4 5 6 
#
# 1 0.009208 0.000113 -0.000808 -0.002638 0.002226 0.004038
# 2 0.000113 0.017423 0.001269 -0.008797 0.001774 0.008630
# 3 -0.000808 0.001269 0.016197 -0.003519 0.005242 0.003941
# 4 -0.002638 -0.008797 -0.003519 0.061703 -0.002869 -0.013565
# 5 0.002226 0.001774 0.005242 -0.002869 0.037142 0.002471
# 6 0.004038 0.008630 0.003941 -0.013565 0.002471 0.025561
#
#
# Mechanical properties :
#
#
# Convention : Reuss Voigt Hill
#
# Bulk Modulus (GPa) = 22.73960 35.55769 29.14865
# Shear Modulus (GPa) = 27.66332 36.45389 32.05860
#
# Velocity S-wave (km/s) = 3.51714 4.03747 3.78626
# Velocity P-wave (km/s) = 5.16355 6.13477 5.66999
#
# Compressibility (1/GPa) = 0.04397615
#
# Stress axis : x y z
#
# Youngs Moduli (GPa) = 108.60063 57.39526 61.74099
#
# Poissons Ratio (x) = -0.00649 0.04989
# Poissons Ratio (y) = -0.01228 -0.07836
# Poissons Ratio (z) = 0.08776 -0.07285
#
# Static dielectric constant tensor:
#      x y z
#    x 1.913340 0.004200 0.011140 
#    y 0.004200 1.986380 0.158520 
#    z 0.011140 0.158520 1.930490 
# 
# From -- ./inp_files/462368.got.cif
#   From: 2010.05.17/outbox.cif.g08.bks.cpg/sg2_232_cif.got.tgz:462368.got - 2010.06.03 11:33:40.
