data_PCOD9054461
_publ_section_title
;
Structure prediction by ZEFSAII (Michael W. Deem and Ramdas Pophale) SiO2 
 PCOD9054461
Probable space group: P -1
;
_chemical_formula_sum "Si O2"
_cell_formula_units_Z 16
_cell_length_a 8.276988
_cell_length_b 7.832822
_cell_length_c 13.642689
_cell_angle_alpha 52.190222
_cell_angle_beta 80.169287
_cell_angle_gamma 98.573320
_cell_volume 650.922086
_symmetry_space_group_name_H-M "P -1"
_symmetry_group_IT_number 2
_symmetry_cell_setting 'triclinic'
loop_
_space_group_symop_operation_xyz
x,y,z
-x,-y,-z
loop_
_atom_site_type_symbol
_atom_site_label
_atom_site_fract_x
_atom_site_fract_y
_atom_site_fract_z
Si Si1 0.784599 0.767866 0.683515
Si Si2 0.998303 0.445139 0.696470
Si Si3 0.041434 0.861722 0.792615
Si Si4 0.329355 0.218527 0.517164
Si Si5 0.658215 0.067933 0.813165
Si Si6 0.032943 0.664662 0.059161
Si Si7 0.579768 0.309084 0.922797
Si Si8 0.326034 0.679421 0.456673
O O1 0.741248 0.874044 0.550709
O O2 0.614323 0.575316 0.808879
O O3 0.899962 0.617363 0.682684
O O4 0.896041 0.890511 0.721957
O O5 0.140794 0.588636 0.557453
O O6 0.857618 0.224420 0.743434
O O7 0.057769 0.343964 0.823191
O O8 0.043904 0.602602 0.868454
O O9 0.216115 0.048863 0.671189
O O10 0.008995 0.841169 0.919710
O O11 0.320984 0.469605 0.458126
O O12 0.532056 0.266402 0.492187
O O13 0.566464 0.191614 0.858269
O O14 0.615130 0.097687 0.695521
O O15 0.585737 0.813472 0.950965
O O16 0.241735 0.714837 0.039110
#
# Coordination Sequence:
#
# PCOD9054461 Si02
#       8
#     2   2   2   2   2   2   2   2
#     4   9  18  34  54  77  97 132 169 216 241 291
#     4   9  18  33  51  74 104 130 169 210 247 289
#     4   9  17  32  56  74  96 130 177 207 245 295
#     4  11  21  32  49  77 105 136 163 200 260 302
#     4   9  15  27  50  71  97 132 163 200 240 290
#     4   8  16  32  53  78  95 125 174 219 240 284
#     4   8  14  26  47  76  95 118 167 208 238 281
#     4  11  21  32  48  75 111 135 160 206 250 306
#
# _framework density 24.580514000000001
#
# number of rings (size 3 to 8) (size 9 to 14) (size 15 to 20)
#    0.000    3.250    2.500    1.500    0.000    0.000 
#    0.000    3.125    0.000    0.750    0.000    0.000 
#    0.000    0.000    0.000    0.000    0.000    0.000 
#
# Total GULP energy -89277.749674 kJ/mol
# GULP energy per Si atom -5579.859355 kJ/mol
# Density = 2.452457 g / cm^3
# Si number density = 24.580514 Si / 1000 Ang^3
#
#
#
# Elastic Constant Matrix: (Units=GPa)
#
#
# Indices 1 2 3 4 5 6 
#
# 1 41.7774 16.8955 37.0867 0.3755 3.3806 4.1381
# 2 16.8955 54.5029 21.0230 5.7470 6.4417 -3.1141
# 3 37.0867 21.0230 198.9168 2.6009 -6.1593 16.2035
# 4 0.3755 5.7470 2.6009 42.9503 16.9454 6.1064
# 5 3.3806 6.4417 -6.1593 16.9454 26.3308 -1.1003
# 6 4.1381 -3.1141 16.2035 6.1064 -1.1003 25.1602
#
#
#
# Elastic Compliance Matrix: (Units=1/GPa)
#
#
# Indices 1 2 3 4 5 6 
#
# 1 0.032671 -0.008098 -0.005130 0.004221 -0.006313 -0.004372
# 2 -0.008098 0.022291 -0.001347 -0.002446 -0.002928 0.005424
# 3 -0.005130 -0.001347 0.006486 -0.000878 0.002938 -0.003158
# 4 0.004221 -0.002446 -0.000878 0.033788 -0.022295 -0.009607
# 5 -0.006313 -0.002928 0.002938 -0.022295 0.054816 0.006592
# 6 -0.004372 0.005424 -0.003158 -0.009607 0.006592 0.045790
#
#
# Mechanical properties :
#
#
# Convention : Reuss Voigt Hill
#
# Bulk Modulus (GPa) = 30.96038 49.46748 40.21393
# Shear Modulus (GPa) = 21.20822 33.56772 27.38797
#
# Velocity S-wave (km/s) = 2.94054 3.69944 3.34161
# Velocity P-wave (km/s) = 4.91446 6.19808 5.59321
#
# Compressibility (1/GPa) = 0.03229935
#
# Stress axis : x y z
#
# Youngs Moduli (GPa) = 30.60789 44.86073 154.18486
#
# Poissons Ratio (x) = 0.36328 0.79097
# Poissons Ratio (y) = 0.24786 0.20762
# Poissons Ratio (z) = 0.15702 0.06041
#
# Static dielectric constant tensor:
#      x y z
#    x 2.056590 -0.018190 0.041440 
#    y -0.018190 2.011690 0.048950 
#    z 0.041440 0.048950 1.968940 
# 
# From -- ./inp_files/498861.got.cif
#   From: 2010.05.17/outbox.cif.g08.bks.cpg/sg2_250_cif.got.tgz:498861.got - 2010.06.03 11:33:40.
