data_PCOD9054491
_publ_section_title
;
Structure prediction by ZEFSAII (Michael W. Deem and Ramdas Pophale) SiO2 
 PCOD9054491
Probable space group: P -1
;
_chemical_formula_sum "Si O2"
_cell_formula_units_Z 14
_cell_length_a 15.095858
_cell_length_b 21.553588
_cell_length_c 8.354057
_cell_angle_alpha 151.297901
_cell_angle_beta 137.392093
_cell_angle_gamma 24.566379
_cell_volume 516.133954
_symmetry_space_group_name_H-M "P -1"
_symmetry_group_IT_number 2
_symmetry_cell_setting 'triclinic'
loop_
_space_group_symop_operation_xyz
x,y,z
-x,-y,-z
loop_
_atom_site_type_symbol
_atom_site_label
_atom_site_fract_x
_atom_site_fract_y
_atom_site_fract_z
Si Si1 0.247505 0.653339 0.330737
Si Si2 0.506753 0.688736 0.828539
Si Si3 0.825317 0.602812 0.851994
Si Si4 0.878122 0.860758 0.760814
Si Si5 0.417638 0.862131 0.686215
Si Si6 0.064491 0.316598 0.080512
Si Si7 0.132279 0.881891 0.237021
O O1 0.415150 0.640040 0.488383
O O2 0.366248 0.483821 0.249762
O O3 0.135198 0.625711 0.020338
O O4 0.014478 0.920934 0.640545
O O5 0.664394 0.676463 0.943309
O O6 0.277524 0.951492 0.156157
O O7 0.665270 0.686811 0.680229
O O8 0.905811 0.674087 0.046728
O O9 0.053034 0.341962 0.599077
O O10 0.107371 0.756737 0.858927
O O11 0.731000 0.005744 0.051253
O O12 0.365748 0.766051 0.315987
O O13 0.297347 0.065759 0.878202
O O14 0.000000 0.500000 0.500000
O O15 0.000000 0.000000 0.500000
#
# Coordination Sequence:
#
# PCOD9054491 Si02
#       7
#     2   2   2   2   2   2   2
#     4   9  19  39  62  80 117 154 184 238 286 328
#     4   9  20  40  62  81 110 154 197 231 278 333
#     4  11  21  34  60  84 115 150 191 236 279 345
#     4   9  17  33  54  83 114 144 186 243 278 327
#     4   9  18  34  53  79 115 153 184 230 286 337
#     4  11  21  37  59  85 120 152 184 235 293 339
#     4   8  15  30  55  81 110 144 183 228 286 328
#
# _framework density 27.124741
#
# number of rings (size 3 to 8) (size 9 to 14) (size 15 to 20)
#    0.000    2.571    1.429    1.286    0.000    1.143 
#    2.571    7.143    6.286    0.000    0.000    0.000 
#    0.000    0.000    0.000    0.000    0.000    0.000 
#
# Total GULP energy -78017.373779 kJ/mol
# GULP energy per Si atom -5572.669556 kJ/mol
# Density = 2.706300 g / cm^3
# Si number density = 27.124741 Si / 1000 Ang^3
#
#
#
# Elastic Constant Matrix: (Units=GPa)
#
#
# Indices 1 2 3 4 5 6 
#
# 1 108.7063 36.2458 26.7827 17.1530 16.8296 -10.8303
# 2 36.2458 147.1646 7.5599 19.1621 14.9587 -8.2588
# 3 26.7827 7.5599 82.5013 -5.7927 24.8300 7.2881
# 4 17.1530 19.1621 -5.7927 43.8362 9.7613 29.7130
# 5 16.8296 14.9587 24.8300 9.7613 32.0618 7.0491
# 6 -10.8303 -8.2588 7.2881 29.7130 7.0491 57.3695
#
#
#
# Elastic Compliance Matrix: (Units=1/GPa)
#
#
# Indices 1 2 3 4 5 6 
#
# 1 0.013994 -0.000923 -0.005977 -0.012301 -0.000679 0.009723
# 2 -0.000923 0.008272 -0.000633 -0.005846 -0.002067 0.004379
# 3 -0.005977 -0.000633 0.020617 0.015470 -0.015045 -0.010002
# 4 -0.012301 -0.005846 0.015470 0.057816 -0.013039 -0.033471
# 5 -0.000679 -0.002067 -0.015045 -0.013039 0.047606 0.002389
# 6 0.009723 0.004379 -0.010002 -0.033471 0.002389 0.038209
#
#
# Mechanical properties :
#
#
# Convention : Reuss Voigt Hill
#
# Bulk Modulus (GPa) = 35.95002 53.28324 44.61663
# Shear Modulus (GPa) = 23.71306 44.50576 34.10941
#
# Velocity S-wave (km/s) = 2.95993 4.05505 3.54997
# Velocity P-wave (km/s) = 4.99640 6.45066 5.76953
#
# Compressibility (1/GPa) = 0.02781640
#
# Stress axis : x y z
#
# Youngs Moduli (GPa) = 71.45782 120.88783 48.50373
#
# Poissons Ratio (x) = 0.11162 0.28989
# Poissons Ratio (y) = 0.06598 0.03072
# Poissons Ratio (z) = 0.42708 0.07658
#
# Static dielectric constant tensor:
#      x y z
#    x 2.176050 0.030830 -0.006410 
#    y 0.030830 2.168090 -0.070420 
#    z -0.006410 -0.070420 2.138840 
# 
# From -- ./inp_files/422629.got.cif
#   From: 2010.05.17/outbox.cif.g08.bks.cpg/sg2_212_cif.got.tgz:422629.got - 2010.06.03 11:33:40.
