data_PCOD9054957
_publ_section_title
;
Structure prediction by ZEFSAII (Michael W. Deem and Ramdas Pophale) SiO2 
 PCOD9054957
Probable space group: P -1
;
_chemical_formula_sum "Si O2"
_cell_formula_units_Z 14
_cell_length_a 12.120278
_cell_length_b 11.462377
_cell_length_c 8.433242
_cell_angle_alpha 85.980693
_cell_angle_beta 38.986656
_cell_angle_gamma 105.267556
_cell_volume 634.042716
_symmetry_space_group_name_H-M "P -1"
_symmetry_group_IT_number 2
_symmetry_cell_setting 'triclinic'
loop_
_space_group_symop_operation_xyz
x,y,z
-x,-y,-z
loop_
_atom_site_type_symbol
_atom_site_label
_atom_site_fract_x
_atom_site_fract_y
_atom_site_fract_z
Si Si1 0.522673 0.226412 0.169877
Si Si2 0.143584 0.487170 0.205392
Si Si3 0.240817 0.270678 0.236268
Si Si4 0.598529 0.851319 0.150589
Si Si5 0.148827 0.749231 0.672045
Si Si6 0.199505 0.988094 0.779417
Si Si7 0.214757 0.890948 0.260303
O O1 0.398947 0.267873 0.182206
O O2 0.363814 0.100047 0.464324
O O3 0.679884 0.367628 0.065825
O O4 0.677107 0.185846 0.923284
O O5 0.240719 0.408922 0.195956
O O6 0.000000 0.500000 0.500000
O O7 0.017480 0.393359 0.204977
O O8 0.009628 0.161527 0.554143
O O9 0.288245 0.228246 0.016071
O O10 0.361227 0.753050 0.449329
O O11 0.691721 0.956435 0.179422
O O12 0.643500 0.951342 0.942494
O O13 0.176800 0.852638 0.489285
O O14 0.135782 0.832461 0.828162
O O15 0.000000 0.000000 0.000000
#
# Coordination Sequence:
#
# PCOD9054957 Si02
#       7
#     2   2   2   2   2   2   2
#     4  12  23  43  69  99 134 173 216 275 329 384
#     4  11  22  43  67 101 134 166 216 278 332 388
#     4  11  22  39  69 101 130 169 221 272 332 389
#     4  12  22  41  65  98 133 179 217 269 331 384
#     4  11  22  40  67  96 132 169 217 276 324 383
#     4  12  26  43  64  95 136 179 223 266 323 395
#     4  11  21  39  68 100 134 160 223 277 326 380
#
# _framework density 22.080532000000002
#
# number of rings (size 3 to 8) (size 9 to 14) (size 15 to 20)
#    0.000    0.571    5.714    5.143    0.000    0.000 
#    0.000    3.571    0.000    0.000    0.000    0.000 
#    0.000    0.000    0.000    0.000    0.000    0.000 
#
# Total GULP energy -78212.398803 kJ/mol
# GULP energy per Si atom -5586.599915 kJ/mol
# Density = 2.203028 g / cm^3
# Si number density = 22.080532 Si / 1000 Ang^3
#
#
#
# Elastic Constant Matrix: (Units=GPa)
#
#
# Indices 1 2 3 4 5 6 
#
# 1 65.2295 39.6661 23.1579 9.2402 -30.1272 19.1903
# 2 39.6661 155.3630 50.1251 1.5812 -24.6616 16.4916
# 3 23.1579 50.1251 86.5739 4.2581 -38.4908 13.9026
# 4 9.2402 1.5812 4.2581 42.9647 -1.0735 -15.1827
# 5 -30.1272 -24.6616 -38.4908 -1.0735 38.5735 -0.3666
# 6 19.1903 16.4916 13.9026 -15.1827 -0.3666 42.2813
#
#
#
# Elastic Compliance Matrix: (Units=1/GPa)
#
#
# Indices 1 2 3 4 5 6 
#
# 1 0.054615 -0.007804 0.024540 -0.026014 0.061063 -0.038625
# 2 -0.007804 0.009200 -0.007129 0.003042 -0.007210 0.003327
# 3 0.024540 -0.007129 0.036402 -0.016489 0.050228 -0.025812
# 4 -0.026014 0.003042 -0.016489 0.040228 -0.033421 0.030198
# 5 0.061063 -0.007210 0.050228 -0.033421 0.117699 -0.052399
# 6 -0.038625 0.003327 -0.025812 0.030198 -0.052399 0.058761
#
#
# Mechanical properties :
#
#
# Convention : Reuss Voigt Hill
#
# Bulk Modulus (GPa) = 8.37297 59.22939 33.80118
# Shear Modulus (GPa) = 14.81474 37.71173 26.26323
#
# Velocity S-wave (km/s) = 2.59306 4.13718 3.45255
# Velocity P-wave (km/s) = 3.57289 7.05012 5.58882
#
# Compressibility (1/GPa) = 0.11943198
#
# Stress axis : x y z
#
# Youngs Moduli (GPa) = 18.30991 108.69220 27.47131
#
# Poissons Ratio (x) = 0.84819 -0.67415
# Poissons Ratio (y) = 0.14288 0.19584
# Poissons Ratio (z) = -0.44933 0.77486
#
# Static dielectric constant tensor:
#      x y z
#    x 1.887890 0.063630 0.015580 
#    y 0.063630 1.852790 0.005870 
#    z 0.015580 0.005870 1.816170 
# 
# From -- ./inp_files/258431.got.cif
#   From: 2010.05.17/outbox.cif.g08.bks.cpg/sg2_130_cif.got.tgz:258431.got - 2010.06.03 11:33:40.
