data_PCOD9054053
_publ_section_title
;
Structure prediction by ZEFSAII (Michael W. Deem and Ramdas Pophale) SiO2 
 PCOD9054053
Probable space group: P -1
;
_chemical_formula_sum "Si O2"
_cell_formula_units_Z 16
_cell_length_a 8.233815
_cell_length_b 17.435012
_cell_length_c 10.569767
_cell_angle_alpha 151.859327
_cell_angle_beta 102.080808
_cell_angle_gamma 70.474373
_cell_volume 661.916249
_symmetry_space_group_name_H-M "P -1"
_symmetry_group_IT_number 2
_symmetry_cell_setting 'triclinic'
loop_
_space_group_symop_operation_xyz
x,y,z
-x,-y,-z
loop_
_atom_site_type_symbol
_atom_site_label
_atom_site_fract_x
_atom_site_fract_y
_atom_site_fract_z
Si Si1 0.850357 0.300647 0.691013
Si Si2 0.426245 0.817238 0.388686
Si Si3 0.201471 0.315651 0.848099
Si Si4 0.965184 0.676656 0.674466
Si Si5 0.165093 0.832027 0.775451
Si Si6 0.504382 0.677401 0.702791
Si Si7 0.405028 0.191035 0.322222
Si Si8 0.202231 0.197120 0.935676
O O1 0.713173 0.284987 0.754619
O O2 0.802229 0.210626 0.428365
O O3 0.063683 0.231171 0.640465
O O4 0.819408 0.500355 0.948465
O O5 0.586053 0.770110 0.245774
O O6 0.535353 0.809481 0.525852
O O7 0.296406 0.008876 0.624111
O O8 0.131986 0.323799 0.992494
O O9 0.800197 0.749438 0.659122
O O10 0.000000 0.500000 0.500000
O O11 0.123155 0.675761 0.610241
O O12 0.929913 0.806418 0.977676
O O13 0.323531 0.836170 0.897781
O O14 0.000000 0.000000 0.000000
O O15 0.500000 0.500000 0.500000
O O16 0.544851 0.663946 0.540030
O O17 0.651397 0.739373 0.880542
O O18 0.500000 0.000000 0.000000
#
# Coordination Sequence:
#
# PCOD9054053 Si02
#       8
#     2   2   2   2   2   2   2   2
#     4  11  25  46  70  99 137 177 235 289 336 414
#     4  12  23  44  71  99 129 186 236 279 348 409
#     4  11  26  47  68  96 139 187 231 280 342 412
#     4  11  22  38  62  96 134 176 217 274 358 399
#     4  12  23  39  68 103 131 168 223 284 345 407
#     4  11  22  39  64  96 137 172 211 278 349 398
#     4  11  20  40  65  93 134 172 218 285 342 404
#     4  11  25  44  63  96 143 175 227 289 337 415
#
# _framework density 24.172241
#
# number of rings (size 3 to 8) (size 9 to 14) (size 15 to 20)
#    0.000    0.750    3.750    6.000    1.750    1.500 
#    2.250    0.000    0.000    0.000    0.000    0.000 
#    0.000    0.000    0.000    0.000    0.000    0.000 
#
# Total GULP energy -89224.891335 kJ/mol
# GULP energy per Si atom -5576.555708 kJ/mol
# Density = 2.411722 g / cm^3
# Si number density = 24.172241 Si / 1000 Ang^3
#
#
#
# Elastic Constant Matrix: (Units=GPa)
#
#
# Indices 1 2 3 4 5 6 
#
# 1 81.5218 22.7347 3.6817 11.4583 1.4496 -6.9953
# 2 22.7347 69.4650 1.2767 14.6691 18.9515 15.3498
# 3 3.6817 1.2767 36.3119 15.2168 1.2995 -5.8032
# 4 11.4583 14.6691 15.2168 33.1450 2.6693 0.0449
# 5 1.4496 18.9515 1.2995 2.6693 31.5514 7.8975
# 6 -6.9953 15.3498 -5.8032 0.0449 7.8975 42.7340
#
#
#
# Elastic Compliance Matrix: (Units=1/GPa)
#
#
# Indices 1 2 3 4 5 6 
#
# 1 0.014528 -0.005554 0.000559 -0.002977 0.001869 0.004107
# 2 -0.005554 0.022342 0.002585 -0.008266 -0.010931 -0.006554
# 3 0.000559 0.002585 0.035511 -0.017430 -0.002693 0.004501
# 4 -0.002977 -0.008266 -0.017430 0.042675 0.002298 -0.000355
# 5 0.001869 -0.010931 -0.002693 0.002298 0.038924 -0.003329
# 6 0.004107 -0.006554 0.004501 -0.000355 -0.003329 0.027654
#
#
# Mechanical properties :
#
#
# Convention : Reuss Voigt Hill
#
# Bulk Modulus (GPa) = 14.80114 26.96500 20.88307
# Shear Modulus (GPa) = 23.92642 32.12645 28.02643
#
# Velocity S-wave (km/s) = 3.14957 3.64959 3.40876
# Velocity P-wave (km/s) = 4.40033 5.37949 4.91436
#
# Compressibility (1/GPa) = 0.06756237
#
# Stress axis : x y z
#
# Youngs Moduli (GPa) = 68.83348 44.75892 28.15996
#
# Poissons Ratio (x) = 0.24858 -0.01575
# Poissons Ratio (y) = 0.38228 -0.07279
# Poissons Ratio (z) = -0.03850 -0.11570
#
# Static dielectric constant tensor:
#      x y z
#    x 2.189220 0.009020 -0.020710 
#    y 0.009020 1.915980 0.007960 
#    z -0.020710 0.007960 1.967720 
# 
# From -- ./inp_files/403571.got.cif
#   From: 2010.05.17/outbox.cif.g08.bks.cpg/sg2_202_cif.got.tgz:403571.got - 2010.06.03 11:33:40.
