data_PCOD9054449
_publ_section_title
;
Structure prediction by ZEFSAII (Michael W. Deem and Ramdas Pophale) SiO2 
 PCOD9054449
Probable space group: P -1
;
_chemical_formula_sum "Si O2"
_cell_formula_units_Z 16
_cell_length_a 13.732433
_cell_length_b 11.385631
_cell_length_c 10.350563
_cell_angle_alpha 81.902505
_cell_angle_beta 68.448647
_cell_angle_gamma 33.094601
_cell_volume 776.229495
_symmetry_space_group_name_H-M "P -1"
_symmetry_group_IT_number 2
_symmetry_cell_setting 'triclinic'
loop_
_space_group_symop_operation_xyz
x,y,z
-x,-y,-z
loop_
_atom_site_type_symbol
_atom_site_label
_atom_site_fract_x
_atom_site_fract_y
_atom_site_fract_z
Si Si1 0.370737 0.068638 0.294474
Si Si2 0.371504 0.703708 0.632757
Si Si3 0.189171 0.327865 0.836822
Si Si4 0.970092 0.341220 0.353372
Si Si5 0.263423 0.075326 0.622226
Si Si6 0.993905 0.962015 0.656060
Si Si7 0.415373 0.531281 0.167038
Si Si8 0.802434 0.507275 0.695318
O O1 0.343678 0.076035 0.462124
O O2 0.302391 0.266838 0.256915
O O3 0.203161 0.144298 0.302882
O O4 0.602517 0.823907 0.181778
O O5 0.500000 0.500000 0.500000
O O6 0.142841 0.892944 0.682197
O O7 0.438945 0.607207 0.759034
O O8 0.382318 0.835929 0.593617
O O9 0.112725 0.486711 0.735596
O O10 0.265896 0.135962 0.751577
O O11 0.000000 0.500000 0.000000
O O12 0.947067 0.230904 0.332392
O O13 0.847516 0.467312 0.526522
O O14 0.025264 0.285951 0.681545
O O15 0.000000 0.000000 0.500000
O O16 0.766939 0.203796 0.761766
O O17 0.325834 0.484480 0.209459
O O18 0.500000 0.500000 0.000000
#
# Coordination Sequence:
#
# PCOD9054449 Si02
#       8
#     2   2   2   2   2   2   2   2
#     4  11  23  41  76  99 131 185 232 288 354 414
#     4  12  25  43  78 106 136 191 247 292 355 424
#     4  12  27  43  65 108 145 180 227 286 359 426
#     4  11  23  42  68 102 134 179 236 289 344 419
#     4  11  22  45  75 104 136 180 241 295 347 420
#     4  12  23  44  69 101 145 182 244 301 338 427
#     4  12  28  46  68 106 144 190 235 299 370 416
#     4  11  20  46  74  96 138 181 238 294 345 419
#
# _framework density 20.612459000000001
#
# number of rings (size 3 to 8) (size 9 to 14) (size 15 to 20)
#    0.000    0.500    6.250    2.625    3.500    3.000 
#    4.500    0.000    0.000    0.000    0.000    0.000 
#    0.000    0.000    0.000    0.000    0.000    0.000 
#
# Total GULP energy -89430.392486 kJ/mol
# GULP energy per Si atom -5589.399530 kJ/mol
# Density = 2.056554 g / cm^3
# Si number density = 20.612459 Si / 1000 Ang^3
#
#
#
# Elastic Constant Matrix: (Units=GPa)
#
#
# Indices 1 2 3 4 5 6 
#
# 1 77.4444 18.6311 22.9951 -6.1002 -8.5647 -2.4235
# 2 18.6311 91.6900 37.6675 -1.1377 -4.1233 -9.1953
# 3 22.9951 37.6675 104.3220 -0.4766 -22.8934 -3.0958
# 4 -6.1002 -1.1377 -0.4766 31.1220 -2.0444 1.1510
# 5 -8.5647 -4.1233 -22.8934 -2.0444 22.7965 5.3955
# 6 -2.4235 -9.1953 -3.0958 1.1510 5.3955 49.1499
#
#
#
# Elastic Compliance Matrix: (Units=1/GPa)
#
#
# Indices 1 2 3 4 5 6 
#
# 1 0.014547 -0.002117 -0.001601 0.003009 0.003808 -0.000268
# 2 -0.002117 0.013577 -0.005308 -0.000379 -0.004315 0.002584
# 3 -0.001601 -0.005308 0.014836 0.000687 0.013794 -0.001668
# 4 0.003009 -0.000379 0.000687 0.033091 0.005005 -0.001204
# 5 0.003808 -0.004315 0.013794 0.005005 0.060355 -0.006493
# 6 -0.000268 0.002584 -0.001668 -0.001204 -0.006493 0.021452
#
#
# Mechanical properties :
#
#
# Convention : Reuss Voigt Hill
#
# Bulk Modulus (GPa) = 40.14529 48.00486 44.07508
# Shear Modulus (GPa) = 27.14273 33.55788 30.35030
#
# Velocity S-wave (km/s) = 3.63273 4.03927 3.84138
# Velocity P-wave (km/s) = 6.09214 6.71521 6.41125
#
# Compressibility (1/GPa) = 0.02490952
#
# Stress axis : x y z
#
# Youngs Moduli (GPa) = 68.74365 73.65224 67.40484
#
# Poissons Ratio (x) = 0.15589 0.10790
# Poissons Ratio (y) = 0.14550 0.35778
# Poissons Ratio (z) = 0.11004 0.39094
#
# Static dielectric constant tensor:
#      x y z
#    x 1.776140 -0.015680 0.006570 
#    y -0.015680 1.731460 0.014470 
#    z 0.006570 0.014470 1.672590 
# 
# From -- ./inp_files/307305.got.cif
#   From: 2010.05.17/outbox.cif.g08.bks.cpg/sg2_154_cif.got.tgz:307305.got - 2010.06.03 11:33:40.
