data_PCOD9054400
_publ_section_title
;
Structure prediction by ZEFSAII (Michael W. Deem and Ramdas Pophale) SiO2 
 PCOD9054400
Probable space group: P -1
;
_chemical_formula_sum "Si O2"
_cell_formula_units_Z 16
_cell_length_a 15.512384
_cell_length_b 7.313259
_cell_length_c 8.829177
_cell_angle_alpha 57.492617
_cell_angle_beta 128.544742
_cell_angle_gamma 95.984565
_cell_volume 618.962654
_symmetry_space_group_name_H-M "P -1"
_symmetry_group_IT_number 2
_symmetry_cell_setting 'triclinic'
loop_
_space_group_symop_operation_xyz
x,y,z
-x,-y,-z
loop_
_atom_site_type_symbol
_atom_site_label
_atom_site_fract_x
_atom_site_fract_y
_atom_site_fract_z
Si Si1 0.759377 0.210335 0.725219
Si Si2 0.216762 0.308682 0.003384
Si Si3 0.507860 0.354996 0.222157
Si Si4 0.999203 0.742561 0.580110
Si Si5 0.412881 0.150821 0.547356
Si Si6 0.240677 0.061720 0.634042
Si Si7 0.622204 0.299882 0.819721
Si Si8 0.159654 0.678724 0.535053
O O1 0.637304 0.285365 0.465503
O O2 0.714275 0.329671 0.784322
O O3 0.838399 0.286362 0.657967
O O4 0.803713 0.935086 0.926515
O O5 0.322299 0.235582 0.272328
O O6 0.107397 0.522876 0.856520
O O7 0.233061 0.432568 0.807187
O O8 0.419940 0.524439 0.166891
O O9 0.501484 0.108734 0.282490
O O10 0.500000 0.500000 0.000000
O O11 0.030125 0.719427 0.444656
O O12 0.000000 0.000000 0.500000
O O13 0.878794 0.748997 0.519900
O O14 0.505183 0.276550 0.628316
O O15 0.331233 0.144979 0.602561
O O16 0.205231 0.875152 0.574118
O O17 0.306586 0.935130 0.911281
#
# Coordination Sequence:
#
# PCOD9054400 Si02
#       8
#     2   2   2   2   2   2   2   2
#     4  11  23  43  67 104 146 187 247 296 362 434
#     4   9  21  42  73 106 141 191 244 302 366 429
#     4  11  23  44  70  98 147 204 234 296 366 420
#     4   8  19  40  73 104 139 186 252 295 365 438
#     4  11  24  45  70 113 150 188 250 293 369 442
#     4  11  20  44  68 103 147 192 238 298 362 436
#     4  12  27  41  69 111 153 189 246 298 353 452
#     4   9  19  43  71 102 138 190 239 301 368 419
#
# _framework density 25.849701
#
# number of rings (size 3 to 8) (size 9 to 14) (size 15 to 20)
#    0.750    1.000    3.750    0.750    0.000    7.500 
#    0.000    1.250    0.000    2.250    0.000    1.750 
#    0.000    0.125    0.000    0.000    0.000    0.000 
#
# Total GULP energy -89465.277630 kJ/mol
# GULP energy per Si atom -5591.579852 kJ/mol
# Density = 2.579087 g / cm^3
# Si number density = 25.849701 Si / 1000 Ang^3
#
#
#
# Elastic Constant Matrix: (Units=GPa)
#
#
# Indices 1 2 3 4 5 6 
#
# 1 176.2064 81.9695 75.0771 -4.1243 -32.1046 -54.2700
# 2 81.9695 139.5002 63.3880 -24.8020 -10.8107 -16.6468
# 3 75.0771 63.3880 172.5684 -18.0168 -17.2302 -21.1771
# 4 -4.1243 -24.8020 -18.0168 47.0666 -10.4744 -1.8870
# 5 -32.1046 -10.8107 -17.2302 -10.4744 58.4069 3.9584
# 6 -54.2700 -16.6468 -21.1771 -1.8870 3.9584 51.1687
#
#
#
# Elastic Compliance Matrix: (Units=1/GPa)
#
#
# Indices 1 2 3 4 5 6 
#
# 1 0.013338 -0.005354 -0.002088 -0.000937 0.004802 0.011134
# 2 -0.005354 0.011674 -0.001777 0.004844 -0.000274 -0.002416
# 3 -0.002088 -0.001777 0.007742 0.002119 0.001160 0.000400
# 4 -0.000937 0.004844 0.002119 0.025833 0.005505 0.001986
# 5 0.004802 -0.000274 0.001160 0.005505 0.020763 0.004081
# 6 0.011134 -0.002416 0.000400 0.001986 0.004081 0.030489
#
#
# Mechanical properties :
#
#
# Convention : Reuss Voigt Hill
#
# Bulk Modulus (GPa) = 69.85498 103.23825 86.54662
# Shear Modulus (GPa) = 37.58073 49.18448 43.38260
#
# Velocity S-wave (km/s) = 3.81703 4.36674 4.10111
# Velocity P-wave (km/s) = 6.81971 8.09006 7.48190
#
# Compressibility (1/GPa) = 0.01431537
#
# Stress axis : x y z
#
# Youngs Moduli (GPa) = 74.97615 85.66381 129.16705
#
# Poissons Ratio (x) = 0.45866 0.26970
# Poissons Ratio (y) = 0.40143 0.22949
# Poissons Ratio (z) = 0.15655 0.15220
#
# Static dielectric constant tensor:
#      x y z
#    x 2.077560 0.036100 -0.003030 
#    y 0.036100 2.113430 -0.054550 
#    z -0.003030 -0.054550 2.047600 
# 
# From -- ./inp_files/328463.got.cif
#   From: 2010.05.17/outbox.cif.g08.bks.cpg/sg2_165_cif.got.tgz:328463.got - 2010.06.03 11:33:40.
