data_PCOD9054167
_publ_section_title
;
Structure prediction by ZEFSAII (Michael W. Deem and Ramdas Pophale) SiO2 
 PCOD9054167
Probable space group: P -1
;
_chemical_formula_sum "Si O2"
_cell_formula_units_Z 16
_cell_length_a 8.407196
_cell_length_b 11.175569
_cell_length_c 22.615673
_cell_angle_alpha 141.064910
_cell_angle_beta 149.485445
_cell_angle_gamma 49.816959
_cell_volume 675.965230
_symmetry_space_group_name_H-M "P -1"
_symmetry_group_IT_number 2
_symmetry_cell_setting 'triclinic'
loop_
_space_group_symop_operation_xyz
x,y,z
-x,-y,-z
loop_
_atom_site_type_symbol
_atom_site_label
_atom_site_fract_x
_atom_site_fract_y
_atom_site_fract_z
Si Si1 0.905597 0.502903 0.793709
Si Si2 0.735567 0.972672 0.198421
Si Si3 0.632189 0.148358 0.648164
Si Si4 0.720966 0.375470 0.397476
Si Si5 0.903578 0.293314 0.959322
Si Si6 0.241061 0.196767 0.730076
Si Si7 0.556797 0.651717 0.935054
Si Si8 0.088381 0.320926 0.612333
O O1 0.758504 0.344098 0.731809
O O2 0.612401 0.535019 0.670852
O O3 0.200142 0.411812 0.823881
O O4 0.017836 0.683977 0.937906
O O5 0.801068 0.918999 0.267545
O O6 0.072033 0.945463 0.265039
O O7 0.660348 0.188699 0.264640
O O8 0.507750 0.818714 0.030941
O O9 0.362884 0.208102 0.627308
O O10 0.500000 0.000000 0.500000
O O11 0.000000 0.500000 0.500000
O O12 0.838877 0.336059 0.486331
O O13 0.584372 0.158232 0.801492
O O14 0.770402 0.493493 0.971633
O O15 0.217007 0.262167 0.012072
O O16 0.006984 0.204519 0.602207
O O17 0.254755 0.529174 0.764083
#
# Coordination Sequence:
#
# PCOD9054167 Si02
#       8
#     2   2   2   2   2   2   2   2
#     4  11  21  38  60  88 124 168 200 246 314 373
#     4  11  22  38  64  97 119 159 209 257 308 357
#     4  11  18  37  63  92 113 156 216 254 288 352
#     4  12  24  43  63  86 129 170 200 246 314 374
#     4  10  17  35  63  93 124 152 207 260 311 341
#     4  10  23  36  65  93 121 160 205 260 302 362
#     4  10  18  35  66  98 115 152 216 269 284 352
#     4  11  22  38  66  95 125 158 204 257 311 352
#
# _framework density 23.669857
#
# number of rings (size 3 to 8) (size 9 to 14) (size 15 to 20)
#    0.000    1.250    6.250    1.875    1.750    1.000 
#    0.000    3.125    5.500    0.000    0.000    0.000 
#    0.000    0.000    0.000    0.000    0.000    0.000 
#
# Total GULP energy -89243.062139 kJ/mol
# GULP energy per Si atom -5577.691384 kJ/mol
# Density = 2.361598 g / cm^3
# Si number density = 23.669857 Si / 1000 Ang^3
#
#
#
# Elastic Constant Matrix: (Units=GPa)
#
#
# Indices 1 2 3 4 5 6 
#
# 1 72.0406 1.3149 -4.6358 -2.8494 -5.7685 5.2540
# 2 1.3149 33.8532 18.2637 0.6808 0.1027 -13.8857
# 3 -4.6358 18.2637 109.0131 1.7383 -24.7887 -5.4159
# 4 -2.8494 0.6808 1.7383 40.1917 -6.9420 -5.8353
# 5 -5.7685 0.1027 -24.7887 -6.9420 34.2167 -5.6499
# 6 5.2540 -13.8857 -5.4159 -5.8353 -5.6499 15.9668
#
#
#
# Elastic Compliance Matrix: (Units=1/GPa)
#
#
# Indices 1 2 3 4 5 6 
#
# 1 0.014799 -0.004314 0.001590 0.000490 0.002607 -0.006980
# 2 -0.004314 0.053066 -0.005635 0.007101 0.004715 0.049921
# 3 0.001590 -0.005635 0.012682 0.001931 0.010403 0.003265
# 4 0.000490 0.007101 0.001931 0.029730 0.011031 0.021438
# 5 0.002607 0.004715 0.010403 0.011031 0.043767 0.026290
# 6 -0.006980 0.049921 0.003265 0.021438 0.026290 0.126586
#
#
# Mechanical properties :
#
#
# Convention : Reuss Voigt Hill
#
# Bulk Modulus (GPa) = 15.66637 27.19916 21.43277
# Shear Modulus (GPa) = 15.69248 31.40598 23.54923
#
# Velocity S-wave (km/s) = 2.57762 3.64653 3.15763
# Velocity P-wave (km/s) = 3.93598 5.40791 4.72956
#
# Compressibility (1/GPa) = 0.06383098
#
# Stress axis : x y z
#
# Youngs Moduli (GPa) = 67.57064 18.84439 78.85234
#
# Poissons Ratio (x) = 0.08129 -0.12539
# Poissons Ratio (y) = 0.29147 0.44432
# Poissons Ratio (z) = -0.10745 0.10619
#
# Static dielectric constant tensor:
#      x y z
#    x 1.961380 0.028050 -0.004330 
#    y 0.028050 1.910790 0.039390 
#    z -0.004330 0.039390 1.975300 
# 
# From -- ./inp_files/469897.got.cif
#   From: 2010.05.17/outbox.cif.g08.bks.cpg/sg2_235_cif.got.tgz:469897.got - 2010.06.03 11:33:40.
