data_PCOD9054159
_publ_section_title
;
Structure prediction by ZEFSAII (Michael W. Deem and Ramdas Pophale) SiO2 
 PCOD9054159
Probable space group: P -1
;
_chemical_formula_sum "Si O2"
_cell_formula_units_Z 16
_cell_length_a 13.958762
_cell_length_b 11.121935
_cell_length_c 15.117658
_cell_angle_alpha 40.038756
_cell_angle_beta 28.529050
_cell_angle_gamma 42.414953
_cell_volume 704.457624
_symmetry_space_group_name_H-M "P -1"
_symmetry_group_IT_number 2
_symmetry_cell_setting 'triclinic'
loop_
_space_group_symop_operation_xyz
x,y,z
-x,-y,-z
loop_
_atom_site_type_symbol
_atom_site_label
_atom_site_fract_x
_atom_site_fract_y
_atom_site_fract_z
Si Si1 0.396886 0.838385 0.634233
Si Si2 0.795372 0.566313 0.184261
Si Si3 0.187665 0.069858 0.517218
Si Si4 0.593649 0.991292 0.144156
Si Si5 0.823669 0.173243 0.009720
Si Si6 0.261981 0.757094 0.246730
Si Si7 0.731535 0.502541 0.777781
Si Si8 0.614704 0.488753 0.548273
O O1 0.303470 0.745951 0.844946
O O2 0.565301 0.689167 0.528002
O O3 0.500000 0.000000 0.500000
O O4 0.221869 0.949606 0.647607
O O5 0.784915 0.481401 0.338875
O O6 0.602282 0.517985 0.316392
O O7 0.742613 0.793283 0.112408
O O8 0.000000 0.500000 0.000000
O O9 0.368241 0.963483 0.366772
O O10 0.230691 0.284291 0.371597
O O11 0.958213 0.098966 0.653457
O O12 0.686956 0.081299 0.102738
O O13 0.584484 0.135275 0.989003
O O14 0.875464 0.350439 0.812661
O O15 0.000000 0.000000 0.000000
O O16 0.241179 0.586316 0.292086
O O17 0.328354 0.676337 0.333328
O O18 0.500000 0.500000 0.000000
#
# Coordination Sequence:
#
# PCOD9054159 Si02
#       8
#     2   2   2   2   2   2   2   2
#     4  12  21  40  69  99 141 178 222 280 336 404
#     4  11  27  49  76  94 135 181 232 291 348 401
#     4  12  23  40  66  96 142 183 220 276 342 407
#     4  11  24  46  65 100 140 177 226 283 341 404
#     4  11  23  37  66 101 138 176 225 272 334 412
#     4  11  25  40  69  99 139 179 225 275 346 409
#     4  11  20  41  60  98 146 184 213 270 340 407
#     4  11  26  47  69 106 132 174 237 285 334 415
#
# _framework density 22.712509000000001
#
# number of rings (size 3 to 8) (size 9 to 14) (size 15 to 20)
#    0.000    0.750    5.000    3.375    3.500    3.500 
#    0.000    1.250    0.000    0.000    0.000    0.000 
#    0.000    0.000    0.000    0.000    0.000    0.000 
#
# Total GULP energy -89589.184400 kJ/mol
# GULP energy per Si atom -5599.324025 kJ/mol
# Density = 2.266081 g / cm^3
# Si number density = 22.712509 Si / 1000 Ang^3
#
#
#
# Elastic Constant Matrix: (Units=GPa)
#
#
# Indices 1 2 3 4 5 6 
#
# 1 77.8775 32.7822 44.0233 5.0894 38.0969 -14.6858
# 2 32.7822 89.6786 34.6289 16.2621 19.6883 -6.0545
# 3 44.0233 34.6289 113.6070 17.8958 38.2316 5.6406
# 4 5.0894 16.2621 17.8958 49.9490 -5.5490 4.3287
# 5 38.0969 19.6883 38.2316 -5.5490 42.7285 -4.6223
# 6 -14.6858 -6.0545 5.6406 4.3287 -4.6223 29.6195
#
#
#
# Elastic Compliance Matrix: (Units=1/GPa)
#
#
# Indices 1 2 3 4 5 6 
#
# 1 0.028222 -0.003201 -0.003107 -0.003947 -0.020191 0.011356
# 2 -0.003201 0.014450 -0.001715 -0.004219 -0.002612 0.001902
# 3 -0.003107 -0.001715 0.015675 -0.005542 -0.011823 -0.005911
# 4 -0.003947 -0.004219 -0.005542 0.025563 0.013373 -0.003413
# 5 -0.020191 -0.002612 -0.011823 0.013373 0.054741 -0.001705
# 6 0.011356 0.001902 -0.005911 -0.003413 -0.001705 0.041139
#
#
# Mechanical properties :
#
#
# Convention : Reuss Voigt Hill
#
# Bulk Modulus (GPa) = 23.64137 56.00353 39.82245
# Shear Modulus (GPa) = 23.81673 35.77466 29.79569
#
# Velocity S-wave (km/s) = 3.24175 3.97307 3.62589
# Velocity P-wave (km/s) = 4.94403 6.76448 5.92459
#
# Compressibility (1/GPa) = 0.04229873
#
# Stress axis : x y z
#
# Youngs Moduli (GPa) = 35.43386 69.20294 63.79781
#
# Poissons Ratio (x) = 0.22154 0.19825
# Poissons Ratio (y) = 0.11343 0.10942
# Poissons Ratio (z) = 0.11011 0.11869
#
# Static dielectric constant tensor:
#      x y z
#    x 1.854370 0.000500 -0.025700 
#    y 0.000500 1.879350 0.006870 
#    z -0.025700 0.006870 1.903630 
# 
# From -- ./inp_files/531614.got.cif
#   From: 2010.05.17/outbox.cif.g08.bks.cpg/sg2_266_cif.got.tgz:531614.got - 2010.06.03 11:33:40.
