data_PCOD9054615
_publ_section_title
;
Structure prediction by ZEFSAII (Michael W. Deem and Ramdas Pophale) SiO2 
 PCOD9054615
Probable space group: P -1
;
_chemical_formula_sum "Si O2"
_cell_formula_units_Z 12
_cell_length_a 8.500561
_cell_length_b 11.502145
_cell_length_c 9.665441
_cell_angle_alpha 108.572694
_cell_angle_beta 54.554362
_cell_angle_gamma 79.129349
_cell_volume 638.857990
_symmetry_space_group_name_H-M "P -1"
_symmetry_group_IT_number 2
_symmetry_cell_setting 'triclinic'
loop_
_space_group_symop_operation_xyz
x,y,z
-x,-y,-z
loop_
_atom_site_type_symbol
_atom_site_label
_atom_site_fract_x
_atom_site_fract_y
_atom_site_fract_z
Si Si1 0.324980 0.180191 0.796351
Si Si2 0.006708 0.410726 0.256671
Si Si3 0.204201 0.934081 0.768358
Si Si4 0.807252 0.124997 0.562288
Si Si5 0.057235 0.652284 0.424943
Si Si6 0.332947 0.297256 0.533619
O O1 0.568508 0.138354 0.710872
O O2 0.301912 0.252101 0.685802
O O3 0.295432 0.044124 0.745731
O O4 0.142377 0.288920 0.034675
O O5 0.961680 0.358585 0.405080
O O6 0.779007 0.534720 0.357373
O O7 0.136576 0.497631 0.263003
O O8 0.140923 0.905456 0.638571
O O9 0.409109 0.789866 0.662581
O O10 0.000000 0.000000 0.000000
O O11 0.806464 0.269645 0.651184
O O12 0.000000 0.000000 0.500000
O O13 0.813198 0.736552 0.512957
#
# Coordination Sequence:
#
# PCOD9054615 Si02
#       6
#     2   2   2   2   2   2
#     4  11  21  37  59  85 114 147 192 232 280 334
#     4   9  20  37  62  83 115 149 185 232 283 331
#     4  11  23  38  58  83 113 152 192 232 278 335
#     4  11  22  38  58  87 115 151 186 235 280 333
#     4   9  19  38  60  81 119 145 188 226 286 331
#     4   9  19  39  58  82 113 149 185 231 281 328
#
# _framework density 18.783518000000001
#
# number of rings (size 3 to 8) (size 9 to 14) (size 15 to 20)
#    1.000    1.000    0.000    5.500    0.000    2.000 
#    0.000   12.500    0.000    0.000    0.000    0.000 
#    0.000    0.000    0.000    0.000    0.000    0.000 
#
# Total GULP energy -66903.215241 kJ/mol
# GULP energy per Si atom -5575.267937 kJ/mol
# Density = 1.874077 g / cm^3
# Si number density = 18.783518 Si / 1000 Ang^3
#
#
#
# Elastic Constant Matrix: (Units=GPa)
#
#
# Indices 1 2 3 4 5 6 
#
# 1 72.9130 37.2254 2.9193 0.9468 -6.8072 -22.2850
# 2 37.2254 75.5917 -0.7943 7.6713 0.8535 -6.2349
# 3 2.9193 -0.7943 51.7157 22.2861 1.2707 -22.3908
# 4 0.9468 7.6713 22.2861 23.2206 3.8141 -0.7669
# 5 -6.8072 0.8535 1.2707 3.8141 16.9433 4.4388
# 6 -22.2850 -6.2349 -22.3908 -0.7669 4.4388 41.7699
#
#
#
# Elastic Compliance Matrix: (Units=1/GPa)
#
#
# Indices 1 2 3 4 5 6 
#
# 1 0.023341 -0.010029 0.005748 -0.003842 0.006848 0.013238
# 2 -0.010029 0.019563 0.006526 -0.011758 -0.003169 0.001188
# 3 0.005748 0.006526 0.059095 -0.058235 0.001626 0.034476
# 4 -0.003842 -0.011758 -0.058235 0.103852 -0.011609 -0.031882
# 5 0.006848 -0.003169 0.001626 -0.011609 0.065233 -0.003093
# 6 0.013238 0.001188 0.034476 -0.031882 -0.003093 0.049405
#
#
# Mechanical properties :
#
#
# Convention : Reuss Voigt Hill
#
# Bulk Modulus (GPa) = 9.39079 30.99123 20.19101
# Shear Modulus (GPa) = 14.22487 27.11144 20.66815
#
# Velocity S-wave (km/s) = 2.75490 3.80328 3.32073
# Velocity P-wave (km/s) = 3.88969 5.98511 5.04734
#
# Compressibility (1/GPa) = 0.10648732
#
# Stress axis : x y z
#
# Youngs Moduli (GPa) = 42.84374 51.11563 16.92195
#
# Poissons Ratio (x) = 0.51265 -0.09726
# Poissons Ratio (y) = 0.42969 -0.11043
# Poissons Ratio (z) = -0.24625 -0.33357
#
# Static dielectric constant tensor:
#      x y z
#    x 1.657930 0.010260 -0.008170 
#    y 0.010260 1.652040 0.000490 
#    z -0.008170 0.000490 1.614060 
# 
# From -- ./inp_files/148102.got.cif
#   From: 2010.05.17/outbox.cif.g08.bks.cpg/sg2_75_cif.got.tgz:148102.got - 2010.06.03 11:33:40.
