data_PCOD9054471
_publ_section_title
;
Structure prediction by ZEFSAII (Michael W. Deem and Ramdas Pophale) SiO2 
 PCOD9054471
Probable space group: P -1
;
_chemical_formula_sum "Si O2"
_cell_formula_units_Z 16
_cell_length_a 13.065782
_cell_length_b 11.038384
_cell_length_c 10.850786
_cell_angle_alpha 38.479118
_cell_angle_beta 58.810550
_cell_angle_gamma 62.898685
_cell_volume 829.306976
_symmetry_space_group_name_H-M "P -1"
_symmetry_group_IT_number 2
_symmetry_cell_setting 'triclinic'
loop_
_space_group_symop_operation_xyz
x,y,z
-x,-y,-z
loop_
_atom_site_type_symbol
_atom_site_label
_atom_site_fract_x
_atom_site_fract_y
_atom_site_fract_z
Si Si1 0.406784 0.258723 0.587794
Si Si2 0.328796 0.053829 0.553933
Si Si3 0.879161 0.978835 0.460557
Si Si4 0.670577 0.210188 0.566673
Si Si5 0.532272 0.269590 0.142873
Si Si6 0.941880 0.718308 0.842580
Si Si7 0.426748 0.719399 0.169450
Si Si8 0.312203 0.326278 0.850250
O O1 0.354378 0.158295 0.583045
O O2 0.542292 0.184320 0.603715
O O3 0.410806 0.488600 0.374288
O O4 0.326810 0.240125 0.773085
O O5 0.411428 0.161459 0.321359
O O6 0.194684 0.066070 0.578438
O O7 0.380719 0.829437 0.726182
O O8 0.778550 0.083060 0.533942
O O9 0.978971 0.128908 0.261320
O O10 0.937615 0.788756 0.647027
O O11 0.652678 0.181849 0.747644
O O12 0.690601 0.438261 0.350718
O O13 0.500000 0.500000 0.000000
O O14 0.589549 0.228624 0.004977
O O15 0.806706 0.726219 0.968602
O O16 0.000000 0.500000 0.000000
O O17 0.565722 0.740573 0.099424
#
# Coordination Sequence:
#
# PCOD9054471 Si02
#       8
#     2   2   2   2   2   2   2   2
#     4   9  18  35  56  89 121 148 181 225 287 352
#     4  11  23  36  53  84 123 151 186 231 281 347
#     4  11  24  38  60  87 112 149 193 244 283 332
#     4   9  17  34  59  88 117 143 189 234 281 338
#     4  11  21  33  53  83 124 160 184 216 283 353
#     4  11  23  42  61  83 107 147 202 245 285 326
#     4   9  18  33  58  89 116 151 184 227 284 340
#     4   9  18  34  62  83 112 153 191 237 278 326
#
# _framework density 19.293216999999999
#
# number of rings (size 3 to 8) (size 9 to 14) (size 15 to 20)
#    0.000    2.000    2.500    3.750    1.750    2.000 
#    0.000    3.750    0.000    0.750    0.000    0.000 
#    0.000    0.000    0.000    0.000    0.000    0.000 
#
# Total GULP energy -89385.727056 kJ/mol
# GULP energy per Si atom -5586.607941 kJ/mol
# Density = 1.924930 g / cm^3
# Si number density = 19.293217 Si / 1000 Ang^3
#
#
#
# Elastic Constant Matrix: (Units=GPa)
#
#
# Indices 1 2 3 4 5 6 
#
# 1 80.5388 5.1506 33.8096 -10.9440 -9.8432 20.3264
# 2 5.1506 69.3084 20.5399 -5.0361 1.5254 16.2010
# 3 33.8096 20.5399 113.1270 -7.2386 -1.2344 8.1084
# 4 -10.9440 -5.0361 -7.2386 31.5116 -5.6990 3.7385
# 5 -9.8432 1.5254 -1.2344 -5.6990 30.4973 3.3526
# 6 20.3264 16.2010 8.1084 3.7385 3.3526 29.7038
#
#
#
# Elastic Compliance Matrix: (Units=1/GPa)
#
#
# Indices 1 2 3 4 5 6 
#
# 1 0.021971 0.004949 -0.005256 0.011426 0.010851 -0.018962
# 2 0.004949 0.018675 -0.003458 0.006116 0.003178 -0.013757
# 3 -0.005256 -0.003458 0.010792 -0.000496 -0.001483 0.002767
# 4 0.011426 0.006116 -0.000496 0.041004 0.012964 -0.017643
# 5 0.010851 0.003178 -0.001483 0.012964 0.040135 -0.014915
# 6 -0.018962 -0.013757 0.002767 -0.017643 -0.014915 0.057293
#
#
# Mechanical properties :
#
#
# Convention : Reuss Voigt Hill
#
# Bulk Modulus (GPa) = 22.77507 42.44160 32.60834
# Shear Modulus (GPa) = 23.58084 31.90748 27.74416
#
# Velocity S-wave (km/s) = 3.49984 4.07113 3.79625
# Velocity P-wave (km/s) = 5.30680 6.64415 6.01277
#
# Compressibility (1/GPa) = 0.04390766
#
# Stress axis : x y z
#
# Youngs Moduli (GPa) = 45.51528 53.54646 92.66010
#
# Poissons Ratio (x) = -0.26498 0.48704
# Poissons Ratio (y) = -0.22524 0.32039
# Poissons Ratio (z) = 0.23924 0.18515
#
# Static dielectric constant tensor:
#      x y z
#    x 1.660360 -0.004570 0.030950 
#    y -0.004570 1.712850 -0.029730 
#    z 0.030950 -0.029730 1.706970 
# 
# From -- ./inp_files/422744.got.cif
#   From: 2010.05.17/outbox.cif.g08.bks.cpg/sg2_212_cif.got.tgz:422744.got - 2010.06.03 11:33:40.
