data_PCOD9054296
_publ_section_title
;
Structure prediction by ZEFSAII (Michael W. Deem and Ramdas Pophale) SiO2 
 PCOD9054296
Probable space group: P -1
;
_chemical_formula_sum "Si O2"
_cell_formula_units_Z 16
_cell_length_a 9.867543
_cell_length_b 11.779254
_cell_length_c 16.905158
_cell_angle_alpha 77.336551
_cell_angle_beta 150.722311
_cell_angle_gamma 85.768545
_cell_volume 779.659110
_symmetry_space_group_name_H-M "P -1"
_symmetry_group_IT_number 2
_symmetry_cell_setting 'triclinic'
loop_
_space_group_symop_operation_xyz
x,y,z
-x,-y,-z
loop_
_atom_site_type_symbol
_atom_site_label
_atom_site_fract_x
_atom_site_fract_y
_atom_site_fract_z
Si Si1 0.600746 0.876308 0.786748
Si Si2 0.228966 0.169909 0.508536
Si Si3 0.814052 0.200071 0.017187
Si Si4 0.200544 0.371137 0.563788
Si Si5 0.970173 0.091807 0.864562
Si Si6 0.797024 0.381615 0.116281
Si Si7 0.404828 0.608854 0.368806
Si Si8 0.900949 0.575742 0.022165
O O1 0.268373 0.023413 0.568426
O O2 0.600447 0.741277 0.834879
O O3 0.848692 0.824651 0.844781
O O4 0.780891 0.912955 0.941827
O O5 0.058614 0.280402 0.477052
O O6 0.620931 0.119143 0.715335
O O7 0.063166 0.255998 0.329959
O O8 0.542399 0.269800 0.799552
O O9 0.701550 0.302156 0.018260
O O10 0.874257 0.048717 0.084659
O O11 0.281067 0.414089 0.514922
O O12 0.000000 0.500000 0.500000
O O13 0.822627 0.241061 0.727531
O O14 0.885958 0.473299 0.092998
O O15 0.500000 0.500000 0.000000
O O16 0.500000 0.500000 0.500000
O O17 0.192453 0.592593 0.197361
O O18 0.000000 0.500000 0.000000
#
# Coordination Sequence:
#
# PCOD9054296 Si02
#       8
#     2   2   2   2   2   2   2   2
#     4  10  17  35  64  88 109 138 202 249 270 326
#     4  10  19  35  56  87 113 149 187 236 289 325
#     4  11  18  36  58  83 112 150 193 230 275 338
#     4  11  19  33  60  85 111 150 191 224 275 351
#     4   9  17  33  62  87 108 138 195 247 271 322
#     4  12  26  39  54  85 126 153 184 236 295 345
#     4  10  20  35  56  86 115 138 185 243 284 322
#     4  11  20  38  60  82 110 155 193 231 285 337
#
# _framework density 20.521789999999999
#
# number of rings (size 3 to 8) (size 9 to 14) (size 15 to 20)
#    0.000    1.500    6.250    3.000    0.000    2.000 
#    2.250    0.625    2.750    2.250    0.000    0.000 
#    0.000    0.000    0.000    0.000    0.000    0.000 
#
# Total GULP energy -89075.776057 kJ/mol
# GULP energy per Si atom -5567.236004 kJ/mol
# Density = 2.047508 g / cm^3
# Si number density = 20.521790 Si / 1000 Ang^3
#
#
#
# Elastic Constant Matrix: (Units=GPa)
#
#
# Indices 1 2 3 4 5 6 
#
# 1 48.0666 34.8100 31.3330 -17.1687 -16.9376 -1.2717
# 2 34.8100 145.8818 37.2255 -28.2748 -17.6105 -1.8159
# 3 31.3330 37.2255 74.3283 -30.3946 -32.2982 15.3415
# 4 -17.1687 -28.2748 -30.3946 44.0707 11.0624 -10.3056
# 5 -16.9376 -17.6105 -32.2982 11.0624 30.5355 -9.7779
# 6 -1.2717 -1.8159 15.3415 -10.3056 -9.7779 32.7533
#
#
#
# Elastic Compliance Matrix: (Units=1/GPa)
#
#
# Indices 1 2 3 4 5 6 
#
# 1 0.034356 -0.003854 -0.008558 0.004943 0.008991 0.009368
# 2 -0.003854 0.008998 -0.001529 0.003558 0.000934 0.002464
# 3 -0.008558 -0.001529 0.034780 0.012121 0.025031 -0.005421
# 4 0.004943 0.003558 0.012121 0.035276 0.007403 0.008021
# 5 0.008991 0.000934 0.025031 0.007403 0.065445 0.010543
# 6 0.009368 0.002464 -0.005421 0.008021 0.010543 0.039242
#
#
# Mechanical properties :
#
#
# Convention : Reuss Voigt Hill
#
# Bulk Modulus (GPa) = 19.90014 52.77928 36.33971
# Shear Modulus (GPa) = 19.03099 32.46579 25.74839
#
# Velocity S-wave (km/s) = 3.04855 3.98177 3.54600
# Velocity P-wave (km/s) = 4.70210 6.84937 5.87467
#
# Compressibility (1/GPa) = 0.05025091
#
# Stress axis : x y z
#
# Youngs Moduli (GPa) = 29.10708 111.13755 28.75246
#
# Poissons Ratio (x) = 0.42834 0.24605
# Poissons Ratio (y) = 0.11218 0.04398
# Poissons Ratio (z) = 0.24909 0.16998
#
# Static dielectric constant tensor:
#      x y z
#    x 1.750500 0.042990 -0.006100 
#    y 0.042990 1.829980 -0.009590 
#    z -0.006100 -0.009590 1.844990 
# 
# From -- ./inp_files/513654.got.cif
#   From: 2010.05.17/outbox.cif.g08.bks.cpg/sg2_257_cif.got.tgz:513654.got - 2010.06.03 11:33:40.
