data_PCOD9054896
_publ_section_title
;
Structure prediction by ZEFSAII (Michael W. Deem and Ramdas Pophale) SiO2 
 PCOD9054896
Probable space group: P -1
;
_chemical_formula_sum "Si O2"
_cell_formula_units_Z 16
_cell_length_a 27.575175
_cell_length_b 8.640998
_cell_length_c 5.678761
_cell_angle_alpha 86.119603
_cell_angle_beta 121.333102
_cell_angle_gamma 135.282856
_cell_volume 703.209579
_symmetry_space_group_name_H-M "P -1"
_symmetry_group_IT_number 2
_symmetry_cell_setting 'triclinic'
loop_
_space_group_symop_operation_xyz
x,y,z
-x,-y,-z
loop_
_atom_site_type_symbol
_atom_site_label
_atom_site_fract_x
_atom_site_fract_y
_atom_site_fract_z
Si Si1 0.537954 0.465757 0.905951
Si Si2 0.960367 0.480478 0.152382
Si Si3 0.230095 0.996110 0.070928
Si Si4 0.025483 0.973428 0.315679
Si Si5 0.216663 0.241501 0.678696
Si Si6 0.361219 0.069925 0.163917
Si Si7 0.665470 0.519662 0.456464
Si Si8 0.609950 0.204881 0.744105
O O1 0.454842 0.262031 0.535586
O O2 0.622577 0.745855 0.977530
O O3 0.500000 0.500000 0.000000
O O4 0.575221 0.385353 0.105074
O O5 0.000000 0.500000 0.500000
O O6 0.978656 0.703039 0.198914
O O7 0.000000 0.500000 0.000000
O O8 0.851041 0.205814 0.926753
O O9 0.271250 0.921362 0.100298
O O10 0.314307 0.283445 0.353589
O O11 0.195652 0.029194 0.762956
O O12 0.136539 0.181867 0.567916
O O13 0.000000 0.000000 0.500000
O O14 0.000000 0.000000 0.000000
O O15 0.235438 0.280751 0.444957
O O16 0.319006 0.521322 0.985043
O O17 0.360781 0.898838 0.071842
O O18 0.639428 0.303530 0.538698
O O19 0.500000 0.000000 0.500000
#
# Coordination Sequence:
#
# PCOD9054896 Si02
#       8
#     2   2   2   2   2   2   2   2
#     4  11  21  39  63  94 134 182 228 288 343 418
#     4  12  26  49  80 110 146 195 252 309 372 454
#     4  11  24  43  72 102 135 183 240 302 354 434
#     4  12  29  51  78 113 156 198 248 315 391 453
#     4  11  25  47  72  98 145 191 233 301 369 445
#     4  11  24  39  64  99 137 173 239 290 346 422
#     4  11  23  43  70  95 137 189 235 283 370 425
#     4  11  26  43  66 102 145 185 234 293 363 435
#
# _framework density 22.75282
#
# number of rings (size 3 to 8) (size 9 to 14) (size 15 to 20)
#    0.000    0.750    3.750    3.000    8.750    3.000 
#    2.250    0.000    0.000    0.000    0.000    0.000 
#    0.000    0.000    0.000    0.000    0.000    0.000 
#
# Total GULP energy -89249.936856 kJ/mol
# GULP energy per Si atom -5578.121054 kJ/mol
# Density = 2.270103 g / cm^3
# Si number density = 22.752820 Si / 1000 Ang^3
#
#
#
# Elastic Constant Matrix: (Units=GPa)
#
#
# Indices 1 2 3 4 5 6 
#
# 1 141.4744 37.5209 21.8015 -0.2194 1.9211 25.7260
# 2 37.5209 108.0168 19.3600 3.1308 -3.8582 8.5875
# 3 21.8015 19.3600 57.7671 -5.0489 4.3886 2.1080
# 4 -0.2194 3.1308 -5.0489 40.0724 -0.0203 3.0717
# 5 1.9211 -3.8582 4.3886 -0.0203 32.3364 6.1830
# 6 25.7260 8.5875 2.1080 3.0717 6.1830 46.6701
#
#
#
# Elastic Compliance Matrix: (Units=1/GPa)
#
#
# Indices 1 2 3 4 5 6 
#
# 1 0.008844 -0.002282 -0.002418 0.000261 0.000374 -0.004413
# 2 -0.002282 0.010747 -0.002964 -0.001166 0.001966 -0.000769
# 3 -0.002418 -0.002964 0.019635 0.002596 -0.003109 0.001232
# 4 0.000261 -0.001166 0.002596 0.025505 -0.000165 -0.001703
# 5 0.000374 0.001966 -0.003109 -0.000165 0.032461 -0.004717
# 6 -0.004413 -0.000769 0.001232 -0.001703 -0.004717 0.024682
#
#
# Mechanical properties :
#
#
# Convention : Reuss Voigt Hill
#
# Bulk Modulus (GPa) = 41.84290 51.62481 46.73386
# Shear Modulus (GPa) = 34.44314 39.05417 36.74866
#
# Velocity S-wave (km/s) = 3.89497 4.14751 4.02322
# Velocity P-wave (km/s) = 6.21755 6.75828 6.49355
#
# Compressibility (1/GPa) = 0.02389892
#
# Stress axis : x y z
#
# Youngs Moduli (GPa) = 113.07174 93.04999 50.93041
#
# Poissons Ratio (x) = 0.21235 0.12313
# Poissons Ratio (y) = 0.25804 0.15094
# Poissons Ratio (z) = 0.27336 0.27577
#
# Static dielectric constant tensor:
#      x y z
#    x 1.985280 0.095600 -0.114420 
#    y 0.095600 1.938380 -0.087820 
#    z -0.114420 -0.087820 2.028080 
# 
# From -- ./inp_files/126412.got.cif
#   From: 2010.05.17/outbox.cif.g08.bks.cpg/sg2_64_cif.got.tgz:126412.got - 2010.06.03 11:33:40.
