data_PCOD9054935
_publ_section_title
;
Structure prediction by ZEFSAII (Michael W. Deem and Ramdas Pophale) SiO2 
 PCOD9054935
Probable space group: P -1
;
_chemical_formula_sum "Si O2"
_cell_formula_units_Z 14
_cell_length_a 9.280918
_cell_length_b 18.916670
_cell_length_c 9.290626
_cell_angle_alpha 136.260810
_cell_angle_beta 149.001242
_cell_angle_gamma 45.242300
_cell_volume 564.077686
_symmetry_space_group_name_H-M "P -1"
_symmetry_group_IT_number 2
_symmetry_cell_setting 'triclinic'
loop_
_space_group_symop_operation_xyz
x,y,z
-x,-y,-z
loop_
_atom_site_type_symbol
_atom_site_label
_atom_site_fract_x
_atom_site_fract_y
_atom_site_fract_z
Si Si1 0.857370 0.186991 0.653142
Si Si2 0.538141 0.066325 0.422220
Si Si3 0.242029 0.327566 0.322111
Si Si4 0.099110 0.928858 0.783130
Si Si5 0.233791 0.298257 0.595300
Si Si6 0.749117 0.558811 0.771072
Si Si7 0.658481 0.281869 0.172905
O O1 0.738805 0.107304 0.537012
O O2 0.103326 0.232869 0.007674
O O3 0.928277 0.133254 0.480139
O O4 0.586892 0.286472 0.549475
O O5 0.224228 0.002181 0.367576
O O6 0.335589 0.172419 0.468659
O O7 0.331150 0.999702 0.076908
O O8 0.172649 0.348760 0.460895
O O9 0.152336 0.425189 0.281622
O O10 0.225988 0.841482 0.882268
O O11 0.503938 0.318090 0.942640
O O12 0.948271 0.323132 0.483877
O O13 0.500000 0.500000 0.500000
O O14 0.590473 0.675708 0.862406
O O15 0.000000 0.500000 0.000000
#
# Coordination Sequence:
#
# PCOD9054935 Si02
#       7
#     2   2   2   2   2   2   2
#     4  11  21  39  66  97 139 179 236 273 331 383
#     4  11  23  38  61 100 141 190 228 277 311 390
#     4  11  23  45  73  97 135 181 219 276 343 404
#     4  12  23  37  64  98 143 180 238 278 324 375
#     4  11  25  45  66  98 144 187 221 261 337 406
#     4  12  27  49  77 106 128 163 226 288 348 413
#     4  12  26  45  69  99 139 180 220 283 343 397
#
# _framework density 24.819275999999999
#
# number of rings (size 3 to 8) (size 9 to 14) (size 15 to 20)
#    0.000    0.571    1.429    8.571    2.000    3.429 
#    0.000    4.286    0.000    0.000    0.000    0.000 
#    0.000    0.000    0.000    0.000    0.000    0.000 
#
# Total GULP energy -78417.056161 kJ/mol
# GULP energy per Si atom -5601.218297 kJ/mol
# Density = 2.476279 g / cm^3
# Si number density = 24.819276 Si / 1000 Ang^3
#
#
#
# Elastic Constant Matrix: (Units=GPa)
#
#
# Indices 1 2 3 4 5 6 
#
# 1 88.7980 30.7613 26.7108 -13.6895 1.6514 2.6814
# 2 30.7613 73.3233 26.9738 -28.0031 6.1405 22.9606
# 3 26.7108 26.9738 143.7465 -15.9075 6.4502 14.1230
# 4 -13.6895 -28.0031 -15.9075 44.5091 -1.2371 -1.9461
# 5 1.6514 6.1405 6.4502 -1.2371 32.8205 -1.7316
# 6 2.6814 22.9606 14.1230 -1.9461 -1.7316 44.0646
#
#
#
# Elastic Compliance Matrix: (Units=1/GPa)
#
#
# Indices 1 2 3 4 5 6 
#
# 1 0.013814 -0.006220 -0.001752 -0.000133 0.000966 0.002994
# 2 -0.006220 0.025976 -0.000797 0.013473 -0.004541 -0.012485
# 3 -0.001752 -0.000797 0.007869 0.001648 -0.001352 -0.001981
# 4 -0.000133 0.013473 0.001648 0.031164 -0.001993 -0.006242
# 5 0.000966 -0.004541 -0.001352 -0.001993 0.031666 0.003897
# 6 0.002994 -0.012485 -0.001981 -0.006242 0.003897 0.029529
#
#
# Mechanical properties :
#
#
# Convention : Reuss Voigt Hill
#
# Bulk Modulus (GPa) = 33.19923 52.75107 42.97515
# Shear Modulus (GPa) = 29.83309 39.04029 34.43669
#
# Velocity S-wave (km/s) = 3.47077 3.97039 3.72895
# Velocity P-wave (km/s) = 5.42836 6.50529 5.99107
#
# Compressibility (1/GPa) = 0.03012118
#
# Stress axis : x y z
#
# Youngs Moduli (GPa) = 72.38776 38.49634 127.07376
#
# Poissons Ratio (x) = 0.23946 0.22263
# Poissons Ratio (y) = 0.45028 0.10130
# Poissons Ratio (z) = 0.12682 0.03069
#
# Static dielectric constant tensor:
#      x y z
#    x 1.992730 -0.014440 -0.072910 
#    y -0.014440 2.017640 0.014190 
#    z -0.072910 0.014190 1.905650 
# 
# From -- ./inp_files/223924.got.cif
#   From: 2010.05.17/outbox.cif.g08.bks.cpg/sg2_112_cif.got.tgz:223924.got - 2010.06.03 11:33:40.
