data_PCOD9054535
_publ_section_title
;
Structure prediction by ZEFSAII (Michael W. Deem and Ramdas Pophale) SiO2 
 PCOD9054535
Probable space group: P -1
;
_chemical_formula_sum "Si O2"
_cell_formula_units_Z 14
_cell_length_a 11.915898
_cell_length_b 14.070296
_cell_length_c 10.403036
_cell_angle_alpha 61.549969
_cell_angle_beta 48.021052
_cell_angle_gamma 32.267497
_cell_volume 674.522945
_symmetry_space_group_name_H-M "P -1"
_symmetry_group_IT_number 2
_symmetry_cell_setting 'triclinic'
loop_
_space_group_symop_operation_xyz
x,y,z
-x,-y,-z
loop_
_atom_site_type_symbol
_atom_site_label
_atom_site_fract_x
_atom_site_fract_y
_atom_site_fract_z
Si Si1 0.290465 0.582011 0.269673
Si Si2 0.142897 0.803646 0.987199
Si Si3 0.965675 0.644759 0.919335
Si Si4 0.241678 0.941619 0.341600
Si Si5 0.300971 0.026093 0.965640
Si Si6 0.483438 0.421196 0.673876
Si Si7 0.164353 0.212257 0.354927
O O1 0.564685 0.361342 0.188333
O O2 0.341290 0.642276 0.302844
O O3 0.047500 0.654197 0.458934
O O4 0.201150 0.696688 0.136935
O O5 0.928291 0.872782 0.017409
O O6 0.000000 0.000000 0.000000
O O7 0.959684 0.677582 0.754052
O O8 0.200868 0.573241 0.845205
O O9 0.724170 0.837141 0.048461
O O10 0.000000 0.500000 0.000000
O O11 0.463403 0.726965 0.330242
O O12 0.219495 0.052957 0.386493
O O13 0.000000 0.000000 0.500000
O O14 0.276336 0.968182 0.152240
O O15 0.573921 0.870147 0.785684
O O16 0.500000 0.500000 0.500000
#
# Coordination Sequence:
#
# PCOD9054535 Si02
#       7
#     2   2   2   2   2   2   2
#     4  11  24  44  66  94 130 167 234 271 320 396
#     4  11  26  46  70  91 124 181 233 280 323 383
#     4  11  21  37  62  98 134 168 202 263 338 398
#     4  11  21  35  66 101 135 174 210 264 334 404
#     4  11  23  43  64  96 138 171 219 269 335 393
#     4  12  20  36  63  97 130 165 216 268 326 394
#     4  11  23  41  62  99 138 168 212 274 336 404
#
# _framework density 20.755409
#
# number of rings (size 3 to 8) (size 9 to 14) (size 15 to 20)
#    0.000    0.857    4.286    5.143    0.000    0.571 
#    2.571    0.714    0.000    0.000    0.000    0.000 
#    0.000    0.000    0.000    0.000    0.000    0.000 
#
# Total GULP energy -78050.336915 kJ/mol
# GULP energy per Si atom -5575.024065 kJ/mol
# Density = 2.070817 g / cm^3
# Si number density = 20.755409 Si / 1000 Ang^3
#
#
#
# Elastic Constant Matrix: (Units=GPa)
#
#
# Indices 1 2 3 4 5 6 
#
# 1 71.8135 41.8102 39.7175 -0.1417 -11.7667 -7.4475
# 2 41.8102 125.5337 51.8708 10.0015 -11.3116 10.0708
# 3 39.7175 51.8708 119.7954 32.7384 -21.9302 -6.3168
# 4 -0.1417 10.0015 32.7384 43.6638 -9.5838 -10.2753
# 5 -11.7667 -11.3116 -21.9302 -9.5838 28.7208 4.2182
# 6 -7.4475 10.0708 -6.3168 -10.2753 4.2182 41.3919
#
#
#
# Elastic Compliance Matrix: (Units=1/GPa)
#
#
# Indices 1 2 3 4 5 6 
#
# 1 0.021741 -0.005532 -0.005982 0.008098 0.003989 0.005949
# 2 -0.005532 0.011543 -0.002966 -0.001488 0.000201 -0.004646
# 3 -0.005982 -0.002966 0.015137 -0.009870 0.004791 -0.000983
# 4 0.008098 -0.001488 -0.009870 0.033742 0.005258 0.008153
# 5 0.003989 0.000201 0.004791 0.005258 0.042178 -0.001593
# 6 0.005949 -0.004646 -0.000983 0.008153 -0.001593 0.028397
#
#
# Mechanical properties :
#
#
# Convention : Reuss Voigt Hill
#
# Bulk Modulus (GPa) = 51.38184 64.88217 58.13201
# Shear Modulus (GPa) = 26.56966 35.00491 30.78729
#
# Velocity S-wave (km/s) = 3.58177 4.11121 3.85559
# Velocity P-wave (km/s) = 6.47419 7.33923 6.92024
#
# Compressibility (1/GPa) = 0.01946213
#
# Stress axis : x y z
#
# Youngs Moduli (GPa) = 45.99665 86.62986 66.06210
#
# Poissons Ratio (x) = 0.47926 0.39517
# Poissons Ratio (y) = 0.25446 0.19591
# Poissons Ratio (z) = 0.27514 0.25691
#
# Static dielectric constant tensor:
#      x y z
#    x 1.779080 -0.048700 -0.078250 
#    y -0.048700 1.954140 0.194700 
#    z -0.078250 0.194700 1.878320 
# 
# From -- ./inp_files/239521.got.cif
#   From: 2010.05.17/outbox.cif.g08.bks.cpg/sg2_120_cif.got.tgz:239521.got - 2010.06.03 11:33:40.
