data_PCOD9054831
_publ_section_title
;
Structure prediction by ZEFSAII (Michael W. Deem and Ramdas Pophale) SiO2 
 PCOD9054831
Probable space group: P -1
;
_chemical_formula_sum "Si O2"
_cell_formula_units_Z 13
_cell_length_a 9.816567
_cell_length_b 6.592541
_cell_length_c 10.974136
_cell_angle_alpha 107.258446
_cell_angle_beta 85.728283
_cell_angle_gamma 119.685028
_cell_volume 586.967200
_symmetry_space_group_name_H-M "P -1"
_symmetry_group_IT_number 2
_symmetry_cell_setting 'triclinic'
loop_
_space_group_symop_operation_xyz
x,y,z
-x,-y,-z
loop_
_atom_site_type_symbol
_atom_site_label
_atom_site_fract_x
_atom_site_fract_y
_atom_site_fract_z
Si Si1 0.936789 0.982465 0.732191
Si Si2 0.745364 0.678766 0.360883
Si Si3 0.457151 0.834885 0.800833
Si Si4 0.000000 0.000000 0.000000
Si Si5 0.626054 0.785362 0.011627
Si Si6 0.155885 0.505217 0.442164
Si Si7 0.336206 0.029697 0.420294
O O1 0.812748 0.010044 0.660695
O O2 0.099520 0.102805 0.668831
O O3 0.882426 0.694712 0.696147
O O4 0.962913 0.083095 0.883922
O O5 0.674850 0.449449 0.235281
O O6 0.788967 0.586160 0.463018
O O7 0.636268 0.782014 0.438657
O O8 0.400849 0.029146 0.867285
O O9 0.524863 0.877630 0.668156
O O10 0.584622 0.852251 0.893380
O O11 0.806778 0.852958 0.017665
O O12 0.500000 0.500000 0.000000
O O13 0.283059 0.769091 0.435317
O O14 0.000000 0.500000 0.500000
#
# Coordination Sequence:
#
# PCOD9054831 Si02
#       7
#     2   2   2   1   2   2   2
#     4  11  23  42  66 104 136 179 240 289 342 422
#     4  11  23  41  68 104 140 179 229 294 353 424
#     4  11  26  46  68 104 144 182 237 288 360 422
#     4  12  26  46  78  98 136 196 238 288 358 410
#     4  11  27  50  70 103 146 190 239 300 343 425
#     4  11  21  38  68 100 138 181 230 285 354 416
#     4  11  22  43  69 100 144 179 224 295 351 420
#
# _framework density 22.147745
#
# number of rings (size 3 to 8) (size 9 to 14) (size 15 to 20)
#    0.000    0.923    4.615    2.308    4.308    1.846 
#    0.000    3.077    0.000    0.000    0.000    0.000 
#    0.000    0.000    0.000    0.000    0.000    0.000 
#
# Total GULP energy -72409.059680 kJ/mol
# GULP energy per Si atom -5569.927668 kJ/mol
# Density = 2.209734 g / cm^3
# Si number density = 22.147745 Si / 1000 Ang^3
#
#
#
# Elastic Constant Matrix: (Units=GPa)
#
#
# Indices 1 2 3 4 5 6 
#
# 1 99.9421 39.4169 21.8414 11.4600 4.8062 15.5767
# 2 39.4169 115.2344 30.3680 12.6989 -20.8087 -5.5753
# 3 21.8414 30.3680 58.6681 1.0895 -2.7247 0.1809
# 4 11.4600 12.6989 1.0895 43.5223 -0.7302 0.1705
# 5 4.8062 -20.8087 -2.7247 -0.7302 26.0153 -4.8528
# 6 15.5767 -5.5753 0.1809 0.1705 -4.8528 25.9567
#
#
#
# Elastic Compliance Matrix: (Units=1/GPa)
#
#
# Indices 1 2 3 4 5 6 
#
# 1 0.016548 -0.007522 -0.002740 -0.002241 -0.011989 -0.013754
# 2 -0.007522 0.016172 -0.004826 -0.002395 0.015803 0.010991
# 3 -0.002740 -0.004826 0.020481 0.001597 -0.001119 0.000245
# 4 -0.002241 -0.002395 0.001597 0.024214 -0.000551 0.000557
# 5 -0.011989 0.015803 -0.001119 -0.000551 0.057131 0.021282
# 6 -0.013754 0.010991 0.000245 0.000557 0.021282 0.053114
#
#
# Mechanical properties :
#
#
# Convention : Reuss Voigt Hill
#
# Bulk Modulus (GPa) = 43.43085 50.78858 47.10972
# Shear Modulus (GPa) = 22.17168 31.24674 26.70921
#
# Velocity S-wave (km/s) = 3.16742 3.76018 3.47646
# Velocity P-wave (km/s) = 5.74708 6.46788 6.11810
#
# Compressibility (1/GPa) = 0.02302511
#
# Stress axis : x y z
#
# Youngs Moduli (GPa) = 60.42848 61.83467 48.82588
#
# Poissons Ratio (x) = 0.46512 0.13379
# Poissons Ratio (y) = 0.45454 0.23565
# Poissons Ratio (z) = 0.16558 0.29843
#
# Static dielectric constant tensor:
#      x y z
#    x 1.813920 0.007440 0.000710 
#    y 0.007440 1.780170 0.049550 
#    z 0.000710 0.049550 1.892540 
# 
# From -- ./inp_files/23186.got.cif
#   From: 2010.05.17/outbox.cif.g08.bks.cpg/sg2_12_cif.got.tgz:23186.got - 2010.06.03 11:33:40.
