data_PCOD9054271
_publ_section_title
;
Structure prediction by ZEFSAII (Michael W. Deem and Ramdas Pophale) SiO2 
 PCOD9054271
Probable space group: P -1
;
_chemical_formula_sum "Si O2"
_cell_formula_units_Z 15
_cell_length_a 11.814526
_cell_length_b 12.055037
_cell_length_c 8.467090
_cell_angle_alpha 85.518484
_cell_angle_beta 106.568438
_cell_angle_gamma 36.162900
_cell_volume 571.762056
_symmetry_space_group_name_H-M "P -1"
_symmetry_group_IT_number 2
_symmetry_cell_setting 'triclinic'
loop_
_space_group_symop_operation_xyz
x,y,z
-x,-y,-z
loop_
_atom_site_type_symbol
_atom_site_label
_atom_site_fract_x
_atom_site_fract_y
_atom_site_fract_z
Si Si1 0.202188 0.664363 0.046317
Si Si2 0.183693 0.451277 0.229855
Si Si3 0.269033 0.235161 0.803305
Si Si4 0.791292 0.149780 0.740712
Si Si5 0.500000 0.000000 0.500000
Si Si6 0.281659 0.797310 0.640146
Si Si7 0.340079 0.408953 0.643360
Si Si8 0.845032 0.856279 0.492076
O O1 0.160806 0.568460 0.081008
O O2 0.140179 0.788446 0.165087
O O3 0.486708 0.438844 0.150750
O O4 0.014888 0.882688 0.835294
O O5 0.359176 0.203678 0.306912
O O6 0.276380 0.433498 0.432962
O O7 0.935964 0.599725 0.167353
O O8 0.332721 0.299147 0.743619
O O9 0.188707 0.222213 0.628148
O O10 0.500000 0.000000 0.000000
O O11 0.659964 0.275492 0.510583
O O12 0.597740 0.252679 0.767385
O O13 0.270275 0.098585 0.400079
O O14 0.283302 0.929303 0.646951
O O15 0.000000 0.000000 0.500000
O O16 0.126944 0.650466 0.614395
#
# Coordination Sequence:
#
# PCOD9054271 Si02
#       8
#     2   2   2   2   1   2   2   2
#     4  11  24  44  69  98 131 177 227 278 322 397
#     4  11  21  39  69  92 133 173 218 270 331 397
#     4  11  23  40  62  99 130 174 226 271 324 398
#     4  11  25  44  69  97 131 176 230 276 326 396
#     4  12  18  40  64  94 128 168 212 270 330 396
#     4  12  26  44  69  99 136 176 218 274 347 393
#     4  11  20  42  65  92 126 177 230 263 328 399
#     4  11  23  40  67  94 131 177 217 272 333 395
#
# _framework density 26.234688999999999
#
# number of rings (size 3 to 8) (size 9 to 14) (size 15 to 20)
#    0.000    0.800    5.333    2.800    3.733    0.533 
#    2.400    0.667    0.000    0.000    0.000    0.000 
#    0.000    0.000    0.000    0.000    0.000    0.000 
#
# Total GULP energy -83632.080526 kJ/mol
# GULP energy per Si atom -5575.472035 kJ/mol
# Density = 2.617498 g / cm^3
# Si number density = 26.234689 Si / 1000 Ang^3
#
#
#
# Elastic Constant Matrix: (Units=GPa)
#
#
# Indices 1 2 3 4 5 6 
#
# 1 111.3486 26.1491 45.9670 -22.1414 4.9142 -9.9947
# 2 26.1491 74.8216 17.6263 -33.0323 -3.9883 7.6075
# 3 45.9670 17.6263 108.4745 -39.4130 -10.0681 -1.4980
# 4 -22.1414 -33.0323 -39.4130 42.0970 -5.5090 0.5678
# 5 4.9142 -3.9883 -10.0681 -5.5090 41.5097 -21.1545
# 6 -9.9947 7.6075 -1.4980 0.5678 -21.1545 35.6506
#
#
#
# Elastic Compliance Matrix: (Units=1/GPa)
#
#
# Indices 1 2 3 4 5 6 
#
# 1 0.012155 -0.004520 -0.005522 -0.002632 -0.002051 0.002965
# 2 -0.004520 0.024924 0.007633 0.025251 0.006787 -0.002640
# 3 -0.005522 0.007633 0.019788 0.023033 0.011269 0.003974
# 4 -0.002632 0.025251 0.023033 0.066289 0.020004 0.005656
# 5 -0.002051 0.006787 0.011269 0.020004 0.042176 0.023158
# 6 0.002965 -0.002640 0.003974 0.005656 0.023158 0.043263
#
#
# Mechanical properties :
#
#
# Convention : Reuss Voigt Hill
#
# Bulk Modulus (GPa) = 19.21226 52.68107 35.94667
# Shear Modulus (GPa) = 21.66723 37.51163 29.58943
#
# Velocity S-wave (km/s) = 2.87697 3.78544 3.36203
# Velocity P-wave (km/s) = 4.28661 6.26341 5.36681
#
# Compressibility (1/GPa) = 0.05205009
#
# Stress axis : x y z
#
# Youngs Moduli (GPa) = 82.26912 40.12145 50.53594
#
# Poissons Ratio (x) = 0.18135 0.27906
# Poissons Ratio (y) = 0.37185 -0.38576
# Poissons Ratio (z) = 0.45430 -0.30626
#
# Static dielectric constant tensor:
#      x y z
#    x 2.083530 -0.064160 0.052950 
#    y -0.064160 2.164150 -0.033430 
#    z 0.052950 -0.033430 2.032740 
# 
# From -- ./inp_files/273693.got.cif
#   From: 2010.05.17/outbox.cif.g08.bks.cpg/sg2_137_cif.got.tgz:273693.got - 2010.06.03 11:33:40.
