data_PCOD9054866
_publ_section_title
;
Structure prediction by ZEFSAII (Michael W. Deem and Ramdas Pophale) SiO2 
 PCOD9054866
Probable space group: P -1
;
_chemical_formula_sum "Si O2"
_cell_formula_units_Z 14
_cell_length_a 23.585419
_cell_length_b 23.424839
_cell_length_c 10.831745
_cell_angle_alpha 34.715776
_cell_angle_beta 36.230397
_cell_angle_gamma 11.788639
_cell_volume 696.186152
_symmetry_space_group_name_H-M "P -1"
_symmetry_group_IT_number 2
_symmetry_cell_setting 'triclinic'
loop_
_space_group_symop_operation_xyz
x,y,z
-x,-y,-z
loop_
_atom_site_type_symbol
_atom_site_label
_atom_site_fract_x
_atom_site_fract_y
_atom_site_fract_z
Si Si1 0.494693 0.717818 0.463514
Si Si2 0.032119 0.852882 0.235488
Si Si3 0.619939 0.025551 0.330242
Si Si4 0.250818 0.087967 0.071146
Si Si5 0.717912 0.701488 0.793062
Si Si6 0.888084 0.394108 0.656589
Si Si7 0.061882 0.554698 0.768834
O O1 0.740230 0.395873 0.617788
O O2 0.644174 0.674912 0.325289
O O3 0.393710 0.839257 0.284592
O O4 0.256044 0.910708 0.629716
O O5 0.132269 0.691087 0.227533
O O6 0.000000 0.000000 0.000000
O O7 0.457124 0.187298 0.199631
O O8 0.392910 0.281922 0.374408
O O9 0.736106 0.797571 0.544036
O O10 0.888808 0.829458 0.228160
O O11 0.111752 0.229426 0.197961
O O12 0.005280 0.365493 0.918862
O O13 0.510758 0.905103 0.912068
O O14 0.012927 0.345623 0.417552
O O15 0.000000 0.500000 0.000000
#
# Coordination Sequence:
#
# PCOD9054866 Si02
#       7
#     2   2   2   2   2   2   2
#     4  11  21  39  56  91 122 148 207 237 303 372
#     4  11  23  41  64  90 122 156 195 257 323 375
#     4  11  23  39  54  83 121 165 211 249 275 346
#     4  12  21  37  56  83 120 157 205 239 290 355
#     4  11  23  37  57  81 119 174 213 233 283 344
#     4  11  22  37  59  85 124 150 200 250 303 362
#     4  11  22  34  56  87 128 162 187 234 305 367
#
# _framework density 20.109563999999999
#
# number of rings (size 3 to 8) (size 9 to 14) (size 15 to 20)
#    0.000    0.857    4.286    5.571    0.000    2.857 
#    0.000    0.000    0.000    0.000    0.000   20.000 
#    0.000    0.000    0.000    0.000    0.000    0.000 
#
# Total GULP energy -77991.504821 kJ/mol
# GULP energy per Si atom -5570.821773 kJ/mol
# Density = 2.006379 g / cm^3
# Si number density = 20.109564 Si / 1000 Ang^3
#
#
#
# Elastic Constant Matrix: (Units=GPa)
#
#
# Indices 1 2 3 4 5 6 
#
# 1 44.5135 17.1165 24.8745 -15.9382 -6.1294 -5.1624
# 2 17.1165 127.8535 42.6129 -18.3002 0.0958 -15.5128
# 3 24.8745 42.6129 115.2746 -23.8908 -20.0970 -10.5147
# 4 -15.9382 -18.3002 -23.8908 42.6491 0.0932 13.6162
# 5 -6.1294 0.0958 -20.0970 0.0932 19.2210 -5.3101
# 6 -5.1624 -15.5128 -10.5147 13.6162 -5.3101 27.1112
#
#
#
# Elastic Compliance Matrix: (Units=1/GPa)
#
#
# Indices 1 2 3 4 5 6 
#
# 1 0.028498 -0.001692 -0.002638 0.008256 0.006451 0.000552
# 2 -0.001692 0.009620 -0.003360 0.000702 -0.003309 0.002879
# 3 -0.002638 -0.003360 0.014425 0.004345 0.015340 0.003992
# 4 0.008256 0.000702 0.004345 0.033187 0.003613 -0.012301
# 5 0.006451 -0.003309 0.015340 0.003613 0.075147 0.018189
# 6 0.000552 0.002879 0.003992 -0.012301 0.018189 0.049927
#
#
# Mechanical properties :
#
#
# Convention : Reuss Voigt Hill
#
# Bulk Modulus (GPa) = 26.90819 50.76107 38.83463
# Shear Modulus (GPa) = 20.95810 31.33209 26.14510
#
# Velocity S-wave (km/s) = 3.23181 3.95152 3.60965
# Velocity P-wave (km/s) = 5.22838 6.79091 6.06021
#
# Compressibility (1/GPa) = 0.03716340
#
# Stress axis : x y z
#
# Youngs Moduli (GPa) = 35.09003 103.95005 69.32284
#
# Poissons Ratio (x) = 0.17590 0.18287
# Poissons Ratio (y) = 0.05938 0.23292
# Poissons Ratio (z) = 0.09257 0.34926
#
# Static dielectric constant tensor:
#      x y z
#    x 1.783260 0.001760 0.034660 
#    y 0.001760 1.869510 -0.102790 
#    z 0.034660 -0.102790 1.807640 
# 
# From -- ./inp_files/441200.got.cif
#   From: 2010.05.17/outbox.cif.g08.bks.cpg/sg2_221_cif.got.tgz:441200.got - 2010.06.03 11:33:40.
