data_PCOD9054603
_publ_section_title
;
Structure prediction by ZEFSAII (Michael W. Deem and Ramdas Pophale) SiO2 
 PCOD9054603
Probable space group: P -1
;
_chemical_formula_sum "Si O2"
_cell_formula_units_Z 16
_cell_length_a 21.553180
_cell_length_b 5.941759
_cell_length_c 8.815340
_cell_angle_alpha 82.518048
_cell_angle_beta 59.785615
_cell_angle_gamma 47.142782
_cell_volume 673.867729
_symmetry_space_group_name_H-M "P -1"
_symmetry_group_IT_number 2
_symmetry_cell_setting 'triclinic'
loop_
_space_group_symop_operation_xyz
x,y,z
-x,-y,-z
loop_
_atom_site_type_symbol
_atom_site_label
_atom_site_fract_x
_atom_site_fract_y
_atom_site_fract_z
Si Si1 0.825586 0.635516 0.651516
Si Si2 0.703406 0.792388 0.229407
Si Si3 0.198682 0.838309 0.171197
Si Si4 0.407569 0.598498 0.856283
Si Si5 0.062866 0.641531 0.004424
Si Si6 0.634267 0.132869 0.619409
Si Si7 0.596786 0.616220 0.429089
Si Si8 0.992995 0.401025 0.240567
O O1 0.814338 0.397586 0.743026
O O2 0.930169 0.416578 0.444346
O O3 0.829543 0.868012 0.720300
O O4 0.725335 0.893475 0.645307
O O5 0.819866 0.594741 0.074448
O O6 0.693877 0.545180 0.270966
O O7 0.639714 0.041698 0.142682
O O8 0.668136 0.944888 0.431615
O O9 0.319167 0.626889 0.015447
O O10 0.112319 0.053592 0.125620
O O11 0.522121 0.311206 0.805128
O O12 0.423538 0.511770 0.667255
O O13 0.065455 0.501432 0.854354
O O14 0.002068 0.652920 0.212406
O O15 0.000000 0.000000 0.000000
O O16 0.615130 0.441009 0.575253
O O17 0.500000 0.000000 0.500000
#
# Coordination Sequence:
#
# PCOD9054603 Si02
#       8
#     2   2   2   2   2   2   2   2
#     4  12  30  49  73  99 140 200 246 291 342 412
#     4  11  21  42  65 106 142 178 223 293 378 428
#     4  12  30  49  73  99 140 200 246 291 342 412
#     4  11  24  42  68 104 142 183 238 291 356 426
#     4  11  26  39  76 109 139 176 223 308 376 421
#     4  11  24  42  68 104 142 183 238 291 356 426
#     4  11  21  36  71 103 137 182 222 292 371 422
#     4  11  26  48  68 106 140 181 238 300 362 429
#
# _framework density 23.743534
#
# number of rings (size 3 to 8) (size 9 to 14) (size 15 to 20)
#    0.000    0.750    5.000    1.500   10.500    1.000 
#    0.000    0.000    0.000    0.000    0.000    0.000 
#    0.000    0.000    0.000    0.000    0.000    0.000 
#
# Total GULP energy -89143.756355 kJ/mol
# GULP energy per Si atom -5571.484772 kJ/mol
# Density = 2.368949 g / cm^3
# Si number density = 23.743534 Si / 1000 Ang^3
#
#
#
# Elastic Constant Matrix: (Units=GPa)
#
#
# Indices 1 2 3 4 5 6 
#
# 1 87.5763 26.7433 33.7098 0.3716 -25.9010 -4.8111
# 2 26.7433 112.7385 25.0241 -22.6529 -18.8268 -0.3072
# 3 33.7098 25.0241 82.9874 -5.4572 -44.1470 15.8060
# 4 0.3716 -22.6529 -5.4572 35.4343 3.9148 -9.4721
# 5 -25.9010 -18.8268 -44.1470 3.9148 54.5852 -1.2235
# 6 -4.8111 -0.3072 15.8060 -9.4721 -1.2235 44.0701
#
#
#
# Elastic Compliance Matrix: (Units=1/GPa)
#
#
# Indices 1 2 3 4 5 6 
#
# 1 0.014892 -0.002453 -0.004509 -0.001955 0.002778 0.002883
# 2 -0.002453 0.011554 -0.002054 0.007612 0.000664 0.002204
# 3 -0.004509 -0.002054 0.025721 -0.001854 0.017872 -0.009634
# 4 -0.001955 0.007612 -0.001854 0.035201 -0.002147 0.008011
# 5 0.002778 0.000664 0.017872 -0.002147 0.034349 -0.005610
# 6 0.002883 0.002204 -0.009634 0.008011 -0.005610 0.028043
#
#
# Mechanical properties :
#
#
# Convention : Reuss Voigt Hill
#
# Bulk Modulus (GPa) = 29.29521 50.47296 39.88409
# Shear Modulus (GPa) = 27.90650 40.00625 33.95638
#
# Velocity S-wave (km/s) = 3.43203 4.10925 3.78581
# Velocity P-wave (km/s) = 5.29812 6.61953 5.99534
#
# Compressibility (1/GPa) = 0.03413527
#
# Stress axis : x y z
#
# Youngs Moduli (GPa) = 67.15222 86.54977 38.87840
#
# Poissons Ratio (x) = 0.21227 0.17531
# Poissons Ratio (y) = 0.16470 0.07986
# Poissons Ratio (z) = 0.30280 0.17777
#
# Static dielectric constant tensor:
#      x y z
#    x 2.168150 -0.099010 -0.034250 
#    y -0.099010 2.293590 0.140400 
#    z -0.034250 0.140400 2.016190 
# 
# From -- ./inp_files/53962.got.cif
#   From: 2010.05.17/outbox.cif.g08.bks.cpg/sg2_27_cif.got.tgz:53962.got - 2010.06.03 11:33:40.
