data_PCOD9054440
_publ_section_title
;
Structure prediction by ZEFSAII (Michael W. Deem and Ramdas Pophale) SiO2 
 PCOD9054440
Probable space group: P -1
;
_chemical_formula_sum "Si O2"
_cell_formula_units_Z 16
_cell_length_a 12.827395
_cell_length_b 9.249521
_cell_length_c 18.718313
_cell_angle_alpha 73.653470
_cell_angle_beta 143.304942
_cell_angle_gamma 133.230649
_cell_volume 762.455119
_symmetry_space_group_name_H-M "P -1"
_symmetry_group_IT_number 2
_symmetry_cell_setting 'triclinic'
loop_
_space_group_symop_operation_xyz
x,y,z
-x,-y,-z
loop_
_atom_site_type_symbol
_atom_site_label
_atom_site_fract_x
_atom_site_fract_y
_atom_site_fract_z
Si Si1 0.160746 0.895736 0.688205
Si Si2 0.198400 0.602348 0.807303
Si Si3 0.118543 0.865226 0.898854
Si Si4 0.910227 0.098498 0.967070
Si Si5 0.710033 0.086838 0.539704
Si Si6 0.789349 0.790811 0.601668
Si Si7 0.710463 0.202206 0.367724
Si Si8 0.201283 0.576149 0.977346
O O1 0.071114 0.681321 0.712127
O O2 0.211125 0.871478 0.638331
O O3 0.915922 0.846237 0.584140
O O4 0.467701 0.170437 0.848756
O O5 0.174975 0.527629 0.885401
O O6 0.027857 0.374037 0.693146
O O7 0.537761 0.865425 0.944775
O O8 0.063876 0.648138 0.899016
O O9 0.015807 0.879324 0.770590
O O10 0.986371 0.832508 0.903881
O O11 0.056595 0.342213 0.974331
O O12 0.563266 0.890884 0.798811
O O13 0.000000 0.000000 0.000000
O O14 0.616305 0.076283 0.411154
O O15 0.500000 0.000000 0.500000
O O16 0.732668 0.924236 0.569464
O O17 0.500000 0.500000 0.500000
O O18 0.000000 0.500000 0.500000
#
# Coordination Sequence:
#
# PCOD9054440 Si02
#       8
#     2   2   2   2   2   2   2   2
#     4  11  22  46  74 105 136 188 244 301 357 433
#     4  11  20  45  74  98 138 186 236 287 363 428
#     4  11  23  44  71 101 137 185 236 297 356 423
#     4  12  28  43  70 110 145 188 243 303 354 431
#     4  12  28  45  71 106 145 195 235 293 374 431
#     4  12  28  44  71 110 143 186 249 303 360 441
#     4  12  26  48  75 101 153 198 234 296 376 431
#     4  11  22  43  76 101 139 180 236 294 364 412
#
# _framework density 20.984843000000001
#
# number of rings (size 3 to 8) (size 9 to 14) (size 15 to 20)
#    0.000    0.500    6.250    2.625    5.250    3.000 
#    0.000    0.000    0.000    0.000    0.000    0.000 
#    0.000    0.000    0.000    0.000    0.000    0.000 
#
# Total GULP energy -89399.545656 kJ/mol
# GULP energy per Si atom -5587.471604 kJ/mol
# Density = 2.093708 g / cm^3
# Si number density = 20.984843 Si / 1000 Ang^3
#
#
#
# Elastic Constant Matrix: (Units=GPa)
#
#
# Indices 1 2 3 4 5 6 
#
# 1 169.5236 41.0521 37.5483 -17.2925 -6.3828 -2.0854
# 2 41.0521 86.7564 23.0399 7.8210 8.4778 -13.7456
# 3 37.5483 23.0399 72.4941 11.3858 -9.6526 -11.9447
# 4 -17.2925 7.8210 11.3858 24.9619 3.8350 -6.8355
# 5 -6.3828 8.4778 -9.6526 3.8350 34.6778 -9.3144
# 6 -2.0854 -13.7456 -11.9447 -6.8355 -9.3144 37.4573
#
#
#
# Elastic Compliance Matrix: (Units=1/GPa)
#
#
# Indices 1 2 3 4 5 6 
#
# 1 0.008890 -0.003848 -0.005008 0.009438 -0.000079 -0.000811
# 2 -0.003848 0.015159 -0.002031 -0.005148 -0.003643 0.002856
# 3 -0.005008 -0.002031 0.020938 -0.012145 0.008218 0.005480
# 4 0.009438 -0.005148 -0.012145 0.055573 -0.005587 0.003516
# 5 -0.000079 -0.003643 0.008218 -0.005587 0.035028 0.008970
# 6 -0.000811 0.002856 0.005480 0.003516 0.008970 0.032320
#
#
# Mechanical properties :
#
#
# Convention : Reuss Voigt Hill
#
# Bulk Modulus (GPa) = 43.07875 59.11719 51.09797
# Shear Modulus (GPa) = 25.32673 34.56165 29.94419
#
# Velocity S-wave (km/s) = 3.47782 4.06270 3.78159
# Velocity P-wave (km/s) = 6.05806 7.08802 6.59318
#
# Compressibility (1/GPa) = 0.02321330
#
# Stress axis : x y z
#
# Youngs Moduli (GPa) = 112.48737 65.96571 47.75961
#
# Poissons Ratio (x) = 0.25386 0.23918
# Poissons Ratio (y) = 0.43289 0.09699
# Poissons Ratio (z) = 0.56333 0.13396
#
# Static dielectric constant tensor:
#      x y z
#    x 1.828840 -0.006770 0.058410 
#    y -0.006770 1.787880 -0.101210 
#    z 0.058410 -0.101210 1.919840 
# 
# From -- ./inp_files/283022.got.cif
#   From: 2010.05.17/outbox.cif.g08.bks.cpg/sg2_142_cif.got.tgz:283022.got - 2010.06.03 11:33:40.
