data_PCOD9054364
_publ_section_title
;
Structure prediction by ZEFSAII (Michael W. Deem and Ramdas Pophale) SiO2 
 PCOD9054364
Probable space group: P -1
;
_chemical_formula_sum "Si O2"
_cell_formula_units_Z 16
_cell_length_a 8.706674
_cell_length_b 12.976562
_cell_length_c 9.926692
_cell_angle_alpha 109.031564
_cell_angle_beta 43.393255
_cell_angle_gamma 118.681444
_cell_volume 675.485759
_symmetry_space_group_name_H-M "P -1"
_symmetry_group_IT_number 2
_symmetry_cell_setting 'triclinic'
loop_
_space_group_symop_operation_xyz
x,y,z
-x,-y,-z
loop_
_atom_site_type_symbol
_atom_site_label
_atom_site_fract_x
_atom_site_fract_y
_atom_site_fract_z
Si Si1 0.752706 0.291596 0.271297
Si Si2 0.581415 0.296018 0.812756
Si Si3 0.770785 0.691496 0.336978
Si Si4 0.586834 0.541470 0.147317
Si Si5 0.976215 0.868961 0.492393
Si Si6 0.887394 0.529426 0.403921
Si Si7 0.548946 0.279971 0.118589
Si Si8 0.661489 0.129534 0.499179
O O1 0.487063 0.295767 0.474779
O O2 0.930331 0.419464 0.262892
O O3 0.721697 0.267559 0.121308
O O4 0.785273 0.198298 0.313710
O O5 0.436395 0.384265 0.936937
O O6 0.519097 0.204838 0.690904
O O7 0.866378 0.375162 0.658416
O O8 0.547544 0.230919 0.949217
O O9 0.768973 0.642953 0.168577
O O10 0.971047 0.806073 0.324450
O O11 0.783981 0.587374 0.378061
O O12 0.317984 0.509782 0.369400
O O13 0.624202 0.419696 0.098639
O O14 0.720425 0.784959 0.682604
O O15 0.166440 0.874564 0.489519
O O16 0.000000 0.000000 0.500000
O O17 0.500000 0.000000 0.500000
#
# Coordination Sequence:
#
# PCOD9054364 Si02
#       8
#     2   2   2   2   2   2   2   2
#     4  10  20  37  64  89 124 164 206 250 293 377
#     4  12  25  36  62  99 131 157 202 266 309 356
#     4  10  17  35  64  90 119 158 215 243 293 363
#     4  11  19  37  63  92 129 171 198 244 305 386
#     4  11  24  42  68  89 116 168 216 252 301 374
#     4  11  18  35  63  92 123 166 210 241 301 376
#     4  11  23  42  60  95 135 160 193 258 326 358
#     4  12  24  42  67  91 115 163 224 256 291 365
#
# _framework density 23.686657
#
# number of rings (size 3 to 8) (size 9 to 14) (size 15 to 20)
#    0.000    1.000    7.500    3.000    1.750    0.500 
#    0.000    3.125    0.000    0.000    0.000    0.000 
#    0.000    0.000    0.000    0.000    0.000    0.000 
#
# Total GULP energy -89365.660063 kJ/mol
# GULP energy per Si atom -5585.353754 kJ/mol
# Density = 2.363274 g / cm^3
# Si number density = 23.686657 Si / 1000 Ang^3
#
#
#
# Elastic Constant Matrix: (Units=GPa)
#
#
# Indices 1 2 3 4 5 6 
#
# 1 98.7568 43.7676 10.4788 -4.4087 13.4692 -13.1702
# 2 43.7676 148.8137 21.0428 10.8253 21.6733 2.9183
# 3 10.4788 21.0428 63.7845 4.9346 25.2367 3.4735
# 4 -4.4087 10.8253 4.9346 21.6819 2.0849 13.3522
# 5 13.4692 21.6733 25.2367 2.0849 44.8089 -7.7710
# 6 -13.1702 2.9183 3.4735 13.3522 -7.7710 47.2796
#
#
#
# Elastic Compliance Matrix: (Units=1/GPa)
#
#
# Indices 1 2 3 4 5 6 
#
# 1 0.012489 -0.003659 -0.000732 0.002982 -0.001240 0.002713
# 2 -0.003659 0.008601 -0.000890 -0.004152 -0.002491 -0.000722
# 3 -0.000732 -0.000890 0.020989 -0.001377 -0.011664 -0.003219
# 4 0.002982 -0.004152 -0.001377 0.059450 -0.003690 -0.016208
# 5 -0.001240 -0.002491 -0.011664 -0.003690 0.031839 0.006940
# 6 0.002713 -0.000722 -0.003219 -0.016208 0.006940 0.027905
#
#
# Mechanical properties :
#
#
# Convention : Reuss Voigt Hill
#
# Bulk Modulus (GPa) = 31.73083 51.32595 41.52839
# Shear Modulus (GPa) = 27.42094 38.49178 32.95636
#
# Velocity S-wave (km/s) = 3.40612 4.03555 3.73412
# Velocity P-wave (km/s) = 5.37532 6.59014 6.01349
#
# Compressibility (1/GPa) = 0.03151509
#
# Stress axis : x y z
#
# Youngs Moduli (GPa) = 80.06846 116.26804 47.64437
#
# Poissons Ratio (x) = 0.42544 0.03489
# Poissons Ratio (y) = 0.29298 0.04242
# Poissons Ratio (z) = 0.05864 0.10352
#
# Static dielectric constant tensor:
#      x y z
#    x 1.948620 -0.012890 -0.024510 
#    y -0.012890 1.864060 0.036110 
#    z -0.024510 0.036110 2.018670 
# 
# From -- ./inp_files/189031.got.cif
#   From: 2010.05.17/outbox.cif.g08.bks.cpg/sg2_95_cif.got.tgz:189031.got - 2010.06.03 11:33:40.
