data_PCOD9054315
_publ_section_title
;
Structure prediction by ZEFSAII (Michael W. Deem and Ramdas Pophale) SiO2 
 PCOD9054315
Probable space group: P -1
;
_chemical_formula_sum "Si O2"
_cell_formula_units_Z 14
_cell_length_a 12.212659
_cell_length_b 9.608289
_cell_length_c 7.097125
_cell_angle_alpha 116.765181
_cell_angle_beta 52.481253
_cell_angle_gamma 100.486945
_cell_volume 584.740279
_symmetry_space_group_name_H-M "P -1"
_symmetry_group_IT_number 2
_symmetry_cell_setting 'triclinic'
loop_
_space_group_symop_operation_xyz
x,y,z
-x,-y,-z
loop_
_atom_site_type_symbol
_atom_site_label
_atom_site_fract_x
_atom_site_fract_y
_atom_site_fract_z
Si Si1 0.350812 0.033919 0.274090
Si Si2 0.354248 0.605350 0.672674
Si Si3 0.469946 0.181781 0.583638
Si Si4 0.236014 0.404481 0.156114
Si Si5 0.100698 0.180114 0.431634
Si Si6 0.139113 0.388830 0.825474
Si Si7 0.783447 0.249017 0.708386
O O1 0.305922 0.885663 0.342550
O O2 0.373675 0.169312 0.486478
O O3 0.239265 0.054893 0.228716
O O4 0.500000 0.000000 0.000000
O O5 0.500000 0.500000 0.500000
O O6 0.396498 0.737859 0.570263
O O7 0.255135 0.475139 0.647838
O O8 0.282866 0.687856 0.983681
O O9 0.500000 0.000000 0.500000
O O10 0.614997 0.701889 0.103416
O O11 0.148993 0.320635 0.345659
O O12 0.232951 0.591377 0.300298
O O13 0.163746 0.390032 0.021047
O O14 0.102483 0.227530 0.678164
O O15 0.944443 0.170323 0.521642
O O16 0.000000 0.500000 0.000000
#
# Coordination Sequence:
#
# PCOD9054315 Si02
#       7
#     2   2   2   2   2   2   2
#     4  12  25  44  69  98 136 183 223 276 347 396
#     4  11  20  42  70  96 135 176 225 278 333 401
#     4  12  25  45  65 102 140 177 227 285 335 402
#     4  11  24  44  70  99 136 175 231 277 331 404
#     4  12  24  45  71 100 141 176 225 284 339 402
#     4  11  22  41  73 102 130 180 224 278 343 395
#     4  11  24  42  70 102 134 179 228 276 339 404
#
# _framework density 23.942253000000001
#
# number of rings (size 3 to 8) (size 9 to 14) (size 15 to 20)
#    0.000    0.571    8.571    1.714    0.000    1.143 
#    0.000    2.857    0.000    0.000    0.000    0.000 
#    0.000    0.000    0.000    0.000    0.000    0.000 
#
# Total GULP energy -78118.764563 kJ/mol
# GULP energy per Si atom -5579.911754 kJ/mol
# Density = 2.388776 g / cm^3
# Si number density = 23.942253 Si / 1000 Ang^3
#
#
#
# Elastic Constant Matrix: (Units=GPa)
#
#
# Indices 1 2 3 4 5 6 
#
# 1 78.6477 50.5624 34.1040 -5.4080 -20.6622 10.7305
# 2 50.5624 160.9465 17.5000 -10.5523 -17.9784 2.0226
# 3 34.1040 17.5000 67.4139 -4.9503 -35.7052 10.1147
# 4 -5.4080 -10.5523 -4.9503 36.8163 2.1658 -2.1256
# 5 -20.6622 -17.9784 -35.7052 2.1658 47.6033 3.9754
# 6 10.7305 2.0226 10.1147 -2.1256 3.9754 42.8658
#
#
#
# Elastic Compliance Matrix: (Units=1/GPa)
#
#
# Indices 1 2 3 4 5 6 
#
# 1 0.020256 -0.005336 -0.007736 0.000155 0.001226 -0.003099
# 2 -0.005336 0.008018 0.001630 0.001655 0.001819 0.000486
# 3 -0.007736 0.001630 0.030442 0.001799 0.020606 -0.007145
# 4 0.000155 0.001655 0.001799 0.027904 0.000707 0.000777
# 5 0.001226 0.001819 0.020606 0.000707 0.038383 -0.008779
# 6 -0.003099 0.000486 -0.007145 0.000777 -0.008779 0.026620
#
#
# Mechanical properties :
#
#
# Convention : Reuss Voigt Hill
#
# Bulk Modulus (GPa) = 27.90909 56.81565 42.36237
# Shear Modulus (GPa) = 26.81651 39.11318 32.96485
#
# Velocity S-wave (km/s) = 3.35034 4.04622 3.71462
# Velocity P-wave (km/s) = 5.16222 6.75359 6.01081
#
# Compressibility (1/GPa) = 0.03583061
#
# Stress axis : x y z
#
# Youngs Moduli (GPa) = 49.36828 124.71982 32.84892
#
# Poissons Ratio (x) = 0.66555 0.25413
# Poissons Ratio (y) = 0.26345 -0.05354
# Poissons Ratio (z) = 0.38194 -0.20329
#
# Static dielectric constant tensor:
#      x y z
#    x 1.878150 0.008160 0.064580 
#    y 0.008160 1.973290 0.083100 
#    z 0.064580 0.083100 2.052450 
# 
# From -- ./inp_files/227647.got.cif
#   From: 2010.05.17/outbox.cif.g08.bks.cpg/sg2_114_cif.got.tgz:227647.got - 2010.06.03 11:33:40.
