data_PCOD9054521
_publ_section_title
;
Structure prediction by ZEFSAII (Michael W. Deem and Ramdas Pophale) SiO2 
 PCOD9054521
Probable space group: P -1
;
_chemical_formula_sum "Si O2"
_cell_formula_units_Z 12
_cell_length_a 12.539272
_cell_length_b 15.093489
_cell_length_c 7.196461
_cell_angle_alpha 113.132499
_cell_angle_beta 48.864862
_cell_angle_gamma 148.078358
_cell_volume 493.354159
_symmetry_space_group_name_H-M "P -1"
_symmetry_group_IT_number 2
_symmetry_cell_setting 'triclinic'
loop_
_space_group_symop_operation_xyz
x,y,z
-x,-y,-z
loop_
_atom_site_type_symbol
_atom_site_label
_atom_site_fract_x
_atom_site_fract_y
_atom_site_fract_z
Si Si1 0.206408 0.709109 0.209807
Si Si2 0.726563 0.550395 0.287498
Si Si3 0.211416 0.948599 0.173062
Si Si4 0.527026 0.223211 0.354246
Si Si5 0.254274 0.522044 0.179844
Si Si6 0.752469 0.889656 0.066706
O O1 0.235416 0.619145 0.194810
O O2 0.953723 0.606615 0.519352
O O3 0.492591 0.925521 0.106995
O O4 0.232147 0.699459 0.952342
O O5 0.500000 0.500000 0.500000
O O6 0.599736 0.376961 0.362798
O O7 0.814312 0.585273 0.001817
O O8 0.975104 0.735420 0.273308
O O9 0.273818 0.043222 0.368219
O O10 0.148897 0.987595 0.113796
O O11 0.451824 0.170098 0.610917
O O12 0.563300 0.695396 0.039700
O O13 0.000000 0.000000 0.000000
#
# Coordination Sequence:
#
# PCOD9054521 Si02
#       6
#     2   2   2   2   2   2
#     4   7  16  37  60  78 109 153 190 236 278 333
#     4  11  21  35  60  84 118 156 183 236 284 341
#     4   9  21  40  59  84 113 152 192 235 284 333
#     4   9  21  40  59  84 113 152 192 235 284 333
#     4   9  18  35  57  86 112 148 196 228 286 338
#     4  11  21  35  60  84 118 156 183 236 284 341
#
# _framework density 24.323298000000001
#
# number of rings (size 3 to 8) (size 9 to 14) (size 15 to 20)
#    1.000    1.667    1.667    1.000    2.333    2.667 
#    3.000    1.667    0.000    2.000    0.000    0.000 
#    0.000    0.000    0.000    0.000    0.000    0.000 
#
# Total GULP energy -67057.519416 kJ/mol
# GULP energy per Si atom -5588.126618 kJ/mol
# Density = 2.426794 g / cm^3
# Si number density = 24.323298 Si / 1000 Ang^3
#
#
#
# Elastic Constant Matrix: (Units=GPa)
#
#
# Indices 1 2 3 4 5 6 
#
# 1 60.8598 27.2654 8.7560 6.1047 8.2996 -3.3456
# 2 27.2654 184.8484 24.8442 -4.5553 -1.6728 7.2987
# 3 8.7560 24.8442 73.5337 7.5088 9.5008 -10.3452
# 4 6.1047 -4.5553 7.5088 30.8826 15.4605 1.6715
# 5 8.2996 -1.6728 9.5008 15.4605 32.1820 7.1442
# 6 -3.3456 7.2987 -10.3452 1.6715 7.1442 28.9919
#
#
#
# Elastic Compliance Matrix: (Units=1/GPa)
#
#
# Indices 1 2 3 4 5 6 
#
# 1 0.018924 -0.003100 0.000288 -0.001906 -0.005201 0.004458
# 2 -0.003100 0.006422 -0.002702 0.001382 0.002049 -0.003523
# 3 0.000288 -0.002702 0.016611 -0.001925 -0.006022 0.008236
# 4 -0.001906 0.001382 -0.001925 0.043357 -0.019955 0.001163
# 5 -0.005201 0.002049 -0.006022 -0.019955 0.046922 -0.013677
# 6 0.004458 -0.003523 0.008236 0.001163 -0.013677 0.042136
#
#
# Mechanical properties :
#
#
# Convention : Reuss Voigt Hill
#
# Bulk Modulus (GPa) = 32.33274 48.99704 40.66489
# Shear Modulus (GPa) = 25.54799 35.63637 30.59218
#
# Velocity S-wave (km/s) = 3.24443 3.83183 3.55030
# Velocity P-wave (km/s) = 5.23038 6.30595 5.79318
#
# Compressibility (1/GPa) = 0.03092840
#
# Stress axis : x y z
#
# Youngs Moduli (GPa) = 52.84260 155.71461 60.20023
#
# Poissons Ratio (x) = 0.48273 -0.01732
# Poissons Ratio (y) = 0.16382 0.16267
# Poissons Ratio (z) = -0.01521 0.42077
#
# Static dielectric constant tensor:
#      x y z
#    x 2.038810 0.014860 -0.052100 
#    y 0.014860 1.952820 -0.031990 
#    z -0.052100 -0.031990 1.932840 
# 
# From -- ./inp_files/337779.got.cif
#   From: 2010.05.17/outbox.cif.g08.bks.cpg/sg2_169_cif.got.tgz:337779.got - 2010.06.03 11:33:40.
