data_PCOD9054000
_publ_section_title
;
Structure prediction by ZEFSAII (Michael W. Deem and Ramdas Pophale) SiO2 
 PCOD9054000
Probable space group: P -1
;
_chemical_formula_sum "Si O2"
_cell_formula_units_Z 16
_cell_length_a 9.356367
_cell_length_b 12.044750
_cell_length_c 12.833932
_cell_angle_alpha 86.432759
_cell_angle_beta 46.114302
_cell_angle_gamma 58.963742
_cell_volume 784.521093
_symmetry_space_group_name_H-M "P -1"
_symmetry_group_IT_number 2
_symmetry_cell_setting 'triclinic'
loop_
_space_group_symop_operation_xyz
x,y,z
-x,-y,-z
loop_
_atom_site_type_symbol
_atom_site_label
_atom_site_fract_x
_atom_site_fract_y
_atom_site_fract_z
Si Si1 0.965754 0.588709 0.673346
Si Si2 0.665404 0.441257 0.157618
Si Si3 0.265199 0.194181 0.827864
Si Si4 0.262068 0.768372 0.703079
Si Si5 0.531414 0.907875 0.588175
Si Si6 0.114978 0.614802 0.372417
Si Si7 0.272232 0.155471 0.057923
Si Si8 0.608971 0.632731 0.359121
O O1 0.842524 0.522781 0.690804
O O2 0.802530 0.726685 0.824466
O O3 0.061495 0.621911 0.522628
O O4 0.191750 0.458808 0.641705
O O5 0.617990 0.347482 0.255924
O O6 0.401976 0.565673 0.218811
O O7 0.691584 0.525873 0.227748
O O8 0.947221 0.321067 0.966746
O O9 0.390785 0.242534 0.689544
O O10 0.393173 0.029030 0.743264
O O11 0.326499 0.194430 0.917915
O O12 0.368049 0.854018 0.657604
O O13 0.343028 0.699067 0.549539
O O14 0.958453 0.847033 0.855112
O O15 0.842103 0.767164 0.457683
O O16 0.500000 0.000000 0.500000
O O17 0.500000 0.000000 0.000000
#
# Coordination Sequence:
#
# PCOD9054000 Si02
#       8
#     2   2   2   2   2   2   2   2
#     4  11  20  39  69  93 131 166 220 273 319 390
#     4  11  23  39  68 104 124 169 228 278 327 389
#     4  11  25  41  66  94 138 178 213 273 345 385
#     4  11  21  40  71  89 125 179 221 260 329 392
#     4  12  24  45  64  95 139 179 218 271 333 400
#     4  11  22  39  67 102 124 171 228 276 311 394
#     4  11  25  42  62 101 135 173 220 276 328 393
#     4  12  20  43  69  95 130 176 221 269 328 397
#
# _framework density 20.394607000000001
#
# number of rings (size 3 to 8) (size 9 to 14) (size 15 to 20)
#    0.000    0.750    6.250    3.000    0.000    3.000 
#    2.250    3.750    0.000    0.000    0.000    0.000 
#    0.000    0.000    0.000    0.000    0.000    0.000 
#
# Total GULP energy -89263.501273 kJ/mol
# GULP energy per Si atom -5578.968830 kJ/mol
# Density = 2.034819 g / cm^3
# Si number density = 20.394607 Si / 1000 Ang^3
#
#
#
# Elastic Constant Matrix: (Units=GPa)
#
#
# Indices 1 2 3 4 5 6 
#
# 1 84.1749 26.9252 12.7782 15.0692 8.2218 -12.7969
# 2 26.9252 86.2437 12.3495 4.3290 3.6555 -11.0563
# 3 12.7782 12.3495 53.0427 8.9217 8.9358 -9.5094
# 4 15.0692 4.3290 8.9217 34.4292 5.0985 1.7347
# 5 8.2218 3.6555 8.9358 5.0985 25.6698 14.3308
# 6 -12.7969 -11.0563 -9.5094 1.7347 14.3308 40.9497
#
#
#
# Elastic Compliance Matrix: (Units=1/GPa)
#
#
# Indices 1 2 3 4 5 6 
#
# 1 0.015747 -0.003489 0.000498 -0.005831 -0.007439 0.006945
# 2 -0.003489 0.013320 -0.001502 0.000381 -0.001899 0.002806
# 3 0.000498 -0.001502 0.023853 -0.004807 -0.012876 0.009999
# 4 -0.005831 0.000381 -0.004807 0.033126 -0.000903 -0.003923
# 5 -0.007439 -0.001899 -0.012876 -0.000903 0.061523 -0.027320
# 6 0.006945 0.002806 0.009999 -0.003923 -0.027320 0.039397
#
#
# Mechanical properties :
#
#
# Convention : Reuss Voigt Hill
#
# Bulk Modulus (GPa) = 22.76173 36.39636 29.57905
# Shear Modulus (GPa) = 23.74199 31.63696 27.68947
#
# Velocity S-wave (km/s) = 3.41564 3.94285 3.68868
# Velocity P-wave (km/s) = 5.17111 6.21393 5.71635
#
# Compressibility (1/GPa) = 0.04393339
#
# Stress axis : x y z
#
# Youngs Moduli (GPa) = 63.50515 75.07266 41.92376
#
# Poissons Ratio (x) = 0.26194 -0.02087
# Poissons Ratio (y) = 0.22158 0.06297
# Poissons Ratio (z) = -0.03162 0.11276
#
# Static dielectric constant tensor:
#      x y z
#    x 1.756210 -0.011320 -0.011220 
#    y -0.011320 1.723160 0.033790 
#    z -0.011220 0.033790 1.805810 
# 
# From -- ./inp_files/190156.got.cif
#   From: 2010.05.17/outbox.cif.g08.bks.cpg/sg2_96_cif.got.tgz:190156.got - 2010.06.03 11:33:40.
