data_PCOD9054711
_publ_section_title
;
Structure prediction by ZEFSAII (Michael W. Deem and Ramdas Pophale) SiO2 
 PCOD9054711
Probable space group: P -1
;
_chemical_formula_sum "Si O2"
_cell_formula_units_Z 16
_cell_length_a 9.683868
_cell_length_b 12.088298
_cell_length_c 11.838148
_cell_angle_alpha 36.635815
_cell_angle_beta 53.616807
_cell_angle_gamma 70.667929
_cell_volume 634.713168
_symmetry_space_group_name_H-M "P -1"
_symmetry_group_IT_number 2
_symmetry_cell_setting 'triclinic'
loop_
_space_group_symop_operation_xyz
x,y,z
-x,-y,-z
loop_
_atom_site_type_symbol
_atom_site_label
_atom_site_fract_x
_atom_site_fract_y
_atom_site_fract_z
Si Si1 0.355293 0.868497 0.769685
Si Si2 0.337682 0.421650 0.784651
Si Si3 0.253753 0.978709 0.101816
Si Si4 0.468576 0.565293 0.088003
Si Si5 0.160492 0.987538 0.509590
Si Si6 0.574735 0.158504 0.660841
Si Si7 0.036377 0.616076 0.004238
Si Si8 0.828128 0.817509 0.434755
O O1 0.217704 0.671402 0.941629
O O2 0.500000 0.000000 0.500000
O O3 0.249140 0.023694 0.720003
O O4 0.436865 0.770657 0.908790
O O5 0.464074 0.636430 0.513445
O O6 0.376525 0.414062 0.908061
O O7 0.318065 0.202721 0.934671
O O8 0.157057 0.455253 0.788973
O O9 0.311102 0.850361 0.274661
O O10 0.383150 0.005328 0.909991
O O11 0.042412 0.881460 0.261080
O O12 0.292159 0.400820 0.356833
O O13 0.500000 0.500000 0.000000
O O14 0.302073 0.896781 0.452828
O O15 0.054348 0.830195 0.779416
O O16 0.212952 0.167760 0.421870
O O17 0.000000 0.000000 0.500000
O O18 0.000000 0.500000 0.000000
#
# Coordination Sequence:
#
# PCOD9054711 Si02
#       8
#     2   2   2   2   2   2   2   2
#     4  11  24  43  61 100 150 185 225 290 363 422
#     4  12  25  45  70 107 143 191 243 296 353 429
#     4  11  25  47  73 108 137 193 247 295 351 432
#     4  12  28  40  67 108 154 183 232 296 371 423
#     4  11  21  37  68 106 139 172 236 293 355 413
#     4  11  25  43  74 106 147 184 242 302 359 414
#     4  11  22  36  66 100 134 175 230 290 351 410
#     4  11  25  43  68 105 143 187 236 295 356 428
#
# _framework density 25.208235999999999
#
# number of rings (size 3 to 8) (size 9 to 14) (size 15 to 20)
#    0.000    0.750    6.250    1.125    8.750    1.000 
#    0.000    0.625    0.000    3.750    3.250    0.000 
#    0.000    0.000    0.000    0.000    0.000    0.000 
#
# Total GULP energy -89072.814743 kJ/mol
# GULP energy per Si atom -5567.050921 kJ/mol
# Density = 2.515086 g / cm^3
# Si number density = 25.208236 Si / 1000 Ang^3
#
#
#
# Elastic Constant Matrix: (Units=GPa)
#
#
# Indices 1 2 3 4 5 6 
#
# 1 114.7093 34.6101 62.1125 -9.3463 -4.0469 -16.0766
# 2 34.6101 88.4801 42.4896 -2.8690 -4.8761 -4.5166
# 3 62.1125 42.4896 147.6376 -8.7524 -8.8740 -13.7055
# 4 -9.3463 -2.8690 -8.7524 43.7509 -10.4966 -3.9996
# 5 -4.0469 -4.8761 -8.8740 -10.4966 54.9568 -6.5047
# 6 -16.0766 -4.5166 -13.7055 -3.9996 -6.5047 43.6376
#
#
#
# Elastic Compliance Matrix: (Units=1/GPa)
#
#
# Indices 1 2 3 4 5 6 
#
# 1 0.012323 -0.002643 -0.003931 0.002184 0.000853 0.003359
# 2 -0.002643 0.013706 -0.002849 -0.000155 0.000485 -0.000392
# 3 -0.003931 -0.002849 0.009566 0.001383 0.001457 0.001605
# 4 0.002184 -0.000155 0.001383 0.025369 0.005737 0.004403
# 5 0.000853 0.000485 0.001457 0.005737 0.020148 0.004351
# 6 0.003359 -0.000392 0.001605 0.004403 0.004351 0.025669
#
#
# Mechanical properties :
#
#
# Convention : Reuss Voigt Hill
#
# Bulk Modulus (GPa) = 59.70893 69.91685 64.81289
# Shear Modulus (GPa) = 38.10739 42.57670 40.34205
#
# Velocity S-wave (km/s) = 3.89228 4.11420 4.00478
# Velocity P-wave (km/s) = 6.62854 7.09682 6.86667
#
# Compressibility (1/GPa) = 0.01674791
#
# Stress axis : x y z
#
# Youngs Moduli (GPa) = 81.15233 72.96266 104.54156
#
# Poissons Ratio (x) = 0.19285 0.41095
# Poissons Ratio (y) = 0.21449 0.29782
# Poissons Ratio (z) = 0.31900 0.20786
#
# Static dielectric constant tensor:
#      x y z
#    x 1.605010 0.005130 0.090760 
#    y 0.005130 2.122360 -0.054630 
#    z 0.090760 -0.054630 1.972540 
# 
# From -- ./inp_files/522096.got.cif
#   From: 2010.05.17/outbox.cif.g08.bks.cpg/sg2_262_cif.got.tgz:522096.got - 2010.06.03 11:33:40.
