data_PCOD9054075
_publ_section_title
;
Structure prediction by ZEFSAII (Michael W. Deem and Ramdas Pophale) SiO2 
 PCOD9054075
Probable space group: P -1
;
_chemical_formula_sum "Si O2"
_cell_formula_units_Z 14
_cell_length_a 10.620898
_cell_length_b 9.616062
_cell_length_c 9.735327
_cell_angle_alpha 119.677609
_cell_angle_beta 122.965095
_cell_angle_gamma 67.432893
_cell_volume 715.802715
_symmetry_space_group_name_H-M "P -1"
_symmetry_group_IT_number 2
_symmetry_cell_setting 'triclinic'
loop_
_space_group_symop_operation_xyz
x,y,z
-x,-y,-z
loop_
_atom_site_type_symbol
_atom_site_label
_atom_site_fract_x
_atom_site_fract_y
_atom_site_fract_z
Si Si1 0.909380 0.060782 0.616145
Si Si2 0.081592 0.892074 0.874801
Si Si3 0.134535 0.291863 0.865635
Si Si4 0.281778 0.397315 0.284004
Si Si5 0.016900 0.550646 0.692620
Si Si6 0.380808 0.745455 0.555236
Si Si7 0.330593 0.968799 0.872065
O O1 0.729417 0.117449 0.527712
O O2 0.980951 0.221613 0.780144
O O3 0.000000 0.000000 0.500000
O O4 0.966337 0.924122 0.693221
O O5 0.105534 0.703392 0.829234
O O6 0.234168 0.955156 0.945406
O O7 0.000000 0.000000 0.000000
O O8 0.096672 0.408799 0.771223
O O9 0.248349 0.127063 0.820553
O O10 0.208446 0.367016 0.077652
O O11 0.333172 0.573749 0.406448
O O12 0.436696 0.273558 0.348071
O O13 0.150334 0.393423 0.315224
O O14 0.000000 0.500000 0.500000
O O15 0.330600 0.803008 0.707708
O O16 0.500000 0.000000 0.000000
#
# Coordination Sequence:
#
# PCOD9054075 Si02
#       7
#     2   2   2   2   2   2   2
#     4  11  20  40  67  94 121 177 226 252 306 401
#     4  11  25  39  63  99 132 162 210 273 325 365
#     4  11  22  40  70  93 121 174 226 256 305 396
#     4  11  24  40  64 100 126 170 218 270 313 387
#     4  12  24  41  63  95 136 163 209 271 334 374
#     4  11  22  38  69  93 128 161 230 262 310 369
#     4  11  22  44  70  92 126 177 222 256 314 400
#
# _framework density 19.558461000000001
#
# number of rings (size 3 to 8) (size 9 to 14) (size 15 to 20)
#    0.000    0.857    5.714    3.857    2.000    0.000 
#    0.000    2.857    0.000    0.000    0.000    0.000 
#    0.000    0.000    0.000    0.000    0.000    0.000 
#
# Total GULP energy -78085.322336 kJ/mol
# GULP energy per Si atom -5577.523024 kJ/mol
# Density = 1.951395 g / cm^3
# Si number density = 19.558461 Si / 1000 Ang^3
#
#
#
# Elastic Constant Matrix: (Units=GPa)
#
#
# Indices 1 2 3 4 5 6 
#
# 1 127.5434 47.4176 45.9591 -16.6703 8.7664 -22.3115
# 2 47.4176 106.6558 26.5302 -4.1605 4.7913 -5.4136
# 3 45.9591 26.5302 119.8467 9.4624 -3.0772 -7.3697
# 4 -16.6703 -4.1605 9.4624 36.9217 -6.2940 5.9850
# 5 8.7664 4.7913 -3.0772 -6.2940 32.3357 -0.9811
# 6 -22.3115 -5.4136 -7.3697 5.9850 -0.9811 33.0109
#
#
#
# Elastic Compliance Matrix: (Units=1/GPa)
#
#
# Indices 1 2 3 4 5 6 
#
# 1 0.012628 -0.004021 -0.004027 0.004953 -0.002064 0.006018
# 2 -0.004021 0.011397 -0.001049 -0.000222 -0.000774 -0.001066
# 3 -0.004027 -0.001049 0.010526 -0.004446 0.001393 0.000304
# 4 0.004953 -0.000222 -0.004446 0.031710 0.004339 -0.003301
# 5 -0.002064 -0.000774 0.001393 0.004339 0.032546 -0.001031
# 6 0.006018 -0.001066 0.000304 -0.003301 -0.001031 0.034821
#
#
# Mechanical properties :
#
#
# Convention : Reuss Voigt Hill
#
# Bulk Modulus (GPa) = 61.13407 65.98442 63.55924
# Shear Modulus (GPa) = 31.79178 36.06290 33.92734
#
# Velocity S-wave (km/s) = 4.03609 4.29867 4.16945
# Velocity P-wave (km/s) = 7.28320 7.64515 7.46637
#
# Compressibility (1/GPa) = 0.01635749
#
# Stress axis : x y z
#
# Youngs Moduli (GPa) = 79.18626 87.74491 95.00559
#
# Poissons Ratio (x) = 0.35286 0.38255
# Poissons Ratio (y) = 0.31844 0.09962
# Poissons Ratio (z) = 0.31885 0.09201
#
# Static dielectric constant tensor:
#      x y z
#    x 1.721480 -0.031870 0.034610 
#    y -0.031870 1.697880 0.017420 
#    z 0.034610 0.017420 1.782590 
# 
# From -- ./inp_files/159950.got.cif
#   From: 2010.05.17/outbox.cif.g08.bks.cpg/sg2_80_cif.got.tgz:159950.got - 2010.06.03 11:33:40.
