data_PCOD9054444
_publ_section_title
;
Structure prediction by ZEFSAII (Michael W. Deem and Ramdas Pophale) SiO2 
 PCOD9054444
Probable space group: P -1
;
_chemical_formula_sum "Si O2"
_cell_formula_units_Z 16
_cell_length_a 8.272819
_cell_length_b 9.384470
_cell_length_c 14.272359
_cell_angle_alpha 110.152988
_cell_angle_beta 135.856832
_cell_angle_gamma 80.552414
_cell_volume 718.584212
_symmetry_space_group_name_H-M "P -1"
_symmetry_group_IT_number 2
_symmetry_cell_setting 'triclinic'
loop_
_space_group_symop_operation_xyz
x,y,z
-x,-y,-z
loop_
_atom_site_type_symbol
_atom_site_label
_atom_site_fract_x
_atom_site_fract_y
_atom_site_fract_z
Si Si1 0.756295 0.574610 0.900763
Si Si2 0.473412 0.279646 0.648159
Si Si3 0.325524 0.901497 0.976184
Si Si4 0.273168 0.980166 0.600558
Si Si5 0.880644 0.181531 0.677167
Si Si6 0.872956 0.854675 0.688729
Si Si7 0.316210 0.135875 0.178364
Si Si8 0.642369 0.661942 0.077695
O O1 0.537057 0.444490 0.759206
O O2 0.755745 0.702655 0.849092
O O3 0.706298 0.663513 0.994699
O O4 0.000000 0.500000 0.000000
O O5 0.721772 0.255461 0.700910
O O6 0.282916 0.247034 0.476551
O O7 0.402741 0.146021 0.663443
O O8 0.119402 0.803553 0.809774
O O9 0.478235 0.787107 0.063528
O O10 0.500000 0.000000 0.000000
O O11 0.218697 0.007228 0.032719
O O12 0.279402 0.873228 0.488568
O O13 0.408482 0.894664 0.715842
O O14 0.000000 0.000000 0.500000
O O15 0.105017 0.292394 0.761599
O O16 0.942933 0.023451 0.711402
O O17 0.749759 0.878065 0.742642
O O18 0.500000 0.500000 0.000000
#
# Coordination Sequence:
#
# PCOD9054444 Si02
#       8
#     2   2   2   2   2   2   2   2
#     4  12  28  47  69 102 147 189 235 291 358 422
#     4  11  24  45  70 100 145 183 231 291 351 421
#     4  12  25  45  69  99 141 180 234 300 344 413
#     4  11  24  41  74 108 137 183 240 291 354 418
#     4  11  20  46  69 100 143 179 231 293 344 422
#     4  11  23  43  72 107 136 184 239 288 349 422
#     4  12  25  45  74 105 136 188 244 282 351 431
#     4  12  28  46  69 103 141 186 234 292 365 415
#
# _framework density 22.266003999999999
#
# number of rings (size 3 to 8) (size 9 to 14) (size 15 to 20)
#    0.000    0.500    6.250    1.875    7.000    0.500 
#    2.250    1.250    0.000    0.000    0.000    0.000 
#    0.000    0.000    0.000    0.000    0.000    0.000 
#
# Total GULP energy -89339.035060 kJ/mol
# GULP energy per Si atom -5583.689691 kJ/mol
# Density = 2.221533 g / cm^3
# Si number density = 22.266004 Si / 1000 Ang^3
#
#
#
# Elastic Constant Matrix: (Units=GPa)
#
#
# Indices 1 2 3 4 5 6 
#
# 1 61.9114 20.7555 33.7494 -5.6505 8.1315 0.6498
# 2 20.7555 94.9383 49.1953 6.2764 13.1160 5.5509
# 3 33.7494 49.1953 138.7130 -0.3140 6.7640 3.7719
# 4 -5.6505 6.2764 -0.3140 41.2820 -6.7742 2.1567
# 5 8.1315 13.1160 6.7640 -6.7742 46.6624 1.8091
# 6 0.6498 5.5509 3.7719 2.1567 1.8091 29.1739
#
#
#
# Elastic Compliance Matrix: (Units=1/GPa)
#
#
# Indices 1 2 3 4 5 6 
#
# 1 0.019481 -0.002193 -0.003877 0.002646 -0.001848 0.000404
# 2 -0.002193 0.013936 -0.004211 -0.002904 -0.003283 -0.001640
# 3 -0.003877 -0.004211 0.009632 0.000290 0.000521 -0.000412
# 4 0.002646 -0.002904 0.000290 0.025795 0.004124 -0.001707
# 5 -0.001848 -0.003283 0.000521 0.004124 0.023243 -0.001148
# 6 0.000404 -0.001640 -0.000412 -0.001707 -0.001148 0.034831
#
#
# Mechanical properties :
#
#
# Convention : Reuss Voigt Hill
#
# Bulk Modulus (GPa) = 44.46964 55.88481 50.17722
# Shear Modulus (GPa) = 32.26321 36.21448 34.23884
#
# Velocity S-wave (km/s) = 3.81069 4.03730 3.92563
# Velocity P-wave (km/s) = 6.27512 6.84735 6.56747
#
# Compressibility (1/GPa) = 0.02248725
#
# Stress axis : x y z
#
# Youngs Moduli (GPa) = 51.33293 71.75686 103.81887
#
# Poissons Ratio (x) = 0.15738 0.40248
# Poissons Ratio (y) = 0.11259 0.43715
# Poissons Ratio (z) = 0.19900 0.30215
#
# Static dielectric constant tensor:
#      x y z
#    x 1.875900 -0.016720 0.006690 
#    y -0.016720 1.812950 -0.017570 
#    z 0.006690 -0.017570 2.030660 
# 
# From -- ./inp_files/205319.got.cif
#   From: 2010.05.17/outbox.cif.g08.bks.cpg/sg2_103_cif.got.tgz:205319.got - 2010.06.03 11:33:40.
