data_PCOD9054132
_publ_section_title
;
Structure prediction by ZEFSAII (Michael W. Deem and Ramdas Pophale) SiO2 
 PCOD9054132
Probable space group: P -1
;
_chemical_formula_sum "Si O2"
_cell_formula_units_Z 16
_cell_length_a 9.200851
_cell_length_b 10.973235
_cell_length_c 21.971336
_cell_angle_alpha 42.631515
_cell_angle_beta 149.753887
_cell_angle_gamma 124.081609
_cell_volume 738.173230
_symmetry_space_group_name_H-M "P -1"
_symmetry_group_IT_number 2
_symmetry_cell_setting 'triclinic'
loop_
_space_group_symop_operation_xyz
x,y,z
-x,-y,-z
loop_
_atom_site_type_symbol
_atom_site_label
_atom_site_fract_x
_atom_site_fract_y
_atom_site_fract_z
Si Si1 0.424799 0.832314 0.638709
Si Si2 0.884134 0.946188 0.309561
Si Si3 0.024560 0.671022 0.849569
Si Si4 0.039033 0.628468 0.383369
Si Si5 0.524613 0.774603 0.443424
Si Si6 0.001454 0.536897 0.202979
Si Si7 0.486003 0.262236 0.687301
Si Si8 0.588095 0.517991 0.171873
O O1 0.377634 0.700056 0.725314
O O2 0.685752 0.721380 0.730571
O O3 0.125828 0.891474 0.470320
O O4 0.517972 0.016555 0.627111
O O5 0.573133 0.912161 0.233815
O O6 0.976054 0.798853 0.343266
O O7 0.897046 0.146624 0.217709
O O8 0.082234 0.515263 0.875588
O O9 0.243755 0.609291 0.007747
O O10 0.236786 0.690565 0.378958
O O11 0.247546 0.446045 0.555331
O O12 0.751339 0.584255 0.264264
O O13 0.770987 0.645003 0.621509
O O14 0.602493 0.757897 0.407240
O O15 0.191948 0.693430 0.210222
O O16 0.741389 0.568096 0.147030
#
# Coordination Sequence:
#
# PCOD9054132 Si02
#       8
#     2   2   2   2   2   2   2   2
#     4  12  24  44  67  97 126 168 220 265 311 375
#     4  12  24  41  68  99 125 166 218 270 312 370
#     4  12  27  44  62  96 136 171 207 261 324 380
#     4  11  21  41  65  94 130 167 212 265 316 373
#     4  11  20  40  70  96 128 160 219 273 311 362
#     4  11  22  43  67  94 129 170 211 266 316 379
#     4  11  22  39  68 101 123 162 218 268 319 366
#     4  12  26  44  66  92 133 176 209 253 327 390
#
# _framework density 21.675129999999999
#
# number of rings (size 3 to 8) (size 9 to 14) (size 15 to 20)
#    0.000    0.500    6.250    3.750    3.500    1.500 
#    0.000    0.625    0.000    0.000    0.000    0.000 
#    0.000    0.000    0.000    0.000    0.000    0.000 
#
# Total GULP energy -89522.421563 kJ/mol
# GULP energy per Si atom -5595.151348 kJ/mol
# Density = 2.162580 g / cm^3
# Si number density = 21.675130 Si / 1000 Ang^3
#
#
#
# Elastic Constant Matrix: (Units=GPa)
#
#
# Indices 1 2 3 4 5 6 
#
# 1 48.4371 13.1741 -9.2873 -0.2705 -0.4220 17.1986
# 2 13.1741 81.8576 13.9048 12.5186 0.7366 15.4255
# 3 -9.2873 13.9048 51.0075 3.6473 2.0604 11.8760
# 4 -0.2705 12.5186 3.6473 13.6405 0.7676 -3.1721
# 5 -0.4220 0.7366 2.0604 0.7676 11.1701 1.4926
# 6 17.1986 15.4255 11.8760 -3.1721 1.4926 37.6063
#
#
#
# Elastic Compliance Matrix: (Units=1/GPa)
#
#
# Indices 1 2 3 4 5 6 
#
# 1 0.028769 -0.002953 0.009761 -0.002997 0.001738 -0.015350
# 2 -0.002953 0.016756 -0.002565 -0.016243 0.001192 -0.006130
# 3 0.009761 -0.002565 0.025442 -0.006917 -0.002083 -0.011947
# 4 -0.002997 -0.016243 -0.006917 0.094683 -0.006741 0.018471
# 5 0.001738 0.001192 -0.002083 -0.006741 0.091002 -0.004806
# 6 -0.015350 -0.006130 -0.011947 0.018471 -0.004806 0.041648
#
#
# Mechanical properties :
#
#
# Convention : Reuss Voigt Hill
#
# Bulk Modulus (GPa) = 12.58596 24.09836 18.34216
# Shear Modulus (GPa) = 15.80800 23.38409 19.59605
#
# Velocity S-wave (km/s) = 2.70351 3.28814 3.01005
# Velocity P-wave (km/s) = 3.94519 5.05549 4.53445
#
# Compressibility (1/GPa) = 0.07945364
#
# Stress axis : x y z
#
# Youngs Moduli (GPa) = 34.75979 59.68130 39.30536
#
# Poissons Ratio (x) = 0.17623 -0.38367
# Poissons Ratio (y) = 0.10264 0.10081
# Poissons Ratio (z) = -0.33930 0.15307
#
# Static dielectric constant tensor:
#      x y z
#    x 1.815680 0.031160 0.012290 
#    y 0.031160 1.761770 0.003380 
#    z 0.012290 0.003380 1.750300 
# 
# From -- ./inp_files/184298.got.cif
#   From: 2010.05.17/outbox.cif.g08.bks.cpg/sg2_93_cif.got.tgz:184298.got - 2010.06.03 11:33:40.
