data_PCOD9054031
_publ_section_title
;
Structure prediction by ZEFSAII (Michael W. Deem and Ramdas Pophale) SiO2 
 PCOD9054031
Probable space group: P -1
;
_chemical_formula_sum "Si O2"
_cell_formula_units_Z 16
_cell_length_a 13.241108
_cell_length_b 9.379389
_cell_length_c 27.861242
_cell_angle_alpha 140.285981
_cell_angle_beta 157.219661
_cell_angle_gamma 50.308131
_cell_volume 820.485464
_symmetry_space_group_name_H-M "P -1"
_symmetry_group_IT_number 2
_symmetry_cell_setting 'triclinic'
loop_
_space_group_symop_operation_xyz
x,y,z
-x,-y,-z
loop_
_atom_site_type_symbol
_atom_site_label
_atom_site_fract_x
_atom_site_fract_y
_atom_site_fract_z
Si Si1 0.489632 0.841868 0.617156
Si Si2 0.182846 0.499356 0.956676
Si Si3 0.801628 0.692579 0.628872
Si Si4 0.994521 0.912139 0.370486
Si Si5 0.318591 0.614583 0.880288
Si Si6 0.808381 0.010609 0.629618
Si Si7 0.557667 0.095259 0.899139
Si Si8 0.990437 0.115378 0.973210
O O1 0.628787 0.813020 0.619423
O O2 0.359669 0.580463 0.512230
O O3 0.238955 0.951151 0.526082
O O4 0.726868 0.975984 0.791493
O O5 0.983045 0.258053 0.790498
O O6 0.470120 0.447780 0.079972
O O7 0.263227 0.683333 0.995462
O O8 0.045195 0.629500 0.968401
O O9 0.095756 0.721365 0.788119
O O10 0.849271 0.803734 0.626388
O O11 0.125368 0.000279 0.399746
O O12 0.857300 0.631088 0.237501
O O13 0.725164 0.001016 0.278631
O O14 0.483730 0.789822 0.038581
O O15 0.500000 0.000000 0.500000
O O16 0.734041 0.915742 0.937103
O O17 0.000000 0.000000 0.000000
#
# Coordination Sequence:
#
# PCOD9054031 Si02
#       8
#     2   2   2   2   2   2   2   2
#     4  10  20  38  57  85 120 150 199 234 290 346
#     4  10  21  36  56  91 116 148 189 240 295 343
#     4  10  22  32  60  90 114 151 194 248 284 334
#     4  10  19  35  60  87 114 151 196 242 284 338
#     4  10  17  36  62  85 113 149 204 239 280 334
#     4  12  22  33  57  91 121 145 191 247 294 333
#     4  10  17  35  63  88 111 154 199 238 280 341
#     4  10  22  35  62  88 118 150 195 243 287 342
#
# _framework density 19.500651000000001
#
# number of rings (size 3 to 8) (size 9 to 14) (size 15 to 20)
#    0.000    1.750    5.000    0.750    3.500    0.500 
#    0.000   10.625    0.000    0.750    0.000    0.000 
#    0.000    0.000    0.000    0.000    0.000    0.000 
#
# Total GULP energy -89170.326033 kJ/mol
# GULP energy per Si atom -5573.145377 kJ/mol
# Density = 1.945627 g / cm^3
# Si number density = 19.500651 Si / 1000 Ang^3
#
#
#
# Elastic Constant Matrix: (Units=GPa)
#
#
# Indices 1 2 3 4 5 6 
#
# 1 41.1716 28.2721 23.8188 -2.8373 7.7051 1.0428
# 2 28.2721 71.6215 39.4937 -29.3732 7.2853 -8.4531
# 3 23.8188 39.4937 90.1303 -32.4899 8.2816 -2.9164
# 4 -2.8373 -29.3732 -32.4899 32.3565 -0.8605 6.5278
# 5 7.7051 7.2853 8.2816 -0.8605 27.2565 -4.3647
# 6 1.0428 -8.4531 -2.9164 6.5278 -4.3647 35.3388
#
#
#
# Elastic Compliance Matrix: (Units=1/GPa)
#
#
# Indices 1 2 3 4 5 6 
#
# 1 0.046151 -0.023225 -0.011994 -0.028556 -0.004609 -0.003201
# 2 -0.023225 0.035479 0.002369 0.031843 -0.002116 0.003224
# 3 -0.011994 0.002369 0.021930 0.023435 -0.003491 -0.002030
# 4 -0.028556 0.031843 0.023435 0.081782 -0.005848 -0.005435
# 5 -0.004609 -0.002116 -0.003491 -0.005848 0.040297 0.005399
# 6 -0.003201 0.003224 -0.002030 -0.005435 0.005399 0.030667
#
#
# Mechanical properties :
#
#
# Convention : Reuss Voigt Hill
#
# Bulk Modulus (GPa) = 26.41275 42.89918 34.65596
# Shear Modulus (GPa) = 14.94210 26.41294 20.67752
#
# Velocity S-wave (km/s) = 2.77110 3.68430 3.25983
# Velocity P-wave (km/s) = 4.87982 6.33603 5.65500
#
# Compressibility (1/GPa) = 0.03786051
#
# Stress axis : x y z
#
# Youngs Moduli (GPa) = 21.66806 28.18564 45.60015
#
# Poissons Ratio (x) = 0.65460 0.54691
# Poissons Ratio (y) = 0.50323 -0.10801
# Poissons Ratio (z) = 0.25988 -0.06676
#
# Static dielectric constant tensor:
#      x y z
#    x 7.867300 1.766510 -0.459910 
#    y 1.766510 2.248660 -0.187550 
#    z -0.459910 -0.187550 1.717280 
# 
# From -- ./inp_files/279387.got.cif
#   From: 2010.05.17/outbox.cif.g08.bks.cpg/sg2_140_cif.got.tgz:279387.got - 2010.06.03 11:33:40.
