data_PCOD9054072
_publ_section_title
;
Structure prediction by ZEFSAII (Michael W. Deem and Ramdas Pophale) SiO2 
 PCOD9054072
Probable space group: P -1
;
_chemical_formula_sum "Si O2"
_cell_formula_units_Z 12
_cell_length_a 14.839323
_cell_length_b 17.402174
_cell_length_c 7.968219
_cell_angle_alpha 137.623536
_cell_angle_beta 123.127608
_cell_angle_gamma 24.559205
_cell_volume 515.459043
_symmetry_space_group_name_H-M "P -1"
_symmetry_group_IT_number 2
_symmetry_cell_setting 'triclinic'
loop_
_space_group_symop_operation_xyz
x,y,z
-x,-y,-z
loop_
_atom_site_type_symbol
_atom_site_label
_atom_site_fract_x
_atom_site_fract_y
_atom_site_fract_z
Si Si1 0.247309 0.710958 0.853809
Si Si2 0.386908 0.463076 0.919358
Si Si3 0.352331 0.281296 0.785964
Si Si4 0.729341 0.946133 0.355916
Si Si5 0.752780 0.527661 0.692721
Si Si6 0.900750 0.592859 0.736884
O O1 0.306555 0.542923 0.535497
O O2 0.465405 0.594524 0.899157
O O3 0.772545 0.316214 0.018169
O O4 0.000000 0.000000 0.000000
O O5 0.253069 0.491982 0.934435
O O6 0.596916 0.193536 0.596485
O O7 0.143920 0.387120 0.757691
O O8 0.553218 0.056361 0.493736
O O9 0.431845 0.244012 0.990889
O O10 0.987538 0.720165 0.344684
O O11 0.742641 0.850202 0.055326
O O12 0.788702 0.579811 0.658383
O O13 0.000000 0.500000 0.500000
#
# Coordination Sequence:
#
# PCOD9054072 Si02
#       6
#     2   2   2   2   2   2
#     4  11  20  40  67  92 133 168 218 267 314 385
#     4   9  21  40  66  94 126 174 213 261 325 376
#     4   9  20  41  62  91 130 163 216 261 320 384
#     4   9  20  42  61  91 126 168 210 264 321 376
#     4  11  22  38  66  94 126 173 212 263 325 382
#     4  11  23  38  63  96 130 164 214 265 327 385
#
# _framework density 23.28022
#
# number of rings (size 3 to 8) (size 9 to 14) (size 15 to 20)
#    1.000    1.000    1.667    3.000    0.000    4.000 
#    3.000    0.833    7.333    0.000    0.000    0.000 
#    0.000    0.000    0.000    0.000    0.000    0.000 
#
# Total GULP energy -66960.485621 kJ/mol
# GULP energy per Si atom -5580.040468 kJ/mol
# Density = 2.322723 g / cm^3
# Si number density = 23.280220 Si / 1000 Ang^3
#
#
#
# Elastic Constant Matrix: (Units=GPa)
#
#
# Indices 1 2 3 4 5 6 
#
# 1 93.2286 27.5700 41.1129 4.0248 15.6195 15.3539
# 2 27.5700 97.1992 24.7586 -8.1154 17.4847 13.0894
# 3 41.1129 24.7586 172.1775 -25.4648 6.6035 -5.4812
# 4 4.0248 -8.1154 -25.4648 25.2153 -10.3805 4.2552
# 5 15.6195 17.4847 6.6035 -10.3805 43.9935 -8.1615
# 6 15.3539 13.0894 -5.4812 4.2552 -8.1615 34.7318
#
#
#
# Elastic Compliance Matrix: (Units=1/GPa)
#
#
# Indices 1 2 3 4 5 6 
#
# 1 0.016832 -0.001642 -0.005302 -0.010700 -0.008605 -0.008370
# 2 -0.001642 0.012880 -0.001126 0.002217 -0.004907 -0.005731
# 3 -0.005302 -0.001126 0.008733 0.010374 0.004183 0.003858
# 4 -0.010700 0.002217 0.010374 0.058625 0.015566 0.002007
# 5 -0.008605 -0.004907 0.004183 0.015566 0.033039 0.012170
# 6 -0.008370 -0.005731 0.003858 0.002007 0.012170 0.037875
#
#
# Mechanical properties :
#
#
# Convention : Reuss Voigt Hill
#
# Bulk Modulus (GPa) = 44.83461 61.05426 52.94443
# Shear Modulus (GPa) = 26.10153 38.73238 32.41696
#
# Velocity S-wave (km/s) = 3.35205 4.08333 3.73563
# Velocity P-wave (km/s) = 5.85509 6.96521 6.43414
#
# Compressibility (1/GPa) = 0.02230420
#
# Stress axis : x y z
#
# Youngs Moduli (GPa) = 59.41033 77.63731 114.51350
#
# Poissons Ratio (x) = 0.12749 0.60715
# Poissons Ratio (y) = 0.09756 0.12899
# Poissons Ratio (z) = 0.31499 0.08745
#
# Static dielectric constant tensor:
#      x y z
#    x 1.880200 0.051700 0.007840 
#    y 0.051700 1.921740 0.018310 
#    z 0.007840 0.018310 1.981600 
# 
# From -- ./inp_files/318492.got.cif
#   From: 2010.05.17/outbox.cif.g08.bks.cpg/sg2_160_cif.got.tgz:318492.got - 2010.06.03 11:33:40.
