data_PCOD9054715
_publ_section_title
;
Structure prediction by ZEFSAII (Michael W. Deem and Ramdas Pophale) SiO2 
 PCOD9054715
Probable space group: P -1
;
_chemical_formula_sum "Si O2"
_cell_formula_units_Z 16
_cell_length_a 11.866753
_cell_length_b 8.873588
_cell_length_c 8.358563
_cell_angle_alpha 81.732333
_cell_angle_beta 55.217226
_cell_angle_gamma 72.269106
_cell_volume 688.051872
_symmetry_space_group_name_H-M "P -1"
_symmetry_group_IT_number 2
_symmetry_cell_setting 'triclinic'
loop_
_space_group_symop_operation_xyz
x,y,z
-x,-y,-z
loop_
_atom_site_type_symbol
_atom_site_label
_atom_site_fract_x
_atom_site_fract_y
_atom_site_fract_z
Si Si1 0.799451 0.106795 0.220290
Si Si2 0.485764 0.723327 0.415405
Si Si3 0.606785 0.419779 0.784495
Si Si4 0.452550 0.050603 0.211954
Si Si5 0.273982 0.873357 0.051099
Si Si6 0.898593 0.477690 0.445516
Si Si7 0.019039 0.112367 0.318936
Si Si8 0.255825 0.223442 0.602549
O O1 0.663847 0.240176 0.377189
O O2 0.819315 0.160591 0.015331
O O3 0.926275 0.088264 0.245515
O O4 0.767287 0.933663 0.270830
O O5 0.481726 0.595215 0.301467
O O6 0.621632 0.715119 0.417098
O O7 0.472122 0.886114 0.308004
O O8 0.735972 0.493779 0.631001
O O9 0.500000 0.500000 0.000000
O O10 0.691652 0.246896 0.811819
O O11 0.575288 0.131595 0.148519
O O12 0.307858 0.161021 0.388972
O O13 0.500000 0.000000 0.000000
O O14 0.186843 0.046079 0.155662
O O15 0.964962 0.298507 0.363259
O O16 0.880226 0.625371 0.317893
O O17 0.000000 0.500000 0.500000
O O18 0.000000 0.000000 0.500000
#
# Coordination Sequence:
#
# PCOD9054715 Si02
#       8
#     2   2   2   2   2   2   2   2
#     4  11  22  44  70 104 135 179 232 283 347 419
#     4  11  21  42  70 102 142 178 228 284 354 415
#     4  12  27  44  71 107 139 183 239 296 346 412
#     4  11  21  37  69 108 132 173 229 287 340 411
#     4  12  23  42  71 100 135 179 236 284 341 420
#     4  12  28  47  68  99 142 188 230 284 358 414
#     4  12  25  46  69  95 133 189 234 277 348 420
#     4  11  24  43  72 103 142 179 225 292 354 418
#
# _framework density 23.254059999999999
#
# number of rings (size 3 to 8) (size 9 to 14) (size 15 to 20)
#    0.000    0.500    6.250    2.625    3.500    1.500 
#    0.000    0.625    0.000    0.000    0.000    0.000 
#    0.000    0.000    0.000    0.000    0.000    0.000 
#
# Total GULP energy -89352.465946 kJ/mol
# GULP energy per Si atom -5584.529122 kJ/mol
# Density = 2.320113 g / cm^3
# Si number density = 23.254060 Si / 1000 Ang^3
#
#
#
# Elastic Constant Matrix: (Units=GPa)
#
#
# Indices 1 2 3 4 5 6 
#
# 1 127.4466 21.4301 2.7665 7.6944 26.5858 0.3726
# 2 21.4301 108.2286 8.9771 11.1985 8.3134 -15.9824
# 3 2.7665 8.9771 47.9082 17.0274 15.9848 -3.0853
# 4 7.6944 11.1985 17.0274 29.3765 0.6789 -1.7452
# 5 26.5858 8.3134 15.9848 0.6789 37.9908 -4.0747
# 6 0.3726 -15.9824 -3.0853 -1.7452 -4.0747 36.2948
#
#
#
# Elastic Compliance Matrix: (Units=1/GPa)
#
#
# Indices 1 2 3 4 5 6 
#
# 1 0.010026 -0.001454 0.003914 -0.004239 -0.008437 -0.001561
# 2 -0.001454 0.010587 -0.000243 -0.003236 -0.000665 0.004426
# 3 0.003914 -0.000243 0.033152 -0.019778 -0.016293 -0.000109
# 4 -0.004239 -0.003236 -0.019778 0.047619 0.011197 0.000484
# 5 -0.008437 -0.000665 -0.016293 0.011197 0.039389 0.003369
# 6 -0.001561 0.004426 -0.000109 0.000484 0.003369 0.029909
#
#
# Mechanical properties :
#
#
# Convention : Reuss Voigt Hill
#
# Bulk Modulus (GPa) = 17.18208 38.88120 28.03164
# Shear Modulus (GPa) = 26.93287 37.42639 32.17963
#
# Velocity S-wave (km/s) = 3.40693 4.01616 3.72402
# Velocity P-wave (km/s) = 4.78342 6.18567 5.52918
#
# Compressibility (1/GPa) = 0.05820015
#
# Stress axis : x y z
#
# Youngs Moduli (GPa) = 99.73676 94.45337 30.16453
#
# Poissons Ratio (x) = 0.13733 -0.11808
# Poissons Ratio (y) = 0.14501 0.00733
# Poissons Ratio (z) = -0.39042 0.02296
#
# Static dielectric constant tensor:
#      x y z
#    x 1.937190 0.006800 0.017840 
#    y 0.006800 1.897720 0.018150 
#    z 0.017840 0.018150 1.909530 
# 
# From -- ./inp_files/243421.got.cif
#   From: 2010.05.17/outbox.cif.g08.bks.cpg/sg2_122_cif.got.tgz:243421.got - 2010.06.03 11:33:40.
