data_PCOD9054460
_publ_section_title
;
Structure prediction by ZEFSAII (Michael W. Deem and Ramdas Pophale) SiO2 
 PCOD9054460
Probable space group: P -1
;
_chemical_formula_sum "Si O2"
_cell_formula_units_Z 16
_cell_length_a 10.063088
_cell_length_b 14.462919
_cell_length_c 7.749120
_cell_angle_alpha 44.853051
_cell_angle_beta 51.321751
_cell_angle_gamma 44.153744
_cell_volume 538.339864
_symmetry_space_group_name_H-M "P -1"
_symmetry_group_IT_number 2
_symmetry_cell_setting 'triclinic'
loop_
_space_group_symop_operation_xyz
x,y,z
-x,-y,-z
loop_
_atom_site_type_symbol
_atom_site_label
_atom_site_fract_x
_atom_site_fract_y
_atom_site_fract_z
Si Si1 0.945497 0.369130 0.564272
Si Si2 0.480096 0.819136 0.103845
Si Si3 0.527410 0.057407 0.585524
Si Si4 0.051833 0.386638 0.949403
Si Si5 0.509734 0.432819 0.390261
Si Si6 0.024421 0.073742 0.698850
Si Si7 0.530594 0.306798 0.099809
Si Si8 0.047658 0.806613 0.907880
O O1 0.713245 0.487652 0.601195
O O2 0.958986 0.245985 0.572781
O O3 0.042216 0.260248 0.791735
O O4 0.024351 0.482054 0.307508
O O5 0.714467 0.720662 0.077214
O O6 0.432508 0.774810 0.011094
O O7 0.447744 0.986940 0.883950
O O8 0.404894 0.744353 0.408087
O O9 0.435178 0.235321 0.395405
O O10 0.500000 0.000000 0.500000
O O11 0.762413 0.985425 0.483212
O O12 0.964997 0.274307 0.146472
O O13 0.000000 0.500000 0.000000
O O14 0.500000 0.500000 0.500000
O O15 0.585693 0.518260 0.088777
O O16 0.942030 0.987847 0.757703
O O17 0.000000 0.000000 0.000000
O O18 0.736211 0.256707 0.097714
#
# Coordination Sequence:
#
# PCOD9054460 Si02
#       8
#     2   2   2   2   2   2   2   2
#     4   9  17  31  52  76 103 139 183 228 273 332
#     4   9  17  29  47  72 102 136 171 220 278 325
#     4   9  16  28  48  75 104 140 179 217 272 337
#     4  11  21  32  47  75 111 141 172 226 290 335
#     4   8  14  26  47  75 101 134 178 220 266 325
#     4   9  17  31  52  78 103 136 186 233 267 320
#     4   8  15  30  50  71  95 136 185 218 256 329
#     4   9  18  33  53  76 100 138 186 228 269 331
#
# _framework density 29.720998999999999
#
# number of rings (size 3 to 8) (size 9 to 14) (size 15 to 20)
#    0.000    3.000    0.000    1.875    0.000    0.000 
#    0.000    6.250    0.000    0.000    0.000  119.000 
#    0.000    0.000    0.000    0.000    0.000    0.000 
#
# Total GULP energy -89354.237438 kJ/mol
# GULP energy per Si atom -5584.639840 kJ/mol
# Density = 2.965335 g / cm^3
# Si number density = 29.720999 Si / 1000 Ang^3
#
#
#
# Elastic Constant Matrix: (Units=GPa)
#
#
# Indices 1 2 3 4 5 6 
#
# 1 124.2687 53.4447 52.8443 -13.6984 -0.3545 2.3259
# 2 53.4447 133.2454 69.1241 -44.7030 8.0568 29.7499
# 3 52.8443 69.1241 269.7525 -64.4744 -7.5979 0.4406
# 4 -13.6984 -44.7030 -64.4744 55.5854 3.5249 12.5049
# 5 -0.3545 8.0568 -7.5979 3.5249 56.4264 -2.6520
# 6 2.3259 29.7499 0.4406 12.5049 -2.6520 60.1952
#
#
#
# Elastic Compliance Matrix: (Units=1/GPa)
#
#
# Indices 1 2 3 4 5 6 
#
# 1 0.010754 -0.006020 -0.001767 -0.005147 0.001184 0.003694
# 2 -0.006020 0.018468 0.000394 0.016932 -0.004272 -0.012603
# 3 -0.001767 0.000394 0.005551 0.006654 0.000192 -0.001541
# 4 -0.005147 0.016932 0.006654 0.042248 -0.005002 -0.017215
# 5 0.001184 -0.004272 0.000192 -0.005002 0.018863 0.003934
# 6 0.003694 -0.012603 -0.001541 -0.017215 0.003934 0.026460
#
#
# Mechanical properties :
#
#
# Convention : Reuss Voigt Hill
#
# Bulk Modulus (GPa) = 50.03160 97.56586 73.79873
# Shear Modulus (GPa) = 34.77265 57.89831 46.33548
#
# Velocity S-wave (km/s) = 3.42419 4.41847 3.95272
# Velocity P-wave (km/s) = 5.70121 7.67653 6.76139
#
# Compressibility (1/GPa) = 0.01998737
#
# Stress axis : x y z
#
# Youngs Moduli (GPa) = 92.98489 54.14780 180.15927
#
# Poissons Ratio (x) = 0.32597 0.31834
# Poissons Ratio (y) = 0.55977 -0.07102
# Poissons Ratio (z) = 0.16430 -0.02134
#
# Static dielectric constant tensor:
#      x y z
#    x 2.607310 -0.018540 -0.189090 
#    y -0.018540 2.416920 0.148810 
#    z -0.189090 0.148810 2.507450 
# 
# From -- ./inp_files/271472.got.cif
#   From: 2010.05.17/outbox.cif.g08.bks.cpg/sg2_136_cif.got.tgz:271472.got - 2010.06.03 11:33:40.
