data_PCOD9054886
_publ_section_title
;
Structure prediction by ZEFSAII (Michael W. Deem and Ramdas Pophale) SiO2 
 PCOD9054886
Probable space group: P -1
;
_chemical_formula_sum "Si O2"
_cell_formula_units_Z 16
_cell_length_a 6.895725
_cell_length_b 16.861041
_cell_length_c 18.012945
_cell_angle_alpha 153.451764
_cell_angle_beta 48.621751
_cell_angle_gamma 120.429593
_cell_volume 679.542093
_symmetry_space_group_name_H-M "P -1"
_symmetry_group_IT_number 2
_symmetry_cell_setting 'triclinic'
loop_
_space_group_symop_operation_xyz
x,y,z
-x,-y,-z
loop_
_atom_site_type_symbol
_atom_site_label
_atom_site_fract_x
_atom_site_fract_y
_atom_site_fract_z
Si Si1 0.631070 0.079875 0.221652
Si Si2 0.176269 0.621760 0.933286
Si Si3 0.275890 0.907327 0.510955
Si Si4 0.094531 0.249481 0.588079
Si Si5 0.861951 0.199540 0.764270
Si Si6 0.702701 0.893598 0.193198
Si Si7 0.693673 0.726090 0.831814
Si Si8 0.741882 0.454368 0.457336
O O1 0.329254 0.144169 0.384164
O O2 0.727825 0.263539 0.340866
O O3 0.781428 0.942348 0.132676
O O4 0.666882 0.944332 0.028137
O O5 0.192922 0.429603 0.731117
O O6 0.430882 0.696271 0.912051
O O7 0.158802 0.627348 0.031774
O O8 0.917447 0.750649 0.066905
O O9 0.200817 0.720916 0.350596
O O10 0.500000 0.000000 0.500000
O O11 0.318554 0.921164 0.598667
O O12 0.015876 0.038740 0.646359
O O13 0.034103 0.194696 0.642629
O O14 0.572419 0.169500 0.792680
O O15 0.712175 0.628116 0.664799
O O16 0.961675 0.603255 0.700002
O O17 0.500000 0.500000 0.500000
#
# Coordination Sequence:
#
# PCOD9054886 Si02
#       8
#     2   2   2   2   2   2   2   2
#     4  12  24  48  77 108 144 194 238 296 371 440
#     4  11  25  45  69 106 150 196 251 301 361 432
#     4  11  21  39  62  96 137 196 252 293 354 418
#     4  12  23  43  68 106 149 200 252 297 357 425
#     4  11  22  43  67  99 153 199 247 302 349 426
#     4  11  23  43  69  98 148 195 240 299 356 427
#     4  11  25  52  73 113 144 182 244 302 369 443
#     4  11  28  53  81 108 145 181 237 311 377 448
#
# _framework density 23.545266000000002
#
# number of rings (size 3 to 8) (size 9 to 14) (size 15 to 20)
#    0.000    0.750    5.000    2.625    1.750    1.000 
#   15.750    0.000    0.000    0.000    0.000    0.000 
#    0.000    0.000    0.000    0.000    0.000    0.000 
#
# Total GULP energy -89222.883599 kJ/mol
# GULP energy per Si atom -5576.430225 kJ/mol
# Density = 2.349168 g / cm^3
# Si number density = 23.545266 Si / 1000 Ang^3
#
#
#
# Elastic Constant Matrix: (Units=GPa)
#
#
# Indices 1 2 3 4 5 6 
#
# 1 150.7754 15.1477 57.4991 -8.9876 -1.7199 20.3285
# 2 15.1477 40.0230 14.1143 -3.1275 -4.9936 15.0637
# 3 57.4991 14.1143 131.3003 -7.1571 28.6522 7.1400
# 4 -8.9876 -3.1275 -7.1571 23.4816 14.3240 0.3437
# 5 -1.7199 -4.9936 28.6522 14.3240 49.3791 -4.4236
# 6 20.3285 15.0637 7.1400 0.3437 -4.4236 30.4826
#
#
#
# Elastic Compliance Matrix: (Units=1/GPa)
#
#
# Indices 1 2 3 4 5 6 
#
# 1 0.008875 0.000185 -0.003996 0.001121 0.001890 -0.004812
# 2 0.000185 0.032228 -0.003443 0.001366 0.003546 -0.014744
# 3 -0.003996 -0.003443 0.012328 0.007817 -0.009913 -0.000048
# 4 0.001121 0.001366 0.007817 0.059211 -0.022174 -0.007139
# 5 0.001890 0.003546 -0.009913 -0.022174 0.033253 0.004384
# 6 -0.004812 -0.014744 -0.000048 -0.007139 0.004384 0.044029
#
#
# Mechanical properties :
#
#
# Convention : Reuss Voigt Hill
#
# Bulk Modulus (GPa) = 25.69180 55.06900 40.38040
# Shear Modulus (GPa) = 22.99834 36.35782 29.67808
#
# Velocity S-wave (km/s) = 3.12872 3.93385 3.55416
# Velocity P-wave (km/s) = 4.89768 6.63874 5.83353
#
# Compressibility (1/GPa) = 0.03892293
#
# Stress axis : x y z
#
# Youngs Moduli (GPa) = 112.67675 31.02854 81.11586
#
# Poissons Ratio (x) = -0.00574 0.32415
# Poissons Ratio (y) = -0.02084 0.27929
# Poissons Ratio (z) = 0.45027 0.10683
#
# Static dielectric constant tensor:
#      x y z
#    x 1.969540 0.112740 0.149930 
#    y 0.112740 2.033700 0.220510 
#    z 0.149930 0.220510 2.286920 
# 
# From -- ./inp_files/550556.got.cif
#   From: 2010.05.17/outbox.cif.g08.bks.cpg/sg2_276_cif.got.tgz:550556.got - 2010.06.03 11:33:40.
