data_PCOD9054627
_publ_section_title
;
Structure prediction by ZEFSAII (Michael W. Deem and Ramdas Pophale) SiO2 
 PCOD9054627
Probable space group: P -1
;
_chemical_formula_sum "Si O2"
_cell_formula_units_Z 16
_cell_length_a 14.630222
_cell_length_b 9.565965
_cell_length_c 14.606782
_cell_angle_alpha 141.587144
_cell_angle_beta 33.505305
_cell_angle_gamma 133.345028
_cell_volume 697.876202
_symmetry_space_group_name_H-M "P -1"
_symmetry_group_IT_number 2
_symmetry_cell_setting 'triclinic'
loop_
_space_group_symop_operation_xyz
x,y,z
-x,-y,-z
loop_
_atom_site_type_symbol
_atom_site_label
_atom_site_fract_x
_atom_site_fract_y
_atom_site_fract_z
Si Si1 0.466671 0.131285 0.768749
Si Si2 0.079693 0.171230 0.594647
Si Si3 0.851041 0.348208 0.000648
Si Si4 0.175678 0.974636 0.791849
Si Si5 0.834723 0.108374 0.439971
Si Si6 0.546266 0.620414 0.427057
Si Si7 0.722031 0.522603 0.553431
Si Si8 0.785164 0.818194 0.833964
O O1 0.332132 0.099258 0.780947
O O2 0.512384 0.874890 0.610634
O O3 0.663201 0.237353 0.651642
O O4 0.357220 0.221138 0.989186
O O5 0.217562 0.332461 0.511806
O O6 0.925625 0.309612 0.819789
O O7 0.145098 0.039087 0.559975
O O8 0.000000 0.000000 0.500000
O O9 0.804700 0.093182 0.946136
O O10 0.708267 0.502664 0.210146
O O11 0.000000 0.500000 0.000000
O O12 0.182820 0.044438 0.715408
O O13 0.183829 0.702937 0.636837
O O14 0.000000 0.000000 0.000000
O O15 0.022524 0.234918 0.335973
O O16 0.500000 0.500000 0.500000
O O17 0.456693 0.576674 0.381291
O O18 0.734998 0.685152 0.713712
#
# Coordination Sequence:
#
# PCOD9054627 Si02
#       8
#     2   2   2   2   2   2   2   2
#     4  11  23  42  70  98 136 177 238 285 338 412
#     4  11  23  42  65 102 139 176 225 284 347 408
#     4  11  22  36  63  97 137 179 232 274 342 407
#     4  11  25  46  74  99 131 188 236 285 349 410
#     4  11  23  44  71  99 139 179 232 284 339 409
#     4  11  21  37  61  97 130 180 222 280 339 404
#     4  11  25  43  67 101 143 175 231 282 352 415
#     4  11  23  43  65 101 140 183 221 287 353 402
#
# _framework density 22.926703
#
# number of rings (size 3 to 8) (size 9 to 14) (size 15 to 20)
#    0.000    1.000    5.000    3.375    1.750    3.000 
#    0.000    0.625    0.000    0.000    0.000    0.000 
#    0.000    0.000    0.000    0.000    0.000    0.000 
#
# Total GULP energy -89128.614238 kJ/mol
# GULP energy per Si atom -5570.538390 kJ/mol
# Density = 2.287452 g / cm^3
# Si number density = 22.926703 Si / 1000 Ang^3
#
#
#
# Elastic Constant Matrix: (Units=GPa)
#
#
# Indices 1 2 3 4 5 6 
#
# 1 146.4523 20.7665 91.1335 1.6933 4.3420 7.1792
# 2 20.7665 49.9866 48.9430 15.6057 -0.3463 -4.9511
# 3 91.1335 48.9430 217.9892 -12.1453 5.5667 21.8213
# 4 1.6933 15.6057 -12.1453 34.7887 1.3881 1.1211
# 5 4.3420 -0.3463 5.5667 1.3881 46.3181 -5.3423
# 6 7.1792 -4.9511 21.8213 1.1211 -5.3423 29.3408
#
#
#
# Elastic Compliance Matrix: (Units=1/GPa)
#
#
# Indices 1 2 3 4 5 6 
#
# 1 0.009431 0.001648 -0.004621 -0.002858 -0.000057 0.001506
# 2 0.001648 0.041917 -0.013419 -0.024347 0.004626 0.018423
# 3 -0.004621 -0.013419 0.011223 0.010597 -0.002527 -0.010345
# 4 -0.002858 -0.024347 0.010597 0.044111 -0.004092 -0.013721
# 5 -0.000057 0.004626 -0.002527 -0.004092 0.022863 0.006993
# 6 0.001506 0.018423 -0.010345 -0.013721 0.006993 0.046314
#
#
# Mechanical properties :
#
#
# Convention : Reuss Voigt Hill
#
# Bulk Modulus (GPa) = 33.57257 81.79045 57.68151
# Shear Modulus (GPa) = 22.87578 38.99520 30.93549
#
# Velocity S-wave (km/s) = 3.16219 4.12863 3.67730
# Velocity P-wave (km/s) = 5.29224 7.64720 6.57600
#
# Compressibility (1/GPa) = 0.02978622
#
# Stress axis : x y z
#
# Youngs Moduli (GPa) = 106.03164 23.85646 89.10514
#
# Poissons Ratio (x) = -0.03931 0.41178
# Poissons Ratio (y) = -0.17471 1.19570
# Poissons Ratio (z) = 0.49001 0.32013
#
# Static dielectric constant tensor:
#      x y z
#    x 1.851120 -0.087310 0.033210 
#    y -0.087310 1.637710 0.077350 
#    z 0.033210 0.077350 1.694780 
# 
# From -- ./inp_files/343511.got.cif
#   From: 2010.05.17/outbox.cif.g08.bks.cpg/sg2_172_cif.got.tgz:343511.got - 2010.06.03 11:33:40.
