data_PCOD9054309
_publ_section_title
;
Structure prediction by ZEFSAII (Michael W. Deem and Ramdas Pophale) SiO2 
 PCOD9054309
Probable space group: P -1
;
_chemical_formula_sum "Si O2"
_cell_formula_units_Z 16
_cell_length_a 8.526430
_cell_length_b 11.541179
_cell_length_c 11.571935
_cell_angle_alpha 57.641880
_cell_angle_beta 71.355941
_cell_angle_gamma 114.233585
_cell_volume 626.218592
_symmetry_space_group_name_H-M "P -1"
_symmetry_group_IT_number 2
_symmetry_cell_setting 'triclinic'
loop_
_space_group_symop_operation_xyz
x,y,z
-x,-y,-z
loop_
_atom_site_type_symbol
_atom_site_label
_atom_site_fract_x
_atom_site_fract_y
_atom_site_fract_z
Si Si1 0.178793 0.355929 0.983611
Si Si2 0.539790 0.701512 0.162704
Si Si3 0.386740 0.790995 0.952772
Si Si4 0.140440 0.153529 0.493655
Si Si5 0.238456 0.372477 0.572586
Si Si6 0.005978 0.322894 0.282783
Si Si7 0.148989 0.909967 0.996409
Si Si8 0.409716 0.776926 0.684379
O O1 0.407204 0.414570 0.845472
O O2 0.209503 0.534653 0.862472
O O3 0.958874 0.163866 0.066592
O O4 0.138445 0.321148 0.147149
O O5 0.553378 0.808718 0.992001
O O6 0.308386 0.545022 0.382845
O O7 0.750495 0.884242 0.097751
O O8 0.362961 0.928806 0.932769
O O9 0.148022 0.551372 0.145209
O O10 0.448786 0.834533 0.779845
O O11 0.138052 0.191265 0.610453
O O12 0.360097 0.172478 0.436512
O O13 0.065156 0.263755 0.408372
O O14 0.000000 0.000000 0.500000
O O15 0.500000 0.500000 0.500000
O O16 0.049315 0.272456 0.773148
O O17 0.732536 0.192362 0.373171
#
# Coordination Sequence:
#
# PCOD9054309 Si02
#       8
#     2   2   2   2   2   2   2   2
#     4  11  20  42  70 106 135 185 250 306 366 447
#     4  12  25  43  71 104 141 203 245 299 380 435
#     4  11  22  44  68 107 141 183 252 307 372 446
#     4  12  28  47  71 110 152 196 255 315 370 446
#     4  12  27  48  70 106 155 199 243 309 380 454
#     4  11  22  43  77 103 140 191 249 312 376 437
#     4  12  25  43  71 106 147 189 251 302 366 463
#     4  11  21  44  77 101 142 189 246 317 373 443
#
# _framework density 25.550182
#
# number of rings (size 3 to 8) (size 9 to 14) (size 15 to 20)
#    0.000    0.500    6.250    2.250    3.500    3.000 
#    0.000    0.000    0.000    0.000    0.000    0.000 
#    0.000    0.000    0.000    0.000    0.000    0.000 
#
# Total GULP energy -89194.531986 kJ/mol
# GULP energy per Si atom -5574.658249 kJ/mol
# Density = 2.549203 g / cm^3
# Si number density = 25.550182 Si / 1000 Ang^3
#
#
#
# Elastic Constant Matrix: (Units=GPa)
#
#
# Indices 1 2 3 4 5 6 
#
# 1 102.4520 -0.9555 23.5100 12.8453 15.5136 1.2964
# 2 -0.9555 124.8516 13.3219 15.5596 4.0025 20.2950
# 3 23.5100 13.3219 68.7560 -0.2699 12.6293 -5.8942
# 4 12.8453 15.5596 -0.2699 27.9161 4.6576 -5.0982
# 5 15.5136 4.0025 12.6293 4.6576 32.9474 2.7507
# 6 1.2964 20.2950 -5.8942 -5.0982 2.7507 47.8788
#
#
#
# Elastic Compliance Matrix: (Units=1/GPa)
#
#
# Indices 1 2 3 4 5 6 
#
# 1 0.012028 0.001762 -0.004060 -0.006392 -0.003245 -0.002066
# 2 0.001762 0.010219 -0.003229 -0.007688 0.000724 -0.005637
# 3 -0.004060 -0.003229 0.018043 0.005656 -0.005799 0.004635
# 4 -0.006392 -0.007688 0.005656 0.045714 -0.005464 0.009310
# 5 -0.003245 0.000724 -0.005799 -0.005464 0.035081 -0.003530
# 6 -0.002066 -0.005637 0.004635 0.009310 -0.003530 0.025096
#
#
# Mechanical properties :
#
#
# Convention : Reuss Voigt Hill
#
# Bulk Modulus (GPa) = 34.20589 40.86804 37.53697
# Shear Modulus (GPa) = 29.94371 39.09399 34.51885
#
# Velocity S-wave (km/s) = 3.42710 3.91588 3.67961
# Velocity P-wave (km/s) = 5.39229 6.03948 5.72504
#
# Compressibility (1/GPa) = 0.02923473
#
# Stress axis : x y z
#
# Youngs Moduli (GPa) = 83.14150 97.86017 55.42386
#
# Poissons Ratio (x) = -0.17241 0.22503
# Poissons Ratio (y) = -0.14648 0.17895
# Poissons Ratio (z) = 0.33757 0.31597
#
# Static dielectric constant tensor:
#      x y z
#    x 2.101920 0.052580 -0.028510 
#    y 0.052580 1.988560 -0.111090 
#    z -0.028510 -0.111090 2.074120 
# 
# From -- ./inp_files/389736.got.cif
#   From: 2010.05.17/outbox.cif.g08.bks.cpg/sg2_195_cif.got.tgz:389736.got - 2010.06.03 11:33:40.
