data_PCOD9054499
_publ_section_title
;
Structure prediction by ZEFSAII (Michael W. Deem and Ramdas Pophale) SiO2 
 PCOD9054499
Probable space group: P -1
;
_chemical_formula_sum "Si O2"
_cell_formula_units_Z 16
_cell_length_a 15.575679
_cell_length_b 15.056629
_cell_length_c 7.537015
_cell_angle_alpha 64.951137
_cell_angle_beta 62.343601
_cell_angle_gamma 25.535209
_cell_volume 674.832954
_symmetry_space_group_name_H-M "P -1"
_symmetry_group_IT_number 2
_symmetry_cell_setting 'triclinic'
loop_
_space_group_symop_operation_xyz
x,y,z
-x,-y,-z
loop_
_atom_site_type_symbol
_atom_site_label
_atom_site_fract_x
_atom_site_fract_y
_atom_site_fract_z
Si Si1 0.778276 0.932149 0.619391
Si Si2 0.269619 0.935061 0.979417
Si Si3 0.899222 0.724187 0.046385
Si Si4 0.114870 0.818410 0.919661
Si Si5 0.463737 0.057322 0.690849
Si Si6 0.200147 0.568480 0.325407
Si Si7 0.598143 0.273656 0.350657
Si Si8 0.343475 0.315431 0.097003
O O1 0.837247 0.828317 0.833646
O O2 0.582893 0.048347 0.633996
O O3 0.981071 0.743248 0.468115
O O4 0.712776 0.103654 0.525146
O O5 0.337951 0.824035 0.824708
O O6 0.471742 0.772816 0.039260
O O7 0.189948 0.116110 0.864720
O O8 0.067441 0.059026 0.134680
O O9 0.139201 0.504987 0.021385
O O10 0.772966 0.738598 0.198500
O O11 0.309409 0.699624 0.750774
O O12 0.182661 0.668613 0.106849
O O13 0.000000 0.000000 0.000000
O O14 0.570500 0.870159 0.845954
O O15 0.500000 0.000000 0.500000
O O16 0.356727 0.470570 0.405838
O O17 0.280199 0.400618 0.287801
#
# Coordination Sequence:
#
# PCOD9054499 Si02
#       8
#     2   2   2   2   2   2   2   2
#     4  12  24  39  57  89 129 157 192 241 299 358
#     4   9  18  37  61  86 115 152 202 248 285 342
#     4  11  23  40  59  85 125 161 192 238 299 360
#     4  10  17  35  65  90 118 149 202 256 297 333
#     4  11  24  41  65  89 115 152 204 248 292 347
#     4  11  20  36  63  89 120 152 203 247 295 350
#     4  10  21  37  63  91 117 158 199 255 292 339
#     4  10  21  38  63  87 113 158 199 246 293 344
#
# _framework density 23.709571
#
# number of rings (size 3 to 8) (size 9 to 14) (size 15 to 20)
#    0.000    1.500    3.750    3.750    0.000    5.500 
#    0.000    0.625    0.000    1.500    0.000    0.000 
#    0.000    0.000    0.000    0.000    0.000    0.000 
#
# Total GULP energy -89393.683332 kJ/mol
# GULP energy per Si atom -5587.105208 kJ/mol
# Density = 2.365561 g / cm^3
# Si number density = 23.709571 Si / 1000 Ang^3
#
#
#
# Elastic Constant Matrix: (Units=GPa)
#
#
# Indices 1 2 3 4 5 6 
#
# 1 73.6347 35.8348 33.3700 10.6983 -25.3439 -38.5325
# 2 35.8348 95.3270 19.3568 4.4059 -5.4965 -38.5358
# 3 33.3700 19.3568 90.7274 11.7365 -5.7136 -25.3596
# 4 10.6983 4.4059 11.7365 25.4504 -9.7158 -6.0905
# 5 -25.3439 -5.4965 -5.7136 -9.7158 33.0981 -0.3255
# 6 -38.5325 -38.5358 -25.3596 -6.0905 -0.3255 53.2838
#
#
#
# Elastic Compliance Matrix: (Units=1/GPa)
#
#
# Indices 1 2 3 4 5 6 
#
# 1 0.041354 -0.002096 -0.005970 0.004129 0.031757 0.026214
# 2 -0.002096 0.015182 0.000193 0.000989 0.001335 0.009677
# 3 -0.005970 0.000193 0.014141 -0.004919 -0.003523 0.001969
# 4 0.004129 0.000989 -0.004919 0.047613 0.016521 0.006904
# 5 0.031757 0.001335 -0.003523 0.016521 0.059234 0.024504
# 6 0.026214 0.009677 0.001969 0.006904 0.024504 0.046599
#
#
# Mechanical properties :
#
#
# Convention : Reuss Voigt Hill
#
# Bulk Modulus (GPa) = 18.20454 48.53470 33.36962
# Shear Modulus (GPa) = 19.36624 33.77495 26.57060
#
# Velocity S-wave (km/s) = 2.86109 3.77839 3.35127
# Velocity P-wave (km/s) = 4.31385 6.28887 5.39255
#
# Compressibility (1/GPa) = 0.05493134
#
# Stress axis : x y z
#
# Youngs Moduli (GPa) = 24.18130 65.86615 70.71386
#
# Poissons Ratio (x) = 0.13806 0.42217
# Poissons Ratio (y) = 0.05069 -0.01363
# Poissons Ratio (z) = 0.14436 -0.01270
#
# Static dielectric constant tensor:
#      x y z
#    x 1.982260 -0.026660 0.017260 
#    y -0.026660 1.924930 0.024650 
#    z 0.017260 0.024650 1.922900 
# 
# From -- ./inp_files/336698.got.cif
#   From: 2010.05.17/outbox.cif.g08.bks.cpg/sg2_169_cif.got.tgz:336698.got - 2010.06.03 11:33:40.
