data_PCOD9054529
_publ_section_title
;
Structure prediction by ZEFSAII (Michael W. Deem and Ramdas Pophale) SiO2 
 PCOD9054529
Probable space group: P -1
;
_chemical_formula_sum "Si O2"
_cell_formula_units_Z 16
_cell_length_a 11.467962
_cell_length_b 10.376427
_cell_length_c 16.804702
_cell_angle_alpha 76.982539
_cell_angle_beta 122.260784
_cell_angle_gamma 53.358750
_cell_volume 811.461052
_symmetry_space_group_name_H-M "P -1"
_symmetry_group_IT_number 2
_symmetry_cell_setting 'triclinic'
loop_
_space_group_symop_operation_xyz
x,y,z
-x,-y,-z
loop_
_atom_site_type_symbol
_atom_site_label
_atom_site_fract_x
_atom_site_fract_y
_atom_site_fract_z
Si Si1 0.758796 0.893754 0.197438
Si Si2 0.283822 0.840154 0.153458
Si Si3 0.236736 0.644520 0.342976
Si Si4 0.045995 0.083613 0.197860
Si Si5 0.517520 0.369085 0.321412
Si Si6 0.425950 0.244989 0.865373
Si Si7 0.489645 0.672510 0.852324
Si Si8 0.028987 0.824940 0.669065
O O1 0.714120 0.776012 0.207968
O O2 0.081615 0.667439 0.336771
O O3 0.624063 0.094853 0.189290
O O4 0.600237 0.068863 0.033557
O O5 0.516851 0.529632 0.289907
O O6 0.374028 0.866470 0.115435
O O7 0.233043 0.947664 0.206327
O O8 0.000000 0.000000 0.000000
O O9 0.500000 0.500000 0.500000
O O10 0.322681 0.513994 0.307458
O O11 0.019141 0.946735 0.208106
O O12 0.136104 0.046376 0.324712
O O13 0.755001 0.399691 0.035403
O O14 0.420340 0.397416 0.197247
O O15 0.809179 0.056158 0.491171
O O16 0.195360 0.551371 0.753078
O O17 0.253192 0.757191 0.764762
#
# Coordination Sequence:
#
# PCOD9054529 Si02
#       8
#     2   2   2   2   2   2   2   2
#     4  11  24  41  65  92 131 169 210 257 324 383
#     4  11  21  37  63  94 126 158 209 260 312 365
#     4  11  21  39  64  94 126 165 212 258 312 374
#     4  11  21  35  63  93 118 160 214 261 304 365
#     4  11  23  35  63  97 124 159 213 268 309 362
#     4  11  24  42  63  95 130 168 205 266 325 376
#     4  12  21  37  63  95 122 162 217 262 303 373
#     4  12  21  39  63  94 125 163 214 262 309 375
#
# _framework density 19.717521000000001
#
# number of rings (size 3 to 8) (size 9 to 14) (size 15 to 20)
#    0.000    0.750    6.250    3.000    0.000    0.000 
#    0.000    3.125    0.000    0.000    0.000    0.000 
#    0.000    0.000    0.000    0.000    0.000    0.000 
#
# Total GULP energy -89353.989383 kJ/mol
# GULP energy per Si atom -5584.624336 kJ/mol
# Density = 1.967264 g / cm^3
# Si number density = 19.717521 Si / 1000 Ang^3
#
#
#
# Elastic Constant Matrix: (Units=GPa)
#
#
# Indices 1 2 3 4 5 6 
#
# 1 103.2699 58.7571 19.3117 2.4672 2.5504 0.1735
# 2 58.7571 129.0934 9.7501 -0.9792 6.8073 3.5913
# 3 19.3117 9.7501 63.2113 -4.8112 -7.8292 14.8540
# 4 2.4672 -0.9792 -4.8112 23.2188 -0.9025 -9.2259
# 5 2.5504 6.8073 -7.8292 -0.9025 23.1274 3.6191
# 6 0.1735 3.5913 14.8540 -9.2259 3.6191 34.1090
#
#
#
# Elastic Compliance Matrix: (Units=1/GPa)
#
#
# Indices 1 2 3 4 5 6 
#
# 1 0.013972 -0.006034 -0.004151 -0.001851 -0.001561 0.002037
# 2 -0.006034 0.010627 0.000146 0.000750 -0.002273 -0.000708
# 3 -0.004151 0.000146 0.020501 0.001256 0.008895 -0.009526
# 4 -0.001851 0.000750 0.001256 0.048526 0.000350 0.012472
# 5 -0.001561 -0.002273 0.008895 0.000350 0.048462 -0.008673
# 6 0.002037 -0.000708 -0.009526 0.012472 -0.008673 0.037824
#
#
# Mechanical properties :
#
#
# Convention : Reuss Voigt Hill
#
# Bulk Modulus (GPa) = 39.96311 52.35694 46.16002
# Shear Modulus (GPa) = 24.00016 29.94142 26.97079
#
# Velocity S-wave (km/s) = 3.49262 3.90105 3.70247
# Velocity P-wave (km/s) = 6.04784 6.84851 6.46059
#
# Compressibility (1/GPa) = 0.02502308
#
# Stress axis : x y z
#
# Youngs Moduli (GPa) = 71.57039 94.09916 48.77724
#
# Poissons Ratio (x) = 0.56783 0.20246
# Poissons Ratio (y) = 0.43188 -0.00714
# Poissons Ratio (z) = 0.29707 -0.01377
#
# Static dielectric constant tensor:
#      x y z
#    x 1.702570 -0.044440 -0.000060 
#    y -0.044440 1.694000 -0.008520 
#    z -0.000060 -0.008520 1.734250 
# 
# From -- ./inp_files/565938.got.cif
#   From: 2010.05.17/outbox.cif.g08.bks.cpg/sg2_283_cif.got.tgz:565938.got - 2010.06.03 11:33:40.
