data_PCOD9054850
_publ_section_title
;
Structure prediction by ZEFSAII (Michael W. Deem and Ramdas Pophale) SiO2 
 PCOD9054850
Probable space group: P -1
;
_chemical_formula_sum "Si O2"
_cell_formula_units_Z 16
_cell_length_a 8.243561
_cell_length_b 20.871774
_cell_length_c 9.675891
_cell_angle_alpha 61.356736
_cell_angle_beta 101.696209
_cell_angle_gamma 49.026472
_cell_volume 689.899645
_symmetry_space_group_name_H-M "P -1"
_symmetry_group_IT_number 2
_symmetry_cell_setting 'triclinic'
loop_
_space_group_symop_operation_xyz
x,y,z
-x,-y,-z
loop_
_atom_site_type_symbol
_atom_site_label
_atom_site_fract_x
_atom_site_fract_y
_atom_site_fract_z
Si Si1 0.837231 0.074351 0.542534
Si Si2 0.636498 0.904238 0.754874
Si Si3 0.811876 0.571556 0.246763
Si Si4 0.860216 0.660966 0.935442
Si Si5 0.919787 0.143994 0.049539
Si Si6 0.792649 0.871225 0.300856
Si Si7 0.091064 0.340643 0.367153
Si Si8 0.778947 0.175355 0.677210
O O1 0.482698 0.250907 0.263532
O O2 0.009005 0.046009 0.733321
O O3 0.000000 0.000000 0.500000
O O4 0.778643 0.017432 0.656930
O O5 0.729617 0.785477 0.856493
O O6 0.500000 0.000000 0.500000
O O7 0.351739 0.031612 0.689354
O O8 0.981923 0.810036 0.966647
O O9 0.422484 0.742547 0.042083
O O10 0.000000 0.500000 0.500000
O O11 0.823458 0.487941 0.263700
O O12 0.996510 0.556761 0.188097
O O13 0.022380 0.614983 0.860830
O O14 0.896631 0.130092 0.901707
O O15 0.836070 0.768909 0.451247
O O16 0.153841 0.767353 0.420223
O O17 0.500000 0.000000 0.000000
O O18 0.431263 0.261342 0.524783
#
# Coordination Sequence:
#
# PCOD9054850 Si02
#       8
#     2   2   2   2   2   2   2   2
#     4  11  21  38  71 103 134 175 234 293 359 415
#     4  12  23  44  70 109 145 171 233 309 367 418
#     4  12  27  46  72  98 142 198 244 286 346 435
#     4  11  24  45  72 101 140 187 235 299 360 419
#     4  12  24  43  66 107 141 188 232 293 360 421
#     4  12  26  41  71 111 141 180 231 301 363 422
#     4  11  26  50  68 102 148 189 244 292 349 428
#     4  11  25  41  72 103 145 184 231 290 368 420
#
# _framework density 23.191777999999999
#
# number of rings (size 3 to 8) (size 9 to 14) (size 15 to 20)
#    0.000    0.500    6.250    2.250    3.500    0.000 
#    2.250    1.875    0.000    0.000    0.000    0.000 
#    0.000    0.000    0.000    0.000    0.000    0.000 
#
# Total GULP energy -89184.212281 kJ/mol
# GULP energy per Si atom -5574.013268 kJ/mol
# Density = 2.313899 g / cm^3
# Si number density = 23.191778 Si / 1000 Ang^3
#
#
#
# Elastic Constant Matrix: (Units=GPa)
#
#
# Indices 1 2 3 4 5 6 
#
# 1 126.5372 31.1444 36.4963 10.7739 -27.0689 10.7304
# 2 31.1444 164.9312 54.8375 35.4462 -29.8752 17.0657
# 3 36.4963 54.8375 90.4107 29.6102 -36.0078 10.1906
# 4 10.7739 35.4462 29.6102 44.6612 -2.0435 -4.5436
# 5 -27.0689 -29.8752 -36.0078 -2.0435 41.9821 -2.8141
# 6 10.7304 17.0657 10.1906 -4.5436 -2.8141 40.4110
#
#
#
# Elastic Compliance Matrix: (Units=1/GPa)
#
#
# Indices 1 2 3 4 5 6 
#
# 1 0.009612 0.000029 -0.001153 -0.001562 0.005012 -0.002100
# 2 0.000029 0.009193 -0.000693 -0.007019 0.005347 -0.004132
# 3 -0.001153 -0.000693 0.025682 -0.015943 0.019591 -0.006305
# 4 -0.001562 -0.007019 -0.015943 0.039209 -0.017056 0.010620
# 5 0.005012 0.005347 0.019591 -0.017056 0.046346 -0.007220
# 6 -0.002100 -0.004132 -0.006305 0.010620 -0.007220 0.029330
#
#
# Mechanical properties :
#
#
# Convention : Reuss Voigt Hill
#
# Bulk Modulus (GPa) = 24.47926 69.64839 47.06382
# Shear Modulus (GPa) = 28.30906 42.70425 35.50666
#
# Velocity S-wave (km/s) = 3.49757 4.29575 3.91705
# Velocity P-wave (km/s) = 5.18543 7.39604 6.38710
#
# Compressibility (1/GPa) = 0.04085092
#
# Stress axis : x y z
#
# Youngs Moduli (GPa) = 104.04201 108.78104 38.93832
#
# Poissons Ratio (x) = -0.00319 0.04491
# Poissons Ratio (y) = -0.00305 0.02700
# Poissons Ratio (z) = 0.12000 0.07543
#
# Static dielectric constant tensor:
#      x y z
#    x 1.993670 -0.050280 0.048540 
#    y -0.050280 1.835050 0.066340 
#    z 0.048540 0.066340 1.781150 
# 
# From -- ./inp_files/223461.got.cif
#   From: 2010.05.17/outbox.cif.g08.bks.cpg/sg2_112_cif.got.tgz:223461.got - 2010.06.03 11:33:40.
