data_PCOD9054549
_publ_section_title
;
Structure prediction by ZEFSAII (Michael W. Deem and Ramdas Pophale) SiO2 
 PCOD9054549
Probable space group: P -1
;
_chemical_formula_sum "Si O2"
_cell_formula_units_Z 12
_cell_length_a 9.891495
_cell_length_b 9.876301
_cell_length_c 11.542703
_cell_angle_alpha 121.799637
_cell_angle_beta 105.446739
_cell_angle_gamma 43.778769
_cell_volume 650.459341
_symmetry_space_group_name_H-M "P -1"
_symmetry_group_IT_number 2
_symmetry_cell_setting 'triclinic'
loop_
_space_group_symop_operation_xyz
x,y,z
-x,-y,-z
loop_
_atom_site_type_symbol
_atom_site_label
_atom_site_fract_x
_atom_site_fract_y
_atom_site_fract_z
Si Si1 0.040613 0.308335 0.849214
Si Si2 0.711269 0.251930 0.125266
Si Si3 0.110755 0.477632 0.337506
Si Si4 0.957121 0.283802 0.335725
Si Si5 0.471665 0.878340 0.848729
Si Si6 0.870378 0.176216 0.894006
O O1 0.004399 0.373694 0.736397
O O2 0.887373 0.298959 0.858409
O O3 0.265562 0.069886 0.818770
O O4 0.000000 0.500000 0.000000
O O5 0.762009 0.360620 0.267765
O O6 0.546859 0.269870 0.148494
O O7 0.706851 0.310258 0.017807
O O8 0.915538 0.980823 0.060140
O O9 0.081004 0.622271 0.502395
O O10 0.340516 0.278670 0.263511
O O11 0.031641 0.370443 0.314582
O O12 0.114535 0.011024 0.243277
O O13 0.500000 0.000000 0.000000
#
# Coordination Sequence:
#
# PCOD9054549 Si02
#       6
#     2   2   2   2   2   2
#     4  11  21  36  58  88 113 146 193 241 276 333
#     4   8  16  33  58  78 112 151 180 228 286 328
#     4  11  22  36  63  84 111 154 196 225 285 346
#     4   9  19  38  58  82 116 160 180 227 298 338
#     4  11  21  36  58  88 113 146 193 241 276 333
#     4   8  16  33  58  78 112 151 180 228 286 328
#
# _framework density 18.448499999999999
#
# number of rings (size 3 to 8) (size 9 to 14) (size 15 to 20)
#    1.000    1.333    1.667    2.000    0.000    1.333 
#    0.000    4.167    3.667    0.000    0.000    0.000 
#    0.000    0.000    0.000    0.000    0.000    0.000 
#
# Total GULP energy -66838.135360 kJ/mol
# GULP energy per Si atom -5569.844613 kJ/mol
# Density = 1.840651 g / cm^3
# Si number density = 18.448500 Si / 1000 Ang^3
#
#
#
# Elastic Constant Matrix: (Units=GPa)
#
#
# Indices 1 2 3 4 5 6 
#
# 1 126.9388 58.3515 82.9054 -17.9065 1.9681 30.5180
# 2 58.3515 94.9859 57.4842 -20.7622 -7.2523 5.0749
# 3 82.9054 57.4842 151.7415 -25.9575 8.1611 30.8618
# 4 -17.9065 -20.7622 -25.9575 15.8994 13.3926 -5.4173
# 5 1.9681 -7.2523 8.1611 13.3926 27.5893 4.3485
# 6 30.5180 5.0749 30.8618 -5.4173 4.3485 39.4793
#
#
#
# Elastic Compliance Matrix: (Units=1/GPa)
#
#
# Indices 1 2 3 4 5 6 
#
# 1 0.015713 -0.006798 -0.005052 -0.003387 0.001484 -0.007952
# 2 -0.006798 0.019890 0.000258 0.029834 -0.010059 0.007698
# 3 -0.005052 0.000258 0.020669 0.055212 -0.032306 -0.001151
# 4 -0.003387 0.029834 0.055212 0.348908 -0.181317 0.023470
# 5 0.001484 -0.010059 -0.032306 -0.181317 0.133301 -0.014163
# 6 -0.007952 0.007698 -0.001151 0.023470 -0.014163 0.036167
#
#
# Mechanical properties :
#
#
# Convention : Reuss Voigt Hill
#
# Bulk Modulus (GPa) = 30.22173 85.68315 57.95244
# Shear Modulus (GPa) = 8.21208 28.25526 18.23367
#
# Velocity S-wave (km/s) = 2.11211 3.91778 3.14722
# Velocity P-wave (km/s) = 4.72919 8.18600 6.68491
#
# Compressibility (1/GPa) = 0.03308878
#
# Stress axis : x y z
#
# Youngs Moduli (GPa) = 63.64260 50.27773 48.38200
#
# Poissons Ratio (x) = 0.34177 0.24441
# Poissons Ratio (y) = 0.43262 -0.01249
# Poissons Ratio (z) = 0.32150 -0.01298
#
# Static dielectric constant tensor:
#      x y z
#    x 1.660520 -0.014420 -0.010750 
#    y -0.014420 1.689780 -0.001170 
#    z -0.010750 -0.001170 1.605790 
# 
# From -- ./inp_files/377114.got.cif
#   From: 2010.05.17/outbox.cif.g08.bks.cpg/sg2_189_cif.got.tgz:377114.got - 2010.06.03 11:33:40.
