data_PCOD9054169
_publ_section_title
;
Structure prediction by ZEFSAII (Michael W. Deem and Ramdas Pophale) SiO2 
 PCOD9054169
Probable space group: P -1
;
_chemical_formula_sum "Si O2"
_cell_formula_units_Z 16
_cell_length_a 11.571608
_cell_length_b 13.115490
_cell_length_c 8.334722
_cell_angle_alpha 118.845971
_cell_angle_beta 42.035903
_cell_angle_gamma 131.399633
_cell_volume 635.250438
_symmetry_space_group_name_H-M "P -1"
_symmetry_group_IT_number 2
_symmetry_cell_setting 'triclinic'
loop_
_space_group_symop_operation_xyz
x,y,z
-x,-y,-z
loop_
_atom_site_type_symbol
_atom_site_label
_atom_site_fract_x
_atom_site_fract_y
_atom_site_fract_z
Si Si1 0.836600 0.805804 0.299000
Si Si2 0.929977 0.677546 0.545432
Si Si3 0.669084 0.591162 0.068898
Si Si4 0.722432 0.409538 0.389912
Si Si5 0.287976 0.062829 0.734007
Si Si6 0.836615 0.903780 0.782990
Si Si7 0.514104 0.316914 0.205622
Si Si8 0.756206 0.220053 0.445664
O O1 0.846578 0.708925 0.083156
O O2 0.736471 0.883515 0.370615
O O3 0.675420 0.699174 0.508907
O O4 0.034410 0.935649 0.265812
O O5 0.874395 0.569215 0.380306
O O6 0.938719 0.813739 0.583751
O O7 0.132172 0.707715 0.450317
O O8 0.754032 0.614346 0.818410
O O9 0.480722 0.611230 0.324125
O O10 0.604017 0.442396 0.087060
O O11 0.669475 0.353247 0.220065
O O12 0.809736 0.332002 0.339796
O O13 0.515189 0.140043 0.621344
O O14 0.206570 0.904345 0.701961
O O15 0.177738 0.096404 0.009943
O O16 0.615322 0.824651 0.867090
#
# Coordination Sequence:
#
# PCOD9054169 Si02
#       8
#     2   2   2   2   2   2   2   2
#     4  11  20  41  64  97 127 159 209 265 317 368
#     4  12  23  37  69 100 120 162 219 273 302 368
#     4  11  22  39  67  96 126 163 216 262 315 361
#     4  11  22  42  62  89 131 169 206 253 322 376
#     4  11  22  40  68  91 127 167 208 265 317 372
#     4  12  23  40  69 101 122 157 224 269 309 364
#     4  11  25  40  64  94 132 173 202 260 322 375
#     4  11  23  40  64  93 130 165 208 259 323 373
#
# _framework density 25.186917000000001
#
# number of rings (size 3 to 8) (size 9 to 14) (size 15 to 20)
#    0.000    0.750    6.250    3.750    1.750    0.000 
#    0.000    1.250    0.000    0.000    0.000    0.000 
#    0.000    0.000    0.000    0.000    0.000    0.000 
#
# Total GULP energy -89355.867090 kJ/mol
# GULP energy per Si atom -5584.741693 kJ/mol
# Density = 2.512959 g / cm^3
# Si number density = 25.186917 Si / 1000 Ang^3
#
#
#
# Elastic Constant Matrix: (Units=GPa)
#
#
# Indices 1 2 3 4 5 6 
#
# 1 119.4219 47.6055 13.6809 7.8805 7.0797 20.2773
# 2 47.6055 170.2254 10.6159 -2.1851 3.8353 29.4191
# 3 13.6809 10.6159 41.9207 -12.8303 1.7700 -5.0498
# 4 7.8805 -2.1851 -12.8303 34.1259 1.1655 6.1243
# 5 7.0797 3.8353 1.7700 1.1655 40.0614 5.8316
# 6 20.2773 29.4191 -5.0498 6.1243 5.8316 51.4995
#
#
#
# Elastic Compliance Matrix: (Units=1/GPa)
#
#
# Indices 1 2 3 4 5 6 
#
# 1 0.010514 -0.002225 -0.004277 -0.003653 -0.000950 -0.002746
# 2 -0.002225 0.007186 -0.001173 0.001154 0.000234 -0.003508
# 3 -0.004277 -0.001173 0.029566 0.011347 -0.001359 0.004058
# 4 -0.003653 0.001154 0.011347 0.034901 -0.000664 -0.002184
# 5 -0.000950 0.000234 -0.001359 -0.000664 0.025581 -0.002711
# 6 -0.002746 -0.003508 0.004058 -0.002184 -0.002711 0.023467
#
#
# Mechanical properties :
#
#
# Convention : Reuss Voigt Hill
#
# Bulk Modulus (GPa) = 31.33046 52.81916 42.07481
# Shear Modulus (GPa) = 31.80604 42.44841 37.12723
#
# Velocity S-wave (km/s) = 3.55744 4.10974 3.84352
# Velocity P-wave (km/s) = 5.41665 6.59821 6.03641
#
# Compressibility (1/GPa) = 0.03191783
#
# Stress axis : x y z
#
# Youngs Moduli (GPa) = 95.11054 139.16789 33.82241
#
# Poissons Ratio (x) = 0.30958 0.14465
# Poissons Ratio (y) = 0.21157 0.03967
# Poissons Ratio (z) = 0.40676 0.16321
#
# Static dielectric constant tensor:
#      x y z
#    x 2.057580 0.094170 -0.003130 
#    y 0.094170 2.014020 -0.035370 
#    z -0.003130 -0.035370 2.053670 
# 
# From -- ./inp_files/262776.got.cif
#   From: 2010.05.17/outbox.cif.g08.bks.cpg/sg2_132_cif.got.tgz:262776.got - 2010.06.03 11:33:40.
