data_PCOD9054949
_publ_section_title
;
Structure prediction by ZEFSAII (Michael W. Deem and Ramdas Pophale) SiO2 
 PCOD9054949
Probable space group: P -1
;
_chemical_formula_sum "Si O2"
_cell_formula_units_Z 16
_cell_length_a 7.869250
_cell_length_b 7.870678
_cell_length_c 14.463150
_cell_angle_alpha 69.604719
_cell_angle_beta 57.484154
_cell_angle_gamma 93.133874
_cell_volume 674.015552
_symmetry_space_group_name_H-M "P -1"
_symmetry_group_IT_number 2
_symmetry_cell_setting 'triclinic'
loop_
_space_group_symop_operation_xyz
x,y,z
-x,-y,-z
loop_
_atom_site_type_symbol
_atom_site_label
_atom_site_fract_x
_atom_site_fract_y
_atom_site_fract_z
Si Si1 0.264161 0.166085 0.046148
Si Si2 0.403137 0.805858 0.897032
Si Si3 0.903353 0.544373 0.845371
Si Si4 0.827787 0.605559 0.508186
Si Si5 0.340905 0.116092 0.550745
Si Si6 0.188261 0.073703 0.805295
Si Si7 0.713877 0.500313 0.350322
Si Si8 0.424876 0.487243 0.213167
O O1 0.417207 0.120587 0.088948
O O2 0.148027 0.298644 0.107235
O O3 0.411376 0.309148 0.901786
O O4 0.067123 0.000173 0.094208
O O5 0.485110 0.682392 0.819077
O O6 0.319978 0.967672 0.847016
O O7 0.204793 0.652530 0.032849
O O8 0.776869 0.533562 0.789261
O O9 0.144264 0.582930 0.742189
O O10 0.845720 0.833582 0.462598
O O11 0.812190 0.559784 0.411303
O O12 0.655836 0.530501 0.655331
O O13 0.000000 0.500000 0.500000
O O14 0.238003 0.035424 0.692103
O O15 0.502910 0.331435 0.466939
O O16 0.500000 0.000000 0.500000
O O17 0.274692 0.301408 0.739156
#
# Coordination Sequence:
#
# PCOD9054949 Si02
#       8
#     2   2   2   2   2   2   2   2
#     4   9  20  39  66  95 127 172 221 275 319 386
#     4   9  20  38  64  96 130 174 220 271 320 387
#     4   9  18  38  64  92 129 167 221 271 317 381
#     4  11  21  39  67  96 132 175 208 262 336 387
#     4  11  25  46  67  93 128 172 224 270 323 398
#     4  11  22  40  60  96 135 165 216 269 335 394
#     4  11  24  43  63  93 133 165 210 274 331 390
#     4   9  18  37  64  96 130 172 223 264 320 389
#
# _framework density 23.738325
#
# number of rings (size 3 to 8) (size 9 to 14) (size 15 to 20)
#    0.000    2.000    1.250    4.500    0.000    3.500 
#    9.000    4.375    0.000    0.000    0.000    0.000 
#    0.000    0.000    0.000    0.000    0.000    0.000 
#
# Total GULP energy -89241.801060 kJ/mol
# GULP energy per Si atom -5577.612566 kJ/mol
# Density = 2.368430 g / cm^3
# Si number density = 23.738325 Si / 1000 Ang^3
#
#
#
# Elastic Constant Matrix: (Units=GPa)
#
#
# Indices 1 2 3 4 5 6 
#
# 1 100.4333 58.1470 56.2470 -19.8042 23.2882 -31.6185
# 2 58.1470 90.6659 48.1759 -20.1598 7.8002 -11.0471
# 3 56.2470 48.1759 118.3637 5.8673 17.2463 -26.4385
# 4 -19.8042 -20.1598 5.8673 36.2626 -15.9315 4.3113
# 5 23.2882 7.8002 17.2463 -15.9315 38.5483 -2.7605
# 6 -31.6185 -11.0471 -26.4385 4.3113 -2.7605 24.8167
#
#
#
# Elastic Compliance Matrix: (Units=1/GPa)
#
#
# Indices 1 2 3 4 5 6 
#
# 1 0.033074 -0.016930 0.001365 -0.002628 -0.015763 0.034760
# 2 -0.016930 0.027752 -0.011419 0.017456 0.015309 -0.022711
# 3 0.001365 -0.011419 0.019265 -0.016475 -0.012607 0.018639
# 4 -0.002628 0.017456 -0.016475 0.052033 0.025546 -0.019326
# 5 -0.015763 0.015309 -0.012607 0.025546 0.046707 -0.025941
# 6 0.034760 -0.022711 0.018639 -0.019326 -0.025941 0.094802
#
#
# Mechanical properties :
#
#
# Convention : Reuss Voigt Hill
#
# Bulk Modulus (GPa) = 38.28101 70.51141 54.39621
# Shear Modulus (GPa) = 14.86737 29.71840 22.29288
#
# Velocity S-wave (km/s) = 2.50532 3.54208 3.06781
# Velocity P-wave (km/s) = 4.95279 6.81884 5.95931
#
# Compressibility (1/GPa) = 0.02612261
#
# Stress axis : x y z
#
# Youngs Moduli (GPa) = 30.23505 36.03372 51.90877
#
# Poissons Ratio (x) = 0.61004 -0.07085
# Poissons Ratio (y) = 0.51187 0.59276
# Poissons Ratio (z) = -0.04127 0.41148
#
# Static dielectric constant tensor:
#      x y z
#    x 2.186870 -0.176450 0.051570 
#    y -0.176450 2.221870 -0.091410 
#    z 0.051570 -0.091410 1.909170 
# 
# From -- ./inp_files/490769.got.cif
#   From: 2010.05.17/outbox.cif.g08.bks.cpg/sg2_246_cif.got.tgz:490769.got - 2010.06.03 11:33:40.
