data_PCOD9054388
_publ_section_title
;
Structure prediction by ZEFSAII (Michael W. Deem and Ramdas Pophale) SiO2 
 PCOD9054388
Probable space group: P -1
;
_chemical_formula_sum "Si O2"
_cell_formula_units_Z 14
_cell_length_a 8.721342
_cell_length_b 9.177658
_cell_length_c 7.973827
_cell_angle_alpha 80.229900
_cell_angle_beta 113.242786
_cell_angle_gamma 101.037952
_cell_volume 572.444972
_symmetry_space_group_name_H-M "P -1"
_symmetry_group_IT_number 2
_symmetry_cell_setting 'triclinic'
loop_
_space_group_symop_operation_xyz
x,y,z
-x,-y,-z
loop_
_atom_site_type_symbol
_atom_site_label
_atom_site_fract_x
_atom_site_fract_y
_atom_site_fract_z
Si Si1 0.962643 0.774919 0.763171
Si Si2 0.348137 0.086177 0.473325
Si Si3 0.768240 0.957868 0.060359
Si Si4 0.449247 0.823146 0.172164
Si Si5 0.338527 0.585492 0.895490
Si Si6 0.959879 0.676554 0.136557
Si Si7 0.835080 0.236640 0.466891
O O1 0.776608 0.818886 0.692821
O O2 0.007660 0.727052 0.603707
O O3 0.994940 0.670351 0.953960
O O4 0.095115 0.922840 0.817026
O O5 0.453804 0.210742 0.614261
O O6 0.500000 0.000000 0.500000
O O7 0.221298 0.942129 0.515733
O O8 0.609550 0.897381 0.117864
O O9 0.867182 0.824355 0.080855
O O10 0.679486 0.057118 0.869780
O O11 0.355603 0.694510 0.042126
O O12 0.176350 0.461864 0.847166
O O13 0.315170 0.688909 0.702683
O O14 0.500000 0.500000 0.000000
O O15 0.107557 0.701289 0.335819
#
# Coordination Sequence:
#
# PCOD9054388 Si02
#       7
#     2   2   2   2   2   2   2
#     4  12  25  46  77 113 146 188 251 314 368 434
#     4  12  26  42  78 117 146 189 253 314 371 435
#     4  11  20  43  73 106 142 185 245 311 356 428
#     4  11  22  43  72 107 149 190 244 300 374 432
#     4  12  27  47  73 105 154 203 240 300 376 446
#     4  12  27  45  75 110 146 194 251 297 370 452
#     4  12  26  49  75 106 148 198 248 306 371 438
#
# _framework density 24.456499999999998
#
# number of rings (size 3 to 8) (size 9 to 14) (size 15 to 20)
#    0.000    0.286    5.714    3.857    4.000    0.571 
#    0.000    2.143    0.000    0.000    0.000    0.000 
#    0.000    0.000    0.000    0.000    0.000    0.000 
#
# Total GULP energy -78174.229143 kJ/mol
# GULP energy per Si atom -5583.873510 kJ/mol
# Density = 2.440084 g / cm^3
# Si number density = 24.456500 Si / 1000 Ang^3
#
#
#
# Elastic Constant Matrix: (Units=GPa)
#
#
# Indices 1 2 3 4 5 6 
#
# 1 75.2801 -2.7269 33.5197 -8.9297 21.1580 -14.1580
# 2 -2.7269 84.2023 41.1223 -1.8145 20.5951 4.2416
# 3 33.5197 41.1223 193.3316 4.7912 27.0625 -5.0718
# 4 -8.9297 -1.8145 4.7912 31.6016 2.4241 17.7027
# 5 21.1580 20.5951 27.0625 2.4241 40.5491 -9.2269
# 6 -14.1580 4.2416 -5.0718 17.7027 -9.2269 38.3247
#
#
#
# Elastic Compliance Matrix: (Units=1/GPa)
#
#
# Indices 1 2 3 4 5 6 
#
# 1 0.018517 0.004675 -0.002900 0.006491 -0.010389 0.000440
# 2 0.004675 0.016683 -0.003214 0.007186 -0.010661 -0.006431
# 3 -0.002900 -0.003214 0.006568 -0.002579 -0.000823 0.001147
# 4 0.006491 0.007186 -0.002579 0.049267 -0.013915 -0.024846
# 5 -0.010389 -0.010661 -0.000823 -0.013915 0.039897 0.013266
# 6 0.000440 -0.006431 0.001147 -0.024846 0.013266 0.041789
#
#
# Mechanical properties :
#
#
# Convention : Reuss Voigt Hill
#
# Bulk Modulus (GPa) = 25.71336 55.18270 40.44803
# Shear Modulus (GPa) = 26.51641 40.82168 33.66904
#
# Velocity S-wave (km/s) = 3.29633 4.08996 3.71440
# Velocity P-wave (km/s) = 5.00245 6.70196 5.91358
#
# Compressibility (1/GPa) = 0.03889028
#
# Stress axis : x y z
#
# Youngs Moduli (GPa) = 54.00522 59.94001 152.25387
#
# Poissons Ratio (x) = -0.28019 0.44151
# Poissons Ratio (y) = -0.25245 0.48928
# Poissons Ratio (z) = 0.15661 0.19262
#
# Static dielectric constant tensor:
#      x y z
#    x 2.007140 -0.025110 -0.074950 
#    y -0.025110 1.915500 0.021790 
#    z -0.074950 0.021790 2.032160 
# 
# From -- ./inp_files/158298.got.cif
#   From: 2010.05.17/outbox.cif.g08.bks.cpg/sg2_80_cif.got.tgz:158298.got - 2010.06.03 11:33:40.
