data_PCOD9054723
_publ_section_title
;
Structure prediction by ZEFSAII (Michael W. Deem and Ramdas Pophale) SiO2 
 PCOD9054723
Probable space group: P -1
;
_chemical_formula_sum "Si O2"
_cell_formula_units_Z 12
_cell_length_a 14.479761
_cell_length_b 7.351184
_cell_length_c 7.809454
_cell_angle_alpha 98.036397
_cell_angle_beta 41.117424
_cell_angle_gamma 120.945564
_cell_volume 421.239678
_symmetry_space_group_name_H-M "P -1"
_symmetry_group_IT_number 2
_symmetry_cell_setting 'triclinic'
loop_
_space_group_symop_operation_xyz
x,y,z
-x,-y,-z
loop_
_atom_site_type_symbol
_atom_site_label
_atom_site_fract_x
_atom_site_fract_y
_atom_site_fract_z
Si Si1 0.229489 0.001973 0.778279
Si Si2 0.683057 0.262427 0.588473
Si Si3 0.519108 0.595617 0.708465
Si Si4 0.320582 0.135679 0.132306
Si Si5 0.002194 0.701143 0.340094
Si Si6 0.700988 0.295041 0.185133
O O1 0.234799 0.871643 0.586407
O O2 0.345381 0.959999 0.737149
O O3 0.321885 0.268497 0.639537
O O4 0.046947 0.852595 0.122030
O O5 0.473225 0.101432 0.907727
O O6 0.709984 0.377116 0.377437
O O7 0.795476 0.473831 0.595283
O O8 0.380210 0.325851 0.924510
O O9 0.408998 0.675732 0.789970
O O10 0.632843 0.725476 0.738997
O O11 0.118191 0.899329 0.349039
O O12 0.103923 0.589695 0.152234
#
# Coordination Sequence:
#
# PCOD9054723 Si02
#       6
#     2   2   2   2   2   2
#     4   8  18  35  60  84 104 142 187 234 276 318
#     4   9  19  39  60  87 111 139 191 235 280 329
#     4  11  21  38  52  84 119 151 190 220 280 335
#     4  11  24  35  56  82 120 157 176 225 280 342
#     4   9  19  39  60  87 111 139 191 235 280 329
#     4   8  18  35  60  84 104 142 187 234 276 318
#
# _framework density 28.487347
#
# number of rings (size 3 to 8) (size 9 to 14) (size 15 to 20)
#    2.000    0.333    0.000    4.500    0.000    5.333 
#    0.000   13.333    0.000    0.000    0.000    0.000 
#    0.000    0.000    0.000    0.000    0.000    0.000 
#
# Total GULP energy -66884.626916 kJ/mol
# GULP energy per Si atom -5573.718910 kJ/mol
# Density = 2.842251 g / cm^3
# Si number density = 28.487347 Si / 1000 Ang^3
#
#
#
# Elastic Constant Matrix: (Units=GPa)
#
#
# Indices 1 2 3 4 5 6 
#
# 1 122.3085 55.1911 40.4778 -22.3990 31.5141 -0.8534
# 2 55.1911 118.2275 30.9770 -28.5459 -7.2397 25.7606
# 3 40.4778 30.9770 38.1389 -12.6494 14.7941 6.3884
# 4 -22.3990 -28.5459 -12.6494 55.7360 -3.6697 3.8661
# 5 31.5141 -7.2397 14.7941 -3.6697 45.8655 -11.7636
# 6 -0.8534 25.7606 6.3884 3.8661 -11.7636 60.2079
#
#
#
# Elastic Compliance Matrix: (Units=1/GPa)
#
#
# Indices 1 2 3 4 5 6 
#
# 1 0.016274 -0.005999 -0.009190 0.000674 -0.008585 0.002052
# 2 -0.005999 0.015912 -0.007248 0.004965 0.008123 -0.004856
# 3 -0.009190 -0.007248 0.047981 0.003058 -0.011218 -0.004508
# 4 0.000674 0.004965 0.003058 0.021721 0.000093 -0.003816
# 5 -0.008585 0.008123 -0.011218 0.000093 0.033678 0.004167
# 6 0.002052 -0.004856 -0.004508 -0.003816 0.004167 0.020253
#
#
# Mechanical properties :
#
#
# Convention : Reuss Voigt Hill
#
# Bulk Modulus (GPa) = 28.33348 59.10742 43.72045
# Shear Modulus (GPa) = 23.53406 42.49714 33.01560
#
# Velocity S-wave (km/s) = 2.87735 3.86656 3.40804
# Velocity P-wave (km/s) = 4.58328 6.38180 5.55580
#
# Compressibility (1/GPa) = 0.03529393
#
# Stress axis : x y z
#
# Youngs Moduli (GPa) = 61.44692 62.84440 20.84162
#
# Poissons Ratio (x) = 0.37702 0.19153
# Poissons Ratio (y) = 0.36864 0.15106
# Poissons Ratio (z) = 0.56467 0.45549
#
# Static dielectric constant tensor:
#      x y z
#    x 2.219850 -0.021190 -0.029700 
#    y -0.021190 2.348220 0.036200 
#    z -0.029700 0.036200 2.507260 
# 
# From -- ./inp_files/246672.got.cif
#   From: 2010.05.17/outbox.cif.g08.bks.cpg/sg2_124_cif.got.tgz:246672.got - 2010.06.03 11:33:40.
