data_PCOD9054350
_publ_section_title
;
Structure prediction by ZEFSAII (Michael W. Deem and Ramdas Pophale) SiO2 
 PCOD9054350
Probable space group: P -1
;
_chemical_formula_sum "Si O2"
_cell_formula_units_Z 16
_cell_length_a 14.753387
_cell_length_b 9.642755
_cell_length_c 9.314935
_cell_angle_alpha 116.505725
_cell_angle_beta 139.926090
_cell_angle_gamma 77.069040
_cell_volume 747.332273
_symmetry_space_group_name_H-M "P -1"
_symmetry_group_IT_number 2
_symmetry_cell_setting 'triclinic'
loop_
_space_group_symop_operation_xyz
x,y,z
-x,-y,-z
loop_
_atom_site_type_symbol
_atom_site_label
_atom_site_fract_x
_atom_site_fract_y
_atom_site_fract_z
Si Si1 0.886774 0.127868 0.845409
Si Si2 0.552405 0.293931 0.913200
Si Si3 0.820715 0.177173 0.278497
Si Si4 0.774770 0.817798 0.033181
Si Si5 0.050406 0.664453 0.219737
Si Si6 0.344033 0.374817 0.923566
Si Si7 0.637209 0.919256 0.624901
Si Si8 0.941521 0.798151 0.660503
O O1 0.840633 0.229467 0.710840
O O2 0.766943 0.047091 0.774188
O O3 0.938848 0.983199 0.764039
O O4 0.012098 0.240043 0.140604
O O5 0.488257 0.344080 0.007557
O O6 0.414299 0.216450 0.617050
O O7 0.662286 0.182262 0.032873
O O8 0.639472 0.437717 0.989959
O O9 0.867383 0.310175 0.517917
O O10 0.935919 0.218763 0.310798
O O11 0.822471 0.995331 0.241227
O O12 0.685518 0.701313 0.990057
O O13 0.910851 0.743322 0.116716
O O14 0.686230 0.848423 0.798175
O O15 0.000000 0.500000 0.000000
O O16 0.206707 0.293728 0.625096
O O17 0.500000 0.000000 0.500000
#
# Coordination Sequence:
#
# PCOD9054350 Si02
#       8
#     2   2   2   2   2   2   2   2
#     4  11  22  41  70 104 136 185 241 294 352 413
#     4  11  27  45  67 107 144 195 228 292 361 438
#     4  12  24  46  74 105 143 184 251 289 356 430
#     4  12  24  46  77 102 138 190 244 299 349 430
#     4  12  28  42  69 112 149 180 237 309 366 411
#     4  11  26  44  70 102 147 188 234 290 369 424
#     4  12  24  45  70 102 141 185 241 291 351 428
#     4  11  20  42  75  97 132 189 234 298 344 428
#
# _framework density 21.409486000000001
#
# number of rings (size 3 to 8) (size 9 to 14) (size 15 to 20)
#    0.000    0.500    6.250    1.875    1.750    5.500 
#    0.000    0.000    0.000    0.000    0.000    0.000 
#    0.000    0.000    0.000    0.000    0.000    0.000 
#
# Total GULP energy -89337.987167 kJ/mol
# GULP energy per Si atom -5583.624198 kJ/mol
# Density = 2.136076 g / cm^3
# Si number density = 21.409486 Si / 1000 Ang^3
#
#
#
# Elastic Constant Matrix: (Units=GPa)
#
#
# Indices 1 2 3 4 5 6 
#
# 1 87.2606 36.6020 27.5417 -6.1357 -2.0156 15.7461
# 2 36.6020 65.2296 22.7123 5.9872 -0.4929 5.5153
# 3 27.5417 22.7123 115.6994 -4.6289 -13.1771 3.5481
# 4 -6.1357 5.9872 -4.6289 27.4033 -7.0436 -0.1352
# 5 -2.0156 -0.4929 -13.1771 -7.0436 35.8411 -2.6128
# 6 15.7461 5.5153 3.5481 -0.1352 -2.6128 28.4352
#
#
#
# Elastic Compliance Matrix: (Units=1/GPa)
#
#
# Indices 1 2 3 4 5 6 
#
# 1 0.017707 -0.009165 -0.001860 0.005812 0.000767 -0.007697
# 2 -0.009165 0.022103 -0.002822 -0.008066 -0.002772 0.000847
# 3 -0.001860 -0.002822 0.010225 0.003026 0.004262 0.000707
# 4 0.005812 -0.008066 0.003026 0.042534 0.009619 -0.000945
# 5 0.000767 -0.002772 0.004262 0.009619 0.031547 0.002526
# 6 -0.007697 0.000847 0.000707 -0.000945 0.002526 0.039405
#
#
# Mechanical properties :
#
#
# Convention : Reuss Voigt Hill
#
# Bulk Modulus (GPa) = 44.75996 49.10018 46.93007
# Shear Modulus (GPa) = 25.16844 30.42483 27.79663
#
# Velocity S-wave (km/s) = 3.43238 3.77383 3.60715
# Velocity P-wave (km/s) = 6.05478 6.47863 6.27029
#
# Compressibility (1/GPa) = 0.02234140
#
# Stress axis : x y z
#
# Youngs Moduli (GPa) = 56.47630 45.24195 97.80386
#
# Poissons Ratio (x) = 0.41463 0.18191
# Poissons Ratio (y) = 0.51759 0.27598
# Poissons Ratio (z) = 0.10504 0.12766
#
# Static dielectric constant tensor:
#      x y z
#    x 1.781170 -0.026060 -0.025260 
#    y -0.026060 1.827300 0.006600 
#    z -0.025260 0.006600 1.797180 
# 
# From -- ./inp_files/299408.got.cif
#   From: 2010.05.17/outbox.cif.g08.bks.cpg/sg2_150_cif.got.tgz:299408.got - 2010.06.03 11:33:40.
