data_PCOD9054693
_publ_section_title
;
Structure prediction by ZEFSAII (Michael W. Deem and Ramdas Pophale) SiO2 
 PCOD9054693
Probable space group: P -1
;
_chemical_formula_sum "Si O2"
_cell_formula_units_Z 16
_cell_length_a 15.096009
_cell_length_b 15.431522
_cell_length_c 15.320476
_cell_angle_alpha 141.745684
_cell_angle_beta 18.444143
_cell_angle_gamma 140.832585
_cell_volume 690.663767
_symmetry_space_group_name_H-M "P -1"
_symmetry_group_IT_number 2
_symmetry_cell_setting 'triclinic'
loop_
_space_group_symop_operation_xyz
x,y,z
-x,-y,-z
loop_
_atom_site_type_symbol
_atom_site_label
_atom_site_fract_x
_atom_site_fract_y
_atom_site_fract_z
Si Si1 0.892596 0.198570 0.815219
Si Si2 0.670044 0.121559 0.785691
Si Si3 0.079199 0.977278 0.187404
Si Si4 0.941090 0.580185 0.384337
Si Si5 0.446509 0.495457 0.910886
Si Si6 0.904864 0.923992 0.937693
Si Si7 0.434929 0.382707 0.396148
Si Si8 0.647873 0.277616 0.673639
O O1 0.759593 0.094215 0.779718
O O2 0.219790 0.249641 0.529121
O O3 0.849528 0.146080 0.912948
O O4 0.725453 0.329772 0.058792
O O5 0.785467 0.011544 0.527222
O O6 0.847488 0.271719 0.710084
O O7 0.334360 0.105538 0.075154
O O8 0.057415 0.973517 0.100853
O O9 0.726930 0.570044 0.658213
O O10 0.727035 0.561576 0.489088
O O11 0.162747 0.469714 0.097506
O O12 0.532587 0.353412 0.757992
O O13 0.352184 0.600041 0.156522
O O14 0.069179 0.788942 0.660901
O O15 0.577915 0.856740 0.195335
O O16 0.000000 0.000000 0.000000
O O17 0.500000 0.500000 0.500000
#
# Coordination Sequence:
#
# PCOD9054693 Si02
#       8
#     2   2   2   2   2   2   2   2
#     4  11  23  40  63  96 127 159 212 259 308 378
#     4  11  21  37  66  96 132 155 202 261 325 373
#     4  12  23  40  65  93 123 171 207 258 313 374
#     4  11  21  38  63  98 128 165 205 254 319 394
#     4  11  22  40  68 102 124 157 220 272 339 372
#     4  12  26  45  63  89 132 178 221 256 320 384
#     4  11  24  43  61  87 132 170 202 253 306 370
#     4  11  24  43  67  93 130 163 210 287 323 370
#
# _framework density 23.166119999999999
#
# number of rings (size 3 to 8) (size 9 to 14) (size 15 to 20)
#    0.000    0.750    0.000   10.500    0.000    2.000 
#    6.750    0.000    0.000    0.000    0.000    0.000 
#    0.000    0.000    0.000    0.000    0.000    0.000 
#
# Total GULP energy -89485.680700 kJ/mol
# GULP energy per Si atom -5592.855044 kJ/mol
# Density = 2.311339 g / cm^3
# Si number density = 23.166120 Si / 1000 Ang^3
#
#
#
# Elastic Constant Matrix: (Units=GPa)
#
#
# Indices 1 2 3 4 5 6 
#
# 1 135.7558 22.0196 12.6256 22.2906 3.5485 -33.6244
# 2 22.0196 17.2995 4.2286 6.6899 8.4370 -13.8126
# 3 12.6256 4.2286 91.8353 2.0904 -3.4154 -12.5080
# 4 22.2906 6.6899 2.0904 4.0845 -10.8314 2.4505
# 5 3.5485 8.4370 -3.4154 -10.8314 34.7861 5.7103
# 6 -33.6244 -13.8126 -12.5080 2.4505 5.7103 35.0087
#
#
#
# Elastic Compliance Matrix: (Units=1/GPa)
#
#
# Indices 1 2 3 4 5 6 
#
# 1 0.008093 -0.020044 -0.000466 0.010888 0.007763 -0.002331
# 2 -0.020044 0.048725 -0.001432 0.062928 0.010781 -0.006702
# 3 -0.000466 -0.001432 0.011408 0.001606 0.001573 0.002694
# 4 0.010888 0.062928 0.001606 -0.053296 -0.040391 0.046178
# 5 0.007763 0.010781 0.001573 -0.040391 0.010727 0.013349
# 6 -0.002331 -0.006702 0.002694 0.046178 0.013349 0.019234
#
#
# Mechanical properties :
#
#
# Convention : Reuss Voigt Hill
#
# Bulk Modulus (GPa) = 41.08451 35.84866 38.46659
# Shear Modulus (GPa) = 51.60524 28.51032 40.05778
#
# Velocity S-wave (km/s) = 4.72488 3.51193 4.16282
# Velocity P-wave (km/s) = 6.89487 5.65270 6.30446
#
# Compressibility (1/GPa) = 0.02434007
#
# Stress axis : x y z
#
# Youngs Moduli (GPa) = 123.56756 20.52348 87.65810
#
# Poissons Ratio (x) = 0.41138 0.04087
# Poissons Ratio (y) = 2.47682 0.12554
# Poissons Ratio (z) = 0.05761 0.02939
#
# Static dielectric constant tensor:
#      x y z
#    x 1.955410 -0.036910 0.023130 
#    y -0.036910 1.893260 0.026350 
#    z 0.023130 0.026350 1.848210 
# 
# From -- ./inp_files/534393.got.cif
#   From: 2010.05.17/outbox.cif.g08.bks.cpg/sg2_268_cif.got.tgz:534393.got - 2010.06.03 11:33:40.
