data_PCOD9054965
_publ_section_title
;
Structure prediction by ZEFSAII (Michael W. Deem and Ramdas Pophale) SiO2 
 PCOD9054965
Probable space group: P -1
;
_chemical_formula_sum "Si O2"
_cell_formula_units_Z 14
_cell_length_a 11.764732
_cell_length_b 12.504231
_cell_length_c 5.281261
_cell_angle_alpha 87.559867
_cell_angle_beta 79.643456
_cell_angle_gamma 42.660564
_cell_volume 513.203318
_symmetry_space_group_name_H-M "P -1"
_symmetry_group_IT_number 2
_symmetry_cell_setting 'triclinic'
loop_
_space_group_symop_operation_xyz
x,y,z
-x,-y,-z
loop_
_atom_site_type_symbol
_atom_site_label
_atom_site_fract_x
_atom_site_fract_y
_atom_site_fract_z
Si Si1 0.359290 0.686050 0.809027
Si Si2 0.194198 0.870280 0.354204
Si Si3 0.168375 0.113016 0.160745
Si Si4 0.043658 0.352626 0.599263
Si Si5 0.695928 0.714368 0.199532
Si Si6 0.194068 0.594159 0.952839
Si Si7 0.487394 0.833253 0.769462
O O1 0.303029 0.735060 0.535079
O O2 0.360670 0.557169 0.875140
O O3 0.481841 0.706143 0.788625
O O4 0.218653 0.810920 0.068357
O O5 0.236178 0.966282 0.315379
O O6 0.000000 0.000000 0.500000
O O7 0.153839 0.217524 0.358072
O O8 0.971697 0.235823 0.128610
O O9 0.299937 0.010519 0.884048
O O10 0.147482 0.311718 0.817066
O O11 0.000000 0.500000 0.500000
O O12 0.882097 0.390988 0.745890
O O13 0.764010 0.545711 0.188234
O O14 0.571578 0.812427 0.478315
O O15 0.600079 0.793306 0.966648
#
# Coordination Sequence:
#
# PCOD9054965 Si02
#       7
#     2   2   2   2   2   2   2
#     4  11  25  44  75 109 156 186 249 303 378 446
#     4  11  21  39  68 113 149 183 233 319 367 427
#     4  11  26  44  79 111 145 195 259 301 382 435
#     4  12  27  50  78 112 146 196 260 325 358 433
#     4  12  28  51  73 105 161 198 251 301 376 446
#     4  12  27  46  82 111 141 204 256 311 369 441
#     4  11  28  49  72 114 154 200 234 311 383 456
#
# _framework density 27.279637000000001
#
# number of rings (size 3 to 8) (size 9 to 14) (size 15 to 20)
#    0.000    0.571    2.857    4.286   10.000    2.286 
#    0.000    0.000    0.000    0.000    0.000    0.000 
#    0.000    0.000    0.000    0.000    0.000    0.000 
#
# Total GULP energy -78445.933803 kJ/mol
# GULP energy per Si atom -5603.280986 kJ/mol
# Density = 2.721755 g / cm^3
# Si number density = 27.279637 Si / 1000 Ang^3
#
#
#
# Elastic Constant Matrix: (Units=GPa)
#
#
# Indices 1 2 3 4 5 6 
#
# 1 126.0881 22.8952 53.7125 7.0155 8.7629 8.4918
# 2 22.8952 96.7078 31.5772 12.3740 -4.6726 29.2094
# 3 53.7125 31.5772 163.4563 19.6705 -16.3870 -3.6475
# 4 7.0155 12.3740 19.6705 52.1243 0.9585 -5.4990
# 5 8.7629 -4.6726 -16.3870 0.9585 47.1721 -4.7560
# 6 8.4918 29.2094 -3.6475 -5.4990 -4.7560 49.3140
#
#
#
# Elastic Compliance Matrix: (Units=1/GPa)
#
#
# Indices 1 2 3 4 5 6 
#
# 1 0.009910 -0.000842 -0.003471 0.000049 -0.003310 -0.001778
# 2 -0.000842 0.014429 -0.002308 -0.003385 -0.000050 -0.008954
# 3 -0.003471 -0.002308 0.008360 -0.001920 0.003634 0.002720
# 4 0.000049 -0.003385 -0.001920 0.021159 -0.001026 0.004115
# 5 -0.003310 -0.000050 0.003634 -0.001026 0.023396 0.003011
# 6 -0.001778 -0.008954 0.002720 0.004115 0.003011 0.026839
#
#
# Mechanical properties :
#
#
# Convention : Reuss Voigt Hill
#
# Bulk Modulus (GPa) = 51.39794 66.95802 59.17798
# Shear Modulus (GPa) = 40.38119 48.25990 44.32054
#
# Velocity S-wave (km/s) = 3.85160 4.21061 4.03510
# Velocity P-wave (km/s) = 6.21786 6.94531 6.59163
#
# Compressibility (1/GPa) = 0.01945603
#
# Stress axis : x y z
#
# Youngs Moduli (GPa) = 100.91210 69.30673 119.61087
#
# Poissons Ratio (x) = 0.05834 0.41520
# Poissons Ratio (y) = 0.08494 0.27610
# Poissons Ratio (z) = 0.35029 0.15998
#
# Static dielectric constant tensor:
#      x y z
#    x 2.364600 -0.039870 -0.055200 
#    y -0.039870 2.199710 -0.109930 
#    z -0.055200 -0.109930 2.157160 
# 
# From -- ./inp_files/70413.got.cif
#   From: 2010.05.17/outbox.cif.g08.bks.cpg/sg2_36_cif.got.tgz:70413.got - 2010.06.03 11:33:40.
