data_PCOD9054228
_publ_section_title
;
Structure prediction by ZEFSAII (Michael W. Deem and Ramdas Pophale) SiO2 
 PCOD9054228
Probable space group: P -1
;
_chemical_formula_sum "Si O2"
_cell_formula_units_Z 14
_cell_length_a 8.391950
_cell_length_b 21.456353
_cell_length_c 8.467163
_cell_angle_alpha 145.706302
_cell_angle_beta 111.823753
_cell_angle_gamma 46.650503
_cell_volume 549.075171
_symmetry_space_group_name_H-M "P -1"
_symmetry_group_IT_number 2
_symmetry_cell_setting 'triclinic'
loop_
_space_group_symop_operation_xyz
x,y,z
-x,-y,-z
loop_
_atom_site_type_symbol
_atom_site_label
_atom_site_fract_x
_atom_site_fract_y
_atom_site_fract_z
Si Si1 0.835479 0.029103 0.644159
Si Si2 0.811482 0.498456 0.289020
Si Si3 0.758163 0.445490 0.505740
Si Si4 0.210072 0.714514 0.287458
Si Si5 0.304399 0.295448 0.849922
Si Si6 0.485537 0.205375 0.398405
Si Si7 0.006495 0.149379 0.165736
O O1 0.556328 0.148272 0.728188
O O2 0.000000 0.000000 0.500000
O O3 0.964989 0.856812 0.389109
O O4 0.864092 0.106054 0.956532
O O5 0.828802 0.475129 0.432571
O O6 0.674709 0.674512 0.554521
O O7 0.669755 0.453619 0.084874
O O8 0.062894 0.371431 0.014926
O O9 0.500000 0.500000 0.500000
O O10 0.962045 0.263023 0.255815
O O11 0.716390 0.561435 0.859238
O O12 0.372508 0.749018 0.397845
O O13 0.118460 0.755353 0.518892
O O14 0.323292 0.244934 0.571853
O O15 0.706408 0.017179 0.051862
#
# Coordination Sequence:
#
# PCOD9054228 Si02
#       7
#     2   2   2   2   2   2   2
#     4  11  20  41  71 102 129 171 225 279 326 391
#     4  12  27  44  65 102 136 177 218 275 338 392
#     4  12  24  44  71  98 130 173 230 272 324 400
#     4  11  23  42  71  97 132 174 232 266 325 399
#     4  12  25  43  69  97 142 170 215 282 342 387
#     4  11  23  44  70  95 134 178 223 267 328 400
#     4  11  23  42  72 101 125 171 234 276 315 385
#
# _framework density 25.497419000000001
#
# number of rings (size 3 to 8) (size 9 to 14) (size 15 to 20)
#    0.000    0.571    4.286    6.429    2.000    0.571 
#    0.000    1.429    0.000    0.000    0.000    0.000 
#    0.000    0.000    0.000    0.000    0.000    0.000 
#
# Total GULP energy -78549.076677 kJ/mol
# GULP energy per Si atom -5610.648334 kJ/mol
# Density = 2.543939 g / cm^3
# Si number density = 25.497419 Si / 1000 Ang^3
#
#
#
# Elastic Constant Matrix: (Units=GPa)
#
#
# Indices 1 2 3 4 5 6 
#
# 1 85.9487 35.9257 31.7026 14.7726 -21.1827 14.3786
# 2 35.9257 155.6968 65.0725 32.1165 -18.0032 32.6072
# 3 31.7026 65.0725 125.0425 11.5828 -16.0112 23.8030
# 4 14.7726 32.1165 11.5828 59.6549 -1.6733 0.7028
# 5 -21.1827 -18.0032 -16.0112 -1.6733 51.9143 -7.0130
# 6 14.3786 32.6072 23.8030 0.7028 -7.0130 45.6391
#
#
#
# Elastic Compliance Matrix: (Units=1/GPa)
#
#
# Indices 1 2 3 4 5 6 
#
# 1 0.014744 -0.001089 -0.001938 -0.002532 0.004675 -0.002098
# 2 -0.001089 0.010240 -0.003559 -0.004461 0.001208 -0.004862
# 3 -0.001938 -0.003559 0.010893 0.000338 0.001024 -0.002375
# 4 -0.002532 -0.004461 0.000338 0.019648 -0.001398 0.003291
# 5 0.004675 0.001208 0.001024 -0.001398 0.021930 0.000521
# 6 -0.002098 -0.004862 -0.002375 0.003291 0.000521 0.027314
#
#
# Mechanical properties :
#
#
# Convention : Reuss Voigt Hill
#
# Bulk Modulus (GPa) = 44.04824 70.23217 57.14020
# Shear Modulus (GPa) = 39.83726 47.04080 43.43903
#
# Velocity S-wave (km/s) = 3.95701 4.29992 4.13202
# Velocity P-wave (km/s) = 6.17983 7.22890 6.72485
#
# Compressibility (1/GPa) = 0.02270238
#
# Stress axis : x y z
#
# Youngs Moduli (GPa) = 67.82534 97.65888 91.80210
#
# Poissons Ratio (x) = 0.10639 0.17795
# Poissons Ratio (y) = 0.07389 0.32674
# Poissons Ratio (z) = 0.13148 0.34758
#
# Static dielectric constant tensor:
#      x y z
#    x 2.048660 -0.076470 0.015050 
#    y -0.076470 2.051400 0.017530 
#    z 0.015050 0.017530 1.962010 
# 
# From -- ./inp_files/152262.got.cif
#   From: 2010.05.17/outbox.cif.g08.bks.cpg/sg2_77_cif.got.tgz:152262.got - 2010.06.03 11:33:40.
