data_PCOD9054386
_publ_section_title
;
Structure prediction by ZEFSAII (Michael W. Deem and Ramdas Pophale) SiO2 
 PCOD9054386
Probable space group: P -1
;
_chemical_formula_sum "Si O2"
_cell_formula_units_Z 14
_cell_length_a 7.279122
_cell_length_b 21.854921
_cell_length_c 9.632552
_cell_angle_alpha 136.384612
_cell_angle_beta 70.042650
_cell_angle_gamma 139.495249
_cell_volume 607.166980
_symmetry_space_group_name_H-M "P -1"
_symmetry_group_IT_number 2
_symmetry_cell_setting 'triclinic'
loop_
_space_group_symop_operation_xyz
x,y,z
-x,-y,-z
loop_
_atom_site_type_symbol
_atom_site_label
_atom_site_fract_x
_atom_site_fract_y
_atom_site_fract_z
Si Si1 0.235390 0.872024 0.967191
Si Si2 0.909583 0.601995 0.457604
Si Si3 0.695364 0.385772 0.791274
Si Si4 0.638244 0.843901 0.299622
Si Si5 0.658628 0.672082 0.451214
Si Si6 0.575882 0.724124 0.848985
Si Si7 0.647816 0.076426 0.440670
O O1 0.065917 0.718495 0.726812
O O2 0.941809 0.833474 0.970804
O O3 0.500000 0.000000 0.000000
O O4 0.417692 0.941601 0.175970
O O5 0.728725 0.605660 0.406623
O O6 0.667814 0.440411 0.308442
O O7 0.208805 0.662295 0.408383
O O8 0.419883 0.265742 0.775260
O O9 0.600048 0.424523 0.764988
O O10 0.000000 0.500000 0.000000
O O11 0.412527 0.839660 0.412925
O O12 0.532719 0.789471 0.076963
O O13 0.000000 0.000000 0.500000
O O14 0.570108 0.711880 0.661548
O O15 0.991497 0.814970 0.521735
O O16 0.500000 0.000000 0.500000
#
# Coordination Sequence:
#
# PCOD9054386 Si02
#       7
#     2   2   2   2   2   2   2
#     4  11  20  43  73 100 145 185 234 298 351 423
#     4  11  24  47  74 107 147 188 241 298 361 426
#     4  12  26  48  70 104 148 188 236 304 363 425
#     4  12  24  46  72 105 149 184 237 303 356 420
#     4  11  25  46  74 104 142 193 244 286 363 438
#     4  11  24  45  74 108 145 191 239 297 361 428
#     4  12  25  44  69 111 141 188 242 295 364 425
#
# _framework density 23.057905000000002
#
# number of rings (size 3 to 8) (size 9 to 14) (size 15 to 20)
#    0.000    0.571    7.143    2.571    0.000    2.286 
#    5.143    2.143    0.000    0.000    0.000    0.000 
#    0.000    0.000    0.000    0.000    0.000    0.000 
#
# Total GULP energy -78100.258266 kJ/mol
# GULP energy per Si atom -5578.589876 kJ/mol
# Density = 2.300542 g / cm^3
# Si number density = 23.057905 Si / 1000 Ang^3
#
#
#
# Elastic Constant Matrix: (Units=GPa)
#
#
# Indices 1 2 3 4 5 6 
#
# 1 38.6293 10.0310 36.0700 -14.8272 2.3361 -3.9927
# 2 10.0310 143.3577 51.5282 -4.1410 11.6227 -17.0243
# 3 36.0700 51.5282 151.9602 -7.4093 20.1285 -15.9732
# 4 -14.8272 -4.1410 -7.4093 42.4343 -4.1524 2.2000
# 5 2.3361 11.6227 20.1285 -4.1524 29.1157 -8.7720
# 6 -3.9927 -17.0243 -15.9732 2.2000 -8.7720 25.4866
#
#
#
# Elastic Compliance Matrix: (Units=1/GPa)
#
#
# Indices 1 2 3 4 5 6 
#
# 1 0.039222 0.000778 -0.009517 0.012567 0.005353 0.001457
# 2 0.000778 0.008341 -0.002526 0.000401 -0.000402 0.003937
# 3 -0.009517 -0.002526 0.010465 -0.002352 -0.005264 0.001771
# 4 0.012567 0.000401 -0.002352 0.028025 0.004413 -0.000137
# 5 0.005353 -0.000402 -0.005264 0.004413 0.041736 0.011255
# 6 0.001457 0.003937 0.001771 -0.000137 0.011255 0.047090
#
#
# Mechanical properties :
#
#
# Convention : Reuss Voigt Hill
#
# Bulk Modulus (GPa) = 28.17037 58.80062 43.48550
# Shear Modulus (GPa) = 23.89577 35.16184 29.52880
#
# Velocity S-wave (km/s) = 3.22271 3.90928 3.58248
# Velocity P-wave (km/s) = 5.10799 6.77741 6.00104
#
# Compressibility (1/GPa) = 0.03549829
#
# Stress axis : x y z
#
# Youngs Moduli (GPa) = 25.49578 119.89089 95.55449
#
# Poissons Ratio (x) = -0.09333 0.90939
# Poissons Ratio (y) = -0.01985 0.24141
# Poissons Ratio (z) = 0.24264 0.30290
#
# Static dielectric constant tensor:
#      x y z
#    x 1.906230 -0.214110 0.040370 
#    y -0.214110 1.623190 0.042300 
#    z 0.040370 0.042300 1.867330 
# 
# From -- ./inp_files/227495.got.cif
#   From: 2010.05.17/outbox.cif.g08.bks.cpg/sg2_114_cif.got.tgz:227495.got - 2010.06.03 11:33:40.
