data_PCOD9054972
_publ_section_title
;
Structure prediction by ZEFSAII (Michael W. Deem and Ramdas Pophale) SiO2 
 PCOD9054972
Probable space group: P -1
;
_chemical_formula_sum "Si O2"
_cell_formula_units_Z 15
_cell_length_a 21.118365
_cell_length_b 17.301851
_cell_length_c 9.553295
_cell_angle_alpha 147.074705
_cell_angle_beta 145.732624
_cell_angle_gamma 20.184073
_cell_volume 640.641858
_symmetry_space_group_name_H-M "P -1"
_symmetry_group_IT_number 2
_symmetry_cell_setting 'triclinic'
loop_
_space_group_symop_operation_xyz
x,y,z
-x,-y,-z
loop_
_atom_site_type_symbol
_atom_site_label
_atom_site_fract_x
_atom_site_fract_y
_atom_site_fract_z
Si Si1 0.904286 0.597119 0.826174
Si Si2 0.481367 0.895197 0.190338
Si Si3 0.500000 0.500000 0.500000
Si Si4 0.170212 0.343562 0.681335
Si Si5 0.485343 0.430093 0.074560
Si Si6 0.905704 0.261638 0.301906
Si Si7 0.806611 0.004284 0.819598
Si Si8 0.052709 0.934153 0.334166
O O1 0.860966 0.475139 0.534025
O O2 0.062547 0.491692 0.849550
O O3 0.715214 0.878085 0.899018
O O4 0.000000 0.500000 0.000000
O O5 0.661932 0.726636 0.166171
O O6 0.478735 0.743475 0.022777
O O7 0.500000 0.000000 0.500000
O O8 0.274798 0.718612 0.401236
O O9 0.481192 0.483048 0.616474
O O10 0.251690 0.100266 0.464859
O O11 0.000000 0.500000 0.500000
O O12 0.279188 0.620307 0.924213
O O13 0.632346 0.264194 0.963968
O O14 0.086746 0.062226 0.229218
O O15 0.958840 0.144473 0.373672
O O16 0.970115 0.868210 0.025496
O O17 0.000000 0.000000 0.500000
#
# Coordination Sequence:
#
# PCOD9054972 Si02
#       8
#     2   2   1   2   2   2   2   2
#     4  11  25  42  65 104 142 176 222 283 348 400
#     4  12  21  42  72 104 135 178 228 277 335 412
#     4  12  28  44  66 102 142 184 228 290 338 404
#     4  11  21  39  69 100 130 179 226 274 339 405
#     4  12  24  44  72 104 139 183 234 279 345 405
#     4  11  25  45  69  99 137 180 231 286 339 418
#     4  11  22  41  69  97 132 177 230 280 334 408
#     4  12  27  46  67 100 137 179 230 285 346 399
#
# _framework density 23.414017000000001
#
# number of rings (size 3 to 8) (size 9 to 14) (size 15 to 20)
#    0.000    0.533    6.667    1.200    1.867    3.200 
#    0.000    0.000    0.000    0.000    0.000    0.000 
#    0.000    0.000    0.000    0.000    0.000    0.000 
#
# Total GULP energy -83660.861306 kJ/mol
# GULP energy per Si atom -5577.390754 kJ/mol
# Density = 2.336073 g / cm^3
# Si number density = 23.414017 Si / 1000 Ang^3
#
#
#
# Elastic Constant Matrix: (Units=GPa)
#
#
# Indices 1 2 3 4 5 6 
#
# 1 151.7135 61.0643 21.7450 2.2121 -20.2767 -11.6272
# 2 61.0643 161.2490 19.3104 -11.8744 1.8191 -0.6099
# 3 21.7450 19.3104 17.4529 -11.9376 -8.2034 0.2691
# 4 2.2121 -11.8744 -11.9376 25.4187 0.8764 -6.0526
# 5 -20.2767 1.8191 -8.2034 0.8764 43.5983 0.2320
# 6 -11.6272 -0.6099 0.2691 -6.0526 0.2320 42.2228
#
#
#
# Elastic Compliance Matrix: (Units=1/GPa)
#
#
# Indices 1 2 3 4 5 6 
#
# 1 0.010439 -0.002849 -0.014876 -0.008917 0.002345 0.001637
# 2 -0.002849 0.008104 -0.005843 0.001283 -0.002786 -0.000431
# 3 -0.014876 -0.005843 0.131666 0.060673 0.016861 0.003584
# 4 -0.008917 0.001283 0.060673 0.070747 0.005755 0.007286
# 5 0.002345 -0.002786 0.016861 0.005755 0.027194 0.001174
# 6 0.001637 -0.000431 0.003584 0.007286 0.001174 0.025144
#
#
# Mechanical properties :
#
#
# Convention : Reuss Voigt Hill
#
# Bulk Modulus (GPa) = 9.70180 59.40607 34.55393
# Shear Modulus (GPa) = 14.09295 37.46767 25.78031
#
# Velocity S-wave (km/s) = 2.45603 4.00462 3.32183
# Velocity P-wave (km/s) = 3.49219 6.84176 5.43162
#
# Compressibility (1/GPa) = 0.10307365
#
# Stress axis : x y z
#
# Youngs Moduli (GPa) = 95.79394 123.39064 7.59500
#
# Poissons Ratio (x) = 0.35149 0.11299
# Poissons Ratio (y) = 0.27288 0.04438
# Poissons Ratio (z) = 1.42506 0.72094
#
# Static dielectric constant tensor:
#      x y z
#    x 1.918850 0.070720 0.083480 
#    y 0.070720 1.898250 0.142030 
#    z 0.083480 0.142030 2.076740 
# 
# From -- ./inp_files/181043.got.cif
#   From: 2010.05.17/outbox.cif.g08.bks.cpg/sg2_91_cif.got.tgz:181043.got - 2010.06.03 11:33:40.
