data_PCOD9054981
_publ_section_title
;
Structure prediction by ZEFSAII (Michael W. Deem and Ramdas Pophale) SiO2 
 PCOD9054981
Probable space group: P -1
;
_chemical_formula_sum "Si O2"
_cell_formula_units_Z 14
_cell_length_a 8.607889
_cell_length_b 19.709068
_cell_length_c 11.374499
_cell_angle_alpha 41.159074
_cell_angle_beta 41.238820
_cell_angle_gamma 29.960893
_cell_volume 604.395162
_symmetry_space_group_name_H-M "P -1"
_symmetry_group_IT_number 2
_symmetry_cell_setting 'triclinic'
loop_
_space_group_symop_operation_xyz
x,y,z
-x,-y,-z
loop_
_atom_site_type_symbol
_atom_site_label
_atom_site_fract_x
_atom_site_fract_y
_atom_site_fract_z
Si Si1 0.702561 0.189242 0.379931
Si Si2 0.707559 0.366644 0.469147
Si Si3 0.388824 0.100598 0.133452
Si Si4 0.210485 0.514408 0.188713
Si Si5 0.602050 0.891324 0.480634
Si Si6 0.997823 0.604441 0.936207
Si Si7 0.529280 0.786028 0.275351
O O1 0.389677 0.360303 0.335511
O O2 0.643026 0.127926 0.387209
O O3 0.665462 0.142018 0.586915
O O4 0.033954 0.155613 0.237679
O O5 0.500000 0.500000 0.500000
O O6 0.734383 0.408238 0.269120
O O7 0.589857 0.285720 0.620152
O O8 0.059486 0.256367 0.474580
O O9 0.304928 0.225394 0.100645
O O10 0.609454 0.956890 0.271033
O O11 0.521015 0.106714 0.928694
O O12 0.921137 0.653997 0.245755
O O13 0.500000 0.500000 0.000000
O O14 0.043834 0.548774 0.113288
O O15 0.500000 0.000000 0.500000
O O16 0.000000 0.500000 0.000000
#
# Coordination Sequence:
#
# PCOD9054981 Si02
#       7
#     2   2   2   2   2   2   2
#     4  12  23  45  71 101 141 188 236 294 348 424
#     4  12  24  45  69 107 144 184 238 295 350 417
#     4  11  24  46  69 102 141 188 237 286 355 422
#     4  11  21  39  69 106 135 182 235 286 356 416
#     4  12  26  46  73 101 141 196 234 288 364 424
#     4  11  21  40  67 101 144 183 229 286 346 414
#     4  11  23  43  69 101 147 177 235 298 348 417
#
# _framework density 23.163651000000002
#
# number of rings (size 3 to 8) (size 9 to 14) (size 15 to 20)
#    0.000    0.571    5.714    4.286    0.000    2.286 
#    0.000    0.000    0.000    0.000    0.000    0.000 
#    0.000    0.000    0.000    0.000    0.000    0.000 
#
# Total GULP energy -78230.701483 kJ/mol
# GULP energy per Si atom -5587.907249 kJ/mol
# Density = 2.311093 g / cm^3
# Si number density = 23.163651 Si / 1000 Ang^3
#
#
#
# Elastic Constant Matrix: (Units=GPa)
#
#
# Indices 1 2 3 4 5 6 
#
# 1 98.8017 31.3917 28.3272 5.3329 -15.5996 14.2100
# 2 31.3917 71.9325 -1.0667 -12.4166 -1.4580 -5.0028
# 3 28.3272 -1.0667 136.8114 7.2459 9.7336 -1.6133
# 4 5.3329 -12.4166 7.2459 38.8203 -1.4515 2.6287
# 5 -15.5996 -1.4580 9.7336 -1.4515 34.9619 -4.9631
# 6 14.2100 -5.0028 -1.6133 2.6287 -4.9631 36.9359
#
#
#
# Elastic Compliance Matrix: (Units=1/GPa)
#
#
# Indices 1 2 3 4 5 6 
#
# 1 0.015794 -0.007810 -0.003708 -0.003307 0.006743 -0.006155
# 2 -0.007810 0.018723 0.001641 0.006343 -0.002207 0.004864
# 3 -0.003708 0.001641 0.008416 -0.000783 -0.003739 0.001570
# 4 -0.003307 0.006343 -0.000783 0.028389 0.000200 0.000104
# 5 0.006743 -0.002207 -0.003739 0.000200 0.032757 0.001331
# 6 -0.006155 0.004864 0.001570 0.000104 0.001331 0.030341
#
#
# Mechanical properties :
#
#
# Convention : Reuss Voigt Hill
#
# Bulk Modulus (GPa) = 43.14112 47.20557 45.17335
# Shear Modulus (GPa) = 30.88324 38.73651 34.80987
#
# Velocity S-wave (km/s) = 3.65535 4.09381 3.88078
# Velocity P-wave (km/s) = 6.03990 6.53981 6.29482
#
# Compressibility (1/GPa) = 0.02317974
#
# Stress axis : x y z
#
# Youngs Moduli (GPa) = 63.31470 53.41039 118.82272
#
# Poissons Ratio (x) = 0.41712 0.44063
# Poissons Ratio (y) = 0.49447 -0.19504
# Poissons Ratio (z) = 0.23479 -0.08767
#
# Static dielectric constant tensor:
#      x y z
#    x 1.863660 0.022500 -0.032110 
#    y 0.022500 1.968530 -0.001060 
#    z -0.032110 -0.001060 1.885960 
# 
# From -- ./inp_files/404659.got.cif
#   From: 2010.05.17/outbox.cif.g08.bks.cpg/sg2_203_cif.got.tgz:404659.got - 2010.06.03 11:33:40.
