data_PCOD9054077
_publ_section_title
;
Structure prediction by ZEFSAII (Michael W. Deem and Ramdas Pophale) SiO2 
 PCOD9054077
Probable space group: P -1
;
_chemical_formula_sum "Si O2"
_cell_formula_units_Z 16
_cell_length_a 8.055789
_cell_length_b 15.920636
_cell_length_c 6.517543
_cell_angle_alpha 66.973668
_cell_angle_beta 79.029282
_cell_angle_gamma 68.835255
_cell_volume 716.230342
_symmetry_space_group_name_H-M "P -1"
_symmetry_group_IT_number 2
_symmetry_cell_setting 'triclinic'
loop_
_space_group_symop_operation_xyz
x,y,z
-x,-y,-z
loop_
_atom_site_type_symbol
_atom_site_label
_atom_site_fract_x
_atom_site_fract_y
_atom_site_fract_z
Si Si1 0.344358 0.675481 0.635624
Si Si2 0.135175 0.589814 0.042387
Si Si3 0.191346 0.230194 0.124078
Si Si4 0.120624 0.076206 0.590284
Si Si5 0.396161 0.103702 0.831313
Si Si6 0.563503 0.403643 0.713475
Si Si7 0.259826 0.884240 0.489889
Si Si8 0.692587 0.616718 0.857889
O O1 0.358243 0.682704 0.382735
O O2 0.276016 0.777915 0.665090
O O3 0.215703 0.615458 0.786290
O O4 0.541151 0.623210 0.721497
O O5 0.279921 0.594678 0.171913
O O6 0.143893 0.478735 0.137970
O O7 0.956051 0.677247 0.029734
O O8 0.129085 0.149735 0.333852
O O9 0.323912 0.176767 0.965456
O O10 0.267687 0.283868 0.230486
O O11 0.230780 0.097692 0.734943
O O12 0.910831 0.087951 0.651178
O O13 0.215676 0.968172 0.588595
O O14 0.549214 0.126935 0.642146
O O15 0.500000 0.000000 0.000000
O O16 0.500000 0.500000 0.500000
O O17 0.400212 0.394653 0.894512
#
# Coordination Sequence:
#
# PCOD9054077 Si02
#       8
#     2   2   2   2   2   2   2   2
#     4  11  21  40  68  96 130 177 227 278 336 406
#     4  11  23  41  65  96 134 177 225 280 328 408
#     4  12  26  46  66 101 138 179 229 279 346 404
#     4  11  26  49  72 102 140 180 232 285 345 411
#     4  12  27  47  71 105 143 177 228 291 342 411
#     4  11  20  40  67  95 135 173 226 280 336 402
#     4  11  24  47  75 100 137 188 226 282 352 403
#     4  11  23  40  66  96 132 182 225 274 345 400
#
# _framework density 22.339182999999998
#
# number of rings (size 3 to 8) (size 9 to 14) (size 15 to 20)
#    0.000    0.750    5.000    3.000    3.500    0.500 
#    0.000    0.625    0.000    0.000    0.000    0.000 
#    0.000    0.000    0.000    0.000    0.000    0.000 
#
# Total GULP energy -89402.560497 kJ/mol
# GULP energy per Si atom -5587.660031 kJ/mol
# Density = 2.228834 g / cm^3
# Si number density = 22.339183 Si / 1000 Ang^3
#
#
#
# Elastic Constant Matrix: (Units=GPa)
#
#
# Indices 1 2 3 4 5 6 
#
# 1 80.9112 19.2869 -0.2326 3.9571 11.0105 -7.8334
# 2 19.2869 161.6912 13.6365 14.7318 -0.4009 -12.8415
# 3 -0.2326 13.6365 37.5587 -0.0133 8.9897 -1.6956
# 4 3.9571 14.7318 -0.0133 12.3023 -1.5601 1.9158
# 5 11.0105 -0.4009 8.9897 -1.5601 15.8819 -4.9621
# 6 -7.8334 -12.8415 -1.6956 1.9158 -4.9621 39.3808
#
#
#
# Elastic Compliance Matrix: (Units=1/GPa)
#
#
# Indices 1 2 3 4 5 6 
#
# 1 0.014790 -0.001588 0.003704 -0.004625 -0.012457 0.001239
# 2 -0.001588 0.007701 -0.003469 -0.008746 0.003302 0.002887
# 3 0.003704 -0.003469 0.033063 0.000498 -0.021868 -0.001750
# 4 -0.004625 -0.008746 0.000498 0.095612 0.009859 -0.007159
# 5 -0.012457 0.003302 -0.021868 0.009859 0.087597 0.008215
# 6 0.001239 0.002887 -0.001750 -0.007159 0.008215 0.027889
#
#
# Mechanical properties :
#
#
# Convention : Reuss Voigt Hill
#
# Bulk Modulus (GPa) = 18.92219 38.39364 28.65792
# Shear Modulus (GPa) = 17.42329 30.01101 23.71715
#
# Velocity S-wave (km/s) = 2.79578 3.66925 3.26188
# Velocity P-wave (km/s) = 4.34863 5.93087 5.20028
#
# Compressibility (1/GPa) = 0.05284800
#
# Stress axis : x y z
#
# Youngs Moduli (GPa) = 67.61507 129.85510 30.24566
#
# Poissons Ratio (x) = 0.20617 -0.11203
# Poissons Ratio (y) = 0.10735 0.10492
# Poissons Ratio (z) = -0.25044 0.45044
#
# Static dielectric constant tensor:
#      x y z
#    x 1.861870 0.016160 -0.007370 
#    y 0.016160 1.865000 -0.016220 
#    z -0.007370 -0.016220 1.827160 
# 
# From -- ./inp_files/37898.got.cif
#   From: 2010.05.17/outbox.cif.g08.bks.cpg/sg2_19_cif.got.tgz:37898.got - 2010.06.03 11:33:40.
