data_PCOD9054433
_publ_section_title
;
Structure prediction by ZEFSAII (Michael W. Deem and Ramdas Pophale) SiO2 
 PCOD9054433
Probable space group: P -1
;
_chemical_formula_sum "Si O2"
_cell_formula_units_Z 16
_cell_length_a 10.336762
_cell_length_b 9.515922
_cell_length_c 8.416643
_cell_angle_alpha 57.452131
_cell_angle_beta 85.607716
_cell_angle_gamma 105.217099
_cell_volume 648.807631
_symmetry_space_group_name_H-M "P -1"
_symmetry_group_IT_number 2
_symmetry_cell_setting 'triclinic'
loop_
_space_group_symop_operation_xyz
x,y,z
-x,-y,-z
loop_
_atom_site_type_symbol
_atom_site_label
_atom_site_fract_x
_atom_site_fract_y
_atom_site_fract_z
Si Si1 0.714406 0.593099 0.897341
Si Si2 0.738878 0.414696 0.302695
Si Si3 0.123078 0.711761 0.174871
Si Si4 0.497919 0.109911 0.679639
Si Si5 0.428565 0.761663 0.076190
Si Si6 0.890885 0.649637 0.442691
Si Si7 0.756409 0.888834 0.501294
Si Si8 0.951466 0.267958 0.198036
O O1 0.326355 0.484025 0.876118
O O2 0.631538 0.429406 0.887838
O O3 0.693632 0.771361 0.733864
O O4 0.883236 0.652487 0.842160
O O5 0.627415 0.232788 0.489876
O O6 0.802961 0.542270 0.366926
O O7 0.859149 0.370487 0.224091
O O8 0.288020 0.798533 0.115327
O O9 0.090359 0.504411 0.354362
O O10 0.037856 0.772948 0.278185
O O11 0.078670 0.739013 0.984510
O O12 0.493800 0.220410 0.774424
O O13 0.361306 0.071600 0.610755
O O14 0.504073 0.922997 0.852339
O O15 0.812469 0.760195 0.469848
O O16 0.115576 0.927668 0.600717
#
# Coordination Sequence:
#
# PCOD9054433 Si02
#       8
#     2   2   2   2   2   2   2   2
#     4  12  24  43  67  99 139 176 215 281 353 393
#     4  12  23  43  72  98 130 185 232 267 328 415
#     4  11  20  45  70 102 127 181 224 280 330 412
#     4  11  26  44  70  99 132 183 235 274 318 404
#     4  11  22  46  71  94 134 180 230 273 329 402
#     4  11  24  40  75 101 132 173 235 275 339 401
#     4  12  26  46  64 101 145 178 215 284 340 392
#     4  12  25  44  72 100 141 170 223 286 345 392
#
# _framework density 24.660620999999999
#
# number of rings (size 3 to 8) (size 9 to 14) (size 15 to 20)
#    0.000    0.500    6.250    1.500    1.750    5.000 
#    0.000    2.500    0.000    0.000    0.000    0.000 
#    0.000    0.000    0.000    0.000    0.000    0.000 
#
# Total GULP energy -89623.749524 kJ/mol
# GULP energy per Si atom -5601.484345 kJ/mol
# Density = 2.460449 g / cm^3
# Si number density = 24.660621 Si / 1000 Ang^3
#
#
#
# Elastic Constant Matrix: (Units=GPa)
#
#
# Indices 1 2 3 4 5 6 
#
# 1 71.6628 12.5209 13.7624 1.2107 -12.3125 4.9121
# 2 12.5209 78.3786 46.2037 -11.2296 3.9372 15.7528
# 3 13.7624 46.2037 172.6851 -1.8365 -14.1919 15.9382
# 4 1.2107 -11.2296 -1.8365 38.9773 13.6211 -9.7108
# 5 -12.3125 3.9372 -14.1919 13.6211 31.1181 -4.8926
# 6 4.9121 15.7528 15.9382 -9.7108 -4.8926 34.6007
#
#
#
# Elastic Compliance Matrix: (Units=1/GPa)
#
#
# Indices 1 2 3 4 5 6 
#
# 1 0.016276 -0.003937 0.000545 -0.005073 0.009268 -0.000883
# 2 -0.003937 0.019051 -0.005095 0.007774 -0.010492 -0.005069
# 3 0.000545 -0.005095 0.007673 -0.003461 0.005644 -0.001465
# 4 -0.005073 0.007774 -0.003461 0.036232 -0.019455 0.006193
# 5 0.009268 -0.010492 0.005644 -0.019455 0.048577 0.002270
# 6 -0.000883 -0.005069 -0.001465 0.006193 0.002270 0.034068
#
#
# Mechanical properties :
#
#
# Convention : Reuss Voigt Hill
#
# Bulk Modulus (GPa) = 38.42173 51.96675 45.19424
# Shear Modulus (GPa) = 26.66302 37.62184 32.14243
#
# Velocity S-wave (km/s) = 3.29173 3.91011 3.61417
# Velocity P-wave (km/s) = 5.48282 6.44234 5.98185
#
# Compressibility (1/GPa) = 0.02602694
#
# Stress axis : x y z
#
# Youngs Moduli (GPa) = 61.44044 52.49146 130.32698
#
# Poissons Ratio (x) = 0.20663 -0.07107
# Poissons Ratio (y) = 0.24186 0.66404
# Poissons Ratio (z) = -0.03351 0.26745
#
# Static dielectric constant tensor:
#      x y z
#    x 1.995350 -0.002640 -0.016400 
#    y -0.002640 1.946040 0.009680 
#    z -0.016400 0.009680 1.999460 
# 
# From -- ./inp_files/396965.got.cif
#   From: 2010.05.17/outbox.cif.g08.bks.cpg/sg2_199_cif.got.tgz:396965.got - 2010.06.03 11:33:40.
