data_PCOD9054484
_publ_section_title
;
Structure prediction by ZEFSAII (Michael W. Deem and Ramdas Pophale) SiO2 
 PCOD9054484
Probable space group: P -1
;
_chemical_formula_sum "Si O2"
_cell_formula_units_Z 16
_cell_length_a 9.776822
_cell_length_b 20.261019
_cell_length_c 12.708929
_cell_angle_alpha 23.438253
_cell_angle_beta 46.397459
_cell_angle_gamma 47.985195
_cell_volume 719.255428
_symmetry_space_group_name_H-M "P -1"
_symmetry_group_IT_number 2
_symmetry_cell_setting 'triclinic'
loop_
_space_group_symop_operation_xyz
x,y,z
-x,-y,-z
loop_
_atom_site_type_symbol
_atom_site_label
_atom_site_fract_x
_atom_site_fract_y
_atom_site_fract_z
Si Si1 0.246492 0.283132 0.604442
Si Si2 0.173395 0.086835 0.228666
Si Si3 0.701062 0.833533 0.484970
Si Si4 0.362342 0.813811 0.365766
Si Si5 0.876386 0.359636 0.943323
Si Si6 0.838702 0.489375 0.012993
Si Si7 0.018018 0.993498 0.170867
Si Si8 0.699265 0.028521 0.470049
O O1 0.337037 0.223616 0.529562
O O2 0.409650 0.221692 0.693530
O O3 0.183072 0.481102 0.332330
O O4 0.066170 0.181330 0.860135
O O5 0.290730 0.951741 0.290342
O O6 0.282966 0.109496 0.244363
O O7 0.000000 0.000000 0.500000
O O8 0.082866 0.252346 0.975837
O O9 0.525919 0.949146 0.458970
O O10 0.892519 0.921252 0.254112
O O11 0.739307 0.673571 0.773246
O O12 0.297273 0.637072 0.686677
O O13 0.225444 0.884887 0.237670
O O14 0.889747 0.420876 0.967792
O O15 0.734115 0.218731 0.210121
O O16 0.000000 0.500000 0.000000
O O17 0.872610 0.983005 0.362750
#
# Coordination Sequence:
#
# PCOD9054484 Si02
#       8
#     2   2   2   2   2   2   2   2
#     4  11  25  40  61  87 128 163 198 239 298 372
#     4  10  17  35  65  87 115 151 201 249 297 343
#     4  11  23  39  62  90 124 158 197 251 305 350
#     4  12  20  40  63  91 116 160 205 245 296 358
#     4  10  20  38  60  89 122 158 197 245 309 347
#     4  11  20  34  61  92 122 149 198 261 302 341
#     4  12  24  39  60  91 125 161 199 244 300 357
#     4  11  20  38  65  91 112 157 207 254 290 353
#
# _framework density 22.245227
#
# number of rings (size 3 to 8) (size 9 to 14) (size 15 to 20)
#    0.000    1.000    7.500    1.875    0.000    2.500 
#    0.000    0.000    0.000    0.750    0.000    0.000 
#    0.000    0.000    0.000    0.000    0.000    0.000 
#
# Total GULP energy -89199.506522 kJ/mol
# GULP energy per Si atom -5574.969158 kJ/mol
# Density = 2.219460 g / cm^3
# Si number density = 22.245227 Si / 1000 Ang^3
#
#
#
# Elastic Constant Matrix: (Units=GPa)
#
#
# Indices 1 2 3 4 5 6 
#
# 1 84.0905 24.7328 20.5964 -5.3302 4.2660 -29.7842
# 2 24.7328 59.4748 12.6860 -3.1588 6.2302 -14.8347
# 3 20.5964 12.6860 104.0028 -4.1575 -4.6733 -27.3888
# 4 -5.3302 -3.1588 -4.1575 23.0528 -5.1906 5.2840
# 5 4.2660 6.2302 -4.6733 -5.1906 24.4184 -6.0674
# 6 -29.7842 -14.8347 -27.3888 5.2840 -6.0674 36.4455
#
#
#
# Elastic Compliance Matrix: (Units=1/GPa)
#
#
# Indices 1 2 3 4 5 6 
#
# 1 0.017696 -0.004292 0.000641 0.000932 0.001638 0.013334
# 2 -0.004292 0.020011 -0.000869 -0.000010 -0.003686 0.003373
# 3 0.000641 -0.000869 0.012611 0.001128 0.005340 0.010373
# 4 0.000932 -0.000010 0.001128 0.046676 0.009070 -0.003652
# 5 0.001638 -0.003686 0.005340 0.009070 0.047137 0.010384
# 6 0.013334 0.003373 0.010373 -0.003652 0.010384 0.049762
#
#
# Mechanical properties :
#
#
# Convention : Reuss Voigt Hill
#
# Bulk Modulus (GPa) = 24.22534 40.39984 32.31259
# Shear Modulus (GPa) = 23.07439 29.42021 26.24730
#
# Velocity S-wave (km/s) = 3.22417 3.64062 3.43870
# Velocity P-wave (km/s) = 4.97736 5.98938 5.50667
#
# Compressibility (1/GPa) = 0.04127909
#
# Stress axis : x y z
#
# Youngs Moduli (GPa) = 56.50975 49.97305 79.29664
#
# Poissons Ratio (x) = 0.21448 -0.05086
# Poissons Ratio (y) = 0.24253 0.06889
# Poissons Ratio (z) = -0.03624 0.04342
#
# Static dielectric constant tensor:
#      x y z
#    x 2.020660 0.024750 0.033650 
#    y 0.024750 1.840020 -0.003430 
#    z 0.033650 -0.003430 1.802480 
# 
# From -- ./inp_files/508697.got.cif
#   From: 2010.05.17/outbox.cif.g08.bks.cpg/sg2_255_cif.got.tgz:508697.got - 2010.06.03 11:33:40.
