data_PCOD9054497
_publ_section_title
;
Structure prediction by ZEFSAII (Michael W. Deem and Ramdas Pophale) SiO2 
 PCOD9054497
Probable space group: P -1
;
_chemical_formula_sum "Si O2"
_cell_formula_units_Z 10
_cell_length_a 11.702812
_cell_length_b 10.029767
_cell_length_c 7.043221
_cell_angle_alpha 100.267696
_cell_angle_beta 73.192574
_cell_angle_gamma 144.827675
_cell_volume 453.333412
_symmetry_space_group_name_H-M "P -1"
_symmetry_group_IT_number 2
_symmetry_cell_setting 'triclinic'
loop_
_space_group_symop_operation_xyz
x,y,z
-x,-y,-z
loop_
_atom_site_type_symbol
_atom_site_label
_atom_site_fract_x
_atom_site_fract_y
_atom_site_fract_z
Si Si1 0.939302 0.646236 0.730296
Si Si2 0.843029 0.899551 0.216185
Si Si3 0.477349 0.211090 0.877121
Si Si4 0.728326 0.504291 0.178012
Si Si5 0.305253 0.804439 0.677307
O O1 0.704919 0.406026 0.725818
O O2 0.907057 0.638556 0.971845
O O3 0.037187 0.876016 0.663973
O O4 0.895834 0.319372 0.355768
O O5 0.655303 0.805832 0.184004
O O6 0.764232 0.686707 0.289111
O O7 0.000000 0.000000 0.000000
O O8 0.363191 0.961473 0.862136
O O9 0.526649 0.311596 0.089849
O O10 0.723242 0.373586 0.285407
O O11 0.500000 0.000000 0.500000
#
# Coordination Sequence:
#
# PCOD9054497 Si02
#       5
#     2   2   2   2   2
#     4   8  19  33  55  73 105 129 170 207 255 293
#     4   9  16  31  55  83  99 123 168 220 252 291
#     4   9  19  33  54  76 104 130 171 208 252 300
#     4   9  18  33  56  77 102 130 170 208 253 300
#     4  11  21  35  50  75 107 138 169 207 249 298
#
# _framework density 22.058817999999999
#
# number of rings (size 3 to 8) (size 9 to 14) (size 15 to 20)
#    1.200    1.600    0.000    1.800    0.000    0.800 
#    0.000    4.000    0.000    2.400    0.000    0.000 
#    0.000    0.000    0.000    0.000    0.000    0.000 
#
# Total GULP energy -55706.302416 kJ/mol
# GULP energy per Si atom -5570.630242 kJ/mol
# Density = 2.200861 g / cm^3
# Si number density = 22.058818 Si / 1000 Ang^3
#
#
#
# Elastic Constant Matrix: (Units=GPa)
#
#
# Indices 1 2 3 4 5 6 
#
# 1 136.0865 52.7009 18.0662 -25.2151 22.9542 13.0603
# 2 52.7009 147.0838 29.1211 -16.7607 42.4237 -19.9130
# 3 18.0662 29.1211 26.0286 -10.5012 -3.7773 -19.6562
# 4 -25.2151 -16.7607 -10.5012 25.8881 -1.7020 17.2397
# 5 22.9542 42.4237 -3.7773 -1.7020 -0.8127 -25.2968
# 6 13.0603 -19.9130 -19.6562 17.2397 -25.2968 45.7695
#
#
#
# Elastic Compliance Matrix: (Units=1/GPa)
#
#
# Indices 1 2 3 4 5 6 
#
# 1 0.009667 -0.005943 0.002974 0.009050 0.008940 -0.002535
# 2 -0.005943 0.008630 -0.000517 -0.006516 0.003271 0.009490
# 3 0.002974 -0.000517 0.038186 0.019545 -0.022485 -0.004464
# 4 0.009050 -0.006516 0.019545 0.058983 0.016480 -0.010132
# 5 0.008940 0.003271 -0.022485 0.016480 -0.011444 -0.023317
# 6 -0.002535 0.009490 -0.004464 -0.010132 -0.023317 0.015713
#
#
# Mechanical properties :
#
#
# Convention : Reuss Voigt Hill
#
# Bulk Modulus (GPa) = 20.19849 56.55281 38.37565
# Shear Modulus (GPa) = 34.91370 28.12304 31.51837
#
# Velocity S-wave (km/s) = 3.98270 3.57446 3.78409
# Velocity P-wave (km/s) = 5.50688 6.53672 6.04377
#
# Compressibility (1/GPa) = 0.04950865
#
# Stress axis : x y z
#
# Youngs Moduli (GPa) = 103.44240 115.87936 26.18793
#
# Poissons Ratio (x) = 0.68868 -0.07787
# Poissons Ratio (y) = 0.61476 0.01355
# Poissons Ratio (z) = -0.30760 0.05996
#
# Static dielectric constant tensor:
#      x y z
#    x 1.778790 -0.017040 -0.018460 
#    y -0.017040 1.918060 0.060330 
#    z -0.018460 0.060330 1.818590 
# 
# From -- ./inp_files/237801.got.cif
#   From: 2010.05.17/outbox.cif.g08.bks.cpg/sg2_119_cif.got.tgz:237801.got - 2010.06.03 11:33:40.
