data_PCOD9054787
_publ_section_title
;
Structure prediction by ZEFSAII (Michael W. Deem and Ramdas Pophale) SiO2 
 PCOD9054787
Probable space group: P -1
;
_chemical_formula_sum "Si O2"
_cell_formula_units_Z 12
_cell_length_a 9.290680
_cell_length_b 7.874220
_cell_length_c 12.114065
_cell_angle_alpha 123.772079
_cell_angle_beta 119.768021
_cell_angle_gamma 63.456981
_cell_volume 621.281026
_symmetry_space_group_name_H-M "P -1"
_symmetry_group_IT_number 2
_symmetry_cell_setting 'triclinic'
loop_
_space_group_symop_operation_xyz
x,y,z
-x,-y,-z
loop_
_atom_site_type_symbol
_atom_site_label
_atom_site_fract_x
_atom_site_fract_y
_atom_site_fract_z
Si Si1 0.058909 0.013933 0.741400
Si Si2 0.808414 0.373203 0.667622
Si Si3 0.791246 0.096264 0.852910
Si Si4 0.822181 0.451119 0.448950
Si Si5 0.514067 0.230235 0.625535
Si Si6 0.882207 0.761919 0.950624
O O1 0.963051 0.166637 0.664599
O O2 0.905532 0.977855 0.750734
O O3 0.168332 0.792013 0.664353
O O4 0.153346 0.145461 0.906481
O O5 0.799642 0.470949 0.579133
O O6 0.635636 0.311000 0.613894
O O7 0.843000 0.540856 0.830678
O O8 0.613558 0.209973 0.772741
O O9 0.784119 0.933701 0.887925
O O10 0.915909 0.243856 0.993004
O O11 0.668048 0.609184 0.386919
O O12 0.000000 0.500000 0.500000
O O13 0.500000 0.000000 0.500000
#
# Coordination Sequence:
#
# PCOD9054787 Si02
#       6
#     2   2   2   2   2   2
#     4   9  19  34  56  88 115 149 193 241 291 338
#     4  11  21  38  65  86 116 160 205 232 291 362
#     4   8  18  35  63  81 120 151 206 225 292 353
#     4  12  24  38  59  89 123 155 195 251 300 338
#     4  11  23  39  59  89 120 158 201 242 288 355
#     4   9  17  36  65  86 112 159 199 235 287 360
#
# _framework density 19.31493
#
# number of rings (size 3 to 8) (size 9 to 14) (size 15 to 20)
#    1.000    1.000    0.000    5.500    0.000    0.000 
#    0.000    1.667    0.000    0.000    0.000    0.000 
#    0.000    0.000    0.000    0.000    0.000    0.000 
#
# Total GULP energy -66910.339995 kJ/mol
# GULP energy per Si atom -5575.861666 kJ/mol
# Density = 1.927097 g / cm^3
# Si number density = 19.314930 Si / 1000 Ang^3
#
#
#
# Elastic Constant Matrix: (Units=GPa)
#
#
# Indices 1 2 3 4 5 6 
#
# 1 61.6264 37.7900 26.7064 -4.1631 23.5630 0.3850
# 2 37.7900 111.9764 44.8413 -15.8439 23.3211 -26.1657
# 3 26.7064 44.8413 81.9267 5.5467 15.9667 -12.6099
# 4 -4.1631 -15.8439 5.5467 53.2743 6.6668 3.3398
# 5 23.5630 23.3211 15.9667 6.6668 19.2122 0.4047
# 6 0.3850 -26.1657 -12.6099 3.3398 0.4047 30.2706
#
#
#
# Elastic Compliance Matrix: (Units=1/GPa)
#
#
# Indices 1 2 3 4 5 6 
#
# 1 0.034782 -0.001615 -0.003712 0.007897 -0.040275 -0.003717
# 2 -0.001615 0.020915 -0.004661 0.008459 -0.022797 0.015530
# 3 -0.003712 -0.004661 0.017370 -0.003320 -0.003150 0.003663
# 4 0.007897 0.008459 -0.003320 0.025296 -0.026043 0.003385
# 5 -0.040275 -0.022797 -0.003150 -0.026043 0.141185 -0.019520
# 6 -0.003717 0.015530 0.003663 0.003385 -0.019520 0.047919
#
#
# Mechanical properties :
#
#
# Convention : Reuss Voigt Hill
#
# Bulk Modulus (GPa) = 18.83542 52.68943 35.76243
# Shear Modulus (GPa) = 15.37801 30.29756 22.83778
#
# Velocity S-wave (km/s) = 2.82471 3.96486 3.44232
# Velocity P-wave (km/s) = 4.51792 6.94971 5.86132
#
# Compressibility (1/GPa) = 0.05309145
#
# Stress axis : x y z
#
# Youngs Moduli (GPa) = 28.75073 47.81174 57.57214
#
# Poissons Ratio (x) = 0.07722 0.21370
# Poissons Ratio (y) = 0.04643 0.26833
# Poissons Ratio (z) = 0.10672 0.22284
#
# Static dielectric constant tensor:
#      x y z
#    x 1.652720 0.002670 0.013580 
#    y 0.002670 1.676090 -0.003120 
#    z 0.013580 -0.003120 1.704390 
# 
# From -- ./inp_files/383617.got.cif
#   From: 2010.05.17/outbox.cif.g08.bks.cpg/sg2_192_cif.got.tgz:383617.got - 2010.06.03 11:33:40.
