data_PCOD9054233
_publ_section_title
;
Structure prediction by ZEFSAII (Michael W. Deem and Ramdas Pophale) SiO2 
 PCOD9054233
Probable space group: P -1
;
_chemical_formula_sum "Si O2"
_cell_formula_units_Z 16
_cell_length_a 10.786755
_cell_length_b 16.862226
_cell_length_c 13.190191
_cell_angle_alpha 33.829282
_cell_angle_beta 37.169165
_cell_angle_gamma 59.200771
_cell_volume 722.374314
_symmetry_space_group_name_H-M "P -1"
_symmetry_group_IT_number 2
_symmetry_cell_setting 'triclinic'
loop_
_space_group_symop_operation_xyz
x,y,z
-x,-y,-z
loop_
_atom_site_type_symbol
_atom_site_label
_atom_site_fract_x
_atom_site_fract_y
_atom_site_fract_z
Si Si1 0.975757 0.140995 0.763519
Si Si2 0.698598 0.134517 0.289815
Si Si3 0.992622 0.965657 0.349054
Si Si4 0.611573 0.726963 0.987718
Si Si5 0.494914 0.164302 0.860802
Si Si6 0.792115 0.330260 0.827995
Si Si7 0.724810 0.441825 0.255995
Si Si8 0.389622 0.199060 0.569424
O O1 0.985795 0.155313 0.619800
O O2 0.236301 0.211865 0.562133
O O3 0.854837 0.214714 0.839176
O O4 0.811872 0.950645 0.083682
O O5 0.584059 0.157129 0.441503
O O6 0.500000 0.000000 0.500000
O O7 0.865337 0.057431 0.283208
O O8 0.786620 0.282556 0.999604
O O9 0.846295 0.865230 0.645471
O O10 0.228486 0.108826 0.074759
O O11 0.481405 0.787773 0.088342
O O12 0.441305 0.672351 0.059370
O O13 0.671392 0.593558 0.140952
O O14 0.649269 0.314315 0.532172
O O15 0.500000 0.000000 0.000000
O O16 0.000000 0.500000 0.500000
O O17 0.542507 0.344496 0.388308
O O18 0.000000 0.500000 0.000000
#
# Coordination Sequence:
#
# PCOD9054233 Si02
#       8
#     2   2   2   2   2   2   2   2
#     4  11  20  41  71 106 135 186 239 295 350 431
#     4  12  22  42  69 109 137 189 234 298 354 435
#     4  12  24  43  77 103 141 183 248 292 359 428
#     4  12  27  48  69 108 150 185 240 304 362 426
#     4  12  28  49  77 102 138 196 249 294 355 435
#     4  12  26  42  70 106 149 182 238 298 374 422
#     4  12  29  49  70 106 150 193 240 300 367 425
#     4  11  22  40  73 100 142 185 242 290 355 426
#
# _framework density 22.149182
#
# number of rings (size 3 to 8) (size 9 to 14) (size 15 to 20)
#    0.000    0.250    5.000    3.750    5.250    2.000 
#    0.000    2.500    0.000    0.000    0.000    0.000 
#    0.000    0.000    0.000    0.000    0.000    0.000 
#
# Total GULP energy -89322.951759 kJ/mol
# GULP energy per Si atom -5582.684485 kJ/mol
# Density = 2.209877 g / cm^3
# Si number density = 22.149182 Si / 1000 Ang^3
#
#
#
# Elastic Constant Matrix: (Units=GPa)
#
#
# Indices 1 2 3 4 5 6 
#
# 1 62.2281 12.5252 30.9645 -9.0273 -6.7780 1.4162
# 2 12.5252 88.0372 22.2992 7.2585 12.7068 0.5875
# 3 30.9645 22.2992 157.7455 0.7350 9.8510 1.0505
# 4 -9.0273 7.2585 0.7350 26.6578 0.1203 2.3503
# 5 -6.7780 12.7068 9.8510 0.1203 50.0222 4.1692
# 6 1.4162 0.5875 1.0505 2.3503 4.1692 39.9881
#
#
#
# Elastic Compliance Matrix: (Units=1/GPa)
#
#
# Indices 1 2 3 4 5 6 
#
# 1 0.020293 -0.003201 -0.003834 0.007962 0.004424 -0.001500
# 2 -0.003201 0.012950 -0.000962 -0.004620 -0.003572 0.000592
# 3 -0.003834 -0.000962 0.007341 -0.001250 -0.001736 0.000211
# 4 0.007962 -0.004620 -0.001250 0.041746 0.002641 -0.002910
# 5 0.004424 -0.003572 -0.001736 0.002641 0.022043 -0.002512
# 6 -0.001500 0.000592 0.000211 -0.002910 -0.002512 0.025479
#
#
# Mechanical properties :
#
#
# Convention : Reuss Voigt Hill
#
# Bulk Modulus (GPa) = 40.66622 48.84319 44.75471
# Shear Modulus (GPa) = 32.45863 39.48174 35.97018
#
# Velocity S-wave (km/s) = 3.83228 4.22659 4.03426
# Velocity P-wave (km/s) = 6.16294 6.77632 6.47690
#
# Compressibility (1/GPa) = 0.02459043
#
# Stress axis : x y z
#
# Youngs Moduli (GPa) = 49.27792 77.21798 136.22634
#
# Poissons Ratio (x) = 0.24716 0.52233
# Poissons Ratio (y) = 0.15773 0.13101
# Poissons Ratio (z) = 0.18895 0.07426
#
# Static dielectric constant tensor:
#      x y z
#    x 1.922340 0.118740 -0.029300 
#    y 0.118740 2.032000 -0.037140 
#    z -0.029300 -0.037140 1.771890 
# 
# From -- ./inp_files/523425.got.cif
#   From: 2010.05.17/outbox.cif.g08.bks.cpg/sg2_262_cif.got.tgz:523425.got - 2010.06.03 11:33:40.
