data_PCOD9054769
_publ_section_title
;
Structure prediction by ZEFSAII (Michael W. Deem and Ramdas Pophale) SiO2 
 PCOD9054769
Probable space group: P -1
;
_chemical_formula_sum "Si O2"
_cell_formula_units_Z 13
_cell_length_a 12.128691
_cell_length_b 9.352051
_cell_length_c 8.215592
_cell_angle_alpha 69.201481
_cell_angle_beta 124.965214
_cell_angle_gamma 140.449927
_cell_volume 479.497289
_symmetry_space_group_name_H-M "P -1"
_symmetry_group_IT_number 2
_symmetry_cell_setting 'triclinic'
loop_
_space_group_symop_operation_xyz
x,y,z
-x,-y,-z
loop_
_atom_site_type_symbol
_atom_site_label
_atom_site_fract_x
_atom_site_fract_y
_atom_site_fract_z
Si Si1 0.539964 0.629692 0.701064
Si Si2 0.273485 0.935572 0.149985
Si Si3 0.876499 0.538586 0.149985
Si Si4 0.438673 0.759887 0.285187
Si Si5 0.846514 0.167728 0.285187
Si Si6 0.000000 0.000000 0.000000
Si Si7 0.838900 0.749172 0.298936
O O1 0.461292 0.627783 0.464252
O O2 0.372276 0.385506 0.744552
O O3 0.568300 0.810282 0.756681
O O4 0.765325 0.761445 0.840089
O O5 0.344642 0.821797 0.281005
O O6 0.068875 0.795408 0.137749
O O7 0.227681 0.905647 0.932755
O O8 0.936363 0.413518 0.281005
O O9 0.811619 0.569637 0.243319
O O10 0.705073 0.383039 0.932755
O O11 0.656807 0.994161 0.313613
O O12 0.002960 0.169451 0.464252
O O13 0.074765 0.070885 0.840089
#
# Coordination Sequence:
#
# PCOD9054769 Si02
#       7
#     2   2   2   2   2   1   2
#     4  12  24  44  68  91 130 169 216 263 318 372
#     4  11  21  38  64 101 134 164 207 261 324 387
#     4  11  21  38  64 101 134 164 207 261 324 387
#     4  11  21  38  64 101 134 164 207 261 324 387
#     4  11  21  38  64 101 134 164 207 261 324 387
#     4  12  26  48  64  90 124 174 226 262 308 374
#     4  12  24  44  68  91 130 169 216 263 318 372
#
# _framework density 27.111727999999999
#
# number of rings (size 3 to 8) (size 9 to 14) (size 15 to 20)
#    0.000    0.615    3.077    8.769    0.000    0.000 
#    0.000    1.538    0.000    0.000    0.000    0.000 
#    0.000    0.000    0.000    0.000    0.000    0.000 
#
# Total GULP energy -72809.153342 kJ/mol
# GULP energy per Si atom -5600.704103 kJ/mol
# Density = 2.705002 g / cm^3
# Si number density = 27.111728 Si / 1000 Ang^3
#
#
#
# Elastic Constant Matrix: (Units=GPa)
#
#
# Indices 1 2 3 4 5 6 
#
# 1 105.7050 40.7818 22.0269 -4.2637 17.2245 19.4853
# 2 40.7818 171.0002 36.6182 -15.7240 13.7700 55.3274
# 3 22.0269 36.6182 165.0465 -9.6491 14.5793 16.7566
# 4 -4.2637 -15.7240 -9.6491 41.7915 2.6971 0.0867
# 5 17.2245 13.7700 14.5793 2.6971 39.5088 4.7522
# 6 19.4853 55.3274 16.7566 0.0867 4.7522 82.1590
#
#
#
# Elastic Compliance Matrix: (Units=1/GPa)
#
#
# Indices 1 2 3 4 5 6 
#
# 1 0.011144 -0.001815 -0.000596 0.000571 -0.003916 -0.001073
# 2 -0.001815 0.008468 -0.000828 0.002914 -0.001449 -0.005022
# 3 -0.000596 -0.000828 0.006621 0.001281 -0.001917 -0.000542
# 4 0.000571 0.002914 0.001281 0.025591 -0.003220 -0.002200
# 5 -0.003916 -0.001449 -0.001917 -0.003220 0.028371 0.000658
# 6 -0.001073 -0.005022 -0.000542 -0.002200 0.000658 0.015883
#
#
# Mechanical properties :
#
#
# Convention : Reuss Voigt Hill
#
# Bulk Modulus (GPa) = 50.62274 71.17839 60.90057
# Shear Modulus (GPa) = 45.81220 55.51351 50.66286
#
# Velocity S-wave (km/s) = 4.11512 4.52993 4.32750
# Velocity P-wave (km/s) = 6.42584 7.32606 6.89066
#
# Compressibility (1/GPa) = 0.01975397
#
# Stress axis : x y z
#
# Youngs Moduli (GPa) = 89.73715 118.09612 151.02342
#
# Poissons Ratio (x) = 0.21433 0.09006
# Poissons Ratio (y) = 0.16286 0.12508
# Poissons Ratio (z) = 0.05351 0.09781
#
# Static dielectric constant tensor:
#      x y z
#    x 1.790710 0.140790 -0.230540 
#    y 0.140790 1.911620 0.151690 
#    z -0.230540 0.151690 1.829900 
# 
# From -- ./inp_files/161882.got.cif
#   From: 2010.05.17/outbox.cif.g08.bks.cpg/sg2_81_cif.got.tgz:161882.got - 2010.06.03 11:33:40.
