data_PCOD9054833
_publ_section_title
;
Structure prediction by ZEFSAII (Michael W. Deem and Ramdas Pophale) SiO2 
 PCOD9054833
Probable space group: P -1
;
_chemical_formula_sum "Si O2"
_cell_formula_units_Z 14
_cell_length_a 14.501213
_cell_length_b 22.217564
_cell_length_c 10.718110
_cell_angle_alpha 149.011455
_cell_angle_beta 29.040672
_cell_angle_gamma 159.464704
_cell_volume 572.745473
_symmetry_space_group_name_H-M "P -1"
_symmetry_group_IT_number 2
_symmetry_cell_setting 'triclinic'
loop_
_space_group_symop_operation_xyz
x,y,z
-x,-y,-z
loop_
_atom_site_type_symbol
_atom_site_label
_atom_site_fract_x
_atom_site_fract_y
_atom_site_fract_z
Si Si1 0.295311 0.669073 0.324307
Si Si2 0.080683 0.947412 0.148610
Si Si3 0.367409 0.842958 0.975640
Si Si4 0.849784 0.139624 0.352920
Si Si5 0.848784 0.042173 0.437835
Si Si6 0.010703 0.539574 0.202907
Si Si7 0.220053 0.408090 0.093017
O O1 0.535098 0.842997 0.431766
O O2 0.298147 0.536209 0.123218
O O3 0.310561 0.671643 0.160301
O O4 0.018128 0.621659 0.604791
O O5 0.071101 0.879271 0.905290
O O6 0.901016 0.771997 0.130746
O O7 0.382758 0.086401 0.104058
O O8 0.979775 0.027938 0.370184
O O9 0.163299 0.830789 0.276789
O O10 0.192709 0.643004 0.801048
O O11 0.500000 0.000000 0.000000
O O12 0.027885 0.339234 0.525448
O O13 0.500000 0.000000 0.500000
O O14 0.938799 0.095165 0.281300
O O15 0.000000 0.500000 0.000000
O O16 0.500000 0.500000 0.000000
#
# Coordination Sequence:
#
# PCOD9054833 Si02
#       7
#     2   2   2   2   2   2   2
#     4  11  23  40  71  99 129 173 231 283 332 398
#     4  12  24  44  71 100 133 180 230 289 337 405
#     4  12  27  45  68  99 148 184 219 277 351 421
#     4  12  21  45  74 100 130 178 237 288 339 400
#     4  12  24  44  71 100 133 179 233 284 339 405
#     4  12  23  42  73  96 137 187 220 276 351 410
#     4  11  21  38  68 103 126 165 229 287 332 388
#
# _framework density 24.443667999999999
#
# number of rings (size 3 to 8) (size 9 to 14) (size 15 to 20)
#    0.000    0.286    8.571    1.286    2.000    0.571 
#    0.000    3.571    0.000    0.000    0.000    0.000 
#    0.000    0.000    0.000    0.000    0.000    0.000 
#
# Total GULP energy -78035.961683 kJ/mol
# GULP energy per Si atom -5573.997263 kJ/mol
# Density = 2.438803 g / cm^3
# Si number density = 24.443668 Si / 1000 Ang^3
#
#
#
# Elastic Constant Matrix: (Units=GPa)
#
#
# Indices 1 2 3 4 5 6 
#
# 1 135.9900 16.9859 60.0928 11.8884 -39.2129 -5.3837
# 2 16.9859 74.7578 53.5302 41.0456 -28.2970 -14.3346
# 3 60.0928 53.5302 61.4598 20.1081 -22.3780 18.6230
# 4 11.8884 41.0456 20.1081 30.6097 -4.9331 -4.1813
# 5 -39.2129 -28.2970 -22.3780 -4.9331 57.7107 -0.1168
# 6 -5.3837 -14.3346 18.6230 -4.1813 -0.1168 39.4422
#
#
#
# Elastic Compliance Matrix: (Units=1/GPa)
#
#
# Indices 1 2 3 4 5 6 
#
# 1 0.003601 -0.017340 0.008822 0.014682 -0.001396 -0.008423
# 2 -0.017340 -0.017522 0.037987 0.000733 -0.005635 -0.026610
# 3 0.008822 0.037987 -0.009541 -0.043271 0.017252 0.014979
# 4 0.014682 0.000733 -0.043271 0.058124 -0.001416 0.028859
# 5 -0.001396 -0.005635 0.017252 -0.001416 0.020164 -0.010475
# 6 -0.008423 -0.026610 0.014979 0.028859 -0.010475 0.010489
#
#
# Mechanical properties :
#
#
# Convention : Reuss Voigt Hill
#
# Bulk Modulus (GPa) = 28.18755 59.26949 43.72852
# Shear Modulus (GPa) = 274.69752 34.99245 154.84499
#
# Velocity S-wave (km/s) = 10.61244 3.78769 7.96776
# Velocity P-wave (km/s) = 12.71699 6.59006 10.12795
#
# Compressibility (1/GPa) = 0.03547666
#
# Stress axis : x y z
#
# Youngs Moduli (GPa) = 277.66759 -57.07098 -104.81224
#
# Poissons Ratio (x) = -0.98961 0.92462
# Poissons Ratio (y) = 4.81478 3.98155
# Poissons Ratio (z) = -2.44949 2.16798
#
# Static dielectric constant tensor:
#      x y z
#    x 2.023880 -0.092880 0.067010 
#    y -0.092880 2.129530 -0.089340 
#    z 0.067010 -0.089340 2.108980 
# 
# From -- ./inp_files/276184.got.cif
#   From: 2010.05.17/outbox.cif.g08.bks.cpg/sg2_139_cif.got.tgz:276184.got - 2010.06.03 11:33:40.
