data_PCOD9054673
_publ_section_title
;
Structure prediction by ZEFSAII (Michael W. Deem and Ramdas Pophale) SiO2 
 PCOD9054673
Probable space group: P -1
;
_chemical_formula_sum "Si O2"
_cell_formula_units_Z 12
_cell_length_a 7.988935
_cell_length_b 11.470090
_cell_length_c 9.565600
_cell_angle_alpha 39.569083
_cell_angle_beta 105.647109
_cell_angle_gamma 83.854959
_cell_volume 461.379697
_symmetry_space_group_name_H-M "P -1"
_symmetry_group_IT_number 2
_symmetry_cell_setting 'triclinic'
loop_
_space_group_symop_operation_xyz
x,y,z
-x,-y,-z
loop_
_atom_site_type_symbol
_atom_site_label
_atom_site_fract_x
_atom_site_fract_y
_atom_site_fract_z
Si Si1 0.396931 0.698533 0.898090
Si Si2 0.082329 0.758706 0.576182
Si Si3 0.789722 0.072532 0.810484
Si Si4 0.905110 0.665641 0.073844
Si Si5 0.291255 0.138383 0.446890
Si Si6 0.379382 0.441317 0.362928
O O1 0.168174 0.777910 0.725974
O O2 0.440431 0.885396 0.696775
O O3 0.500000 0.500000 0.000000
O O4 0.421201 0.611378 0.139566
O O5 0.169416 0.852700 0.398423
O O6 0.145636 0.521390 0.759813
O O7 0.844842 0.863778 0.451908
O O8 0.584541 0.268021 0.649016
O O9 0.000000 0.000000 0.000000
O O10 0.785187 0.858728 0.976058
O O11 0.147434 0.562495 0.252649
O O12 0.847709 0.752664 0.821046
O O13 0.373670 0.285330 0.385503
#
# Coordination Sequence:
#
# PCOD9054673 Si02
#       6
#     2   2   2   2   2   2
#     4  12  20  31  61  99 127 152 193 247 321 372
#     4  11  21  39  63  93 124 158 196 255 312 364
#     4  12  28  44  60  86 126 175 214 244 290 363
#     4  11  22  41  66  93 129 155 197 262 313 365
#     4  11  21  37  65 100 127 149 192 261 330 365
#     4  11  23  39  64  96 123 157 203 255 315 365
#
# _framework density 26.008946000000002
#
# number of rings (size 3 to 8) (size 9 to 14) (size 15 to 20)
#    0.000    0.667    6.667    2.500    2.333    2.667 
#    0.000    3.333    0.000    0.000    0.000    0.000 
#    0.000    0.000    0.000    0.000    0.000    0.000 
#
# Total GULP energy -67107.038487 kJ/mol
# GULP energy per Si atom -5592.253207 kJ/mol
# Density = 2.594975 g / cm^3
# Si number density = 26.008946 Si / 1000 Ang^3
#
#
#
# Elastic Constant Matrix: (Units=GPa)
#
#
# Indices 1 2 3 4 5 6 
#
# 1 97.8979 0.7444 21.0369 1.5626 16.0388 8.1606
# 2 0.7444 52.4449 37.8677 -11.0016 -7.6031 15.9376
# 3 21.0369 37.8677 104.9199 -27.2968 28.3348 13.6793
# 4 1.5626 -11.0016 -27.2968 37.0948 14.1119 5.8108
# 5 16.0388 -7.6031 28.3348 14.1119 41.9035 -10.8987
# 6 8.1606 15.9376 13.6793 5.8108 -10.8987 40.9830
#
#
#
# Elastic Compliance Matrix: (Units=1/GPa)
#
#
# Indices 1 2 3 4 5 6 
#
# 1 0.012103 -0.002734 0.008404 0.013491 -0.018190 -0.010902
# 2 -0.002734 0.055093 -0.068892 -0.075403 0.092768 0.037476
# 3 0.008404 -0.068892 0.154361 0.191141 -0.213123 -0.110182
# 4 0.013491 -0.075403 0.191141 0.274677 -0.279741 -0.150499
# 5 -0.018190 0.092768 -0.213123 -0.279741 0.329121 0.165869
# 6 -0.010902 0.037476 -0.110182 -0.150499 0.165869 0.114222
#
#
# Mechanical properties :
#
#
# Convention : Reuss Voigt Hill
#
# Bulk Modulus (GPa) = 10.51387 41.61787 26.06587
# Shear Modulus (GPa) = 4.55487 37.03716 20.79601
#
# Velocity S-wave (km/s) = 1.32479 3.77771 2.83074
# Velocity P-wave (km/s) = 2.52810 5.92150 4.55277
#
# Compressibility (1/GPa) = 0.09511244
#
# Stress axis : x y z
#
# Youngs Moduli (GPa) = 82.62237 18.15122 6.47833
#
# Poissons Ratio (x) = 0.04962 -0.05444
# Poissons Ratio (y) = 0.22586 0.44631
# Poissons Ratio (z) = -0.69434 1.25048
#
# Static dielectric constant tensor:
#      x y z
#    x 2.067980 -0.021320 0.152670 
#    y -0.021320 2.061410 -0.029180 
#    z 0.152670 -0.029180 2.253090 
# 
# From -- ./inp_files/161869.got.cif
#   From: 2010.05.17/outbox.cif.g08.bks.cpg/sg2_81_cif.got.tgz:161869.got - 2010.06.03 11:33:40.
