data_PCOD9054550
_publ_section_title
;
Structure prediction by ZEFSAII (Michael W. Deem and Ramdas Pophale) SiO2 
 PCOD9054550
Probable space group: P -1
;
_chemical_formula_sum "Si O2"
_cell_formula_units_Z 16
_cell_length_a 14.783587
_cell_length_b 6.912208
_cell_length_c 9.767279
_cell_angle_alpha 107.501371
_cell_angle_beta 102.920842
_cell_angle_gamma 41.800208
_cell_volume 634.467428
_symmetry_space_group_name_H-M "P -1"
_symmetry_group_IT_number 2
_symmetry_cell_setting 'triclinic'
loop_
_space_group_symop_operation_xyz
x,y,z
-x,-y,-z
loop_
_atom_site_type_symbol
_atom_site_label
_atom_site_fract_x
_atom_site_fract_y
_atom_site_fract_z
Si Si1 0.388038 0.625407 0.101798
Si Si2 0.104940 0.327778 0.872919
Si Si3 0.140718 0.807296 0.698212
Si Si4 0.400396 0.856961 0.397600
Si Si5 0.316782 0.318701 0.884409
Si Si6 0.854313 0.748014 0.730044
Si Si7 0.845721 0.280444 0.638107
Si Si8 0.553982 0.793047 0.681424
O O1 0.455402 0.592540 0.260932
O O2 0.338370 0.481839 0.017069
O O3 0.500000 0.500000 0.000000
O O4 0.540321 0.000947 0.180778
O O5 0.009010 0.559732 0.764662
O O6 0.151398 0.023678 0.796877
O O7 0.249313 0.981972 0.139529
O O8 0.000000 0.500000 0.000000
O O9 0.167743 0.755811 0.533698
O O10 0.241901 0.513141 0.760718
O O11 0.983352 0.983783 0.690351
O O12 0.474811 0.775402 0.545797
O O13 0.237042 0.081164 0.401475
O O14 0.420045 0.035496 0.355722
O O15 0.226396 0.292121 0.919833
O O16 0.863481 0.493328 0.698803
O O17 0.701323 0.469050 0.695360
#
# Coordination Sequence:
#
# PCOD9054550 Si02
#       8
#     2   2   2   2   2   2   2   2
#     4  10  18  32  59 103 134 169 227 273 326 417
#     4  11  25  44  62  93 141 177 226 295 341 402
#     4  10  22  40  68 100 135 183 228 275 341 412
#     4   8  16  30  57  95 133 167 213 277 327 393
#     4  12  23  39  73 102 129 185 237 267 350 420
#     4   8  17  34  57  83 131 170 209 272 337 382
#     4   9  18  38  65  99 143 175 218 290 340 390
#     4  10  17  35  66 102 131 179 225 278 342 400
#
# _framework density 25.218001000000001
#
# number of rings (size 3 to 8) (size 9 to 14) (size 15 to 20)
#    0.750    1.500    1.250    3.000    0.000    2.000 
#    0.000   10.625    2.750   26.250    0.000    0.000 
#    0.000    0.000    0.000    0.000    0.000    0.000 
#
# Total GULP energy -89485.736814 kJ/mol
# GULP energy per Si atom -5592.858551 kJ/mol
# Density = 2.516060 g / cm^3
# Si number density = 25.218001 Si / 1000 Ang^3
#
#
#
# Elastic Constant Matrix: (Units=GPa)
#
#
# Indices 1 2 3 4 5 6 
#
# 1 89.2492 31.7852 24.0818 3.8806 6.9097 7.4333
# 2 31.7852 106.5337 28.0899 6.2118 -2.9367 -4.1149
# 3 24.0818 28.0899 105.7752 10.5333 20.7256 11.6702
# 4 3.8806 6.2118 10.5333 49.1274 1.2765 7.4429
# 5 6.9097 -2.9367 20.7256 1.2765 30.2974 -0.7750
# 6 7.4333 -4.1149 11.6702 7.4429 -0.7750 42.3754
#
#
#
# Elastic Compliance Matrix: (Units=1/GPa)
#
#
# Indices 1 2 3 4 5 6 
#
# 1 0.013298 -0.003813 -0.001248 0.000135 -0.002617 -0.002431
# 2 -0.003813 0.011698 -0.003327 -0.001031 0.004399 0.002982
# 3 -0.001248 -0.003327 0.012904 -0.001477 -0.008894 -0.003561
# 4 0.000135 -0.001031 -0.001477 0.021319 -0.000107 -0.003464
# 5 -0.002617 0.004399 -0.008894 -0.000107 0.040223 0.004090
# 6 -0.002431 0.002982 -0.003561 -0.003464 0.004090 0.025979
#
#
# Mechanical properties :
#
#
# Convention : Reuss Voigt Hill
#
# Bulk Modulus (GPa) = 47.33446 52.16354 49.74900
# Shear Modulus (GPa) = 33.50373 38.86680 36.18527
#
# Velocity S-wave (km/s) = 3.64890 3.93011 3.79211
# Velocity P-wave (km/s) = 6.04678 6.42840 6.24051
#
# Compressibility (1/GPa) = 0.02112626
#
# Stress axis : x y z
#
# Youngs Moduli (GPa) = 75.19803 85.48493 77.49363
#
# Poissons Ratio (x) = 0.32592 0.09669
# Poissons Ratio (y) = 0.28670 0.25781
# Poissons Ratio (z) = 0.09382 0.28440
#
# Static dielectric constant tensor:
#      x y z
#    x 2.038070 0.026820 -0.011910 
#    y 0.026820 2.029940 -0.086410 
#    z -0.011910 -0.086410 2.019100 
# 
# From -- ./inp_files/342874.got.cif
#   From: 2010.05.17/outbox.cif.g08.bks.cpg/sg2_172_cif.got.tgz:342874.got - 2010.06.03 11:33:40.
