data_PCOD9054147
_publ_section_title
;
Structure prediction by ZEFSAII (Michael W. Deem and Ramdas Pophale) SiO2 
 PCOD9054147
Probable space group: P -1
;
_chemical_formula_sum "Si O2"
_cell_formula_units_Z 12
_cell_length_a 8.588559
_cell_length_b 10.546091
_cell_length_c 5.272338
_cell_angle_alpha 92.345564
_cell_angle_beta 88.412154
_cell_angle_gamma 70.954478
_cell_volume 450.600067
_symmetry_space_group_name_H-M "P -1"
_symmetry_group_IT_number 2
_symmetry_cell_setting 'triclinic'
loop_
_space_group_symop_operation_xyz
x,y,z
-x,-y,-z
loop_
_atom_site_type_symbol
_atom_site_label
_atom_site_fract_x
_atom_site_fract_y
_atom_site_fract_z
Si Si1 0.390277 0.351489 0.728427
Si Si2 0.770559 0.060565 0.185582
Si Si3 0.148163 0.220108 0.004781
Si Si4 0.893994 0.407926 0.402392
Si Si5 0.772009 0.222134 0.719902
Si Si6 0.574327 0.878285 0.677300
O O1 0.287171 0.503653 0.677741
O O2 0.581394 0.315897 0.790176
O O3 0.398592 0.262551 0.470370
O O4 0.252765 0.128414 0.220696
O O5 0.776836 0.132272 0.459114
O O6 0.577057 0.096500 0.123313
O O7 0.846735 0.900006 0.196130
O O8 0.833927 0.129250 0.956236
O O9 0.991242 0.320666 0.156364
O O10 0.872380 0.318372 0.630711
O O11 0.269364 0.300097 0.909281
O O12 0.000000 0.500000 0.500000
O O13 0.500000 0.000000 0.500000
#
# Coordination Sequence:
#
# PCOD9054147 Si02
#       6
#     2   2   2   2   2   2
#     4  11  23  45  73 107 145 193 245 297 360 448
#     4  11  24  44  76 112 144 188 248 307 367 426
#     4  12  23  42  74 108 147 186 243 303 368 439
#     4  12  28  49  70 105 149 202 244 300 372 438
#     4  11  27  48  76 107 149 193 250 306 362 435
#     4  11  20  40  72 109 140 184 243 300 354 432
#
# _framework density 26.631156000000001
#
# number of rings (size 3 to 8) (size 9 to 14) (size 15 to 20)
#    0.000    0.667    5.000    3.500    0.000    4.000 
#    0.000    3.333    0.000    0.000    0.000    0.000 
#    0.000    0.000    0.000    0.000    0.000    0.000 
#
# Total GULP energy -67245.468558 kJ/mol
# GULP energy per Si atom -5603.789046 kJ/mol
# Density = 2.657054 g / cm^3
# Si number density = 26.631156 Si / 1000 Ang^3
#
#
#
# Elastic Constant Matrix: (Units=GPa)
#
#
# Indices 1 2 3 4 5 6 
#
# 1 95.6534 46.9124 22.5862 6.3283 -30.1396 -0.7084
# 2 46.9124 142.9153 52.1830 -4.2931 -21.4832 -14.6163
# 3 22.5862 52.1830 107.6192 -6.7386 -24.4065 -2.7638
# 4 6.3283 -4.2931 -6.7386 48.1649 5.3979 -8.9854
# 5 -30.1396 -21.4832 -24.4065 5.3979 47.0100 -4.1755
# 6 -0.7084 -14.6163 -2.7638 -8.9854 -4.1755 63.4094
#
#
#
# Elastic Compliance Matrix: (Units=1/GPa)
#
#
# Indices 1 2 3 4 5 6 
#
# 1 0.015226 -0.004065 0.000469 -0.003371 0.008476 -0.000666
# 2 -0.004065 0.010016 -0.003858 0.001310 0.000020 0.002282
# 3 0.000469 -0.003858 0.012201 0.000778 0.004789 0.000073
# 4 -0.003371 0.001310 0.000778 0.022423 -0.003444 0.003249
# 5 0.008476 0.000020 0.004789 -0.003444 0.029756 0.001779
# 6 -0.000666 0.002282 0.000073 0.003249 0.001779 0.016870
#
#
# Mechanical properties :
#
#
# Convention : Reuss Voigt Hill
#
# Bulk Modulus (GPa) = 44.37336 65.50568 54.93952
# Shear Modulus (GPa) = 38.78670 46.68397 42.73534
#
# Velocity S-wave (km/s) = 3.82047 4.19141 4.01023
# Velocity P-wave (km/s) = 6.01330 6.93359 6.48978
#
# Compressibility (1/GPa) = 0.02253604
#
# Stress axis : x y z
#
# Youngs Moduli (GPa) = 65.67803 99.84041 81.95961
#
# Poissons Ratio (x) = 0.40581 -0.03847
# Poissons Ratio (y) = 0.26695 0.31622
# Poissons Ratio (z) = -0.03083 0.38521
#
# Static dielectric constant tensor:
#      x y z
#    x 2.213170 0.039060 0.056150 
#    y 0.039060 2.089290 -0.015220 
#    z 0.056150 -0.015220 2.152440 
# 
# From -- ./inp_files/27774.got.cif
#   From: 2010.05.17/outbox.cif.g08.bks.cpg/sg2_14_cif.got.tgz:27774.got - 2010.06.03 11:33:40.
