data_PCOD9054811
_publ_section_title
;
Structure prediction by ZEFSAII (Michael W. Deem and Ramdas Pophale) SiO2 
 PCOD9054811
Probable space group: P -1
;
_chemical_formula_sum "Si O2"
_cell_formula_units_Z 16
_cell_length_a 9.579639
_cell_length_b 18.010181
_cell_length_c 10.542205
_cell_angle_alpha 126.242625
_cell_angle_beta 113.880876
_cell_angle_gamma 30.044066
_cell_volume 708.227678
_symmetry_space_group_name_H-M "P -1"
_symmetry_group_IT_number 2
_symmetry_cell_setting 'triclinic'
loop_
_space_group_symop_operation_xyz
x,y,z
-x,-y,-z
loop_
_atom_site_type_symbol
_atom_site_label
_atom_site_fract_x
_atom_site_fract_y
_atom_site_fract_z
Si Si1 0.736658 0.563803 0.479868
Si Si2 0.793517 0.800342 0.621412
Si Si3 0.836998 0.682663 0.994741
Si Si4 0.193643 0.098344 0.853636
Si Si5 0.888695 0.949478 0.694294
Si Si6 0.735159 0.700972 0.255659
Si Si7 0.671373 0.133821 0.151446
Si Si8 0.829074 0.182831 0.600680
O O1 0.544016 0.706631 0.665242
O O2 0.510195 0.665172 0.385075
O O3 0.000000 0.500000 0.500000
O O4 0.904107 0.383932 0.390538
O O5 0.803529 0.900277 0.683683
O O6 0.764631 0.752112 0.437422
O O7 0.509115 0.928402 0.730692
O O8 0.849264 0.771015 0.010722
O O9 0.850927 0.691005 0.159524
O O10 0.532746 0.788465 0.960714
O O11 0.082795 0.484605 0.849394
O O12 0.944799 0.190073 0.759806
O O13 0.206990 0.022830 0.900892
O O14 0.075797 0.921470 0.821186
O O15 0.070152 0.832047 0.515341
O O16 0.600971 0.145783 0.736132
O O17 0.000000 0.000000 0.500000
#
# Coordination Sequence:
#
# PCOD9054811 Si02
#       8
#     2   2   2   2   2   2   2   2
#     4  11  22  39  66 100 132 166 209 273 326 373
#     4  12  22  42  71  98 125 167 226 263 323 381
#     4  11  25  43  63  94 132 176 215 253 327 388
#     4  12  22  44  69  97 126 172 215 266 318 390
#     4  11  23  40  66  99 124 171 215 273 320 374
#     4  11  23  42  66  92 131 170 212 270 314 384
#     4  11  24  42  65  92 138 169 209 267 325 382
#     4  11  21  38  66  99 131 161 212 274 324 367
#
# _framework density 22.591604
#
# number of rings (size 3 to 8) (size 9 to 14) (size 15 to 20)
#    0.000    0.750    7.500    1.500    0.000    2.500 
#    4.500    0.625    0.000    0.000    0.000    0.000 
#    0.000    0.000    0.000    0.000    0.000    0.000 
#
# Total GULP energy -89573.450061 kJ/mol
# GULP energy per Si atom -5598.340629 kJ/mol
# Density = 2.254018 g / cm^3
# Si number density = 22.591604 Si / 1000 Ang^3
#
#
#
# Elastic Constant Matrix: (Units=GPa)
#
#
# Indices 1 2 3 4 5 6 
#
# 1 50.9070 23.9686 25.0607 6.9651 12.3246 -12.2522
# 2 23.9686 174.3874 45.0829 1.0024 25.2710 -17.4376
# 3 25.0607 45.0829 53.8268 8.5120 15.3851 3.7681
# 4 6.9651 1.0024 8.5120 36.7934 5.7017 7.8012
# 5 12.3246 25.2710 15.3851 5.7017 31.2006 -2.5667
# 6 -12.2522 -17.4376 3.7681 7.8012 -2.5667 37.6748
#
#
#
# Elastic Compliance Matrix: (Units=1/GPa)
#
#
# Indices 1 2 3 4 5 6 
#
# 1 0.030865 0.001444 -0.014521 -0.004571 -0.004312 0.012811
# 2 0.001444 0.008345 -0.007073 0.000706 -0.003588 0.004649
# 3 -0.014521 -0.007073 0.034021 -0.001570 -0.005968 -0.011480
# 4 -0.004571 0.000706 -0.001570 0.030662 -0.004224 -0.007640
# 5 -0.004312 -0.003588 -0.005968 -0.004224 0.040471 0.001166
# 6 0.012811 0.004649 -0.011480 -0.007640 0.001166 0.035671
#
#
# Mechanical properties :
#
#
# Convention : Reuss Voigt Hill
#
# Bulk Modulus (GPa) = 30.36712 51.92728 41.14720
# Shear Modulus (GPa) = 21.61573 33.46768 27.54170
#
# Velocity S-wave (km/s) = 3.09658 3.85310 3.49537
# Velocity P-wave (km/s) = 5.12406 6.54448 5.87734
#
# Compressibility (1/GPa) = 0.03293035
#
# Stress axis : x y z
#
# Youngs Moduli (GPa) = 32.39927 119.82750 29.39361
#
# Poissons Ratio (x) = -0.17302 0.42682
# Poissons Ratio (y) = -0.04678 0.20791
# Poissons Ratio (z) = 0.47047 0.84758
#
# Static dielectric constant tensor:
#      x y z
#    x 1.859310 0.022420 -0.043800 
#    y 0.022420 1.851540 -0.001760 
#    z -0.043800 -0.001760 1.855390 
# 
# From -- ./inp_files/267788.got.cif
#   From: 2010.05.17/outbox.cif.g08.bks.cpg/sg2_134_cif.got.tgz:267788.got - 2010.06.03 11:33:40.
