data_PCOD9054919
_publ_section_title
;
Structure prediction by ZEFSAII (Michael W. Deem and Ramdas Pophale) SiO2 
 PCOD9054919
Probable space group: P -1
;
_chemical_formula_sum "Si O2"
_cell_formula_units_Z 16
_cell_length_a 8.930977
_cell_length_b 14.642190
_cell_length_c 13.403142
_cell_angle_alpha 76.478946
_cell_angle_beta 53.287973
_cell_angle_gamma 38.323391
_cell_volume 767.604563
_symmetry_space_group_name_H-M "P -1"
_symmetry_group_IT_number 2
_symmetry_cell_setting 'triclinic'
loop_
_space_group_symop_operation_xyz
x,y,z
-x,-y,-z
loop_
_atom_site_type_symbol
_atom_site_label
_atom_site_fract_x
_atom_site_fract_y
_atom_site_fract_z
Si Si1 0.717517 0.314607 0.588782
Si Si2 0.922901 0.880950 0.034094
Si Si3 0.176956 0.103968 0.291180
Si Si4 0.493208 0.802336 0.334850
Si Si5 0.082020 0.928522 0.144039
Si Si6 0.835158 0.324273 0.188544
Si Si7 0.250702 0.311489 0.944279
Si Si8 0.676772 0.023695 0.447537
O O1 0.522003 0.304084 0.628420
O O2 0.484792 0.489030 0.687854
O O3 0.949313 0.255566 0.421673
O O4 0.972532 0.160042 0.602713
O O5 0.062635 0.849022 0.095355
O O6 0.549528 0.991605 0.163469
O O7 0.172733 0.715671 0.908625
O O8 0.897942 0.987844 0.953934
O O9 0.987178 0.186883 0.241153
O O10 0.192700 0.990848 0.357489
O O11 0.749402 0.716120 0.165399
O O12 0.517472 0.838466 0.424311
O O13 0.397569 0.802514 0.123527
O O14 0.758567 0.052093 0.311431
O O15 0.121340 0.283169 0.073050
O O16 0.000000 0.500000 0.000000
O O17 0.500000 0.000000 0.500000
#
# Coordination Sequence:
#
# PCOD9054919 Si02
#       8
#     2   2   2   2   2   2   2   2
#     4  11  24  40  61  97 129 159 213 262 318 366
#     4  11  24  39  66  91 127 168 213 255 316 375
#     4  11  21  39  65  92 123 167 216 255 304 382
#     4  11  22  38  64  91 119 164 216 253 304 376
#     4  11  23  42  62  92 124 167 213 259 306 385
#     4  12  23  39  64  98 126 165 205 270 315 365
#     4  12  22  40  63  93 127 160 210 267 316 369
#     4  11  23  41  65  89 124 168 211 253 311 378
#
# _framework density 20.844063999999999
#
# number of rings (size 3 to 8) (size 9 to 14) (size 15 to 20)
#    0.000    0.750    5.000    4.500    1.750    0.000 
#    2.250    1.250    0.000    2.250    0.000    0.000 
#    0.000    0.000    0.000    0.000    0.000    0.000 
#
# Total GULP energy -89196.350173 kJ/mol
# GULP energy per Si atom -5574.771886 kJ/mol
# Density = 2.079662 g / cm^3
# Si number density = 20.844064 Si / 1000 Ang^3
#
#
#
# Elastic Constant Matrix: (Units=GPa)
#
#
# Indices 1 2 3 4 5 6 
#
# 1 86.3613 23.6095 43.5228 10.9350 19.6513 19.7947
# 2 23.6095 41.7001 29.9555 8.9097 8.7348 19.6321
# 3 43.5228 29.9555 153.5701 14.4173 22.9266 14.2561
# 4 10.9350 8.9097 14.4173 41.7063 13.0819 8.5607
# 5 19.6513 8.7348 22.9266 13.0819 39.0985 3.7666
# 6 19.7947 19.6321 14.2561 8.5607 3.7666 18.2382
#
#
#
# Elastic Compliance Matrix: (Units=1/GPa)
#
#
# Indices 1 2 3 4 5 6 
#
# 1 0.018147 0.001557 -0.002909 0.001790 -0.006572 -0.018582
# 2 0.001557 0.053399 -0.005200 0.003033 -0.005338 -0.055427
# 3 -0.002909 -0.005200 0.008507 -0.000958 -0.002337 0.003037
# 4 0.001790 0.003033 -0.000958 0.029468 -0.009298 -0.016371
# 5 -0.006572 -0.005338 -0.002337 -0.009298 0.033381 0.012177
# 6 -0.018582 -0.055427 0.003037 -0.016371 0.012177 0.137457
#
#
# Mechanical properties :
#
#
# Convention : Reuss Voigt Hill
#
# Bulk Modulus (GPa) = 14.93626 52.86744 33.90185
# Shear Modulus (GPa) = 15.83387 32.11152 23.97269
#
# Velocity S-wave (km/s) = 2.75914 3.92925 3.39499
# Velocity P-wave (km/s) = 4.16314 6.78261 5.62741
#
# Compressibility (1/GPa) = 0.06695118
#
# Stress axis : x y z
#
# Youngs Moduli (GPa) = 55.10458 18.72684 117.54707
#
# Poissons Ratio (x) = -0.02916 0.34192
# Poissons Ratio (y) = -0.08581 0.61122
# Poissons Ratio (z) = 0.16029 0.09738
#
# Static dielectric constant tensor:
#      x y z
#    x 1.807580 0.023930 0.018350 
#    y 0.023930 1.742540 0.007400 
#    z 0.018350 0.007400 1.816500 
# 
# From -- ./inp_files/399043.got.cif
#   From: 2010.05.17/outbox.cif.g08.bks.cpg/sg2_200_cif.got.tgz:399043.got - 2010.06.03 11:33:40.
