data_PCOD9054479
_publ_section_title
;
Structure prediction by ZEFSAII (Michael W. Deem and Ramdas Pophale) SiO2 
 PCOD9054479
Probable space group: P -1
;
_chemical_formula_sum "Si O2"
_cell_formula_units_Z 16
_cell_length_a 18.718661
_cell_length_b 12.641087
_cell_length_c 8.886622
_cell_angle_alpha 59.523225
_cell_angle_beta 67.935688
_cell_angle_gamma 28.172819
_cell_volume 842.330027
_symmetry_space_group_name_H-M "P -1"
_symmetry_group_IT_number 2
_symmetry_cell_setting 'triclinic'
loop_
_space_group_symop_operation_xyz
x,y,z
-x,-y,-z
loop_
_atom_site_type_symbol
_atom_site_label
_atom_site_fract_x
_atom_site_fract_y
_atom_site_fract_z
Si Si1 0.744256 0.731964 0.445142
Si Si2 0.834097 0.251773 0.109246
Si Si3 0.530951 0.820136 0.460816
Si Si4 0.229119 0.052679 0.870715
Si Si5 0.370804 0.506141 0.630885
Si Si6 0.020248 0.770311 0.217317
Si Si7 0.348527 0.744416 0.246850
Si Si8 0.418960 0.447427 0.152815
O O1 0.620270 0.825338 0.378581
O O2 0.810227 0.753074 0.279894
O O3 0.873631 0.463958 0.599250
O O4 0.643628 0.919368 0.532719
O O5 0.755997 0.373596 0.244088
O O6 0.897252 0.286934 0.954625
O O7 0.702459 0.381887 0.007321
O O8 0.965009 0.967030 0.209905
O O9 0.556102 0.698809 0.385659
O O10 0.608101 0.638844 0.668323
O O11 0.124198 0.109266 0.812616
O O12 0.407895 0.797390 0.865743
O O13 0.228807 0.003178 0.078142
O O14 0.300054 0.714213 0.435731
O O15 0.508499 0.377726 0.710217
O O16 0.400368 0.583983 0.185177
#
# Coordination Sequence:
#
# PCOD9054479 Si02
#       8
#     2   2   2   2   2   2   2   2
#     4  10  21  39  61  85 117 162 207 235 285 359
#     4  11  21  37  63  93 115 154 193 254 296 348
#     4   9  20  38  63  88 113 155 202 255 282 341
#     4  11  20  34  61  86 119 158 196 244 284 349
#     4  10  21  35  61  94 123 144 194 259 301 336
#     4  11  23  37  60  92 122 152 201 242 295 358
#     4  10  19  34  57  94 120 144 194 248 299 344
#     4  10  17  35  65  87 112 151 208 243 288 339
#
# _framework density 18.99493
#
# number of rings (size 3 to 8) (size 9 to 14) (size 15 to 20)
#    0.000    1.750    3.750    1.500    0.000    1.000 
#    0.000    5.000    0.000    2.250    0.000    0.000 
#    0.000    0.000    0.000    0.000    0.000    0.000 
#
# Total GULP energy -89238.701616 kJ/mol
# GULP energy per Si atom -5577.418851 kJ/mol
# Density = 1.895170 g / cm^3
# Si number density = 18.994930 Si / 1000 Ang^3
#
#
#
# Elastic Constant Matrix: (Units=GPa)
#
#
# Indices 1 2 3 4 5 6 
#
# 1 67.9442 6.3765 19.1069 2.3471 -17.4928 3.0585
# 2 6.3765 55.7283 27.3183 -6.6913 3.0890 5.1266
# 3 19.1069 27.3183 78.1418 -21.4738 -3.7424 13.3592
# 4 2.3471 -6.6913 -21.4738 31.9381 3.9014 1.0376
# 5 -17.4928 3.0890 -3.7424 3.9014 22.7131 -1.2055
# 6 3.0585 5.1266 13.3592 1.0376 -1.2055 19.5994
#
#
#
# Elastic Compliance Matrix: (Units=1/GPa)
#
#
# Indices 1 2 3 4 5 6 
#
# 1 0.021343 -0.001372 -0.006845 -0.008658 0.017153 0.003207
# 2 -0.001372 0.022163 -0.007389 0.000467 -0.005417 -0.000904
# 3 -0.006845 -0.007389 0.023628 0.015770 -0.003835 -0.014175
# 4 -0.008658 0.000467 0.015770 0.044581 -0.012462 -0.012647
# 5 0.017153 -0.005417 -0.003835 -0.012462 0.059786 0.005691
# 6 0.003207 -0.000904 -0.014175 -0.012647 0.005691 0.061439
#
#
# Mechanical properties :
#
#
# Convention : Reuss Voigt Hill
#
# Bulk Modulus (GPa) = 27.83898 34.15754 30.99826
# Shear Modulus (GPa) = 18.10777 24.78430 21.44603
#
# Velocity S-wave (km/s) = 3.09090 3.61610 3.36376
# Velocity P-wave (km/s) = 5.23699 5.95453 5.60725
#
# Compressibility (1/GPa) = 0.03592086
#
# Stress axis : x y z
#
# Youngs Moduli (GPa) = 46.85466 45.12053 42.32350
#
# Poissons Ratio (x) = 0.06191 0.28970
# Poissons Ratio (y) = 0.06428 0.31273
# Poissons Ratio (z) = 0.32072 0.33340
#
# Static dielectric constant tensor:
#      x y z
#    x 1.665430 -0.004570 -0.045000 
#    y -0.004570 1.660820 -0.003640 
#    z -0.045000 -0.003640 1.710720 
# 
# From -- ./inp_files/201445.got.cif
#   From: 2010.05.17/outbox.cif.g08.bks.cpg/sg2_101_cif.got.tgz:201445.got - 2010.06.03 11:33:40.
