data_PCOD9054563
_publ_section_title
;
Structure prediction by ZEFSAII (Michael W. Deem and Ramdas Pophale) SiO2 
 PCOD9054563
Probable space group: P -1
;
_chemical_formula_sum "Si O2"
_cell_formula_units_Z 16
_cell_length_a 8.845704
_cell_length_b 15.731397
_cell_length_c 11.144378
_cell_angle_alpha 57.250779
_cell_angle_beta 122.780163
_cell_angle_gamma 74.827661
_cell_volume 680.263414
_symmetry_space_group_name_H-M "P -1"
_symmetry_group_IT_number 2
_symmetry_cell_setting 'triclinic'
loop_
_space_group_symop_operation_xyz
x,y,z
-x,-y,-z
loop_
_atom_site_type_symbol
_atom_site_label
_atom_site_fract_x
_atom_site_fract_y
_atom_site_fract_z
Si Si1 0.559216 0.968254 0.707792
Si Si2 0.571092 0.761131 0.221285
Si Si3 0.704313 0.122795 0.426175
Si Si4 0.947374 0.087848 0.789745
Si Si5 0.718274 0.499513 0.611660
Si Si6 0.671360 0.246495 0.090128
Si Si7 0.091310 0.239270 0.770123
Si Si8 0.991629 0.730375 0.887280
O O1 0.485543 0.888375 0.688811
O O2 0.849140 0.862608 0.834387
O O3 0.277284 0.157044 0.406619
O O4 0.634020 0.927505 0.909768
O O5 0.601024 0.662735 0.411173
O O6 0.808151 0.743465 0.315855
O O7 0.557726 0.704236 0.133796
O O8 0.259084 0.948897 0.963562
O O9 0.617140 0.252741 0.201753
O O10 0.716104 0.144790 0.553822
O O11 0.028332 0.944286 0.666059
O O12 0.886507 0.232751 0.672261
O O13 0.000000 0.000000 0.000000
O O14 0.500000 0.500000 0.500000
O O15 0.948675 0.377493 0.698367
O O16 0.874589 0.420862 0.867154
O O17 0.748038 0.324982 0.021976
#
# Coordination Sequence:
#
# PCOD9054563 Si02
#       8
#     2   2   2   2   2   2   2   2
#     4   9  18  32  58  87 117 142 208 256 289 340
#     4  11  21  39  59  90 125 163 200 252 300 369
#     4   9  18  33  54  85 117 154 192 252 300 352
#     4  11  25  38  59  91 130 158 199 249 323 359
#     4  11  21  36  61  90 126 162 205 245 300 365
#     4   9  16  31  55  84 112 150 202 243 287 346
#     4  11  23  39  60  96 120 160 201 258 307 355
#     4   9  18  29  53  88 111 148 195 252 289 334
#
# _framework density 23.520302000000001
#
# number of rings (size 3 to 8) (size 9 to 14) (size 15 to 20)
#    0.000    2.000    2.500    1.500   12.250    0.000 
#    0.000    0.000    0.000    1.500    3.250    0.000 
#    0.000    0.000    0.000    0.000    0.000    0.000 
#
# Total GULP energy -89282.859865 kJ/mol
# GULP energy per Si atom -5580.178742 kJ/mol
# Density = 2.346677 g / cm^3
# Si number density = 23.520302 Si / 1000 Ang^3
#
#
#
# Elastic Constant Matrix: (Units=GPa)
#
#
# Indices 1 2 3 4 5 6 
#
# 1 123.9709 12.1631 17.0956 11.8118 -18.4674 11.2232
# 2 12.1631 48.9908 15.5448 19.2046 -3.9000 8.3003
# 3 17.0956 15.5448 83.4540 11.4197 -20.8787 6.6231
# 4 11.8118 19.2046 11.4197 32.6604 -2.1217 2.2813
# 5 -18.4674 -3.9000 -20.8787 -2.1217 34.8094 2.3704
# 6 11.2232 8.3003 6.6231 2.2813 2.3704 24.9171
#
#
#
# Elastic Compliance Matrix: (Units=1/GPa)
#
#
# Indices 1 2 3 4 5 6 
#
# 1 0.009516 -0.000143 0.000124 -0.002744 0.005247 -0.004519
# 2 -0.000143 0.028568 -0.002252 -0.015342 0.001355 -0.007578
# 3 0.000124 -0.002252 0.015422 -0.003241 0.009137 -0.003977
# 4 -0.002744 -0.015342 -0.003241 0.041322 -0.002852 0.003696
# 5 0.005247 0.001355 0.009137 -0.002852 0.037553 -0.008555
# 6 -0.004519 -0.007578 -0.003977 0.003696 -0.008555 0.046226
#
#
# Mechanical properties :
#
#
# Convention : Reuss Voigt Hill
#
# Bulk Modulus (GPa) = 20.42321 38.44696 29.43508
# Shear Modulus (GPa) = 25.06669 32.58485 28.82577
#
# Velocity S-wave (km/s) = 3.26812 3.72612 3.50461
# Velocity P-wave (km/s) = 4.78987 5.90710 5.37758
#
# Compressibility (1/GPa) = 0.04896390
#
# Stress axis : x y z
#
# Youngs Moduli (GPa) = 105.09087 35.00440 64.84316
#
# Poissons Ratio (x) = 0.00499 -0.00806
# Poissons Ratio (y) = 0.01499 0.14605
# Poissons Ratio (z) = -0.01306 0.07884
#
# Static dielectric constant tensor:
#      x y z
#    x 1.993020 0.023600 -0.014260 
#    y 0.023600 1.867260 0.003230 
#    z -0.014260 0.003230 1.949940 
# 
# From -- ./inp_files/401966.got.cif
#   From: 2010.05.17/outbox.cif.g08.bks.cpg/sg2_201_cif.got.tgz:401966.got - 2010.06.03 11:33:40.
