data_PCOD9054389
_publ_section_title
;
Structure prediction by ZEFSAII (Michael W. Deem and Ramdas Pophale) SiO2 
 PCOD9054389
Probable space group: P -1
;
_chemical_formula_sum "Si O2"
_cell_formula_units_Z 16
_cell_length_a 29.047598
_cell_length_b 13.058795
_cell_length_c 9.125410
_cell_angle_alpha 152.277786
_cell_angle_beta 141.919806
_cell_angle_gamma 25.596690
_cell_volume 694.600799
_symmetry_space_group_name_H-M "P -1"
_symmetry_group_IT_number 2
_symmetry_cell_setting 'triclinic'
loop_
_space_group_symop_operation_xyz
x,y,z
-x,-y,-z
loop_
_atom_site_type_symbol
_atom_site_label
_atom_site_fract_x
_atom_site_fract_y
_atom_site_fract_z
Si Si1 0.682218 0.537202 0.715030
Si Si2 0.793936 0.771794 0.337140
Si Si3 0.130932 0.219226 0.763516
Si Si4 0.885638 0.288686 0.502516
Si Si5 0.471759 0.710560 0.060625
Si Si6 0.055733 0.712403 0.661832
Si Si7 0.340374 0.406328 0.607500
Si Si8 0.403782 0.592583 0.462934
O O1 0.634816 0.637827 0.560868
O O2 0.603495 0.635835 0.775364
O O3 0.773664 0.157441 0.464911
O O4 0.736705 0.657778 0.025191
O O5 0.869310 0.670779 0.259958
O O6 0.858044 0.609483 0.440409
O O7 0.701178 0.146151 0.565516
O O8 0.027361 0.288159 0.611656
O O9 0.142179 0.400445 0.129978
O O10 0.897501 0.250644 0.309588
O O11 0.786601 0.344507 0.375441
O O12 0.000000 0.000000 0.500000
O O13 0.586316 0.557358 0.096235
O O14 0.395934 0.067810 0.374812
O O15 0.500000 0.500000 0.000000
O O16 0.407125 0.728127 0.792917
O O17 0.000000 0.000000 0.000000
O O18 0.500000 0.500000 0.500000
#
# Coordination Sequence:
#
# PCOD9054389 Si02
#       8
#     2   2   2   2   2   2   2   2
#     4  11  20  43  73  92 137 186 230 290 350 413
#     4  11  23  44  69  95 135 188 228 285 354 421
#     4  11  23  45  73  96 138 188 236 283 350 417
#     4  12  26  46  72 108 143 182 239 290 348 426
#     4  11  23  43  72  98 134 181 235 291 348 404
#     4  12  25  44  69 103 143 183 227 286 355 421
#     4  11  23  43  72 100 132 181 237 292 341 410
#     4  11  25  42  62 101 138 180 225 286 360 417
#
# _framework density 23.034813
#
# number of rings (size 3 to 8) (size 9 to 14) (size 15 to 20)
#    0.000    0.750    5.000    3.000    0.000    2.500 
#    2.250    0.000    0.000    0.000    0.000    0.000 
#    0.000    0.000    0.000    0.000    0.000    0.000 
#
# Total GULP energy -89444.000144 kJ/mol
# GULP energy per Si atom -5590.250009 kJ/mol
# Density = 2.298238 g / cm^3
# Si number density = 23.034813 Si / 1000 Ang^3
#
#
#
# Elastic Constant Matrix: (Units=GPa)
#
#
# Indices 1 2 3 4 5 6 
#
# 1 122.5516 34.7991 -3.3307 14.5971 10.0979 3.2851
# 2 34.7991 130.0154 -5.7146 3.0815 2.5839 6.9529
# 3 -3.3307 -5.7146 33.5020 0.1007 12.2212 -1.6780
# 4 14.5971 3.0815 0.1007 32.4787 -1.9777 15.4351
# 5 10.0979 2.5839 12.2212 -1.9777 37.1764 -9.1058
# 6 3.2851 6.9529 -1.6780 15.4351 -9.1058 45.7528
#
#
#
# Elastic Compliance Matrix: (Units=1/GPa)
#
#
# Indices 1 2 3 4 5 6 
#
# 1 0.009673 -0.002377 0.001741 -0.004638 -0.003116 0.000675
# 2 -0.002377 0.008462 0.001392 0.000942 -0.000724 -0.001526
# 3 0.001741 0.001392 0.034699 -0.001253 -0.012310 -0.001091
# 4 -0.004638 0.000942 -0.001253 0.038947 0.000520 -0.012892
# 5 -0.003116 -0.000724 -0.012310 0.000520 0.033428 0.006359
# 6 0.000675 -0.001526 -0.001091 -0.012892 0.006359 0.027615
#
#
# Mechanical properties :
#
#
# Convention : Reuss Voigt Hill
#
# Bulk Modulus (GPa) = 18.40051 37.50850 27.95450
# Shear Modulus (GPa) = 29.51115 40.43593 34.97354
#
# Velocity S-wave (km/s) = 3.58320 4.19433 3.90075
# Velocity P-wave (km/s) = 5.01245 6.30676 5.69648
#
# Compressibility (1/GPa) = 0.05434632
#
# Stress axis : x y z
#
# Youngs Moduli (GPa) = 103.37957 118.16964 28.81910
#
# Poissons Ratio (x) = 0.28086 -0.05016
# Poissons Ratio (y) = 0.24571 -0.04012
# Poissons Ratio (z) = -0.17994 -0.16449
#
# Static dielectric constant tensor:
#      x y z
#    x 1.922610 -0.032490 -0.013240 
#    y -0.032490 1.857630 0.004080 
#    z -0.013240 0.004080 1.859770 
# 
# From -- ./inp_files/332634.got.cif
#   From: 2010.05.17/outbox.cif.g08.bks.cpg/sg2_167_cif.got.tgz:332634.got - 2010.06.03 11:33:40.
