data_PCOD9054243
_publ_section_title
;
Structure prediction by ZEFSAII (Michael W. Deem and Ramdas Pophale) SiO2 
 PCOD9054243
Probable space group: P -1
;
_chemical_formula_sum "Si O2"
_cell_formula_units_Z 16
_cell_length_a 9.925837
_cell_length_b 11.295892
_cell_length_c 9.929656
_cell_angle_alpha 94.687508
_cell_angle_beta 133.524912
_cell_angle_gamma 85.013255
_cell_volume 803.820127
_symmetry_space_group_name_H-M "P -1"
_symmetry_group_IT_number 2
_symmetry_cell_setting 'triclinic'
loop_
_space_group_symop_operation_xyz
x,y,z
-x,-y,-z
loop_
_atom_site_type_symbol
_atom_site_label
_atom_site_fract_x
_atom_site_fract_y
_atom_site_fract_z
Si Si1 0.427496 0.136565 0.456613
Si Si2 0.885665 0.621734 0.467558
Si Si3 0.997192 0.188790 0.224254
Si Si4 0.505959 0.504802 0.169961
Si Si5 0.812625 0.055968 0.315163
Si Si6 0.514569 0.234020 0.233646
Si Si7 0.340869 0.733180 0.144508
Si Si8 0.346886 0.189788 0.837996
O O1 0.452910 0.191628 0.332189
O O2 0.548730 0.212191 0.650779
O O3 0.209081 0.144656 0.343832
O O4 0.500000 0.000000 0.500000
O O5 0.684066 0.571978 0.353310
O O6 0.825295 0.724062 0.324633
O O7 0.000000 0.500000 0.500000
O O8 0.984477 0.692786 0.660171
O O9 0.878460 0.096670 0.218211
O O10 0.869534 0.216850 0.010111
O O11 0.518606 0.374539 0.227796
O O12 0.339650 0.590371 0.119063
O O13 0.500000 0.500000 0.000000
O O14 0.713070 0.168415 0.329964
O O15 0.676370 0.947640 0.222911
O O16 0.000000 0.000000 0.500000
O O17 0.374877 0.196813 0.016536
O O18 0.467238 0.768241 0.104743
#
# Coordination Sequence:
#
# PCOD9054243 Si02
#       8
#     2   2   2   2   2   2   2   2
#     4  12  28  50  64 100 150 186 228 287 353 415
#     4  11  21  38  67 107 139 168 231 288 345 405
#     4  12  24  44  71  98 134 193 224 283 354 411
#     4  11  20  41  72 101 133 175 229 291 344 405
#     4  12  22  39  67 100 132 172 245 290 336 406
#     4  12  25  42  70 101 135 183 232 287 351 405
#     4  11  23  46  71  94 141 183 229 281 356 411
#     4  11  22  40  69 102 133 180 232 297 334 408
#
# _framework density 19.904949999999999
#
# number of rings (size 3 to 8) (size 9 to 14) (size 15 to 20)
#    0.000    0.500    7.500    3.375    1.750    1.000 
#    2.250    0.625    0.000    0.000    0.000    0.000 
#    0.000    0.000    0.000    0.000    0.000    0.000 
#
# Total GULP energy -89278.374105 kJ/mol
# GULP energy per Si atom -5579.898382 kJ/mol
# Density = 1.985965 g / cm^3
# Si number density = 19.904950 Si / 1000 Ang^3
#
#
#
# Elastic Constant Matrix: (Units=GPa)
#
#
# Indices 1 2 3 4 5 6 
#
# 1 62.2976 39.6175 23.2845 -19.9155 -0.7051 -14.6061
# 2 39.6175 157.3860 28.1154 -18.7538 -2.1961 -10.2139
# 3 23.2845 28.1154 100.4263 -15.1193 -1.0948 -13.6488
# 4 -19.9155 -18.7538 -15.1193 32.2692 -1.9295 3.7937
# 5 -0.7051 -2.1961 -1.0948 -1.9295 38.1004 -7.3125
# 6 -14.6061 -10.2139 -13.6488 3.7937 -7.3125 30.9357
#
#
#
# Elastic Compliance Matrix: (Units=1/GPa)
#
#
# Indices 1 2 3 4 5 6 
#
# 1 0.025009 -0.004018 -0.001721 0.011394 0.002469 0.008909
# 2 -0.004018 0.007742 -0.000975 0.001573 0.000451 0.000143
# 3 -0.001721 -0.000975 0.011690 0.003463 0.001167 0.003875
# 4 0.011394 0.001573 0.003463 0.040365 0.003060 0.003200
# 5 0.002469 0.000451 0.001167 0.003060 0.028059 0.008087
# 6 0.008909 0.000143 0.003875 0.003200 0.008087 0.039807
#
#
# Mechanical properties :
#
#
# Convention : Reuss Voigt Hill
#
# Bulk Modulus (GPa) = 32.24223 55.79387 44.01805
# Shear Modulus (GPa) = 28.33870 35.53388 31.93629
#
# Velocity S-wave (km/s) = 3.77729 4.22972 4.00989
# Velocity P-wave (km/s) = 5.93777 7.20729 6.60311
#
# Compressibility (1/GPa) = 0.03101523
#
# Stress axis : x y z
#
# Youngs Moduli (GPa) = 39.98523 129.15993 85.54257
#
# Poissons Ratio (x) = 0.51893 0.14719
# Poissons Ratio (y) = 0.16065 0.08339
# Poissons Ratio (z) = 0.06880 0.12590
#
# Static dielectric constant tensor:
#      x y z
#    x 1.714970 -0.028310 0.013720 
#    y -0.028310 1.880830 -0.011360 
#    z 0.013720 -0.011360 1.751030 
# 
# From -- ./inp_files/188008.got.cif
#   From: 2010.05.17/outbox.cif.g08.bks.cpg/sg2_95_cif.got.tgz:188008.got - 2010.06.03 11:33:40.
