data_PCOD9054049
_publ_section_title
;
Structure prediction by ZEFSAII (Michael W. Deem and Ramdas Pophale) SiO2 
 PCOD9054049
Probable space group: P -1
;
_chemical_formula_sum "Si O2"
_cell_formula_units_Z 14
_cell_length_a 11.660767
_cell_length_b 11.021626
_cell_length_c 9.238096
_cell_angle_alpha 80.197655
_cell_angle_beta 39.563834
_cell_angle_gamma 101.715274
_cell_volume 630.689378
_symmetry_space_group_name_H-M "P -1"
_symmetry_group_IT_number 2
_symmetry_cell_setting 'triclinic'
loop_
_space_group_symop_operation_xyz
x,y,z
-x,-y,-z
loop_
_atom_site_type_symbol
_atom_site_label
_atom_site_fract_x
_atom_site_fract_y
_atom_site_fract_z
Si Si1 0.464457 0.522924 0.364233
Si Si2 0.697536 0.223254 0.251286
Si Si3 0.987678 0.570766 0.278533
Si Si4 0.725218 0.279574 0.772460
Si Si5 0.944090 0.078365 0.912844
Si Si6 0.580572 0.736468 0.693063
Si Si7 0.467818 0.167685 0.786793
O O1 0.500000 0.500000 0.500000
O O2 0.214909 0.441562 0.592428
O O3 0.523557 0.429811 0.225255
O O4 0.553199 0.690841 0.209592
O O5 0.495014 0.178742 0.355296
O O6 0.617597 0.198063 0.496077
O O7 0.830996 0.151537 0.091956
O O8 0.853784 0.390732 0.016814
O O9 0.888071 0.418753 0.488503
O O10 0.122590 0.696709 0.243318
O O11 0.592381 0.157368 0.805686
O O12 0.531443 0.279732 0.041791
O O13 0.165773 0.178481 0.589856
O O14 0.762648 0.967424 0.000692
O O15 0.000000 0.000000 0.000000
#
# Coordination Sequence:
#
# PCOD9054049 Si02
#       7
#     2   2   2   2   2   2   2
#     4  11  20  40  65 105 123 168 227 280 312 392
#     4  11  22  43  71  96 131 181 216 281 328 386
#     4   9  20  40  64  93 133 168 214 264 342 376
#     4   9  22  43  63  99 134 179 213 272 336 399
#     4  12  24  44  68  99 131 179 224 273 335 388
#     4  11  23  44  71  92 143 171 217 274 342 388
#     4  11  24  40  68  99 136 169 233 267 324 401
#
# _framework density 22.197932000000002
#
# number of rings (size 3 to 8) (size 9 to 14) (size 15 to 20)
#    0.000    1.429    4.286    0.429    0.000    5.143 
#    2.571    4.286    0.000    0.000    0.000    0.000 
#    0.000    0.000    0.000    0.000    0.000    0.000 
#
# Total GULP energy -77967.176175 kJ/mol
# GULP energy per Si atom -5569.084013 kJ/mol
# Density = 2.214741 g / cm^3
# Si number density = 22.197932 Si / 1000 Ang^3
#
#
#
# Elastic Constant Matrix: (Units=GPa)
#
#
# Indices 1 2 3 4 5 6 
#
# 1 101.8635 31.6649 4.9982 -0.7851 -16.2923 15.9799
# 2 31.6649 81.2485 55.9513 -3.8730 -5.9881 6.5669
# 3 4.9982 55.9513 122.8148 2.0442 -8.4349 -3.5676
# 4 -0.7851 -3.8730 2.0442 26.7787 -1.5255 -3.2966
# 5 -16.2923 -5.9881 -8.4349 -1.5255 37.2772 5.3482
# 6 15.9799 6.5669 -3.5676 -3.2966 5.3482 34.7467
#
#
#
# Elastic Compliance Matrix: (Units=1/GPa)
#
#
# Indices 1 2 3 4 5 6 
#
# 1 0.013511 -0.006107 0.002511 -0.001043 0.006292 -0.005869
# 2 -0.006107 0.021676 -0.009805 0.003424 -0.001005 -0.001815
# 3 0.002511 -0.009805 0.012729 -0.002013 0.002106 0.001490
# 4 -0.001043 0.003424 -0.002013 0.038392 0.000758 0.003152
# 5 0.006292 -0.001005 0.002106 0.000758 0.030952 -0.007180
# 6 -0.005869 -0.001815 0.001490 0.003152 -0.007180 0.033379
#
#
# Mechanical properties :
#
#
# Convention : Reuss Voigt Hill
#
# Bulk Modulus (GPa) = 47.36116 54.57283 50.96699
# Shear Modulus (GPa) = 27.10332 33.98135 30.54233
#
# Velocity S-wave (km/s) = 3.49805 3.91683 3.71335
# Velocity P-wave (km/s) = 6.13981 6.71517 6.43392
#
# Compressibility (1/GPa) = 0.02111435
#
# Stress axis : x y z
#
# Youngs Moduli (GPa) = 74.01305 46.13387 78.56301
#
# Poissons Ratio (x) = 0.28172 -0.19728
# Poissons Ratio (y) = 0.45197 0.77033
# Poissons Ratio (z) = -0.18586 0.45236
#
# Static dielectric constant tensor:
#      x y z
#    x 1.885100 -0.058810 -0.026100 
#    y -0.058810 1.933580 -0.018920 
#    z -0.026100 -0.018920 1.825870 
# 
# From -- ./inp_files/258437.got.cif
#   From: 2010.05.17/outbox.cif.g08.bks.cpg/sg2_130_cif.got.tgz:258437.got - 2010.06.03 11:33:40.
