data_PCOD9054026
_publ_section_title
;
Structure prediction by ZEFSAII (Michael W. Deem and Ramdas Pophale) SiO2 
 PCOD9054026
Probable space group: P -1
;
_chemical_formula_sum "Si O2"
_cell_formula_units_Z 14
_cell_length_a 11.292019
_cell_length_b 13.005715
_cell_length_c 16.619653
_cell_angle_alpha 138.622115
_cell_angle_beta 153.161384
_cell_angle_gamma 35.113124
_cell_volume 631.867562
_symmetry_space_group_name_H-M "P -1"
_symmetry_group_IT_number 2
_symmetry_cell_setting 'triclinic'
loop_
_space_group_symop_operation_xyz
x,y,z
-x,-y,-z
loop_
_atom_site_type_symbol
_atom_site_label
_atom_site_fract_x
_atom_site_fract_y
_atom_site_fract_z
Si Si1 0.665515 0.437487 0.817729
Si Si2 0.658490 0.035134 0.799031
Si Si3 0.330371 0.970429 0.711029
Si Si4 0.449177 0.419116 0.840085
Si Si5 0.792850 0.725089 0.069373
Si Si6 0.254680 0.437518 0.306462
Si Si7 0.794989 0.662470 0.601752
O O1 0.679899 0.394677 0.895474
O O2 0.981588 0.322712 0.896321
O O3 0.439039 0.382939 0.608227
O O4 0.568686 0.647042 0.870423
O O5 0.479528 0.036052 0.771253
O O6 0.479113 0.228771 0.763941
O O7 0.682313 0.872136 0.664954
O O8 0.000000 0.000000 0.000000
O O9 0.311480 0.080693 0.844230
O O10 0.561330 0.760097 0.735739
O O11 0.000000 0.000000 0.500000
O O12 0.115297 0.562375 0.693317
O O13 0.500000 0.500000 0.000000
O O14 0.996546 0.588310 0.183921
O O15 0.500000 0.500000 0.500000
O O16 0.155834 0.413537 0.321551
#
# Coordination Sequence:
#
# PCOD9054026 Si02
#       7
#     2   2   2   2   2   2   2
#     4  11  25  43  65  97 141 175 218 280 334 398
#     4  11  24  41  68 103 131 170 229 283 320 399
#     4  11  22  39  69 102 128 169 228 274 328 395
#     4  12  24  44  71  93 127 180 226 270 342 398
#     4  11  23  44  64  97 140 174 216 278 333 391
#     4  11  20  39  72  97 129 173 223 272 328 396
#     4  11  23  43  65 101 133 172 223 270 333 396
#
# _framework density 22.156542000000002
#
# number of rings (size 3 to 8) (size 9 to 14) (size 15 to 20)
#    0.000    0.857    4.286    3.857    2.000    0.571 
#    0.000    5.714    0.000    0.000    0.000    0.000 
#    0.000    0.000    0.000    0.000    0.000    0.000 
#
# Total GULP energy -78328.154595 kJ/mol
# GULP energy per Si atom -5594.868185 kJ/mol
# Density = 2.210611 g / cm^3
# Si number density = 22.156542 Si / 1000 Ang^3
#
#
#
# Elastic Constant Matrix: (Units=GPa)
#
#
# Indices 1 2 3 4 5 6 
#
# 1 121.4100 28.5494 38.1051 23.2655 4.7300 -9.0152
# 2 28.5494 71.3741 21.5006 30.8586 -2.3527 -15.6810
# 3 38.1051 21.5006 161.7237 20.4045 2.2803 -17.2281
# 4 23.2655 30.8586 20.4045 44.2389 -0.8622 -6.4607
# 5 4.7300 -2.3527 2.2803 -0.8622 37.0642 2.1819
# 6 -9.0152 -15.6810 -17.2281 -6.4607 2.1819 26.2023
#
#
#
# Elastic Compliance Matrix: (Units=1/GPa)
#
#
# Indices 1 2 3 4 5 6 
#
# 1 0.009896 -0.002159 -0.001609 -0.002918 -0.001395 0.000452
# 2 -0.002159 0.022753 0.000188 -0.013401 0.000830 0.009624
# 3 -0.001609 0.000188 0.007213 -0.002062 -0.000500 0.003835
# 4 -0.002918 -0.013401 -0.002062 0.034156 0.000561 -0.002004
# 5 -0.001395 0.000830 -0.000500 0.000561 0.027399 -0.002456
# 6 0.000452 0.009624 0.003835 -0.002004 -0.002456 0.046312
#
#
# Mechanical properties :
#
#
# Convention : Reuss Voigt Hill
#
# Bulk Modulus (GPa) = 30.57812 58.97980 44.77896
# Shear Modulus (GPa) = 30.15859 39.25795 34.70827
#
# Velocity S-wave (km/s) = 3.69339 4.21389 3.96220
# Velocity P-wave (km/s) = 5.65854 7.09600 6.41765
#
# Compressibility (1/GPa) = 0.03270312
#
# Stress axis : x y z
#
# Youngs Moduli (GPa) = 101.04896 43.94941 138.63565
#
# Poissons Ratio (x) = 0.09489 0.22303
# Poissons Ratio (y) = 0.21818 -0.02608
# Poissons Ratio (z) = 0.16256 -0.00827
#
# Static dielectric constant tensor:
#      x y z
#    x 1.831150 -0.001120 -0.040930 
#    y -0.001120 1.796080 0.026210 
#    z -0.040930 0.026210 2.528470 
# 
# From -- ./inp_files/595550.got.cif
#   From: 2010.05.17/outbox.cif.g08.bks.cpg/sg2_298_cif.got.tgz:595550.got - 2010.06.03 11:33:40.
