data_PCOD9054544
_publ_section_title
;
Structure prediction by ZEFSAII (Michael W. Deem and Ramdas Pophale) SiO2 
 PCOD9054544
Probable space group: P -1
;
_chemical_formula_sum "Si O2"
_cell_formula_units_Z 16
_cell_length_a 12.389948
_cell_length_b 22.365615
_cell_length_c 5.147972
_cell_angle_alpha 84.401450
_cell_angle_beta 97.934226
_cell_angle_gamma 35.253192
_cell_volume 758.333379
_symmetry_space_group_name_H-M "P -1"
_symmetry_group_IT_number 2
_symmetry_cell_setting 'triclinic'
loop_
_space_group_symop_operation_xyz
x,y,z
-x,-y,-z
loop_
_atom_site_type_symbol
_atom_site_label
_atom_site_fract_x
_atom_site_fract_y
_atom_site_fract_z
Si Si1 0.660746 0.394767 0.897405
Si Si2 0.952364 0.592508 0.514398
Si Si3 0.704832 0.489425 0.559475
Si Si4 0.746755 0.145564 0.823445
Si Si5 0.243155 0.941687 0.628304
Si Si6 0.691913 0.718405 0.888470
Si Si7 0.122190 0.816821 0.780435
Si Si8 0.466970 0.330128 0.289761
O O1 0.750370 0.403411 0.731933
O O2 0.516334 0.416875 0.678851
O O3 0.500000 0.500000 0.000000
O O4 0.837042 0.272382 0.127354
O O5 0.848724 0.647307 0.734956
O O6 0.000000 0.500000 0.500000
O O7 0.142481 0.548720 0.564820
O O8 0.796053 0.687797 0.202032
O O9 0.679306 0.547476 0.761859
O O10 0.811334 0.081449 0.607539
O O11 0.526492 0.271707 0.609781
O O12 0.754541 0.093604 0.079547
O O13 0.865575 0.148841 0.965513
O O14 0.478132 0.849867 0.702416
O O15 0.080115 0.069656 0.483504
O O16 0.629941 0.677035 0.905215
O O17 0.323333 0.744539 0.725834
#
# Coordination Sequence:
#
# PCOD9054544 Si02
#       8
#     2   2   2   2   2   2   2   2
#     4  11  25  42  66  93 128 171 219 271 320 377
#     4  12  26  40  67  94 128 173 213 261 327 381
#     4  11  25  42  63  95 130 171 216 270 322 380
#     4  11  21  36  55  93 129 170 199 254 322 387
#     4  11  25  37  62  91 138 169 209 259 326 389
#     4  11  24  40  59  99 129 168 212 256 320 393
#     4  12  23  37  64  92 130 174 211 263 326 384
#     4  11  22  36  65  92 137 166 210 260 324 400
#
# _framework density 21.0989
#
# number of rings (size 3 to 8) (size 9 to 14) (size 15 to 20)
#    0.000    0.750    6.250    2.625    5.250    0.000 
#    0.000    0.000    0.000    1.500    0.000    0.000 
#    0.000    0.000    0.000    0.000    0.000    0.000 
#
# Total GULP energy -89411.771546 kJ/mol
# GULP energy per Si atom -5588.235722 kJ/mol
# Density = 2.105088 g / cm^3
# Si number density = 21.098900 Si / 1000 Ang^3
#
#
#
# Elastic Constant Matrix: (Units=GPa)
#
#
# Indices 1 2 3 4 5 6 
#
# 1 93.5944 32.8951 26.5517 -16.4406 -21.2778 -14.6690
# 2 32.8951 87.2781 36.4196 -17.7853 -20.0970 -4.6355
# 3 26.5517 36.4196 108.7474 -5.0278 -12.9228 3.6314
# 4 -16.4406 -17.7853 -5.0278 40.1293 -0.2113 -8.3162
# 5 -21.2778 -20.0970 -12.9228 -0.2113 29.1287 -1.4678
# 6 -14.6690 -4.6355 3.6314 -8.3162 -1.4678 28.7343
#
#
#
# Elastic Compliance Matrix: (Units=1/GPa)
#
#
# Indices 1 2 3 4 5 6 
#
# 1 0.018213 0.000005 -0.002916 0.009898 0.012751 0.013183
# 2 0.000005 0.017990 -0.004556 0.008826 0.010791 0.006586
# 3 -0.002916 -0.004556 0.011403 -0.002715 -0.000460 -0.004474
# 4 0.009898 0.008826 -0.002715 0.036350 0.013287 0.018019
# 5 0.012751 0.010791 -0.000460 0.013287 0.051727 0.014796
# 6 0.013183 0.006586 -0.004474 0.018019 0.014796 0.049131
#
#
# Mechanical properties :
#
#
# Convention : Reuss Voigt Hill
#
# Bulk Modulus (GPa) = 30.60648 53.48366 42.04507
# Shear Modulus (GPa) = 23.73743 32.51535 28.12639
#
# Velocity S-wave (km/s) = 3.35782 3.92993 3.65509
# Velocity P-wave (km/s) = 5.43792 6.78208 6.14685
#
# Compressibility (1/GPa) = 0.03267282
#
# Stress axis : x y z
#
# Youngs Moduli (GPa) = 54.90455 55.58753 87.69942
#
# Poissons Ratio (x) = -0.00030 0.25575
# Poissons Ratio (y) = -0.00030 0.39953
# Poissons Ratio (z) = 0.16011 0.25324
#
# Static dielectric constant tensor:
#      x y z
#    x 1.783090 -0.029260 -0.007760 
#    y -0.029260 1.843780 0.015630 
#    z -0.007760 0.015630 1.860610 
# 
# From -- ./inp_files/82620.got.cif
#   From: 2010.05.17/outbox.cif.g08.bks.cpg/sg2_42_cif.got.tgz:82620.got - 2010.06.03 11:33:40.
