data_PCOD9054822
_publ_section_title
;
Structure prediction by ZEFSAII (Michael W. Deem and Ramdas Pophale) SiO2 
 PCOD9054822
Probable space group: P -1
;
_chemical_formula_sum "Si O2"
_cell_formula_units_Z 14
_cell_length_a 9.107341
_cell_length_b 9.495070
_cell_length_c 10.688106
_cell_angle_alpha 41.948453
_cell_angle_beta 105.393406
_cell_angle_gamma 110.541002
_cell_volume 578.531827
_symmetry_space_group_name_H-M "P -1"
_symmetry_group_IT_number 2
_symmetry_cell_setting 'triclinic'
loop_
_space_group_symop_operation_xyz
x,y,z
-x,-y,-z
loop_
_atom_site_type_symbol
_atom_site_label
_atom_site_fract_x
_atom_site_fract_y
_atom_site_fract_z
Si Si1 0.997217 0.483035 0.232977
Si Si2 0.319174 0.968386 0.951257
Si Si3 0.101642 0.125387 0.187260
Si Si4 0.602692 0.539709 0.369319
Si Si5 0.844684 0.283320 0.674643
Si Si6 0.192881 0.908264 0.697490
Si Si7 0.694762 0.659827 0.705415
O O1 0.023708 0.522652 0.360354
O O2 0.158147 0.434435 0.245907
O O3 0.857032 0.287606 0.281891
O O4 0.957654 0.697798 0.024269
O O5 0.295600 0.213405 0.776712
O O6 0.277200 0.865067 0.872927
O O7 0.500000 0.000000 0.000000
O O8 0.233476 0.834048 0.136845
O O9 0.262863 0.252984 0.203265
O O10 0.972970 0.054902 0.314270
O O11 0.108976 0.911750 0.257210
O O12 0.500000 0.500000 0.500000
O O13 0.715557 0.377200 0.511068
O O14 0.474079 0.492692 0.260932
O O15 0.294264 0.123533 0.516805
#
# Coordination Sequence:
#
# PCOD9054822 Si02
#       7
#     2   2   2   2   2   2   2
#     4  11  21  38  67  93 128 168 211 261 326 384
#     4  12  23  40  71  98 126 170 228 263 316 392
#     4  11  25  40  65  96 138 166 207 273 334 379
#     4  12  23  43  70  95 126 177 218 271 315 377
#     4  12  25  45  64  99 137 168 214 273 325 386
#     4  11  22  40  67 101 122 173 218 265 325 386
#     4  11  22  44  67  96 128 168 227 266 312 393
#
# _framework density 24.199189000000001
#
# number of rings (size 3 to 8) (size 9 to 14) (size 15 to 20)
#    0.000    0.571    5.714    3.857    2.000    0.571 
#    5.143    4.286    0.000    0.000    0.000    0.000 
#    0.000    0.000    0.000    0.000    0.000    0.000 
#
# Total GULP energy -78423.504368 kJ/mol
# GULP energy per Si atom -5601.678883 kJ/mol
# Density = 2.414411 g / cm^3
# Si number density = 24.199189 Si / 1000 Ang^3
#
#
#
# Elastic Constant Matrix: (Units=GPa)
#
#
# Indices 1 2 3 4 5 6 
#
# 1 52.3489 41.0320 14.1033 1.0481 17.8636 5.6901
# 2 41.0320 210.7382 32.0505 7.0797 31.4795 11.3705
# 3 14.1033 32.0505 107.3732 -8.6435 32.0149 1.3334
# 4 1.0481 7.0797 -8.6435 51.8127 6.1126 13.0011
# 5 17.8636 31.4795 32.0149 6.1126 23.1956 -0.4066
# 6 5.6901 11.3705 1.3334 13.0011 -0.4066 38.5748
#
#
#
# Elastic Compliance Matrix: (Units=1/GPa)
#
#
# Indices 1 2 3 4 5 6 
#
# 1 0.030159 -0.002074 0.006485 0.006031 -0.031064 -0.006422
# 2 -0.002074 0.006384 0.001111 0.000907 -0.008874 -0.002013
# 3 0.006485 0.001111 0.019568 0.008518 -0.035846 -0.005209
# 4 0.006031 0.000907 0.008518 0.026015 -0.024671 -0.010480
# 5 -0.031064 -0.008874 -0.035846 -0.024671 0.135374 0.018179
# 6 -0.006422 -0.002013 -0.005209 -0.010480 0.018179 0.031368
#
#
# Mechanical properties :
#
#
# Convention : Reuss Voigt Hill
#
# Bulk Modulus (GPa) = 14.89097 60.53690 37.71394
# Shear Modulus (GPa) = 19.21527 41.60159 30.40843
#
# Velocity S-wave (km/s) = 2.82094 4.15074 3.54869
# Velocity P-wave (km/s) = 4.09599 6.93123 5.69294
#
# Compressibility (1/GPa) = 0.06715477
#
# Stress axis : x y z
#
# Youngs Moduli (GPa) = 33.15769 156.64520 51.10284
#
# Poissons Ratio (x) = 0.32493 -0.33142
# Poissons Ratio (y) = 0.06878 -0.05676
# Poissons Ratio (z) = -0.21504 -0.17399
#
# Static dielectric constant tensor:
#      x y z
#    x 1.935130 0.043430 -0.050810 
#    y 0.043430 1.993880 -0.028210 
#    z -0.050810 -0.028210 2.000310 
# 
# From -- ./inp_files/285650.got.cif
#   From: 2010.05.17/outbox.cif.g08.bks.cpg/sg2_143_cif.got.tgz:285650.got - 2010.06.03 11:33:40.
