data_PCOD9054068
_publ_section_title
;
Structure prediction by ZEFSAII (Michael W. Deem and Ramdas Pophale) SiO2 
 PCOD9054068
Probable space group: P -1
;
_chemical_formula_sum "Si O2"
_cell_formula_units_Z 14
_cell_length_a 12.965901
_cell_length_b 9.272905
_cell_length_c 8.879203
_cell_angle_alpha 97.184232
_cell_angle_beta 118.301351
_cell_angle_gamma 130.221691
_cell_volume 550.613160
_symmetry_space_group_name_H-M "P -1"
_symmetry_group_IT_number 2
_symmetry_cell_setting 'triclinic'
loop_
_space_group_symop_operation_xyz
x,y,z
-x,-y,-z
loop_
_atom_site_type_symbol
_atom_site_label
_atom_site_fract_x
_atom_site_fract_y
_atom_site_fract_z
Si Si1 0.076878 0.239335 0.572504
Si Si2 0.664438 0.647777 0.765183
Si Si3 0.972468 0.208183 0.040522
Si Si4 0.681263 0.124833 0.825813
Si Si5 0.635888 0.387903 0.930635
Si Si6 0.730441 0.108393 0.214097
Si Si7 0.735420 0.392086 0.468521
O O1 0.248418 0.441893 0.593240
O O2 0.900767 0.166951 0.386399
O O3 0.164999 0.376341 0.810367
O O4 0.000000 0.000000 0.500000
O O5 0.500000 0.500000 0.500000
O O6 0.564140 0.462542 0.809683
O O7 0.850444 0.723555 0.872321
O O8 0.786494 0.917067 0.920594
O O9 0.085052 0.417925 0.268115
O O10 0.849196 0.205886 0.860989
O O11 0.673438 0.290199 0.831939
O O12 0.466529 0.840108 0.613537
O O13 0.711214 0.127035 0.027629
O O14 0.471742 0.166673 0.903772
O O15 0.759176 0.284296 0.352997
#
# Coordination Sequence:
#
# PCOD9054068 Si02
#       7
#     2   2   2   2   2   2   2
#     4  12  23  35  61 101 136 170 213 259 326 399
#     4  11  27  50  67  88 133 181 225 276 322 381
#     4  11  24  43  72  94 126 179 220 269 333 380
#     4  11  21  41  70 101 134 173 212 267 333 391
#     4  11  24  43  66  98 133 172 223 268 324 394
#     4  11  22  40  66 100 143 172 201 267 334 399
#     4  11  20  40  66  98 136 170 208 265 332 390
#
# _framework density 25.426199
#
# number of rings (size 3 to 8) (size 9 to 14) (size 15 to 20)
#    0.000    0.857    4.286    3.857    0.000    5.714 
#    0.000    6.429    0.000    0.000    0.000    0.000 
#    0.000    0.000    0.000    0.000    0.000    0.000 
#
# Total GULP energy -78305.802612 kJ/mol
# GULP energy per Si atom -5593.271615 kJ/mol
# Density = 2.536833 g / cm^3
# Si number density = 25.426199 Si / 1000 Ang^3
#
#
#
# Elastic Constant Matrix: (Units=GPa)
#
#
# Indices 1 2 3 4 5 6 
#
# 1 66.1252 14.7131 37.5218 8.3553 12.7548 -10.1454
# 2 14.7131 144.8912 62.2820 17.3016 -8.8028 -24.0700
# 3 37.5218 62.2820 176.4004 17.1430 0.2285 -11.7702
# 4 8.3553 17.3016 17.1430 51.2683 -5.0504 -4.9606
# 5 12.7548 -8.8028 0.2285 -5.0504 30.0812 -5.9467
# 6 -10.1454 -24.0700 -11.7702 -4.9606 -5.9467 28.4107
#
#
#
# Elastic Compliance Matrix: (Units=1/GPa)
#
#
# Indices 1 2 3 4 5 6 
#
# 1 0.019590 -0.000056 -0.003681 -0.002414 -0.008044 0.003317
# 2 -0.000056 0.009820 -0.002824 -0.001184 0.004266 0.007816
# 3 -0.003681 -0.002824 0.007498 -0.000984 0.000375 -0.000694
# 4 -0.002414 -0.001184 -0.000984 0.021332 0.004750 0.002446
# 5 -0.008044 0.004266 0.000375 0.004750 0.040723 0.010250
# 6 0.003317 0.007816 -0.000694 0.002446 0.010250 0.045289
#
#
# Mechanical properties :
#
#
# Convention : Reuss Voigt Hill
#
# Bulk Modulus (GPa) = 42.04280 68.49451 55.26866
# Shear Modulus (GPa) = 30.24746 40.14537 35.19642
#
# Velocity S-wave (km/s) = 3.45283 3.97785 3.72460
# Velocity P-wave (km/s) = 5.69799 6.93504 6.34673
#
# Compressibility (1/GPa) = 0.02378529
#
# Stress axis : x y z
#
# Youngs Moduli (GPa) = 51.04771 101.82844 133.37213
#
# Poissons Ratio (x) = 0.00575 0.49088
# Poissons Ratio (y) = 0.00288 0.37668
# Poissons Ratio (z) = 0.18788 0.28759
#
# Static dielectric constant tensor:
#      x y z
#    x 2.165430 0.091240 0.032440 
#    y 0.091240 2.031500 0.001200 
#    z 0.032440 0.001200 1.962930 
# 
# From -- ./inp_files/315920.got.cif
#   From: 2010.05.17/outbox.cif.g08.bks.cpg/sg2_158_cif.got.tgz:315920.got - 2010.06.03 11:33:40.
