data_PCOD9054488
_publ_section_title
;
Structure prediction by ZEFSAII (Michael W. Deem and Ramdas Pophale) SiO2 
 PCOD9054488
Probable space group: P -1
;
_chemical_formula_sum "Si O2"
_cell_formula_units_Z 14
_cell_length_a 9.152373
_cell_length_b 15.552049
_cell_length_c 15.930712
_cell_angle_alpha 25.828595
_cell_angle_beta 58.264938
_cell_angle_gamma 41.048188
_cell_volume 548.457280
_symmetry_space_group_name_H-M "P -1"
_symmetry_group_IT_number 2
_symmetry_cell_setting 'triclinic'
loop_
_space_group_symop_operation_xyz
x,y,z
-x,-y,-z
loop_
_atom_site_type_symbol
_atom_site_label
_atom_site_fract_x
_atom_site_fract_y
_atom_site_fract_z
Si Si1 0.464755 0.921523 0.932481
Si Si2 0.444893 0.950385 0.470652
Si Si3 0.674773 0.497737 0.394533
Si Si4 0.919355 0.297253 0.255406
Si Si5 0.319158 0.616259 0.034251
Si Si6 0.136701 0.196465 0.639922
Si Si7 0.130166 0.084014 0.200165
O O1 0.505542 0.786440 0.130699
O O2 0.643107 0.617831 0.088769
O O3 0.612800 0.004437 0.809674
O O4 0.183322 0.177976 0.743225
O O5 0.516499 0.658696 0.711582
O O6 0.633392 0.876420 0.408665
O O7 0.500000 0.000000 0.500000
O O8 0.139328 0.225576 0.302826
O O9 0.500000 0.500000 0.500000
O O10 0.872595 0.444079 0.444198
O O11 0.826983 0.192489 0.563771
O O12 0.972098 0.288254 0.149926
O O13 0.000000 0.000000 0.500000
O O14 0.500000 0.500000 0.000000
O O15 0.062433 0.719538 0.992415
O O16 0.210800 0.906833 0.851681
#
# Coordination Sequence:
#
# PCOD9054488 Si02
#       7
#     2   2   2   2   2   2   2
#     4  12  24  42  68  98 134 170 214 267 331 395
#     4  12  22  35  57  92 137 172 206 254 311 395
#     4  11  27  49  68  91 127 172 229 283 321 376
#     4  12  22  37  62 100 138 168 203 254 325 397
#     4  11  21  34  56  90 132 172 209 250 315 391
#     4  11  24  41  63  94 125 170 216 264 330 383
#     4  11  23  41  63  95 132 171 213 265 330 388
#
# _framework density 25.526145
#
# number of rings (size 3 to 8) (size 9 to 14) (size 15 to 20)
#    0.000    0.571    4.286    5.571    0.000    1.143 
#    0.000    0.714    0.000    0.000    0.000    0.000 
#    0.000    0.000    0.000    0.000    0.000    0.000 
#
# Total GULP energy -78363.296913 kJ/mol
# GULP energy per Si atom -5597.378351 kJ/mol
# Density = 2.546805 g / cm^3
# Si number density = 25.526145 Si / 1000 Ang^3
#
#
#
# Elastic Constant Matrix: (Units=GPa)
#
#
# Indices 1 2 3 4 5 6 
#
# 1 152.9631 16.5012 43.8310 19.6534 29.8403 11.8321
# 2 16.5012 59.9770 7.8493 13.3344 12.0907 5.6995
# 3 43.8310 7.8493 148.5284 22.6719 11.9737 2.5450
# 4 19.6534 13.3344 22.6719 38.0594 2.2857 -0.0757
# 5 29.8403 12.0907 11.9737 2.2857 61.1808 0.2130
# 6 11.8321 5.6995 2.5450 -0.0757 0.2130 31.3680
#
#
#
# Elastic Compliance Matrix: (Units=1/GPa)
#
#
# Indices 1 2 3 4 5 6 
#
# 1 0.008358 -0.000429 -0.001654 -0.002973 -0.003547 -0.002924
# 2 -0.000429 0.019202 0.000448 -0.006574 -0.003416 -0.003356
# 3 -0.001654 0.000448 0.007855 -0.003942 -0.000672 -0.000100
# 4 -0.002973 -0.006574 -0.003942 0.032329 0.002304 0.002698
# 5 -0.003547 -0.003416 -0.000672 0.002304 0.018789 0.001891
# 6 -0.002924 -0.003356 -0.000100 0.002698 0.001891 0.033594
#
#
# Mechanical properties :
#
#
# Convention : Reuss Voigt Hill
#
# Bulk Modulus (GPa) = 31.10954 55.31461 43.21208
# Shear Modulus (GPa) = 37.28295 45.67411 41.47853
#
# Velocity S-wave (km/s) = 3.82590 4.23461 4.03543
# Velocity P-wave (km/s) = 5.63298 6.75471 6.21918
#
# Compressibility (1/GPa) = 0.03214448
#
# Stress axis : x y z
#
# Youngs Moduli (GPa) = 119.64931 52.07893 127.31323
#
# Poissons Ratio (x) = 0.02235 0.21056
# Poissons Ratio (y) = 0.05135 -0.05708
# Poissons Ratio (z) = 0.19789 -0.02335
#
# Static dielectric constant tensor:
#      x y z
#    x 2.026110 0.085090 0.002870 
#    y 0.085090 2.008840 -0.006420 
#    z 0.002870 -0.006420 2.042310 
# 
# From -- ./inp_files/177013.got.cif
#   From: 2010.05.17/outbox.cif.g08.bks.cpg/sg2_89_cif.got.tgz:177013.got - 2010.06.03 11:33:40.
