data_PCOD9054396
_publ_section_title
;
Structure prediction by ZEFSAII (Michael W. Deem and Ramdas Pophale) SiO2 
 PCOD9054396
Probable space group: P -1
;
_chemical_formula_sum "Si O2"
_cell_formula_units_Z 14
_cell_length_a 9.210815
_cell_length_b 8.779142
_cell_length_c 12.682463
_cell_angle_alpha 54.497735
_cell_angle_beta 101.358959
_cell_angle_gamma 129.848972
_cell_volume 615.286472
_symmetry_space_group_name_H-M "P -1"
_symmetry_group_IT_number 2
_symmetry_cell_setting 'triclinic'
loop_
_space_group_symop_operation_xyz
x,y,z
-x,-y,-z
loop_
_atom_site_type_symbol
_atom_site_label
_atom_site_fract_x
_atom_site_fract_y
_atom_site_fract_z
Si Si1 0.944520 0.274745 0.658289
Si Si2 0.150606 0.009434 0.450055
Si Si3 0.231517 0.394279 0.840678
Si Si4 0.583985 0.463300 0.792014
Si Si5 0.546072 0.087340 0.780733
Si Si6 0.376550 0.912050 0.622083
Si Si7 0.179965 0.506360 0.006174
O O1 0.750935 0.163930 0.743771
O O2 0.000000 0.500000 0.500000
O O3 0.099214 0.325589 0.746356
O O4 0.904227 0.087625 0.637749
O O5 0.350542 0.297994 0.359364
O O6 0.175335 0.836787 0.587450
O O7 0.000000 0.000000 0.500000
O O8 0.376587 0.340542 0.867617
O O9 0.364632 0.691216 0.746799
O O10 0.134456 0.335643 0.966319
O O11 0.569639 0.269646 0.795245
O O12 0.760496 0.572540 0.855467
O O13 0.467022 0.105301 0.651560
O O14 0.377237 0.801569 0.907901
O O15 0.500000 0.000000 0.500000
O O16 0.000000 0.500000 0.000000
#
# Coordination Sequence:
#
# PCOD9054396 Si02
#       7
#     2   2   2   2   2   2   2
#     4  12  23  44  69 102 140 184 220 270 348 408
#     4  12  26  39  67 101 142 172 233 279 337 404
#     4  11  24  42  69  97 134 178 226 281 333 401
#     4  12  26  44  67 105 134 178 234 284 331 405
#     4  11  25  43  71  96 138 179 231 274 344 404
#     4  11  20  44  63  94 138 184 212 277 347 397
#     4  11  26  49  73  93 134 184 230 282 347 398
#
# _framework density 22.753627000000002
#
# number of rings (size 3 to 8) (size 9 to 14) (size 15 to 20)
#    0.000    0.571    4.286    3.429    6.000    0.571 
#    0.000    2.143    0.000    0.000    0.000    0.000 
#    0.000    0.000    0.000    0.000    0.000    0.000 
#
# Total GULP energy -78137.891235 kJ/mol
# GULP energy per Si atom -5581.277945 kJ/mol
# Density = 2.270184 g / cm^3
# Si number density = 22.753627 Si / 1000 Ang^3
#
#
#
# Elastic Constant Matrix: (Units=GPa)
#
#
# Indices 1 2 3 4 5 6 
#
# 1 190.8309 50.8401 31.0067 30.1517 -19.6722 -10.1878
# 2 50.8401 103.1684 24.6840 31.1351 -5.8749 -17.4685
# 3 31.0067 24.6840 54.6179 13.9312 2.8434 -6.8013
# 4 30.1517 31.1351 13.9312 56.5433 4.9198 -3.8132
# 5 -19.6722 -5.8749 2.8434 4.9198 34.5816 10.3820
# 6 -10.1878 -17.4685 -6.8013 -3.8132 10.3820 40.7583
#
#
#
# Elastic Compliance Matrix: (Units=1/GPa)
#
#
# Indices 1 2 3 4 5 6 
#
# 1 0.007020 -0.001948 -0.002837 -0.002428 0.004521 -0.000933
# 2 -0.001948 0.013893 -0.003283 -0.005619 0.001085 0.004117
# 3 -0.002837 -0.003283 0.022382 -0.001618 -0.004572 0.002632
# 4 -0.002428 -0.005619 -0.001618 0.022975 -0.005555 0.000279
# 5 0.004521 0.001085 -0.004572 -0.005555 0.035457 -0.008719
# 6 -0.000933 0.004117 0.002632 0.000279 -0.008719 0.028753
#
#
# Mechanical properties :
#
#
# Convention : Reuss Voigt Hill
#
# Bulk Modulus (GPa) = 36.82162 62.40876 49.61519
# Shear Modulus (GPa) = 32.11900 42.51573 37.31737
#
# Velocity S-wave (km/s) = 3.76120 4.32733 4.05416
# Velocity P-wave (km/s) = 5.92284 7.24261 6.61572
#
# Compressibility (1/GPa) = 0.02715795
#
# Stress axis : x y z
#
# Youngs Moduli (GPa) = 142.44605 71.97691 44.67872
#
# Poissons Ratio (x) = 0.14024 0.12676
# Poissons Ratio (y) = 0.27754 0.14670
# Poissons Ratio (z) = 0.40413 0.23633
#
# Static dielectric constant tensor:
#      x y z
#    x 1.797760 0.087940 -0.149280 
#    y 0.087940 1.869730 0.002320 
#    z -0.149280 0.002320 2.076130 
# 
# From -- ./inp_files/222637.got.cif
#   From: 2010.05.17/outbox.cif.g08.bks.cpg/sg2_112_cif.got.tgz:222637.got - 2010.06.03 11:33:40.
