data_PCOD9054423
_publ_section_title
;
Structure prediction by ZEFSAII (Michael W. Deem and Ramdas Pophale) SiO2 
 PCOD9054423
Probable space group: P -1
;
_chemical_formula_sum "Si O2"
_cell_formula_units_Z 16
_cell_length_a 20.865440
_cell_length_b 12.613582
_cell_length_c 17.328772
_cell_angle_alpha 150.653019
_cell_angle_beta 160.540846
_cell_angle_gamma 31.767614
_cell_volume 733.340622
_symmetry_space_group_name_H-M "P -1"
_symmetry_group_IT_number 2
_symmetry_cell_setting 'triclinic'
loop_
_space_group_symop_operation_xyz
x,y,z
-x,-y,-z
loop_
_atom_site_type_symbol
_atom_site_label
_atom_site_fract_x
_atom_site_fract_y
_atom_site_fract_z
Si Si1 0.750207 0.100237 0.557690
Si Si2 0.937060 0.168303 0.140655
Si Si3 0.797437 0.498357 0.608902
Si Si4 0.782385 0.592565 0.930455
Si Si5 0.755257 0.789472 0.604704
Si Si6 0.600240 0.162272 0.266963
Si Si7 0.685110 0.860226 0.844435
Si Si8 0.392725 0.716047 0.056744
O O1 0.789128 0.348083 0.751956
O O2 0.723419 0.036434 0.397871
O O3 0.542386 0.118656 0.376844
O O4 0.912733 0.959963 0.707191
O O5 0.067278 0.273039 0.293845
O O6 0.768910 0.332132 0.097019
O O7 0.823480 0.991666 0.856675
O O8 0.722109 0.601637 0.507743
O O9 0.713794 0.299136 0.425573
O O10 0.746657 0.695543 0.738902
O O11 0.028696 0.424189 0.813182
O O12 0.576788 0.670256 0.787692
O O13 0.799540 0.754708 0.982094
O O14 0.554227 0.835914 0.358476
O O15 0.500000 0.000000 0.000000
O O16 0.714252 0.102663 0.009030
O O17 0.500000 0.500000 0.000000
#
# Coordination Sequence:
#
# PCOD9054423 Si02
#       8
#     2   2   2   2   2   2   2   2
#     4  11  20  44  73 102 134 180 230 289 343 407
#     4  11  24  44  73 101 137 182 239 295 334 405
#     4  12  23  40  75 102 132 183 232 285 343 413
#     4  11  22  41  71 106 130 176 234 283 346 413
#     4  11  25  43  68 103 137 180 240 284 338 398
#     4  11  26  43  64 104 148 176 216 288 353 414
#     4  11  21  41  71 100 137 177 239 285 337 416
#     4  12  27  45  67  99 142 187 230 286 354 407
#
# _framework density 21.817965000000001
#
# number of rings (size 3 to 8) (size 9 to 14) (size 15 to 20)
#    0.000    0.750    6.250    1.500    1.750    4.000 
#    2.250    0.000    0.000    0.000    0.000    0.000 
#    0.000    0.000    0.000    0.000    0.000    0.000 
#
# Total GULP energy -89447.457435 kJ/mol
# GULP energy per Si atom -5590.466090 kJ/mol
# Density = 2.176831 g / cm^3
# Si number density = 21.817965 Si / 1000 Ang^3
#
#
#
# Elastic Constant Matrix: (Units=GPa)
#
#
# Indices 1 2 3 4 5 6 
#
# 1 100.3795 21.0994 16.6188 -4.4169 13.0566 9.2288
# 2 21.0994 38.6850 0.2207 -5.9985 -8.2690 4.5366
# 3 16.6188 0.2207 43.6311 -4.4828 -0.5278 -8.4486
# 4 -4.4169 -5.9985 -4.4828 21.6832 -0.5367 7.9497
# 5 13.0566 -8.2690 -0.5278 -0.5367 43.4232 -7.3832
# 6 9.2288 4.5366 -8.4486 7.9497 -7.3832 33.7896
#
#
#
# Elastic Compliance Matrix: (Units=1/GPa)
#
#
# Indices 1 2 3 4 5 6 
#
# 1 0.014368 -0.008348 -0.006596 0.001397 -0.007048 -0.006322
# 2 -0.008348 0.033893 0.003761 0.009248 0.008857 -0.001571
# 3 -0.006596 0.003761 0.027368 0.002321 0.004520 0.008581
# 4 0.001397 0.009248 0.002321 0.054547 -0.000328 -0.013948
# 5 -0.007048 0.008857 0.004520 -0.000328 0.028266 0.008119
# 6 -0.006322 -0.001571 0.008581 -0.013948 0.008119 0.038734
#
#
# Mechanical properties :
#
#
# Convention : Reuss Voigt Hill
#
# Bulk Modulus (GPa) = 18.77459 28.73039 23.75249
# Shear Modulus (GPa) = 21.07076 29.42965 25.25021
#
# Velocity S-wave (km/s) = 3.11103 3.67668 3.40562
# Velocity P-wave (km/s) = 4.63988 5.58756 5.13562
#
# Compressibility (1/GPa) = 0.05326348
#
# Stress axis : x y z
#
# Youngs Moduli (GPa) = 69.59764 29.50481 36.53950
#
# Poissons Ratio (x) = 0.24629 0.24103
# Poissons Ratio (y) = 0.58097 -0.13744
# Poissons Ratio (z) = 0.45909 -0.11098
#
# Static dielectric constant tensor:
#      x y z
#    x 1.821330 -0.002980 -0.001760 
#    y -0.002980 1.767370 -0.000500 
#    z -0.001760 -0.000500 1.798040 
# 
# From -- ./inp_files/472420.got.cif
#   From: 2010.05.17/outbox.cif.g08.bks.cpg/sg2_237_cif.got.tgz:472420.got - 2010.06.03 11:33:40.
