data_PCOD9054875
_publ_section_title
;
Structure prediction by ZEFSAII (Michael W. Deem and Ramdas Pophale) SiO2 
 PCOD9054875
Probable space group: P -1
;
_chemical_formula_sum "Si O2"
_cell_formula_units_Z 10
_cell_length_a 12.962707
_cell_length_b 17.626366
_cell_length_c 4.943680
_cell_angle_alpha 101.692078
_cell_angle_beta 75.416997
_cell_angle_gamma 154.122352
_cell_volume 476.351095
_symmetry_space_group_name_H-M "P -1"
_symmetry_group_IT_number 2
_symmetry_cell_setting 'triclinic'
loop_
_space_group_symop_operation_xyz
x,y,z
-x,-y,-z
loop_
_atom_site_type_symbol
_atom_site_label
_atom_site_fract_x
_atom_site_fract_y
_atom_site_fract_z
Si Si1 0.626032 0.716055 0.123597
Si Si2 0.023322 0.193754 0.937330
Si Si3 0.109776 0.349393 0.471784
Si Si4 0.641558 0.830731 0.672420
Si Si5 0.099355 0.517548 0.697074
O O1 0.367890 0.528905 0.287443
O O2 0.744687 0.854231 0.357089
O O3 0.600986 0.740479 0.868806
O O4 0.783282 0.741590 0.032374
O O5 0.128605 0.312292 0.705869
O O6 0.809414 0.005011 0.813891
O O7 0.956037 0.204640 0.241647
O O8 0.018875 0.375664 0.626681
O O9 0.387054 0.700344 0.658807
O O10 0.000000 0.500000 0.500000
O O11 0.000000 0.500000 0.000000
#
# Coordination Sequence:
#
# PCOD9054875 Si02
#       5
#     2   2   2   2   2
#     4  11  21  39  61  89 127 167 189 222 292 373
#     4  12  22  38  60  95 129 150 187 251 295 343
#     4  11  23  38  61  91 119 157 201 240 292 354
#     4  11  23  39  62  91 119 159 203 236 289 359
#     4  11  23  44  64  80 111 161 206 247 294 353
#
# _framework density 20.992918
#
# number of rings (size 3 to 8) (size 9 to 14) (size 15 to 20)
#    0.000    0.800    0.000   10.800    0.000    0.000 
#    0.000    6.000    0.000    0.000    0.000    0.000 
#    0.000    0.000    0.000    0.000    0.000    0.000 
#
# Total GULP energy -55980.692867 kJ/mol
# GULP energy per Si atom -5598.069287 kJ/mol
# Density = 2.094514 g / cm^3
# Si number density = 20.992918 Si / 1000 Ang^3
#
#
#
# Elastic Constant Matrix: (Units=GPa)
#
#
# Indices 1 2 3 4 5 6 
#
# 1 160.6863 45.2246 54.6268 0.4257 15.8033 -12.6230
# 2 45.2246 57.1595 13.4083 17.2216 3.4100 -16.7310
# 3 54.6268 13.4083 134.1480 20.1868 1.1711 -11.6570
# 4 0.4257 17.2216 20.1868 40.7008 -13.4795 -0.1935
# 5 15.8033 3.4100 1.1711 -13.4795 53.3518 5.2317
# 6 -12.6230 -16.7310 -11.6570 -0.1935 5.2317 18.6443
#
#
#
# Elastic Compliance Matrix: (Units=1/GPa)
#
#
# Indices 1 2 3 4 5 6 
#
# 1 0.010374 -0.010700 -0.004624 0.006661 -0.000077 -0.005379
# 2 -0.010700 0.043955 0.007261 -0.025221 -0.010024 0.039291
# 3 -0.004624 0.007261 0.010992 -0.009340 -0.002768 0.010937
# 4 0.006661 -0.025221 -0.009340 0.044210 0.013695 -0.027347
# 5 -0.000077 -0.010024 -0.002768 0.013695 0.024649 -0.017553
# 6 -0.005379 0.039291 0.010937 -0.027347 -0.017553 0.096733
#
#
# Mechanical properties :
#
#
# Convention : Reuss Voigt Hill
#
# Bulk Modulus (GPa) = 20.32750 64.27924 42.30337
# Shear Modulus (GPa) = 18.97979 38.45499 28.71739
#
# Velocity S-wave (km/s) = 3.01009 4.28461 3.70260
# Velocity P-wave (km/s) = 4.66743 7.42719 6.20274
#
# Compressibility (1/GPa) = 0.04919444
#
# Stress axis : x y z
#
# Youngs Moduli (GPa) = 96.39224 22.75041 90.97630
#
# Poissons Ratio (x) = 0.24343 0.42069
# Poissons Ratio (y) = 1.03142 -0.66057
# Poissons Ratio (z) = 0.44574 -0.16519
#
# Static dielectric constant tensor:
#      x y z
#    x 1.721800 -0.010070 -0.019360 
#    y -0.010070 1.812370 0.037390 
#    z -0.019360 0.037390 1.753440 
# 
# From -- ./inp_files/78320.got.cif
#   From: 2010.05.17/outbox.cif.g08.bks.cpg/sg2_40_cif.got.tgz:78320.got - 2010.06.03 11:33:40.
