data_PCOD9054631
_publ_section_title
;
Structure prediction by ZEFSAII (Michael W. Deem and Ramdas Pophale) SiO2 
 PCOD9054631
Probable space group: P -1
;
_chemical_formula_sum "Si O2"
_cell_formula_units_Z 16
_cell_length_a 12.488495
_cell_length_b 5.394685
_cell_length_c 21.812178
_cell_angle_alpha 78.977734
_cell_angle_beta 142.589325
_cell_angle_gamma 80.904433
_cell_volume 748.630399
_symmetry_space_group_name_H-M "P -1"
_symmetry_group_IT_number 2
_symmetry_cell_setting 'triclinic'
loop_
_space_group_symop_operation_xyz
x,y,z
-x,-y,-z
loop_
_atom_site_type_symbol
_atom_site_label
_atom_site_fract_x
_atom_site_fract_y
_atom_site_fract_z
Si Si1 0.697786 0.388103 0.508601
Si Si2 0.887084 0.624756 0.127075
Si Si3 0.309232 0.248211 0.835990
Si Si4 0.406304 0.863126 0.782449
Si Si5 0.002351 0.841985 0.611078
Si Si6 0.696273 0.285996 0.988184
Si Si7 0.337710 0.334895 0.391103
Si Si8 0.781086 0.716621 0.422869
O O1 0.473610 0.429454 0.409212
O O2 0.728037 0.501100 0.581513
O O3 0.721233 0.548023 0.452523
O O4 0.879331 0.048017 0.601903
O O5 0.775025 0.754226 0.135722
O O6 0.131139 0.416499 0.258201
O O7 0.811061 0.414179 0.074406
O O8 0.829250 0.933754 0.051902
O O9 0.116157 0.501757 0.698143
O O10 0.484157 0.332243 0.918918
O O11 0.404067 0.970348 0.846224
O O12 0.188856 0.881841 0.674570
O O13 0.595302 0.530114 0.876221
O O14 0.389579 0.099558 0.714613
O O15 0.833165 0.920317 0.478781
O O16 0.500000 0.000000 0.500000
O O17 0.000000 0.500000 0.500000
#
# Coordination Sequence:
#
# PCOD9054631 Si02
#       8
#     2   2   2   2   2   2   2   2
#     4  11  24  41  66  99 132 174 221 271 348 397
#     4  12  25  41  66  91 134 175 224 278 333 400
#     4  11  22  38  61  96 135 174 220 274 333 403
#     4  11  23  38  60  93 139 175 219 268 330 404
#     4  11  21  37  61  98 138 175 214 268 343 404
#     4  11  26  40  61  95 131 182 224 271 335 394
#     4  11  26  46  68  97 130 171 225 280 337 404
#     4  12  22  38  62 100 138 177 215 274 340 398
#
# _framework density 21.37236
#
# number of rings (size 3 to 8) (size 9 to 14) (size 15 to 20)
#    0.000    0.750    3.750    4.125    8.750    0.000 
#    0.000    0.000    0.000    1.500    0.000    0.000 
#    0.000    0.000    0.000    0.000    0.000    0.000 
#
# Total GULP energy -89346.647062 kJ/mol
# GULP energy per Si atom -5584.165441 kJ/mol
# Density = 2.132372 g / cm^3
# Si number density = 21.372360 Si / 1000 Ang^3
#
#
#
# Elastic Constant Matrix: (Units=GPa)
#
#
# Indices 1 2 3 4 5 6 
#
# 1 93.0839 13.6965 26.2842 2.3652 4.0893 19.0952
# 2 13.6965 96.6913 28.0997 -0.3781 7.3843 1.4138
# 3 26.2842 28.0997 104.1155 -3.7101 18.8643 15.8929
# 4 2.3652 -0.3781 -3.7101 36.1605 5.9077 5.7398
# 5 4.0893 7.3843 18.8643 5.9077 25.9324 0.8621
# 6 19.0952 1.4138 15.8929 5.7398 0.8621 29.7086
#
#
#
# Elastic Compliance Matrix: (Units=1/GPa)
#
#
# Indices 1 2 3 4 5 6 
#
# 1 0.012929 -0.001190 -0.001784 0.000153 -0.000193 -0.007323
# 2 -0.001190 0.011396 -0.002890 -0.000235 -0.000963 0.001842
# 3 -0.001784 -0.002890 0.013723 0.004105 -0.009595 -0.006572
# 4 0.000153 -0.000235 0.004105 0.030917 -0.009722 -0.007974
# 5 -0.000193 -0.000963 -0.009595 -0.009722 0.047868 0.005792
# 6 -0.007323 0.001842 -0.006572 -0.007974 0.005792 0.043167
#
#
# Mechanical properties :
#
#
# Convention : Reuss Voigt Hill
#
# Bulk Modulus (GPa) = 37.99689 47.78348 42.89019
# Shear Modulus (GPa) = 27.70011 33.41433 30.55722
#
# Velocity S-wave (km/s) = 3.60401 3.95832 3.78531
# Velocity P-wave (km/s) = 5.92753 6.58006 6.26230
#
# Compressibility (1/GPa) = 0.02631794
#
# Stress axis : x y z
#
# Youngs Moduli (GPa) = 77.34684 87.74647 72.86912
#
# Poissons Ratio (x) = 0.10445 0.13003
# Poissons Ratio (y) = 0.09207 0.21063
# Poissons Ratio (z) = 0.13802 0.25363
#
# Static dielectric constant tensor:
#      x y z
#    x 1.812220 0.038810 -0.049510 
#    y 0.038810 1.870220 -0.004600 
#    z -0.049510 -0.004600 1.820330 
# 
# From -- ./inp_files/592503.got.cif
#   From: 2010.05.17/outbox.cif.g08.bks.cpg/sg2_297_cif.got.tgz:592503.got - 2010.06.03 11:33:40.
