data_PCOD9054040
_publ_section_title
;
Structure prediction by ZEFSAII (Michael W. Deem and Ramdas Pophale) SiO2 
 PCOD9054040
Probable space group: P -1
;
_chemical_formula_sum "Si O2"
_cell_formula_units_Z 12
_cell_length_a 9.671878
_cell_length_b 12.077415
_cell_length_c 5.048398
_cell_angle_alpha 116.657123
_cell_angle_beta 105.262323
_cell_angle_gamma 99.033553
_cell_volume 481.861205
_symmetry_space_group_name_H-M "P -1"
_symmetry_group_IT_number 2
_symmetry_cell_setting 'triclinic'
loop_
_space_group_symop_operation_xyz
x,y,z
-x,-y,-z
loop_
_atom_site_type_symbol
_atom_site_label
_atom_site_fract_x
_atom_site_fract_y
_atom_site_fract_z
Si Si1 0.768735 0.159185 0.912668
Si Si2 0.663172 0.505210 0.872710
Si Si3 0.179069 0.547605 0.615397
Si Si4 0.694625 0.986458 0.218117
Si Si5 0.393631 0.281680 0.292177
Si Si6 0.928059 0.884533 0.044447
O O1 0.668304 0.068620 0.537104
O O2 0.941806 0.180376 0.919844
O O3 0.757271 0.300279 0.111248
O O4 0.735836 0.077184 0.078783
O O5 0.775975 0.477256 0.683519
O O6 0.517104 0.375820 0.644469
O O7 0.620241 0.626713 0.861583
O O8 0.741747 0.522120 0.211969
O O9 0.000000 0.500000 0.500000
O O10 0.428269 0.152017 0.065416
O O11 0.844530 0.940381 0.295507
O O12 0.225732 0.218257 0.259720
O O13 0.000000 0.000000 0.000000
#
# Coordination Sequence:
#
# PCOD9054040 Si02
#       6
#     2   2   2   2   2   2
#     4  11  20  40  62  98 128 171 217 271 328 391
#     4  11  25  47  66 101 131 184 220 275 332 403
#     4  12  27  45  68  94 138 179 228 265 334 411
#     4   9  21  36  65  96 126 164 218 275 330 370
#     4   9  22  43  71  99 136 170 227 281 334 385
#     4   8  17  37  64  96 127 162 217 274 322 374
#
# _framework density 24.903435000000002
#
# number of rings (size 3 to 8) (size 9 to 14) (size 15 to 20)
#    1.000    1.000    0.000    3.000    0.000    6.667 
#    3.000    5.000    0.000    0.000    0.000    0.000 
#    0.000    0.000    0.000    0.000    0.000    0.000 
#
# Total GULP energy -67119.238975 kJ/mol
# GULP energy per Si atom -5593.269915 kJ/mol
# Density = 2.484675 g / cm^3
# Si number density = 24.903435 Si / 1000 Ang^3
#
#
#
# Elastic Constant Matrix: (Units=GPa)
#
#
# Indices 1 2 3 4 5 6 
#
# 1 107.8528 15.6533 23.9549 5.9375 13.1606 21.2036
# 2 15.6533 86.9544 52.8078 22.0566 2.8753 6.5520
# 3 23.9549 52.8078 80.4051 25.4526 3.7350 15.0846
# 4 5.9375 22.0566 25.4526 30.2603 -6.0342 2.3864
# 5 13.1606 2.8753 3.7350 -6.0342 52.9271 9.6510
# 6 21.2036 6.5520 15.0846 2.3864 9.6510 35.3077
#
#
#
# Elastic Compliance Matrix: (Units=1/GPa)
#
#
# Indices 1 2 3 4 5 6 
#
# 1 0.010993 -0.000285 -0.001959 -0.000217 -0.001648 -0.005247
# 2 -0.000285 0.019779 -0.011699 -0.004915 -0.001129 0.002139
# 3 -0.001959 -0.011699 0.025985 -0.012608 -0.000937 -0.006647
# 4 -0.000217 -0.004915 -0.012608 0.048461 0.006484 0.001381
# 5 -0.001648 -0.001129 -0.000937 0.006484 0.021006 -0.004581
# 6 -0.005247 0.002139 -0.006647 0.001381 -0.004581 0.035075
#
#
# Mechanical properties :
#
#
# Convention : Reuss Voigt Hill
#
# Bulk Modulus (GPa) = 34.63361 51.11604 42.87483
# Shear Modulus (GPa) = 25.15016 35.88545 30.51780
#
# Velocity S-wave (km/s) = 3.18135 3.80015 3.50443
# Velocity P-wave (km/s) = 5.23756 6.31071 5.79901
#
# Compressibility (1/GPa) = 0.02887369
#
# Stress axis : x y z
#
# Youngs Moduli (GPa) = 90.96900 50.55896 38.48307
#
# Poissons Ratio (x) = 0.01439 0.07537
# Poissons Ratio (y) = 0.02589 0.45020
# Poissons Ratio (z) = 0.17817 0.59147
#
# Static dielectric constant tensor:
#      x y z
#    x 2.048130 -0.047810 0.009760 
#    y -0.047810 1.923700 0.043000 
#    z 0.009760 0.043000 2.010650 
# 
# From -- ./inp_files/29010.got.cif
#   From: 2010.05.17/outbox.cif.g08.bks.cpg/sg2_15_cif.got.tgz:29010.got - 2010.06.03 11:33:40.
