data_PCOD9054536
_publ_section_title
;
Structure prediction by ZEFSAII (Michael W. Deem and Ramdas Pophale) SiO2 
 PCOD9054536
Probable space group: P -1
;
_chemical_formula_sum "Si O2"
_cell_formula_units_Z 14
_cell_length_a 16.807637
_cell_length_b 11.680713
_cell_length_c 6.090467
_cell_angle_alpha 59.285199
_cell_angle_beta 55.701218
_cell_angle_gamma 41.305932
_cell_volume 643.578768
_symmetry_space_group_name_H-M "P -1"
_symmetry_group_IT_number 2
_symmetry_cell_setting 'triclinic'
loop_
_space_group_symop_operation_xyz
x,y,z
-x,-y,-z
loop_
_atom_site_type_symbol
_atom_site_label
_atom_site_fract_x
_atom_site_fract_y
_atom_site_fract_z
Si Si1 0.759459 0.392023 0.921018
Si Si2 0.168541 0.211595 0.986485
Si Si3 0.438770 0.075490 0.776522
Si Si4 0.951269 0.446873 0.438110
Si Si5 0.637872 0.377135 0.519425
Si Si6 0.547949 0.666997 0.691110
Si Si7 0.260337 0.869382 0.041640
O O1 0.871800 0.392965 0.699430
O O2 0.630122 0.592265 0.858629
O O3 0.780255 0.229650 0.923842
O O4 0.734582 0.371856 0.227634
O O5 0.312654 0.101752 0.948156
O O6 0.135529 0.376555 0.746392
O O7 0.068474 0.293306 0.258080
O O8 0.166140 0.079772 0.973059
O O9 0.411934 0.255887 0.615869
O O10 0.500000 0.000000 0.500000
O O11 0.500000 0.000000 0.000000
O O12 0.000000 0.500000 0.500000
O O13 0.500000 0.500000 0.500000
O O14 0.598727 0.484342 0.696636
O O15 0.709697 0.184869 0.692631
O O16 0.396997 0.794297 0.811383
#
# Coordination Sequence:
#
# PCOD9054536 Si02
#       7
#     2   2   2   2   2   2   2
#     4  11  23  43  68 100 140 188 246 293 373 439
#     4  11  27  48  70 102 144 190 253 307 371 443
#     4  12  28  43  75 115 153 192 242 313 388 452
#     4  11  28  49  71  95 139 199 254 311 362 446
#     4  11  21  35  66 102 141 183 225 295 369 449
#     4  11  22  38  65 105 145 181 232 296 374 447
#     4  11  23  42  68 105 143 179 239 304 377 444
#
# _framework density 21.753357000000001
#
# number of rings (size 3 to 8) (size 9 to 14) (size 15 to 20)
#    0.000    0.857    5.714    0.857    8.000    2.857 
#    0.000    1.429    0.000    0.000    0.000    0.000 
#    0.000    0.000    0.000    0.000    0.000    0.000 
#
# Total GULP energy -77966.599115 kJ/mol
# GULP energy per Si atom -5569.042794 kJ/mol
# Density = 2.170385 g / cm^3
# Si number density = 21.753357 Si / 1000 Ang^3
#
#
#
# Elastic Constant Matrix: (Units=GPa)
#
#
# Indices 1 2 3 4 5 6 
#
# 1 87.4251 26.2665 39.3712 15.9885 -23.2114 10.4892
# 2 26.2665 86.7395 36.7974 17.0433 -12.5790 18.3291
# 3 39.3712 36.7974 138.0550 6.4184 -25.3959 4.3311
# 4 15.9885 17.0433 6.4184 31.6699 2.3112 -0.6336
# 5 -23.2114 -12.5790 -25.3959 2.3112 41.7112 -9.3323
# 6 10.4892 18.3291 4.3311 -0.6336 -9.3323 21.7328
#
#
#
# Elastic Compliance Matrix: (Units=1/GPa)
#
#
# Indices 1 2 3 4 5 6 
#
# 1 0.016720 -0.000225 -0.002908 -0.008326 0.006903 -0.004579
# 2 -0.000225 0.018153 -0.003843 -0.009187 0.000253 -0.014595
# 3 -0.002908 -0.003843 0.009630 0.001381 0.004014 0.004489
# 4 -0.008326 -0.009187 0.001381 0.041125 -0.006640 0.009839
# 5 0.006903 0.000253 0.004014 -0.006640 0.032844 0.009565
# 6 -0.004579 -0.014595 0.004489 0.009839 0.009565 0.064032
#
#
# Mechanical properties :
#
#
# Convention : Reuss Voigt Hill
#
# Bulk Modulus (GPa) = 32.73032 57.45443 45.09238
# Shear Modulus (GPa) = 24.19665 33.00842 28.60253
#
# Velocity S-wave (km/s) = 3.33876 3.89960 3.63003
# Velocity P-wave (km/s) = 5.47192 6.83703 6.19220
#
# Compressibility (1/GPa) = 0.03055272
#
# Stress axis : x y z
#
# Youngs Moduli (GPa) = 59.80734 55.08712 103.83743
#
# Poissons Ratio (x) = 0.01239 0.30194
# Poissons Ratio (y) = 0.01345 0.39903
# Poissons Ratio (z) = 0.17391 0.21169
#
# Static dielectric constant tensor:
#      x y z
#    x 2.388310 -0.005600 0.192280 
#    y -0.005600 1.960660 -0.074000 
#    z 0.192280 -0.074000 1.844670 
# 
# From -- ./inp_files/68316.got.cif
#   From: 2010.05.17/outbox.cif.g08.bks.cpg/sg2_35_cif.got.tgz:68316.got - 2010.06.03 11:33:40.
