data_PCOD9054123
_publ_section_title
;
Structure prediction by ZEFSAII (Michael W. Deem and Ramdas Pophale) SiO2 
 PCOD9054123
Probable space group: P -1
;
_chemical_formula_sum "Si O2"
_cell_formula_units_Z 16
_cell_length_a 11.231219
_cell_length_b 8.287767
_cell_length_c 19.398823
_cell_angle_alpha 136.591752
_cell_angle_beta 139.148901
_cell_angle_gamma 38.823251
_cell_volume 697.792274
_symmetry_space_group_name_H-M "P -1"
_symmetry_group_IT_number 2
_symmetry_cell_setting 'triclinic'
loop_
_space_group_symop_operation_xyz
x,y,z
-x,-y,-z
loop_
_atom_site_type_symbol
_atom_site_label
_atom_site_fract_x
_atom_site_fract_y
_atom_site_fract_z
Si Si1 0.719884 0.700133 0.326449
Si Si2 0.781460 0.851752 0.029965
Si Si3 0.478607 0.555746 0.925805
Si Si4 0.141764 0.677362 0.477937
Si Si5 0.315316 0.272136 0.304334
Si Si6 0.823018 0.428433 0.808435
Si Si7 0.898637 0.071279 0.902614
Si Si8 0.524037 0.718667 0.393505
O O1 0.691310 0.517746 0.200252
O O2 0.637233 0.663509 0.352285
O O3 0.961562 0.618382 0.408050
O O4 0.557510 0.021439 0.336725
O O5 0.920806 0.742621 0.126347
O O6 0.942046 0.904552 0.070079
O O7 0.575504 0.145752 0.027978
O O8 0.754409 0.633221 0.906979
O O9 0.685641 0.350223 0.911071
O O10 0.500000 0.500000 0.000000
O O11 0.253152 0.511936 0.405782
O O12 0.329487 0.541234 0.574030
O O13 0.000000 0.000000 0.500000
O O14 0.252524 0.394545 0.238776
O O15 0.172992 0.138006 0.217335
O O16 0.703701 0.258122 0.705754
O O17 0.000000 0.000000 0.000000
O O18 0.500000 0.000000 0.500000
#
# Coordination Sequence:
#
# PCOD9054123 Si02
#       8
#     2   2   2   2   2   2   2   2
#     4  11  25  46  73 103 136 189 242 285 355 428
#     4  11  23  44  67 104 143 181 228 289 358 425
#     4  11  22  37  70 103 135 175 227 283 342 430
#     4  12  28  45  74 105 136 182 242 300 356 408
#     4  11  23  45  69 104 144 181 232 299 346 422
#     4  11  25  43  72 100 145 189 229 293 362 412
#     4  11  20  40  69  99 134 184 229 274 358 420
#     4  12  27  50  74  98 143 195 242 292 348 422
#
# _framework density 22.929461
#
# number of rings (size 3 to 8) (size 9 to 14) (size 15 to 20)
#    0.000    0.750    3.750    4.125    3.500    2.000 
#    0.000    6.875    0.000    0.000    0.000    0.000 
#    0.000    0.000    0.000    0.000    0.000    0.000 
#
# Total GULP energy -89544.211304 kJ/mol
# GULP energy per Si atom -5596.513206 kJ/mol
# Density = 2.287727 g / cm^3
# Si number density = 22.929461 Si / 1000 Ang^3
#
#
#
# Elastic Constant Matrix: (Units=GPa)
#
#
# Indices 1 2 3 4 5 6 
#
# 1 57.7502 -0.8830 24.2671 -4.0586 -4.2052 12.1784
# 2 -0.8830 133.5765 43.4293 0.2536 -15.6884 15.5844
# 3 24.2671 43.4293 125.6173 0.9699 -1.7128 6.2114
# 4 -4.0586 0.2536 0.9699 47.1500 7.1602 -4.5828
# 5 -4.2052 -15.6884 -1.7128 7.1602 41.4587 -8.9893
# 6 12.1784 15.5844 6.2114 -4.5828 -8.9893 33.3902
#
#
#
# Elastic Compliance Matrix: (Units=1/GPa)
#
#
# Indices 1 2 3 4 5 6 
#
# 1 0.021047 0.002654 -0.004599 0.000980 0.001127 -0.007622
# 2 0.002654 0.009471 -0.003544 -0.000586 0.002937 -0.004019
# 3 -0.004599 -0.003544 0.010006 -0.000306 -0.001096 0.001133
# 4 0.000980 -0.000586 -0.000306 0.022033 -0.003494 0.002056
# 5 0.001127 0.002937 -0.001096 -0.003494 0.027036 0.005221
# 6 -0.007622 -0.004019 0.001133 0.002056 0.005221 0.036082
#
#
# Mechanical properties :
#
#
# Convention : Reuss Voigt Hill
#
# Bulk Modulus (GPa) = 33.84455 50.06344 41.95399
# Shear Modulus (GPa) = 34.12937 41.07516 37.60226
#
# Velocity S-wave (km/s) = 3.86223 4.23705 4.05397
# Velocity P-wave (km/s) = 5.88909 6.76889 6.34426
#
# Compressibility (1/GPa) = 0.02954686
#
# Stress axis : x y z
#
# Youngs Moduli (GPa) = 47.51199 105.58551 99.94299
#
# Poissons Ratio (x) = -0.28024 0.45963
# Poissons Ratio (y) = -0.12610 0.35418
# Poissons Ratio (z) = 0.21850 0.37418
#
# Static dielectric constant tensor:
#      x y z
#    x 1.864150 -0.042130 0.086190 
#    y -0.042130 1.702110 0.190110 
#    z 0.086190 0.190110 1.657130 
# 
# From -- ./inp_files/515577.got.cif
#   From: 2010.05.17/outbox.cif.g08.bks.cpg/sg2_258_cif.got.tgz:515577.got - 2010.06.03 11:33:40.
