data_PCOD9054861
_publ_section_title
;
Structure prediction by ZEFSAII (Michael W. Deem and Ramdas Pophale) SiO2 
 PCOD9054861
Probable space group: P -1
;
_chemical_formula_sum "Si O2"
_cell_formula_units_Z 14
_cell_length_a 19.520419
_cell_length_b 9.029582
_cell_length_c 7.729113
_cell_angle_alpha 80.330620
_cell_angle_beta 58.453351
_cell_angle_gamma 35.932824
_cell_volume 585.559622
_symmetry_space_group_name_H-M "P -1"
_symmetry_group_IT_number 2
_symmetry_cell_setting 'triclinic'
loop_
_space_group_symop_operation_xyz
x,y,z
-x,-y,-z
loop_
_atom_site_type_symbol
_atom_site_label
_atom_site_fract_x
_atom_site_fract_y
_atom_site_fract_z
Si Si1 0.473351 0.148332 0.165091
Si Si2 0.787886 0.192975 0.300016
Si Si3 0.308423 0.987522 0.908116
Si Si4 0.977854 0.686513 0.876810
Si Si5 0.882582 0.244159 0.456446
Si Si6 0.479411 0.844965 0.412185
Si Si7 0.449781 0.631061 0.234737
O O1 0.608160 0.051535 0.045381
O O2 0.299721 0.494006 0.307475
O O3 0.480367 0.018380 0.337219
O O4 0.500000 0.000000 0.000000
O O5 0.899175 0.119557 0.284328
O O6 0.641886 0.525683 0.349719
O O7 0.709902 0.193170 0.529674
O O8 0.881969 0.954402 0.075442
O O9 0.331600 0.047694 0.692562
O O10 0.414252 0.674694 0.780871
O O11 0.139859 0.194234 0.134350
O O12 0.097331 0.610080 0.641201
O O13 0.000000 0.500000 0.000000
O O14 0.000000 0.000000 0.500000
O O15 0.456417 0.785864 0.276832
O O16 0.500000 0.500000 0.000000
#
# Coordination Sequence:
#
# PCOD9054861 Si02
#       7
#     2   2   2   2   2   2   2
#     4  12  27  45  74 110 147 196 251 314 369 441
#     4  11  24  46  73 103 144 208 244 305 369 461
#     4  11  22  44  70 103 134 195 251 298 353 449
#     4  12  27  47  75 109 149 196 255 308 376 449
#     4  12  30  50  71 111 160 197 243 313 395 443
#     4  11  21  41  77 103 143 180 269 297 358 434
#     4  11  21  38  73 108 138 175 248 308 366 426
#
# _framework density 23.908753999999998
#
# number of rings (size 3 to 8) (size 9 to 14) (size 15 to 20)
#    0.000    0.571    5.714    3.429    6.000    1.143 
#    0.000    1.429    0.000    0.000    0.000    0.000 
#    0.000    0.000    0.000    0.000    0.000    0.000 
#
# Total GULP energy -78150.790180 kJ/mol
# GULP energy per Si atom -5582.199299 kJ/mol
# Density = 2.385434 g / cm^3
# Si number density = 23.908754 Si / 1000 Ang^3
#
#
#
# Elastic Constant Matrix: (Units=GPa)
#
#
# Indices 1 2 3 4 5 6 
#
# 1 193.7541 39.5558 29.5580 -1.1887 -12.8832 -14.9173
# 2 39.5558 85.9659 -13.6762 -14.4745 -7.1315 -2.6182
# 3 29.5580 -13.6762 43.6100 -3.8238 6.1493 -16.1562
# 4 -1.1887 -14.4745 -3.8238 26.8995 4.4964 -0.6827
# 5 -12.8832 -7.1315 6.1493 4.4964 49.5821 -5.3942
# 6 -14.9173 -2.6182 -16.1562 -0.6827 -5.3942 37.4866
#
#
#
# Elastic Compliance Matrix: (Units=1/GPa)
#
#
# Indices 1 2 3 4 5 6 
#
# 1 0.007445 -0.005067 -0.007436 -0.003871 0.002445 -0.000315
# 2 -0.005067 0.017796 0.011731 0.011258 -0.000756 0.004379
# 3 -0.007436 0.011731 0.038621 0.012608 -0.004648 0.014067
# 4 -0.003871 0.011258 0.012608 0.045741 -0.004570 0.004855
# 5 0.002445 -0.000756 -0.004648 -0.004570 0.021902 0.001985
# 6 -0.000315 0.004379 0.014067 0.004855 0.001985 0.033293
#
#
# Mechanical properties :
#
#
# Convention : Reuss Voigt Hill
#
# Bulk Modulus (GPa) = 16.04625 48.24503 32.14564
# Shear Modulus (GPa) = 26.72158 40.65311 33.68734
#
# Velocity S-wave (km/s) = 3.34675 4.12800 3.75773
# Velocity P-wave (km/s) = 4.65407 6.55310 5.68346
#
# Compressibility (1/GPa) = 0.06231988
#
# Stress axis : x y z
#
# Youngs Moduli (GPa) = 134.32705 56.19100 25.89242
#
# Poissons Ratio (x) = 0.28472 0.19252
# Poissons Ratio (y) = 0.68063 -0.30375
# Poissons Ratio (z) = 0.99880 -0.65920
#
# Static dielectric constant tensor:
#      x y z
#    x 1.965570 -0.004800 0.003780 
#    y -0.004800 2.067000 -0.035900 
#    z 0.003780 -0.035900 2.035400 
# 
# From -- ./inp_files/328833.got.cif
#   From: 2010.05.17/outbox.cif.g08.bks.cpg/sg2_165_cif.got.tgz:328833.got - 2010.06.03 11:33:40.
