data_PCOD9054419
_publ_section_title
;
Structure prediction by ZEFSAII (Michael W. Deem and Ramdas Pophale) SiO2 
 PCOD9054419
Probable space group: P -1
;
_chemical_formula_sum "Si O2"
_cell_formula_units_Z 14
_cell_length_a 11.023345
_cell_length_b 10.480707
_cell_length_c 7.160004
_cell_angle_alpha 127.497865
_cell_angle_beta 57.777965
_cell_angle_gamma 130.658351
_cell_volume 484.878003
_symmetry_space_group_name_H-M "P -1"
_symmetry_group_IT_number 2
_symmetry_cell_setting 'triclinic'
loop_
_space_group_symop_operation_xyz
x,y,z
-x,-y,-z
loop_
_atom_site_type_symbol
_atom_site_label
_atom_site_fract_x
_atom_site_fract_y
_atom_site_fract_z
Si Si1 0.386458 0.475928 0.375422
Si Si2 0.380492 0.840252 0.815986
Si Si3 0.353617 0.562446 0.087842
Si Si4 0.114097 0.219290 0.611829
Si Si5 0.333958 0.057941 0.732741
Si Si6 0.063651 0.799608 0.925004
Si Si7 0.875353 0.265715 0.591214
O O1 0.398344 0.660255 0.619756
O O2 0.296067 0.448235 0.224622
O O3 0.561434 0.495959 0.193828
O O4 0.284900 0.302192 0.438256
O O5 0.397368 0.934502 0.683270
O O6 0.188578 0.780510 0.950221
O O7 0.500000 0.000000 0.000000
O O8 0.521354 0.740274 0.188595
O O9 0.230693 0.635196 0.190623
O O10 0.100126 0.255662 0.875997
O O11 0.022949 0.306535 0.641609
O O12 0.000000 0.000000 0.500000
O O13 0.171169 0.010764 0.950935
O O14 0.253304 0.956350 0.514935
O O15 0.062821 0.698417 0.644180
#
# Coordination Sequence:
#
# PCOD9054419 Si02
#       7
#     2   2   2   2   2   2   2
#     4  11  25  41  72 115 158 186 263 311 378 454
#     4   9  20  41  72 104 148 199 245 313 377 445
#     4  11  20  44  72 111 155 186 249 332 364 456
#     4  12  26  46  71 110 158 206 250 316 372 457
#     4   8  19  39  70 107 137 197 254 289 379 445
#     4   8  21  41  69 106 138 196 259 288 374 455
#     4   9  22  43  78 105 143 214 248 300 394 443
#
# _framework density 28.873245000000001
#
# number of rings (size 3 to 8) (size 9 to 14) (size 15 to 20)
#    1.714    0.286    2.857    1.286    2.000    1.714 
#    0.000    4.286    3.143    0.000    0.000    0.000 
#    0.000    0.000    0.000    0.000    0.000    0.000 
#
# Total GULP energy -78321.834395 kJ/mol
# GULP energy per Si atom -5594.416743 kJ/mol
# Density = 2.880753 g / cm^3
# Si number density = 28.873245 Si / 1000 Ang^3
#
#
#
# Elastic Constant Matrix: (Units=GPa)
#
#
# Indices 1 2 3 4 5 6 
#
# 1 114.2269 13.0245 19.7880 -23.9484 -13.2007 -7.8533
# 2 13.0245 153.9683 63.8111 -20.6122 -8.9452 14.0139
# 3 19.7880 63.8111 148.1560 -12.8617 -11.9488 10.7074
# 4 -23.9484 -20.6122 -12.8617 60.8806 10.3127 -3.7256
# 5 -13.2007 -8.9452 -11.9488 10.3127 52.6591 -13.6795
# 6 -7.8533 14.0139 10.7074 -3.7256 -13.6795 44.0967
#
#
#
# Elastic Compliance Matrix: (Units=1/GPa)
#
#
# Indices 1 2 3 4 5 6 
#
# 1 0.010184 -0.000103 -0.001041 0.003533 0.002426 0.003150
# 2 -0.000103 0.008272 -0.003266 0.001998 -0.000208 -0.001750
# 3 -0.001041 -0.003266 0.008436 0.000067 0.000844 -0.000929
# 4 0.003533 0.001998 0.000067 0.018940 -0.002239 0.000883
# 5 0.002426 -0.000208 0.000844 -0.002239 0.021992 0.006926
# 6 0.003150 -0.001750 -0.000929 0.000883 0.006926 0.026243
#
#
# Mechanical properties :
#
#
# Convention : Reuss Voigt Hill
#
# Bulk Modulus (GPa) = 55.33191 67.73313 61.53252
# Shear Modulus (GPa) = 45.90908 52.84249 49.37578
#
# Velocity S-wave (km/s) = 3.99183 4.28267 4.13981
# Velocity P-wave (km/s) = 6.36016 6.92566 6.64892
#
# Compressibility (1/GPa) = 0.01807275
#
# Stress axis : x y z
#
# Youngs Moduli (GPa) = 98.19049 120.89413 118.53554
#
# Poissons Ratio (x) = 0.01242 0.12343
# Poissons Ratio (y) = 0.01009 0.38710
# Poissons Ratio (z) = 0.10224 0.39481
#
# Static dielectric constant tensor:
#      x y z
#    x 2.322590 0.119120 0.001560 
#    y 0.119120 2.397470 -0.020550 
#    z 0.001560 -0.020550 2.326610 
# 
# From -- ./inp_files/310505.got.cif
#   From: 2010.05.17/outbox.cif.g08.bks.cpg/sg2_156_cif.got.tgz:310505.got - 2010.06.03 11:33:40.
