data_PCOD9054205
_publ_section_title
;
Structure prediction by ZEFSAII (Michael W. Deem and Ramdas Pophale) SiO2 
 PCOD9054205
Probable space group: P -1
;
_chemical_formula_sum "Si O2"
_cell_formula_units_Z 16
_cell_length_a 14.858274
_cell_length_b 15.693942
_cell_length_c 11.211561
_cell_angle_alpha 139.095808
_cell_angle_beta 142.076848
_cell_angle_gamma 26.953585
_cell_volume 715.182626
_symmetry_space_group_name_H-M "P -1"
_symmetry_group_IT_number 2
_symmetry_cell_setting 'triclinic'
loop_
_space_group_symop_operation_xyz
x,y,z
-x,-y,-z
loop_
_atom_site_type_symbol
_atom_site_label
_atom_site_fract_x
_atom_site_fract_y
_atom_site_fract_z
Si Si1 0.452527 0.412773 0.445975
Si Si2 0.192881 0.483292 0.871163
Si Si3 0.094991 0.479736 0.206595
Si Si4 0.516852 0.035764 0.191163
Si Si5 0.700376 0.131975 0.615258
Si Si6 0.570043 0.189596 0.106663
Si Si7 0.490191 0.849968 0.326974
Si Si8 0.926350 0.924569 0.033847
O O1 0.500000 0.500000 0.500000
O O2 0.205316 0.548375 0.370557
O O3 0.593121 0.306938 0.599274
O O4 0.524398 0.248823 0.258760
O O5 0.296173 0.350846 0.721828
O O6 0.068473 0.456868 0.794069
O O7 0.403809 0.385787 0.066286
O O8 0.046270 0.706477 0.933297
O O9 0.303329 0.258330 0.223324
O O10 0.000000 0.500000 0.000000
O O11 0.714754 0.991738 0.400490
O O12 0.495988 0.913629 0.107919
O O13 0.500000 0.000000 0.000000
O O14 0.549419 0.185767 0.622629
O O15 0.911280 0.064430 0.813817
O O16 0.817174 0.035449 0.163857
O O17 0.500000 0.000000 0.500000
O O18 0.277072 0.951600 0.135784
#
# Coordination Sequence:
#
# PCOD9054205 Si02
#       8
#     2   2   2   2   2   2   2   2
#     4  11  24  42  65 107 150 180 235 291 358 431
#     4  11  23  43  75 103 141 185 238 298 350 421
#     4  11  21  38  69 101 138 187 236 281 357 424
#     4  11  20  41  68  99 140 183 235 291 346 426
#     4  11  24  44  70 102 142 192 235 294 363 420
#     4  11  21  43  67 101 147 184 225 299 344 426
#     4  11  27  50  73 103 143 183 250 302 342 424
#     4  11  25  45  73 101 144 185 242 290 363 415
#
# _framework density 22.371908000000001
#
# number of rings (size 3 to 8) (size 9 to 14) (size 15 to 20)
#    0.000    1.000    5.000    2.625    1.750    1.500 
#    6.750    0.000    0.000    0.000    0.000    0.000 
#    0.000    0.000    0.000    0.000    0.000    0.000 
#
# Total GULP energy -89249.771608 kJ/mol
# GULP energy per Si atom -5578.110725 kJ/mol
# Density = 2.232099 g / cm^3
# Si number density = 22.371908 Si / 1000 Ang^3
#
#
#
# Elastic Constant Matrix: (Units=GPa)
#
#
# Indices 1 2 3 4 5 6 
#
# 1 171.1698 47.2815 58.5099 17.2071 8.0516 -11.8331
# 2 47.2815 98.9104 16.7551 4.1461 -1.2992 -8.3605
# 3 58.5099 16.7551 102.0153 -5.1021 14.3893 -2.9919
# 4 17.2071 4.1461 -5.1021 27.3784 5.6847 -0.3722
# 5 8.0516 -1.2992 14.3893 5.6847 44.4722 3.2446
# 6 -11.8331 -8.3605 -2.9919 -0.3722 3.2446 41.4907
#
#
#
# Elastic Compliance Matrix: (Units=1/GPa)
#
#
# Indices 1 2 3 4 5 6 
#
# 1 0.009158 -0.003113 -0.005099 -0.006339 0.000601 0.001513
# 2 -0.003113 0.011769 -0.000233 -0.000034 0.000885 0.001397
# 3 -0.005099 -0.000233 0.013713 0.006701 -0.004369 -0.000111
# 4 -0.006339 -0.000034 0.006701 0.043107 -0.006500 -0.000437
# 5 0.000601 0.000885 -0.004369 -0.006500 0.024791 -0.001962
# 6 0.001513 0.001397 -0.000111 -0.000437 -0.001962 0.024957
#
#
# Mechanical properties :
#
#
# Convention : Reuss Voigt Hill
#
# Bulk Modulus (GPa) = 56.33505 68.57650 62.45578
# Shear Modulus (GPa) = 33.26648 39.30486 36.28567
#
# Velocity S-wave (km/s) = 3.86032 4.19607 4.03169
# Velocity P-wave (km/s) = 6.71604 7.36176 7.04630
#
# Compressibility (1/GPa) = 0.01775094
#
# Stress axis : x y z
#
# Youngs Moduli (GPa) = 109.18840 84.97043 72.92152
#
# Poissons Ratio (x) = 0.26449 0.37182
# Poissons Ratio (y) = 0.33987 0.01701
# Poissons Ratio (z) = 0.55674 0.01982
#
# Static dielectric constant tensor:
#      x y z
#    x 1.915350 0.029650 0.043370 
#    y 0.029650 1.871110 0.018190 
#    z 0.043370 0.018190 1.920610 
# 
# From -- ./inp_files/455113.got.cif
#   From: 2010.05.17/outbox.cif.g08.bks.cpg/sg2_228_cif.got.tgz:455113.got - 2010.06.03 11:33:40.
