data_PCOD9054263
_publ_section_title
;
Structure prediction by ZEFSAII (Michael W. Deem and Ramdas Pophale) SiO2 
 PCOD9054263
Probable space group: P -1
;
_chemical_formula_sum "Si O2"
_cell_formula_units_Z 16
_cell_length_a 19.544177
_cell_length_b 12.210973
_cell_length_c 22.992719
_cell_angle_alpha 140.997154
_cell_angle_beta 162.305592
_cell_angle_gamma 29.457287
_cell_volume 768.102258
_symmetry_space_group_name_H-M "P -1"
_symmetry_group_IT_number 2
_symmetry_cell_setting 'triclinic'
loop_
_space_group_symop_operation_xyz
x,y,z
-x,-y,-z
loop_
_atom_site_type_symbol
_atom_site_label
_atom_site_fract_x
_atom_site_fract_y
_atom_site_fract_z
Si Si1 0.412525 0.020794 0.585534
Si Si2 0.001526 0.337451 0.012596
Si Si3 0.107396 0.888483 0.723578
Si Si4 0.274319 0.160055 0.031717
Si Si5 0.024361 0.111182 0.510038
Si Si6 0.680156 0.428004 0.054427
Si Si7 0.247273 0.895285 0.284743
Si Si8 0.744721 0.625465 0.480953
O O1 0.750657 0.826788 0.804694
O O2 0.369421 0.919820 0.452621
O O3 0.333909 0.256383 0.597352
O O4 0.165801 0.081771 0.457487
O O5 0.170916 0.236156 0.045907
O O6 0.856499 0.603831 0.010666
O O7 0.758705 0.309550 0.801966
O O8 0.025778 0.965508 0.622395
O O9 0.424039 0.616830 0.878500
O O10 0.148766 0.046723 0.857274
O O11 0.639552 0.980282 0.252636
O O12 0.795137 0.395206 0.435419
O O13 0.000000 0.000000 0.500000
O O14 0.937255 0.443811 0.274103
O O15 0.500000 0.500000 0.000000
O O16 0.894266 0.148966 0.098626
O O17 0.465745 0.829101 0.380944
#
# Coordination Sequence:
#
# PCOD9054263 Si02
#       8
#     2   2   2   2   2   2   2   2
#     4  11  23  42  73 109 133 182 234 293 359 409
#     4  11  24  41  73 100 143 180 235 288 347 422
#     4  12  24  44  74 104 137 188 239 290 347 418
#     4  11  24  46  67 102 137 188 235 287 342 420
#     4  12  28  48  67  98 145 191 240 285 350 421
#     4  11  20  41  75 106 140 180 229 290 354 420
#     4  11  24  45  66 106 150 177 228 296 353 414
#     4  11  25  46  70 102 152 182 229 300 353 414
#
# _framework density 20.830559000000001
#
# number of rings (size 3 to 8) (size 9 to 14) (size 15 to 20)
#    0.000    0.750    6.250    2.250    1.750    4.000 
#    6.750    0.000    0.000    0.000    0.000    0.000 
#    0.000    0.000    0.000    0.000    0.000    0.000 
#
# Total GULP energy -89432.017321 kJ/mol
# GULP energy per Si atom -5589.501083 kJ/mol
# Density = 2.078315 g / cm^3
# Si number density = 20.830559 Si / 1000 Ang^3
#
#
#
# Elastic Constant Matrix: (Units=GPa)
#
#
# Indices 1 2 3 4 5 6 
#
# 1 109.0634 36.4865 36.5133 -8.9449 -3.1780 12.2305
# 2 36.4865 114.5792 25.9657 -2.2957 -4.5665 14.6226
# 3 36.5133 25.9657 51.8303 -7.7048 -7.3282 3.1078
# 4 -8.9449 -2.2957 -7.7048 25.4624 2.2303 5.0444
# 5 -3.1780 -4.5665 -7.3282 2.2303 44.0165 -9.7998
# 6 12.2305 14.6226 3.1078 5.0444 -9.7998 32.7289
#
#
#
# Elastic Compliance Matrix: (Units=1/GPa)
#
#
# Indices 1 2 3 4 5 6 
#
# 1 0.013089 -0.001855 -0.007814 0.003062 -0.001658 -0.004289
# 2 -0.001855 0.010670 -0.003891 -0.000057 -0.000530 -0.003854
# 3 -0.007814 -0.003891 0.027827 0.004474 0.004000 0.002524
# 4 0.003062 -0.000057 0.004474 0.043831 -0.003331 -0.009296
# 5 -0.001658 -0.000530 0.004000 -0.003331 0.025285 0.008561
# 6 -0.004289 -0.003854 0.002524 -0.009296 0.008561 0.037635
#
#
# Mechanical properties :
#
#
# Convention : Reuss Voigt Hill
#
# Bulk Modulus (GPa) = 40.87205 52.60042 46.73623
# Shear Modulus (GPa) = 25.82480 32.20872 29.01676
#
# Velocity S-wave (km/s) = 3.52484 3.93647 3.73633
# Velocity P-wave (km/s) = 6.01912 6.77993 6.41082
#
# Compressibility (1/GPa) = 0.02446660
#
# Stress axis : x y z
#
# Youngs Moduli (GPa) = 76.39825 93.72460 35.93608
#
# Poissons Ratio (x) = 0.17383 0.28081
# Poissons Ratio (y) = 0.14170 0.13982
# Poissons Ratio (z) = 0.59699 0.36467
#
# Static dielectric constant tensor:
#      x y z
#    x 1.738020 0.006420 0.012290 
#    y 0.006420 1.780770 -0.000580 
#    z 0.012290 -0.000580 1.716620 
# 
# From -- ./inp_files/600097.got.cif
#   From: 2010.05.17/outbox.cif.g08.bks.cpg/sg2_301_cif.got.tgz:600097.got - 2010.06.03 11:33:40.
