data_PCOD9054435
_publ_section_title
;
Structure prediction by ZEFSAII (Michael W. Deem and Ramdas Pophale) SiO2 
 PCOD9054435
Probable space group: P -1
;
_chemical_formula_sum "Si O2"
_cell_formula_units_Z 16
_cell_length_a 15.039801
_cell_length_b 11.281328
_cell_length_c 11.178172
_cell_angle_alpha 119.169163
_cell_angle_beta 151.251021
_cell_angle_gamma 51.784934
_cell_volume 709.092982
_symmetry_space_group_name_H-M "P -1"
_symmetry_group_IT_number 2
_symmetry_cell_setting 'triclinic'
loop_
_space_group_symop_operation_xyz
x,y,z
-x,-y,-z
loop_
_atom_site_type_symbol
_atom_site_label
_atom_site_fract_x
_atom_site_fract_y
_atom_site_fract_z
Si Si1 0.253040 0.899350 0.328758
Si Si2 0.557757 0.578046 0.497786
Si Si3 0.158808 0.463522 0.386531
Si Si4 0.434210 0.131717 0.655382
Si Si5 0.735872 0.514500 0.026809
Si Si6 0.854956 0.064025 0.046470
Si Si7 0.104595 0.676067 0.641760
Si Si8 0.610111 0.834430 0.107672
O O1 0.472043 0.751695 0.524287
O O2 0.292784 0.046064 0.444838
O O3 0.164688 0.880943 0.087256
O O4 0.086165 0.924975 0.248535
O O5 0.500000 0.500000 0.500000
O O6 0.779784 0.514857 0.664766
O O7 0.409394 0.561947 0.214074
O O8 0.320185 0.291717 0.531213
O O9 0.185965 0.580459 0.568787
O O10 0.928183 0.481032 0.147696
O O11 0.466871 0.157559 0.844592
O O12 0.661387 0.029871 0.819227
O O13 0.837552 0.445739 0.241686
O O14 0.595281 0.696428 0.954781
O O15 0.828034 0.197904 0.171418
O O16 0.857776 0.771956 0.380337
O O17 0.500000 0.000000 0.000000
#
# Coordination Sequence:
#
# PCOD9054435 Si02
#       8
#     2   2   2   2   2   2   2   2
#     4  11  24  42  61  97 140 168 221 271 332 393
#     4  12  29  45  66  96 138 182 224 280 333 404
#     4  11  23  42  73 100 127 177 231 277 333 398
#     4  12  22  40  69  99 130 176 225 271 334 404
#     4  11  22  44  72  98 134 176 225 280 333 401
#     4  11  23  38  69 100 126 174 219 279 321 391
#     4  11  20  45  71 103 134 168 234 282 329 405
#     4  11  24  41  66 100 141 172 211 286 345 394
#
# _framework density 22.564035000000001
#
# number of rings (size 3 to 8) (size 9 to 14) (size 15 to 20)
#    0.000    0.750    6.250    1.125    5.250    1.500 
#    4.500    0.625    0.000    0.000    0.000    0.000 
#    0.000    0.000    0.000    0.000    0.000    0.000 
#
# Total GULP energy -89363.282791 kJ/mol
# GULP energy per Si atom -5585.205174 kJ/mol
# Density = 2.251268 g / cm^3
# Si number density = 22.564035 Si / 1000 Ang^3
#
#
#
# Elastic Constant Matrix: (Units=GPa)
#
#
# Indices 1 2 3 4 5 6 
#
# 1 103.4267 26.7954 4.7050 -20.0576 27.0774 -17.9718
# 2 26.7954 98.7358 15.9242 -8.5375 4.1546 -9.6296
# 3 4.7050 15.9242 44.9224 6.4198 19.8855 -8.1511
# 4 -20.0576 -8.5375 6.4198 28.6657 0.4209 0.5405
# 5 27.0774 4.1546 19.8855 0.4209 31.1398 -9.1272
# 6 -17.9718 -9.6296 -8.1511 0.5405 -9.1272 28.9735
#
#
#
# Elastic Compliance Matrix: (Units=1/GPa)
#
#
# Indices 1 2 3 4 5 6 
#
# 1 0.018097 -0.003842 0.007166 0.010066 -0.018160 0.006056
# 2 -0.003842 0.012399 -0.006939 0.002427 0.006620 0.001826
# 3 0.007166 -0.006939 0.037974 -0.005217 -0.028312 0.004000
# 4 0.010066 0.002427 -0.005217 0.043842 -0.005444 0.003050
# 5 -0.018160 0.006620 -0.028312 -0.005444 0.066338 0.003970
# 6 0.006056 0.001826 0.004000 0.003050 0.003970 0.041197
#
#
# Mechanical properties :
#
#
# Convention : Reuss Voigt Hill
#
# Bulk Modulus (GPa) = 16.32918 37.99267 27.16093
# Shear Modulus (GPa) = 20.20292 31.06649 25.63470
#
# Velocity S-wave (km/s) = 2.99550 3.71457 3.37425
# Velocity P-wave (km/s) = 4.38367 5.93899 5.21959
#
# Compressibility (1/GPa) = 0.06124005
#
# Stress axis : x y z
#
# Youngs Moduli (GPa) = 55.25834 80.65086 26.33397
#
# Poissons Ratio (x) = 0.30984 -0.18870
# Poissons Ratio (y) = 0.21229 0.18272
# Poissons Ratio (z) = -0.39596 0.55962
#
# Static dielectric constant tensor:
#      x y z
#    x 1.886240 -0.061570 -0.035940 
#    y -0.061570 1.873070 0.009070 
#    z -0.035940 0.009070 1.910620 
# 
# From -- ./inp_files/429123.got.cif
#   From: 2010.05.17/outbox.cif.g08.bks.cpg/sg2_215_cif.got.tgz:429123.got - 2010.06.03 11:33:40.
