data_PCOD9054485
_publ_section_title
;
Structure prediction by ZEFSAII (Michael W. Deem and Ramdas Pophale) SiO2 
 PCOD9054485
Probable space group: P -1
;
_chemical_formula_sum "Si O2"
_cell_formula_units_Z 14
_cell_length_a 12.730449
_cell_length_b 6.558761
_cell_length_c 9.213165
_cell_angle_alpha 103.781216
_cell_angle_beta 51.660888
_cell_angle_gamma 110.286223
_cell_volume 565.667190
_symmetry_space_group_name_H-M "P -1"
_symmetry_group_IT_number 2
_symmetry_cell_setting 'triclinic'
loop_
_space_group_symop_operation_xyz
x,y,z
-x,-y,-z
loop_
_atom_site_type_symbol
_atom_site_label
_atom_site_fract_x
_atom_site_fract_y
_atom_site_fract_z
Si Si1 0.252083 0.566192 0.589973
Si Si2 0.130894 0.937839 0.807405
Si Si3 0.947497 0.874895 0.377303
Si Si4 0.653169 0.193612 0.733174
Si Si5 0.489778 0.744587 0.862931
Si Si6 0.681889 0.624749 0.206312
Si Si7 0.193998 0.685541 0.103855
O O1 0.335695 0.730892 0.427039
O O2 0.325527 0.481864 0.646301
O O3 0.166830 0.352466 0.542758
O O4 0.149916 0.698825 0.770294
O O5 0.268273 0.118467 0.774990
O O6 0.109878 0.979809 0.662000
O O7 0.000000 0.000000 0.000000
O O8 0.076462 0.798686 0.184083
O O9 0.000000 0.000000 0.500000
O O10 0.787845 0.306958 0.735094
O O11 0.618878 0.932549 0.735314
O O12 0.533473 0.257806 0.944766
O O13 0.455238 0.506330 0.783734
O O14 0.350082 0.815521 0.943249
O O15 0.804960 0.548617 0.000692
#
# Coordination Sequence:
#
# PCOD9054485 Si02
#       7
#     2   2   2   2   2   2   2
#     4  11  21  34  54  82 109 137 174 220 266 308
#     4  11  22  34  54  79 111 145 176 207 263 322
#     4  11  23  35  52  83 110 136 172 223 264 315
#     4   8  16  32  56  80  99 141 180 215 265 310
#     4   7  16  34  57  74 103 143 177 217 263 307
#     4   8  19  35  52  79 107 138 177 215 257 310
#     4   8  16  34  54  72 109 139 173 214 261 309
#
# _framework density 24.749537
#
# number of rings (size 3 to 8) (size 9 to 14) (size 15 to 20)
#    1.714    0.857    0.000    2.571    0.000    7.429 
#    0.000    0.714    0.000    2.571    0.000    0.000 
#    0.000    0.000    0.000    0.000    0.000    0.000 
#
# Total GULP energy -78076.815237 kJ/mol
# GULP energy per Si atom -5576.915374 kJ/mol
# Density = 2.469321 g / cm^3
# Si number density = 24.749537 Si / 1000 Ang^3
#
#
#
# Elastic Constant Matrix: (Units=GPa)
#
#
# Indices 1 2 3 4 5 6 
#
# 1 33.6183 34.2690 13.7775 8.2103 3.9845 -6.5576
# 2 34.2690 114.7694 27.8635 25.4036 17.8096 15.4650
# 3 13.7775 27.8635 89.2279 5.5463 3.5282 11.9891
# 4 8.2103 25.4036 5.5463 37.1065 -0.8446 6.2765
# 5 3.9845 17.8096 3.5282 -0.8446 29.5083 19.0320
# 6 -6.5576 15.4650 11.9891 6.2765 19.0320 41.0644
#
#
#
# Elastic Compliance Matrix: (Units=1/GPa)
#
#
# Indices 1 2 3 4 5 6 
#
# 1 0.054348 -0.014749 -0.006002 -0.005120 -0.012382 0.022507
# 2 -0.014749 0.016473 -0.001596 -0.007086 -0.004909 -0.004735
# 3 -0.006002 -0.001596 0.013232 0.001650 0.004456 -0.006538
# 4 -0.005120 -0.007086 0.001650 0.034543 0.011813 -0.009385
# 5 -0.012382 -0.004909 0.004456 0.011813 0.057647 -0.029953
# 6 0.022507 -0.004735 -0.006538 -0.009385 -0.029953 0.046955
#
#
# Mechanical properties :
#
#
# Convention : Reuss Voigt Hill
#
# Bulk Modulus (GPa) = 25.40731 43.27065 34.33898
# Shear Modulus (GPa) = 17.79285 32.31620 25.05452
#
# Velocity S-wave (km/s) = 2.68417 3.61741 3.18515
# Velocity P-wave (km/s) = 4.46032 5.91345 5.23752
#
# Compressibility (1/GPa) = 0.03935875
#
# Stress axis : x y z
#
# Youngs Moduli (GPa) = 18.39999 60.70690 75.57335
#
# Poissons Ratio (x) = 0.89534 0.45363
# Poissons Ratio (y) = 0.27137 0.12061
# Poissons Ratio (z) = 0.11045 0.09688
#
# Static dielectric constant tensor:
#      x y z
#    x 1.996670 -0.001090 -0.045420 
#    y -0.001090 1.948780 0.046050 
#    z -0.045420 0.046050 2.036010 
# 
# From -- ./inp_files/323846.got.cif
#   From: 2010.05.17/outbox.cif.g08.bks.cpg/sg2_162_cif.got.tgz:323846.got - 2010.06.03 11:33:40.
