data_PCOD9054403
_publ_section_title
;
Structure prediction by ZEFSAII (Michael W. Deem and Ramdas Pophale) SiO2 
 PCOD9054403
Probable space group: P -1
;
_chemical_formula_sum "Si O2"
_cell_formula_units_Z 16
_cell_length_a 11.859590
_cell_length_b 9.707440
_cell_length_c 15.375691
_cell_angle_alpha 107.412301
_cell_angle_beta 152.289873
_cell_angle_gamma 80.964037
_cell_volume 761.831437
_symmetry_space_group_name_H-M "P -1"
_symmetry_group_IT_number 2
_symmetry_cell_setting 'triclinic'
loop_
_space_group_symop_operation_xyz
x,y,z
-x,-y,-z
loop_
_atom_site_type_symbol
_atom_site_label
_atom_site_fract_x
_atom_site_fract_y
_atom_site_fract_z
Si Si1 0.875637 0.826706 0.138233
Si Si2 0.107904 0.212444 0.170596
Si Si3 0.614255 0.745894 0.122279
Si Si4 0.145840 0.503424 0.690503
Si Si5 0.810551 0.602597 0.905709
Si Si6 0.734130 0.487386 0.554562
Si Si7 0.396001 0.976517 0.124067
Si Si8 0.399093 0.845929 0.535245
O O1 0.809106 0.807891 0.190503
O O2 0.172304 0.893680 0.343157
O O3 0.812653 0.668092 0.015849
O O4 0.710750 0.925409 0.999615
O O5 0.110030 0.255703 0.078383
O O6 0.184756 0.370278 0.301976
O O7 0.329486 0.128325 0.318250
O O8 0.843423 0.123144 0.007914
O O9 0.723157 0.633190 0.234742
O O10 0.543736 0.872608 0.155882
O O11 0.364651 0.651168 0.885432
O O12 0.000000 0.500000 0.500000
O O13 0.944740 0.491967 0.627690
O O14 0.530946 0.517519 0.672573
O O15 0.000000 0.500000 0.000000
O O16 0.690078 0.332888 0.547540
O O17 0.560427 0.081235 0.328108
#
# Coordination Sequence:
#
# PCOD9054403 Si02
#       8
#     2   2   2   2   2   2   2   2
#     4  12  24  44  69  97 140 187 228 270 351 409
#     4  11  23  44  68  99 142 169 232 288 338 403
#     4  11  26  45  68 101 141 179 230 289 333 413
#     4  11  24  43  73 101 133 176 232 287 343 396
#     4  11  23  39  72 105 133 180 229 286 345 405
#     4  11  20  44  68  98 135 176 224 287 340 401
#     4  12  26  46  66 100 141 187 223 284 344 405
#     4  11  24  43  69  97 136 179 226 282 339 410
#
# _framework density 21.002020999999999
#
# number of rings (size 3 to 8) (size 9 to 14) (size 15 to 20)
#    0.000    0.750    5.000    4.500    0.000    3.000 
#    2.250    0.000    0.000    0.000    0.000    0.000 
#    0.000    0.000    0.000    0.000    0.000    0.000 
#
# Total GULP energy -89538.480371 kJ/mol
# GULP energy per Si atom -5596.155023 kJ/mol
# Density = 2.095422 g / cm^3
# Si number density = 21.002021 Si / 1000 Ang^3
#
#
#
# Elastic Constant Matrix: (Units=GPa)
#
#
# Indices 1 2 3 4 5 6 
#
# 1 73.1238 14.5074 -1.0804 1.4785 9.8707 -15.8476
# 2 14.5074 78.1482 32.7055 -0.0002 -6.8903 -29.5906
# 3 -1.0804 32.7055 89.5489 -14.0469 -5.0238 -5.5278
# 4 1.4785 -0.0002 -14.0469 26.2315 -3.6542 5.9765
# 5 9.8707 -6.8903 -5.0238 -3.6542 36.3732 0.4617
# 6 -15.8476 -29.5906 -5.5278 5.9765 0.4617 37.0225
#
#
#
# Elastic Compliance Matrix: (Units=1/GPa)
#
#
# Indices 1 2 3 4 5 6 
#
# 1 0.016036 -0.000979 0.000220 -0.002984 -0.004891 0.006657
# 2 -0.000979 0.024022 -0.008835 -0.008617 0.002491 0.018821
# 3 0.000220 -0.008835 0.015666 0.010015 0.001516 -0.006264
# 4 -0.002984 -0.008617 0.010015 0.047715 0.005538 -0.014441
# 5 -0.004891 0.002491 0.001516 0.005538 0.030072 -0.001145
# 6 0.006657 0.018821 -0.006264 -0.014441 -0.001145 0.046313
#
#
# Mechanical properties :
#
#
# Convention : Reuss Voigt Hill
#
# Bulk Modulus (GPa) = 27.37184 37.00955 32.19070
# Shear Modulus (GPa) = 23.67502 32.90468 28.28985
#
# Velocity S-wave (km/s) = 3.36113 3.96250 3.67414
# Velocity P-wave (km/s) = 5.30322 6.21252 5.77579
#
# Compressibility (1/GPa) = 0.03653389
#
# Stress axis : x y z
#
# Youngs Moduli (GPa) = 62.35829 41.62867 63.83261
#
# Poissons Ratio (x) = 0.04077 -0.01402
# Poissons Ratio (y) = 0.06108 0.56398
# Poissons Ratio (z) = -0.01369 0.36780
#
# Static dielectric constant tensor:
#      x y z
#    x 1.738260 0.008820 0.008770 
#    y 0.008820 1.749190 -0.016020 
#    z 0.008770 -0.016020 1.752940 
# 
# From -- ./inp_files/516041.got.cif
#   From: 2010.05.17/outbox.cif.g08.bks.cpg/sg2_259_cif.got.tgz:516041.got - 2010.06.03 11:33:40.
