data_PCOD9054714
_publ_section_title
;
Structure prediction by ZEFSAII (Michael W. Deem and Ramdas Pophale) SiO2 
 PCOD9054714
Probable space group: P -1
;
_chemical_formula_sum "Si O2"
_cell_formula_units_Z 12
_cell_length_a 8.898675
_cell_length_b 9.276978
_cell_length_c 11.862560
_cell_angle_alpha 142.552803
_cell_angle_beta 51.079574
_cell_angle_gamma 111.567163
_cell_volume 445.093942
_symmetry_space_group_name_H-M "P -1"
_symmetry_group_IT_number 2
_symmetry_cell_setting 'triclinic'
loop_
_space_group_symop_operation_xyz
x,y,z
-x,-y,-z
loop_
_atom_site_type_symbol
_atom_site_label
_atom_site_fract_x
_atom_site_fract_y
_atom_site_fract_z
Si Si1 0.324297 0.190006 0.632852
Si Si2 0.133805 0.615518 0.288132
Si Si3 0.270961 0.963242 0.282051
Si Si4 0.192109 0.598933 0.495037
Si Si5 0.408905 0.697133 0.842978
Si Si6 0.975177 0.839393 0.054805
O O1 0.354427 0.456694 0.769007
O O2 0.117808 0.204265 0.805932
O O3 0.500000 0.000000 0.500000
O O4 0.335307 0.087940 0.437633
O O5 0.233925 0.715476 0.198573
O O6 0.262602 0.597594 0.329819
O O7 0.934130 0.842284 0.540910
O O8 0.079839 0.364770 0.125121
O O9 0.412533 0.882532 0.058859
O O10 0.364387 0.420870 0.378426
O O11 0.000000 0.500000 0.500000
O O12 0.132886 0.874826 0.741405
O O13 0.213014 0.811044 0.930929
#
# Coordination Sequence:
#
# PCOD9054714 Si02
#       6
#     2   2   2   2   2   2
#     4  12  22  37  66 110 142 164 207 277 347 402
#     4  11  22  41  69  99 137 171 212 274 332 402
#     4  11  21  37  69 107 133 166 213 268 349 397
#     4  12  29  48  65  93 133 185 233 268 319 393
#     4  12  24  41  70 101 134 171 216 280 337 395
#     4  12  23  43  68 100 136 171 218 277 335 388
#
# _framework density 26.960598999999998
#
# number of rings (size 3 to 8) (size 9 to 14) (size 15 to 20)
#    0.000    0.333    8.333    1.500    2.333    2.667 
#    0.000    0.833    0.000    0.000    0.000    0.000 
#    0.000    0.000    0.000    0.000    0.000    0.000 
#
# Total GULP energy -67283.776218 kJ/mol
# GULP energy per Si atom -5606.981352 kJ/mol
# Density = 2.689924 g / cm^3
# Si number density = 26.960599 Si / 1000 Ang^3
#
#
#
# Elastic Constant Matrix: (Units=GPa)
#
#
# Indices 1 2 3 4 5 6 
#
# 1 139.3196 1.5122 60.0817 3.3860 0.5216 1.7158
# 2 1.5122 98.4553 19.3346 3.3895 3.4867 4.9820
# 3 60.0817 19.3346 138.1715 24.1645 9.3550 4.8352
# 4 3.3860 3.3895 24.1645 42.0623 7.5780 -1.8180
# 5 0.5216 3.4867 9.3550 7.5780 55.8902 -0.2230
# 6 1.7158 4.9820 4.8352 -1.8180 -0.2230 35.2137
#
#
#
# Elastic Compliance Matrix: (Units=1/GPa)
#
#
# Indices 1 2 3 4 5 6 
#
# 1 0.008989 0.000632 -0.004315 0.001643 0.000377 0.000152
# 2 0.000632 0.010556 -0.001695 0.000088 -0.000398 -0.001289
# 3 -0.004315 -0.001695 0.010396 -0.005386 -0.000869 -0.001261
# 4 0.001643 0.000088 -0.005386 0.027325 -0.002816 0.002040
# 5 0.000377 -0.000398 -0.000869 -0.002816 0.018441 0.000129
# 6 0.000152 -0.001289 -0.001261 0.002040 0.000129 0.028852
#
#
# Mechanical properties :
#
#
# Convention : Reuss Voigt Hill
#
# Bulk Modulus (GPa) = 52.12810 59.75593 55.94202
# Shear Modulus (GPa) = 41.08081 46.30108 43.69095
#
# Velocity S-wave (km/s) = 3.90774 4.14860 4.02997
# Velocity P-wave (km/s) = 6.30377 6.72013 6.51527
#
# Compressibility (1/GPa) = 0.01918351
#
# Stress axis : x y z
#
# Youngs Moduli (GPa) = 111.25219 94.72924 96.19127
#
# Poissons Ratio (x) = -0.05984 0.41508
# Poissons Ratio (y) = -0.07028 0.16307
# Poissons Ratio (z) = 0.48007 0.16059
#
# Static dielectric constant tensor:
#      x y z
#    x 2.077310 0.001090 -0.030730 
#    y 0.001090 2.224970 -0.044040 
#    z -0.030730 -0.044040 2.057840 
# 
# From -- ./inp_files/236215.got.cif
#   From: 2010.05.17/outbox.cif.g08.bks.cpg/sg2_119_cif.got.tgz:236215.got - 2010.06.03 11:33:40.
