data_PCOD9054900
_publ_section_title
;
Structure prediction by ZEFSAII (Michael W. Deem and Ramdas Pophale) SiO2 
 PCOD9054900
Probable space group: P -1
;
_chemical_formula_sum "Si O2"
_cell_formula_units_Z 16
_cell_length_a 13.068045
_cell_length_b 14.928345
_cell_length_c 8.273573
_cell_angle_alpha 70.690685
_cell_angle_beta 84.777568
_cell_angle_gamma 142.710117
_cell_volume 724.585934
_symmetry_space_group_name_H-M "P -1"
_symmetry_group_IT_number 2
_symmetry_cell_setting 'triclinic'
loop_
_space_group_symop_operation_xyz
x,y,z
-x,-y,-z
loop_
_atom_site_type_symbol
_atom_site_label
_atom_site_fract_x
_atom_site_fract_y
_atom_site_fract_z
Si Si1 0.961123 0.366503 0.511422
Si Si2 0.587695 0.985311 0.608617
Si Si3 0.779669 0.768707 0.130966
Si Si4 0.975370 0.198357 0.230451
Si Si5 0.654082 0.582524 0.731778
Si Si6 0.661887 0.782076 0.448728
Si Si7 0.771582 0.565910 0.393991
Si Si8 0.856762 0.470677 0.974189
O O1 0.048752 0.362742 0.629990
O O2 0.090392 0.468982 0.259704
O O3 0.000000 0.500000 0.500000
O O4 0.715567 0.141558 0.640489
O O5 0.500000 0.000000 0.500000
O O6 0.774474 0.073207 0.445610
O O7 0.389566 0.758707 0.825705
O O8 0.604865 0.646723 0.088082
O O9 0.654821 0.705344 0.344056
O O10 0.818699 0.688970 0.190127
O O11 0.000000 0.000000 0.000000
O O12 0.185397 0.325563 0.211499
O O13 0.063850 0.369006 0.043452
O O14 0.857718 0.013220 0.276763
O O15 0.675258 0.714463 0.628959
O O16 0.736788 0.591651 0.556220
O O17 0.437329 0.653165 0.525710
O O18 0.000000 0.500000 0.000000
#
# Coordination Sequence:
#
# PCOD9054900 Si02
#       8
#     2   2   2   2   2   2   2   2
#     4  11  24  41  67  97 125 159 217 269 305 374
#     4  11  23  43  64  85 125 175 203 255 327 372
#     4   9  19  37  59  86 127 161 201 255 316 380
#     4  11  21  39  64  89 122 162 213 260 307 367
#     4   9  17  38  59  82 117 163 199 245 314 372
#     4   9  20  35  61  83 119 161 203 251 314 368
#     4   9  18  38  57  83 119 166 194 250 323 359
#     4  11  23  43  64  89 127 170 212 254 322 385
#
# _framework density 22.081575999999998
#
# number of rings (size 3 to 8) (size 9 to 14) (size 15 to 20)
#    0.000    2.000    5.000    1.875    1.750    1.500 
#    6.750    0.625    0.000    0.000    0.000    0.000 
#    0.000    0.000    0.000    0.000    0.000    0.000 
#
# Total GULP energy -89124.961513 kJ/mol
# GULP energy per Si atom -5570.310095 kJ/mol
# Density = 2.203132 g / cm^3
# Si number density = 22.081576 Si / 1000 Ang^3
#
#
#
# Elastic Constant Matrix: (Units=GPa)
#
#
# Indices 1 2 3 4 5 6 
#
# 1 129.5640 76.3660 22.3067 -26.1682 8.5765 23.7590
# 2 76.3660 116.6799 50.0291 -49.3397 12.8669 12.9997
# 3 22.3067 50.0291 114.0311 -47.9785 3.1366 6.4136
# 4 -26.1682 -49.3397 -47.9785 53.3719 -7.9868 -4.5316
# 5 8.5765 12.8669 3.1366 -7.9868 27.8596 -4.9179
# 6 23.7590 12.9997 6.4136 -4.5316 -4.9179 57.5382
#
#
#
# Elastic Compliance Matrix: (Units=1/GPa)
#
#
# Indices 1 2 3 4 5 6 
#
# 1 0.013560 -0.009488 0.001057 -0.001652 -0.001055 -0.003794
# 2 -0.009488 0.021429 -0.002054 0.012860 -0.003048 0.000058
# 3 0.001057 -0.002054 0.014434 0.011907 0.002333 -0.000444
# 4 -0.001652 0.012860 0.011907 0.041292 0.005090 0.000137
# 5 -0.001055 -0.003048 0.002333 0.005090 0.039645 0.004654
# 6 -0.003794 0.000058 -0.000444 0.000137 0.004654 0.019391
#
#
# Mechanical properties :
#
#
# Convention : Reuss Voigt Hill
#
# Bulk Modulus (GPa) = 35.14410 73.07541 54.10975
# Shear Modulus (GPa) = 27.74603 41.85882 34.80242
#
# Velocity S-wave (km/s) = 3.54859 4.35862 3.97430
# Velocity P-wave (km/s) = 5.72190 7.64823 6.75409
#
# Compressibility (1/GPa) = 0.02845428
#
# Stress axis : x y z
#
# Youngs Moduli (GPa) = 73.74430 46.66606 69.27887
#
# Poissons Ratio (x) = 0.44277 -0.07325
# Poissons Ratio (y) = 0.69969 0.14229
# Poissons Ratio (z) = -0.07797 0.09585
#
# Static dielectric constant tensor:
#      x y z
#    x 1.863800 -0.024380 -0.110840 
#    y -0.024380 1.852480 0.056760 
#    z -0.110840 0.056760 1.965980 
# 
# From -- ./inp_files/433828.got.cif
#   From: 2010.05.17/outbox.cif.g08.bks.cpg/sg2_217_cif.got.tgz:433828.got - 2010.06.03 11:33:40.
