data_PCOD9054989
_publ_section_title
;
Structure prediction by ZEFSAII (Michael W. Deem and Ramdas Pophale) SiO2 
 PCOD9054989
Probable space group: P -1
;
_chemical_formula_sum "Si O2"
_cell_formula_units_Z 14
_cell_length_a 15.512218
_cell_length_b 31.249516
_cell_length_c 25.375567
_cell_angle_alpha 9.546619
_cell_angle_beta 160.561368
_cell_angle_gamma 160.817685
_cell_volume 654.956745
_symmetry_space_group_name_H-M "P -1"
_symmetry_group_IT_number 2
_symmetry_cell_setting 'triclinic'
loop_
_space_group_symop_operation_xyz
x,y,z
-x,-y,-z
loop_
_atom_site_type_symbol
_atom_site_label
_atom_site_fract_x
_atom_site_fract_y
_atom_site_fract_z
Si Si1 0.804397 0.466494 0.315728
Si Si2 0.024020 0.223093 0.404754
Si Si3 0.640622 0.119371 0.734014
Si Si4 0.409879 0.104356 0.375831
Si Si5 0.596716 0.358030 0.526602
Si Si6 0.879661 0.165654 0.272747
Si Si7 0.778402 0.946162 0.868634
O O1 0.686899 0.398566 0.389210
O O2 0.817709 0.179701 0.650508
O O3 0.111873 0.639644 0.285529
O O4 0.616338 0.599080 0.011729
O O5 0.343929 0.274247 0.521051
O O6 0.899874 0.096775 0.430082
O O7 0.980296 0.518350 0.029581
O O8 0.879652 0.048628 0.581683
O O9 0.538807 0.161358 0.682066
O O10 0.425101 0.897889 0.846447
O O11 0.930529 0.064968 0.970370
O O12 0.612370 0.043471 0.609310
O O13 0.500000 0.000000 0.500000
O O14 0.635721 0.657296 0.161893
O O15 0.000000 0.000000 0.500000
#
# Coordination Sequence:
#
# PCOD9054989 Si02
#       7
#     2   2   2   2   2   2   2
#     4  11  23  39  65  93 131 172 211 262 320 389
#     4  11  24  42  63  95 135 167 216 268 322 383
#     4  11  21  39  69  98 125 164 218 268 321 376
#     4  12  26  43  62  90 132 178 213 260 325 392
#     4  11  21  41  67  96 126 165 217 275 317 371
#     4  11  22  39  68 100 128 164 214 274 322 373
#     4  11  22  41  64  95 127 166 219 268 318 376
#
# _framework density 21.375457000000001
#
# number of rings (size 3 to 8) (size 9 to 14) (size 15 to 20)
#    0.000    0.857    1.429    9.857    2.000    0.571 
#    0.000    0.000    0.000    3.429    0.000    0.000 
#    0.000    0.000    0.000    0.000    0.000    0.000 
#
# Total GULP energy -78253.900642 kJ/mol
# GULP energy per Si atom -5589.564332 kJ/mol
# Density = 2.132681 g / cm^3
# Si number density = 21.375457 Si / 1000 Ang^3
#
#
#
# Elastic Constant Matrix: (Units=GPa)
#
#
# Indices 1 2 3 4 5 6 
#
# 1 128.7456 28.5415 24.5006 -7.1826 15.4257 10.5533
# 2 28.5415 108.1947 15.0347 10.9182 1.0460 -5.5883
# 3 24.5006 15.0347 94.9713 13.7854 -1.8333 0.8415
# 4 -7.1826 10.9182 13.7854 30.8665 -11.4039 2.4885
# 5 15.4257 1.0460 -1.8333 -11.4039 29.4444 -1.9624
# 6 10.5533 -5.5883 0.8415 2.4885 -1.9624 36.0795
#
#
#
# Elastic Compliance Matrix: (Units=1/GPa)
#
#
# Indices 1 2 3 4 5 6 
#
# 1 0.009852 -0.002701 -0.002620 0.003143 -0.004257 -0.003687
# 2 -0.002701 0.010622 -0.000341 -0.004681 -0.000614 0.002733
# 3 -0.002620 -0.000341 0.012123 -0.006021 -0.000137 0.000839
# 4 0.003143 -0.004681 -0.006021 0.043173 0.014620 -0.003686
# 5 -0.004257 -0.000614 -0.000137 0.014620 0.042030 0.002431
# 6 -0.003687 0.002733 0.000839 -0.003686 0.002431 0.029585
#
#
# Mechanical properties :
#
#
# Convention : Reuss Voigt Hill
#
# Bulk Modulus (GPa) = 47.00817 52.00722 49.50770
# Shear Modulus (GPa) = 30.15646 36.86707 33.51177
#
# Velocity S-wave (km/s) = 3.76013 4.15750 3.96380
# Velocity P-wave (km/s) = 6.39460 6.88691 6.64532
#
# Compressibility (1/GPa) = 0.02127290
#
# Stress axis : x y z
#
# Youngs Moduli (GPa) = 101.49867 94.14359 82.48567
#
# Poissons Ratio (x) = 0.25432 0.21609
# Poissons Ratio (y) = 0.27419 0.02815
# Poissons Ratio (z) = 0.26590 0.03213
#
# Static dielectric constant tensor:
#      x y z
#    x 1.832770 -0.000680 0.016320 
#    y -0.000680 1.817590 0.026300 
#    z 0.016320 0.026300 1.773350 
# 
# From -- ./inp_files/390249.got.cif
#   From: 2010.05.17/outbox.cif.g08.bks.cpg/sg2_196_cif.got.tgz:390249.got - 2010.06.03 11:33:40.
