data_PCOD9054649
_publ_section_title
;
Structure prediction by ZEFSAII (Michael W. Deem and Ramdas Pophale) SiO2 
 PCOD9054649
Probable space group: P -1
;
_chemical_formula_sum "Si O2"
_cell_formula_units_Z 14
_cell_length_a 8.045642
_cell_length_b 18.355972
_cell_length_c 11.826934
_cell_angle_alpha 150.659898
_cell_angle_beta 98.614050
_cell_angle_gamma 103.690707
_cell_volume 551.895114
_symmetry_space_group_name_H-M "P -1"
_symmetry_group_IT_number 2
_symmetry_cell_setting 'triclinic'
loop_
_space_group_symop_operation_xyz
x,y,z
-x,-y,-z
loop_
_atom_site_type_symbol
_atom_site_label
_atom_site_fract_x
_atom_site_fract_y
_atom_site_fract_z
Si Si1 0.368359 0.261535 0.710337
Si Si2 0.735383 0.439463 0.628622
Si Si3 0.670609 0.961996 0.780847
Si Si4 0.392485 0.327064 0.041561
Si Si5 0.916323 0.510183 0.125984
Si Si6 0.039650 0.193326 0.318779
Si Si7 0.319968 0.714883 0.825063
O O1 0.207665 0.078604 0.346095
O O2 0.500000 0.500000 0.000000
O O3 0.246441 0.193476 0.728333
O O4 0.610960 0.317268 0.828152
O O5 0.556773 0.271492 0.489705
O O6 0.748828 0.623937 0.855827
O O7 0.000082 0.541923 0.833920
O O8 0.612872 0.288700 0.300544
O O9 0.861306 0.152948 0.153416
O O10 0.596196 0.060428 0.840960
O O11 0.506392 0.275646 0.064225
O O12 0.662333 0.576538 0.361023
O O13 0.013411 0.743946 0.487198
O O14 0.000000 0.500000 0.000000
O O15 0.000000 0.000000 0.000000
O O16 0.000000 0.500000 0.500000
#
# Coordination Sequence:
#
# PCOD9054649 Si02
#       7
#     2   2   2   2   2   2   2
#     4  11  21  42  68  98 135 173 221 280 338 398
#     4  12  23  41  69  98 130 174 232 273 327 397
#     4  12  22  39  72  99 125 174 232 272 327 398
#     4  11  23  42  65  95 136 181 213 275 345 397
#     4  11  21  37  62  98 135 167 213 286 340 380
#     4  11  21  38  66  98 129 171 228 281 325 396
#     4  12  25  43  63  97 139 176 216 282 343 395
#
# _framework density 25.367139000000002
#
# number of rings (size 3 to 8) (size 9 to 14) (size 15 to 20)
#    0.000    0.571    7.143    2.571    0.000    0.571 
#    0.000    0.000    0.000    1.714    0.000    0.000 
#    0.000    0.000    0.000    0.000    0.000    0.000 
#
# Total GULP energy -78065.279859 kJ/mol
# GULP energy per Si atom -5576.091419 kJ/mol
# Density = 2.530940 g / cm^3
# Si number density = 25.367139 Si / 1000 Ang^3
#
#
#
# Elastic Constant Matrix: (Units=GPa)
#
#
# Indices 1 2 3 4 5 6 
#
# 1 81.4467 34.0435 29.1433 5.5209 -39.3581 -20.8899
# 2 34.0435 124.2453 49.5613 -10.1059 -25.9951 -27.3754
# 3 29.1433 49.5613 121.0296 -28.6914 -50.4054 8.8614
# 4 5.5209 -10.1059 -28.6914 45.8413 3.2848 -2.3162
# 5 -39.3581 -25.9951 -50.4054 3.2848 62.9499 -0.2781
# 6 -20.8899 -27.3754 8.8614 -2.3162 -0.2781 42.0086
#
#
#
# Elastic Compliance Matrix: (Units=1/GPa)
#
#
# Indices 1 2 3 4 5 6 
#
# 1 0.022331 -0.000827 -0.001560 -0.004211 0.012639 0.010746
# 2 -0.000827 0.012453 -0.005456 -0.000145 0.000303 0.008849
# 3 -0.001560 -0.005456 0.018057 0.009136 0.010720 -0.007566
# 4 -0.004211 -0.000145 0.009136 0.027651 0.003169 -0.002570
# 5 0.012639 0.000303 0.010720 0.003169 0.032351 0.004610
# 6 0.010746 0.008849 -0.007566 -0.002570 0.004610 0.036400
#
#
# Mechanical properties :
#
#
# Convention : Reuss Voigt Hill
#
# Bulk Modulus (GPa) = 26.91485 61.35752 44.13618
# Shear Modulus (GPa) = 28.19860 44.42485 36.31173
#
# Velocity S-wave (km/s) = 3.33771 4.18936 3.78755
# Velocity P-wave (km/s) = 5.04846 6.90227 6.04683
#
# Compressibility (1/GPa) = 0.03715421
#
# Stress axis : x y z
#
# Youngs Moduli (GPa) = 44.78082 80.30139 55.38162
#
# Poissons Ratio (x) = 0.06640 0.08639
# Poissons Ratio (y) = 0.03703 0.30218
# Poissons Ratio (z) = 0.06986 0.43815
#
# Static dielectric constant tensor:
#      x y z
#    x 2.160900 0.045690 -0.023220 
#    y 0.045690 2.223990 -0.126670 
#    z -0.023220 -0.126670 2.111870 
# 
# From -- ./inp_files/208311.got.cif
#   From: 2010.05.17/outbox.cif.g08.bks.cpg/sg2_105_cif.got.tgz:208311.got - 2010.06.03 11:33:40.
