data_PCOD9054323
_publ_section_title
;
Structure prediction by ZEFSAII (Michael W. Deem and Ramdas Pophale) SiO2 
 PCOD9054323
Probable space group: P -1
;
_chemical_formula_sum "Si O2"
_cell_formula_units_Z 16
_cell_length_a 18.320265
_cell_length_b 20.293088
_cell_length_c 11.506643
_cell_angle_alpha 30.785719
_cell_angle_beta 142.036077
_cell_angle_gamma 159.974055
_cell_volume 745.497816
_symmetry_space_group_name_H-M "P -1"
_symmetry_group_IT_number 2
_symmetry_cell_setting 'triclinic'
loop_
_space_group_symop_operation_xyz
x,y,z
-x,-y,-z
loop_
_atom_site_type_symbol
_atom_site_label
_atom_site_fract_x
_atom_site_fract_y
_atom_site_fract_z
Si Si1 0.395186 0.806451 0.748607
Si Si2 0.025255 0.941423 0.814897
Si Si3 0.907924 0.288774 0.348068
Si Si4 0.871198 0.001880 0.888089
Si Si5 0.368110 0.090897 0.883008
Si Si6 0.395109 0.529119 0.095659
Si Si7 0.247729 0.408541 0.350272
Si Si8 0.850392 0.249222 0.081631
O O1 0.205196 0.714062 0.704691
O O2 0.546976 0.900267 0.904872
O O3 0.500000 0.000000 0.500000
O O4 0.328080 0.619259 0.876845
O O5 0.779017 0.717843 0.808258
O O6 0.124247 0.173109 0.598612
O O7 0.046441 0.891499 0.040773
O O8 0.163482 0.990772 0.816960
O O9 0.782641 0.159449 0.265144
O O10 0.911021 0.157056 0.617249
O O11 0.114312 0.563914 0.160111
O O12 0.624574 0.738501 0.004225
O O13 0.000000 0.000000 0.000000
O O14 0.565698 0.362046 0.684600
O O15 0.300796 0.935475 0.931279
O O16 0.373894 0.482771 0.277576
O O17 0.068954 0.358199 0.180426
#
# Coordination Sequence:
#
# PCOD9054323 Si02
#       8
#     2   2   2   2   2   2   2   2
#     4  11  20  42  71  96 138 177 224 282 331 400
#     4  12  23  41  72 101 135 180 230 279 342 406
#     4  11  23  47  66  96 146 175 221 293 338 395
#     4  12  27  47  66  98 140 182 227 278 344 414
#     4  11  22  39  69 105 131 177 234 270 343 405
#     4  11  23  41  70 101 134 179 226 284 336 398
#     4  11  22  42  66 105 138 172 229 291 332 400
#     4  11  24  42  68 100 136 178 229 284 344 399
#
# _framework density 21.462168999999999
#
# number of rings (size 3 to 8) (size 9 to 14) (size 15 to 20)
#    0.000    0.750    7.500    1.500    0.000    2.000 
#    0.000    3.750    0.000    0.000    0.000    0.000 
#    0.000    0.000    0.000    0.000    0.000    0.000 
#
# Total GULP energy -89334.299949 kJ/mol
# GULP energy per Si atom -5583.393747 kJ/mol
# Density = 2.141332 g / cm^3
# Si number density = 21.462169 Si / 1000 Ang^3
#
#
#
# Elastic Constant Matrix: (Units=GPa)
#
#
# Indices 1 2 3 4 5 6 
#
# 1 81.7749 23.8533 38.3460 -11.9769 1.6131 1.9811
# 2 23.8533 84.1047 26.5368 -14.4583 6.2879 -16.3618
# 3 38.3460 26.5368 152.6631 1.5520 -4.3476 -6.3253
# 4 -11.9769 -14.4583 1.5520 16.5856 2.2415 6.5544
# 5 1.6131 6.2879 -4.3476 2.2415 26.2155 7.7786
# 6 1.9811 -16.3618 -6.3253 6.5544 7.7786 45.9923
#
#
#
# Elastic Compliance Matrix: (Units=1/GPa)
#
#
# Indices 1 2 3 4 5 6 
#
# 1 0.016642 -0.001871 -0.004162 0.012330 -0.001283 -0.003495
# 2 -0.001871 0.016911 -0.002583 0.012546 -0.006965 0.005132
# 3 -0.004162 -0.002583 0.008224 -0.006734 0.002542 0.000921
# 4 0.012330 0.012546 -0.006734 0.085046 -0.009951 -0.007431
# 5 -0.001283 -0.006965 0.002542 -0.009951 0.043547 -0.008020
# 6 -0.003495 0.005132 0.000921 -0.007431 -0.008020 0.026261
#
#
# Mechanical properties :
#
#
# Convention : Reuss Voigt Hill
#
# Bulk Modulus (GPa) = 40.74050 55.11277 47.92663
# Shear Modulus (GPa) = 22.51809 33.07911 27.79860
#
# Velocity S-wave (km/s) = 3.24265 3.93017 3.60284
# Velocity P-wave (km/s) = 5.74834 6.80659 6.29973
#
# Compressibility (1/GPa) = 0.02454560
#
# Stress axis : x y z
#
# Youngs Moduli (GPa) = 60.08959 59.13172 121.60035
#
# Poissons Ratio (x) = 0.11065 0.50604
# Poissons Ratio (y) = 0.11244 0.31408
# Poissons Ratio (z) = 0.25007 0.15273
#
# Static dielectric constant tensor:
#      x y z
#    x 1.402030 -0.274620 0.277490 
#    y -0.274620 1.556610 0.227080 
#    z 0.277490 0.227080 1.615040 
# 
# From -- ./inp_files/467059.got.cif
#   From: 2010.05.17/outbox.cif.g08.bks.cpg/sg2_234_cif.got.tgz:467059.got - 2010.06.03 11:33:40.
