data_PCOD9054677
_publ_section_title
;
Structure prediction by ZEFSAII (Michael W. Deem and Ramdas Pophale) SiO2 
 PCOD9054677
Probable space group: P -1
;
_chemical_formula_sum "Si O2"
_cell_formula_units_Z 16
_cell_length_a 24.546749
_cell_length_b 6.433112
_cell_length_c 11.637027
_cell_angle_alpha 72.795490
_cell_angle_beta 28.221770
_cell_angle_gamma 60.072787
_cell_volume 705.228152
_symmetry_space_group_name_H-M "P -1"
_symmetry_group_IT_number 2
_symmetry_cell_setting 'triclinic'
loop_
_space_group_symop_operation_xyz
x,y,z
-x,-y,-z
loop_
_atom_site_type_symbol
_atom_site_label
_atom_site_fract_x
_atom_site_fract_y
_atom_site_fract_z
Si Si1 0.993436 0.355505 0.712331
Si Si2 0.041697 0.714569 0.457823
Si Si3 0.357406 0.046613 0.219126
Si Si4 0.543910 0.303341 0.343702
Si Si5 0.208585 0.799959 0.473032
Si Si6 0.161279 0.392178 0.730286
Si Si7 0.705785 0.755962 0.245939
Si Si8 0.699186 0.495604 0.890566
O O1 0.034324 0.283710 0.515294
O O2 0.016363 0.592581 0.637767
O O3 0.834174 0.494230 0.000884
O O4 0.084710 0.096483 0.652923
O O5 0.202427 0.573586 0.172764
O O6 0.000000 0.000000 0.500000
O O7 0.247106 0.203435 0.497518
O O8 0.332752 0.224188 0.126347
O O9 0.339942 0.812634 0.258872
O O10 0.500000 0.000000 0.000000
O O11 0.500000 0.500000 0.500000
O O12 0.425085 0.268697 0.519241
O O13 0.662612 0.019171 0.214417
O O14 0.588449 0.431848 0.143483
O O15 0.178969 0.634215 0.641722
O O16 0.231127 0.674097 0.325651
O O17 0.237075 0.249687 0.730990
O O18 0.000000 0.500000 0.000000
#
# Coordination Sequence:
#
# PCOD9054677 Si02
#       8
#     2   2   2   2   2   2   2   2
#     4  11  23  40  68 102 136 178 226 282 351 414
#     4  11  21  37  65 102 135 176 219 281 345 414
#     4  11  27  45  72 102 135 187 240 288 355 413
#     4  11  27  46  69 101 139 189 231 292 353 416
#     4  11  25  45  72 104 140 181 231 292 348 424
#     4  11  28  48  72 104 146 189 238 294 354 427
#     4  11  27  45  69 101 142 180 241 282 354 424
#     4  11  24  42  70 100 139 175 233 284 348 417
#
# _framework density 22.687691999999998
#
# number of rings (size 3 to 8) (size 9 to 14) (size 15 to 20)
#    0.000    1.000    2.500    2.250    8.750    6.000 
#    0.000    0.000    0.000    0.000    0.000    0.000 
#    0.000    0.000    0.000    0.000    0.000    0.000 
#
# Total GULP energy -89242.338355 kJ/mol
# GULP energy per Si atom -5577.646147 kJ/mol
# Density = 2.263605 g / cm^3
# Si number density = 22.687692 Si / 1000 Ang^3
#
#
#
# Elastic Constant Matrix: (Units=GPa)
#
#
# Indices 1 2 3 4 5 6 
#
# 1 90.7229 11.2965 20.7953 -7.1001 -16.4419 3.6134
# 2 11.2965 71.6945 6.9760 -21.5595 -3.0923 0.9557
# 3 20.7953 6.9760 86.5421 -16.5981 -14.7031 2.1922
# 4 -7.1001 -21.5595 -16.5981 36.6367 3.0377 -9.0123
# 5 -16.4419 -3.0923 -14.7031 3.0377 37.1726 -6.3314
# 6 3.6134 0.9557 2.1922 -9.0123 -6.3314 19.5336
#
#
#
# Elastic Compliance Matrix: (Units=1/GPa)
#
#
# Indices 1 2 3 4 5 6 
#
# 1 0.012537 -0.001551 -0.002098 0.000066 0.004492 -0.000521
# 2 -0.001551 0.017598 0.001290 0.011798 0.001195 0.005112
# 3 -0.002098 0.001290 0.014058 0.007217 0.004767 0.003622
# 4 0.000066 0.011798 0.007217 0.041922 0.003700 0.019142
# 5 0.004492 0.001195 0.004767 0.003700 0.032408 0.010787
# 6 -0.000521 0.005112 0.003622 0.019142 0.010787 0.062961
#
#
# Mechanical properties :
#
#
# Convention : Reuss Voigt Hill
#
# Bulk Modulus (GPa) = 25.33257 36.34388 30.83823
# Shear Modulus (GPa) = 25.08024 32.66135 28.87080
#
# Velocity S-wave (km/s) = 3.32845 3.79833 3.57113
# Velocity P-wave (km/s) = 5.09524 5.94057 5.53407
#
# Compressibility (1/GPa) = 0.03947488
#
# Stress axis : x y z
#
# Youngs Moduli (GPa) = 79.76603 56.82405 71.13600
#
# Poissons Ratio (x) = 0.08812 0.14928
# Poissons Ratio (y) = 0.12369 -0.09180
# Poissons Ratio (z) = 0.16739 -0.07333
#
# Static dielectric constant tensor:
#      x y z
#    x 1.911620 -0.057180 0.046750 
#    y -0.057180 3.820860 -0.794010 
#    z 0.046750 -0.794010 2.197710 
# 
# From -- ./inp_files/473391.got.cif
#   From: 2010.05.17/outbox.cif.g08.bks.cpg/sg2_237_cif.got.tgz:473391.got - 2010.06.03 11:33:40.
