data_PCOD9054881
_publ_section_title
;
Structure prediction by ZEFSAII (Michael W. Deem and Ramdas Pophale) SiO2 
 PCOD9054881
Probable space group: P -1
;
_chemical_formula_sum "Si O2"
_cell_formula_units_Z 14
_cell_length_a 19.348918
_cell_length_b 16.194682
_cell_length_c 10.360110
_cell_angle_alpha 144.755718
_cell_angle_beta 135.526631
_cell_angle_gamma 20.644776
_cell_volume 639.672609
_symmetry_space_group_name_H-M "P -1"
_symmetry_group_IT_number 2
_symmetry_cell_setting 'triclinic'
loop_
_space_group_symop_operation_xyz
x,y,z
-x,-y,-z
loop_
_atom_site_type_symbol
_atom_site_label
_atom_site_fract_x
_atom_site_fract_y
_atom_site_fract_z
Si Si1 0.153866 0.934616 0.099569
Si Si2 0.393783 0.044194 0.612187
Si Si3 0.505932 0.507539 0.229027
Si Si4 0.455520 0.865089 0.195281
Si Si5 0.549518 0.741118 0.711144
Si Si6 0.819871 0.630242 0.874133
Si Si7 0.041584 0.534955 0.436432
O O1 0.295530 0.790249 0.229261
O O2 0.311243 0.706536 0.903175
O O3 0.022467 0.242338 0.288485
O O4 0.000000 0.000000 0.000000
O O5 0.423844 0.169228 0.768018
O O6 0.158887 0.304188 0.640140
O O7 0.499833 0.820798 0.351371
O O8 0.486086 0.879088 0.659810
O O9 0.539145 0.584850 0.480989
O O10 0.513423 0.334410 0.064276
O O11 0.223810 0.211757 0.322376
O O12 0.758006 0.564237 0.784840
O O13 0.378466 0.017697 0.931218
O O14 0.881031 0.513384 0.662041
O O15 0.000000 0.500000 0.000000
#
# Coordination Sequence:
#
# PCOD9054881 Si02
#       7
#     2   2   2   2   2   2   2
#     4  11  23  34  62  90 127 162 202 253 305 361
#     4  11  21  39  62  91 125 164 201 246 303 377
#     4  11  22  41  56  93 128 159 200 258 306 364
#     4  11  25  36  63  93 134 162 192 249 320 371
#     4  11  22  41  66  89 118 164 215 252 301 360
#     4  11  22  39  67  91 113 161 218 263 291 356
#     4  12  22  40  61  95 123 161 209 251 302 373
#
# _framework density 21.886196000000002
#
# number of rings (size 3 to 8) (size 9 to 14) (size 15 to 20)
#    0.000    0.857    5.714    2.143    4.000    0.000 
#    0.000    0.714    0.000    1.714    0.000    0.000 
#    0.000    0.000    0.000    0.000    0.000    0.000 
#
# Total GULP energy -78296.288558 kJ/mol
# GULP energy per Si atom -5592.592040 kJ/mol
# Density = 2.183638 g / cm^3
# Si number density = 21.886196 Si / 1000 Ang^3
#
#
#
# Elastic Constant Matrix: (Units=GPa)
#
#
# Indices 1 2 3 4 5 6 
#
# 1 82.6244 24.3214 24.0604 6.9436 18.3702 -39.9240
# 2 24.3214 69.7403 15.5387 -4.2277 11.6768 -29.8327
# 3 24.0604 15.5387 136.0137 -0.3303 34.3119 -18.8970
# 4 6.9436 -4.2277 -0.3303 27.7451 -5.6174 9.0376
# 5 18.3702 11.6768 34.3119 -5.6174 47.8600 -7.7393
# 6 -39.9240 -29.8327 -18.8970 9.0376 -7.7393 42.8586
#
#
#
# Elastic Compliance Matrix: (Units=1/GPa)
#
#
# Indices 1 2 3 4 5 6 
#
# 1 0.032139 0.004546 0.001627 -0.021437 -0.011257 0.036308
# 2 0.004546 0.021563 0.000714 -0.005287 -0.004939 0.019782
# 3 0.001627 0.000714 0.009566 -0.003480 -0.007148 0.005674
# 4 -0.021437 -0.005287 -0.003480 0.054341 0.012841 -0.034324
# 5 -0.011257 -0.004939 -0.007148 0.012841 0.030750 -0.014230
# 6 0.036308 0.019782 0.005674 -0.034324 -0.014230 0.078094
#
#
# Mechanical properties :
#
#
# Convention : Reuss Voigt Hill
#
# Bulk Modulus (GPa) = 12.97985 46.24661 29.61323
# Shear Modulus (GPa) = 20.97667 38.65658 29.81663
#
# Velocity S-wave (km/s) = 3.09923 4.20724 3.69500
# Velocity P-wave (km/s) = 4.33018 6.69160 5.63596
#
# Compressibility (1/GPa) = 0.07704250
#
# Stress axis : x y z
#
# Youngs Moduli (GPa) = 31.11447 46.37566 104.54017
#
# Poissons Ratio (x) = -0.21081 -0.17013
# Poissons Ratio (y) = -0.14144 -0.07464
# Poissons Ratio (z) = -0.05064 -0.03311
#
# Static dielectric constant tensor:
#      x y z
#    x 1.817400 0.014100 0.001920 
#    y 0.014100 1.868780 -0.053800 
#    z 0.001920 -0.053800 1.823170 
# 
# From -- ./inp_files/196458.got.cif
#   From: 2010.05.17/outbox.cif.g08.bks.cpg/sg2_99_cif.got.tgz:196458.got - 2010.06.03 11:33:40.
