data_PCOD9054420
_publ_section_title
;
Structure prediction by ZEFSAII (Michael W. Deem and Ramdas Pophale) SiO2 
 PCOD9054420
Probable space group: P -1
;
_chemical_formula_sum "Si O2"
_cell_formula_units_Z 16
_cell_length_a 8.861392
_cell_length_b 6.766726
_cell_length_c 22.038543
_cell_angle_alpha 132.673741
_cell_angle_beta 130.186041
_cell_angle_gamma 56.946974
_cell_volume 728.391192
_symmetry_space_group_name_H-M "P -1"
_symmetry_group_IT_number 2
_symmetry_cell_setting 'triclinic'
loop_
_space_group_symop_operation_xyz
x,y,z
-x,-y,-z
loop_
_atom_site_type_symbol
_atom_site_label
_atom_site_fract_x
_atom_site_fract_y
_atom_site_fract_z
Si Si1 0.479195 0.256100 0.302848
Si Si2 0.981568 0.397758 0.905380
Si Si3 0.717380 0.344513 0.046873
Si Si4 0.805743 0.232520 0.183185
Si Si5 0.814840 0.677332 0.645290
Si Si6 0.606037 0.801923 0.862706
Si Si7 0.771010 0.128936 0.454438
Si Si8 0.541889 0.116763 0.600142
O O1 0.308341 0.268398 0.312403
O O2 0.434967 0.108841 0.199264
O O3 0.691481 0.151016 0.369417
O O4 0.471338 0.564655 0.343453
O O5 0.118153 0.541620 0.925923
O O6 0.753137 0.508944 0.848002
O O7 0.062747 0.073095 0.856014
O O8 0.000000 0.500000 0.000000
O O9 0.752342 0.371996 0.133249
O O10 0.500000 0.500000 0.000000
O O11 0.717214 0.025230 0.968566
O O12 0.602913 0.204833 0.159508
O O13 0.949922 0.386978 0.291910
O O14 0.741981 0.432091 0.539532
O O15 0.752243 0.947694 0.644578
O O16 0.628315 0.955888 0.415230
O O17 0.000000 0.000000 0.500000
O O18 0.500000 0.000000 0.500000
#
# Coordination Sequence:
#
# PCOD9054420 Si02
#       8
#     2   2   2   2   2   2   2   2
#     4  11  24  45  67  98 132 175 226 276 336 399
#     4  12  25  46  75 100 135 184 227 277 344 401
#     4  12  25  48  72  98 141 182 223 285 338 398
#     4  12  27  47  68 103 139 177 229 284 334 407
#     4  11  24  44  68  96 135 175 223 277 335 400
#     4  12  26  46  71 102 137 179 229 279 342 403
#     4  11  25  42  65  99 135 175 219 275 338 399
#     4  11  20  44  72  89 128 179 222 272 333 398
#
# _framework density 21.966218999999999
#
# number of rings (size 3 to 8) (size 9 to 14) (size 15 to 20)
#    0.000    0.500    5.000    3.750    3.500    2.500 
#    4.500    0.000    0.000    0.000    0.000    0.000 
#    0.000    0.000    0.000    0.000    0.000    0.000 
#
# Total GULP energy -89583.005057 kJ/mol
# GULP energy per Si atom -5598.937816 kJ/mol
# Density = 2.191622 g / cm^3
# Si number density = 21.966219 Si / 1000 Ang^3
#
#
#
# Elastic Constant Matrix: (Units=GPa)
#
#
# Indices 1 2 3 4 5 6 
#
# 1 53.2303 25.9906 11.1789 -17.8124 -2.2475 -3.2628
# 2 25.9906 102.3086 13.4115 -31.9079 8.0586 -5.1030
# 3 11.1789 13.4115 93.3829 -38.1690 -1.6891 2.9621
# 4 -17.8124 -31.9079 -38.1690 47.3544 6.9310 2.4255
# 5 -2.2475 8.0586 -1.6891 6.9310 31.1625 -5.2957
# 6 -3.2628 -5.1030 2.9621 2.4255 -5.2957 39.3938
#
#
#
# Elastic Compliance Matrix: (Units=1/GPa)
#
#
# Indices 1 2 3 4 5 6 
#
# 1 0.022794 -0.004137 0.000143 0.005592 0.001686 0.001224
# 2 -0.004137 0.014582 0.003087 0.011733 -0.006561 -0.000290
# 3 0.000143 0.003087 0.017020 0.016556 -0.003959 -0.002420
# 4 0.005592 0.011733 0.016556 0.046532 -0.012735 -0.003839
# 5 0.001686 -0.006561 -0.003959 -0.012735 0.037444 0.005405
# 6 0.001224 -0.000290 -0.002420 -0.003839 0.005405 0.026593
#
#
# Mechanical properties :
#
#
# Convention : Reuss Voigt Hill
#
# Bulk Modulus (GPa) = 19.01769 38.89821 28.95795
# Shear Modulus (GPa) = 27.12859 36.80487 31.96673
#
# Velocity S-wave (km/s) = 3.51809 4.09775 3.81894
# Velocity P-wave (km/s) = 5.01788 6.33525 5.71465
#
# Compressibility (1/GPa) = 0.05258262
#
# Stress axis : x y z
#
# Youngs Moduli (GPa) = 43.87183 68.57677 58.75307
#
# Poissons Ratio (x) = 0.28370 -0.00840
# Poissons Ratio (y) = 0.18149 -0.18138
# Poissons Ratio (z) = -0.00627 -0.21171
#
# Static dielectric constant tensor:
#      x y z
#    x 1.780090 -0.049370 -0.040160 
#    y -0.049370 1.842020 0.056660 
#    z -0.040160 0.056660 1.924380 
# 
# From -- ./inp_files/106241.got.cif
#   From: 2010.05.17/outbox.cif.g08.bks.cpg/sg2_54_cif.got.tgz:106241.got - 2010.06.03 11:33:40.
