data_PCOD9054160
_publ_section_title
;
Structure prediction by ZEFSAII (Michael W. Deem and Ramdas Pophale) SiO2 
 PCOD9054160
Probable space group: P -1
;
_chemical_formula_sum "Si O2"
_cell_formula_units_Z 16
_cell_length_a 12.000695
_cell_length_b 9.761007
_cell_length_c 8.847004
_cell_angle_alpha 124.964757
_cell_angle_beta 52.806947
_cell_angle_gamma 117.473711
_cell_volume 665.971159
_symmetry_space_group_name_H-M "P -1"
_symmetry_group_IT_number 2
_symmetry_cell_setting 'triclinic'
loop_
_space_group_symop_operation_xyz
x,y,z
-x,-y,-z
loop_
_atom_site_type_symbol
_atom_site_label
_atom_site_fract_x
_atom_site_fract_y
_atom_site_fract_z
Si Si1 0.385471 0.344795 0.339050
Si Si2 0.202030 0.444358 0.808492
Si Si3 0.771973 0.828396 0.134069
Si Si4 0.810236 0.933612 0.849905
Si Si5 0.920823 0.254095 0.783891
Si Si6 0.254738 0.866103 0.428358
Si Si7 0.451649 0.685382 0.334181
Si Si8 0.533855 0.102655 0.234185
O O1 0.338257 0.421640 0.583884
O O2 0.246553 0.224553 0.310160
O O3 0.440316 0.491573 0.268663
O O4 0.498611 0.227010 0.211359
O O5 0.189124 0.319676 0.884934
O O6 0.069151 0.376504 0.766127
O O7 0.190145 0.632917 0.987363
O O8 0.605264 0.761576 0.188001
O O9 0.780369 0.998490 0.334543
O O10 0.854218 0.871602 0.937519
O O11 0.916826 0.082004 0.773893
O O12 0.669779 0.017911 0.044727
O O13 0.873494 0.202609 0.620971
O O14 0.321709 0.717985 0.358984
O O15 0.386524 0.970721 0.291702
O O16 0.444104 0.793830 0.561631
#
# Coordination Sequence:
#
# PCOD9054160 Si02
#       8
#     2   2   2   2   2   2   2   2
#     4  12  25  39  67  99 133 176 215 263 321 391
#     4  11  26  49  65  94 127 173 227 270 320 380
#     4  11  23  41  68  98 138 166 213 268 325 389
#     4  12  24  40  67 103 131 170 215 266 324 393
#     4  11  27  46  70  89 127 178 223 271 320 381
#     4  11  21  43  66  96 132 177 206 269 326 384
#     4  11  22  38  65 103 136 170 205 269 330 377
#     4  11  20  41  62 101 136 167 211 259 332 388
#
# _framework density 24.025064
#
# number of rings (size 3 to 8) (size 9 to 14) (size 15 to 20)
#    0.000    0.750    6.250    2.250    3.500    3.000 
#    0.000    0.625    0.000    0.000    0.000    0.000 
#    0.000    0.000    0.000    0.000    0.000    0.000 
#
# Total GULP energy -89695.677956 kJ/mol
# GULP energy per Si atom -5605.979872 kJ/mol
# Density = 2.397038 g / cm^3
# Si number density = 24.025064 Si / 1000 Ang^3
#
#
#
# Elastic Constant Matrix: (Units=GPa)
#
#
# Indices 1 2 3 4 5 6 
#
# 1 88.5924 28.3890 3.5937 -2.6739 12.5363 -19.8414
# 2 28.3890 117.6621 11.6843 5.4410 17.3691 -34.9921
# 3 3.5937 11.6843 63.2269 5.2232 6.4754 -7.1001
# 4 -2.6739 5.4410 5.2232 17.9479 -2.1657 5.1784
# 5 12.5363 17.3691 6.4754 -2.1657 31.5708 -0.6122
# 6 -19.8414 -34.9921 -7.1001 5.1784 -0.6122 37.4663
#
#
#
# Elastic Compliance Matrix: (Units=1/GPa)
#
#
# Indices 1 2 3 4 5 6 
#
# 1 0.013687 -0.000528 0.000674 -0.000609 -0.005191 0.006882
# 2 -0.000528 0.014655 0.000666 -0.009991 -0.008389 0.014778
# 3 0.000674 0.000666 0.017297 -0.007180 -0.004574 0.005175
# 4 -0.000609 -0.009991 -0.007180 0.067964 0.011482 -0.020221
# 5 -0.005191 -0.008389 -0.004574 0.011482 0.039837 -0.012386
# 6 0.006882 0.014778 0.005175 -0.020221 -0.012386 0.047711
#
#
# Mechanical properties :
#
#
# Convention : Reuss Voigt Hill
#
# Bulk Modulus (GPa) = 21.15767 39.64613 30.40190
# Shear Modulus (GPa) = 23.22533 32.45130 27.83832
#
# Velocity S-wave (km/s) = 3.11257 3.67921 3.40769
# Velocity P-wave (km/s) = 4.66295 5.88104 5.30706
#
# Compressibility (1/GPa) = 0.04726419
#
# Stress axis : x y z
#
# Youngs Moduli (GPa) = 73.06158 68.23392 57.81220
#
# Poissons Ratio (x) = 0.03603 -0.03899
# Poissons Ratio (y) = 0.03858 -0.03849
# Poissons Ratio (z) = -0.04928 -0.04542
#
# Static dielectric constant tensor:
#      x y z
#    x 1.912050 0.010830 -0.001500 
#    y 0.010830 1.894270 -0.016850 
#    z -0.001500 -0.016850 1.923590 
# 
# From -- ./inp_files/186972.got.cif
#   From: 2010.05.17/outbox.cif.g08.bks.cpg/sg2_94_cif.got.tgz:186972.got - 2010.06.03 11:33:40.
