data_PCOD9054690
_publ_section_title
;
Structure prediction by ZEFSAII (Michael W. Deem and Ramdas Pophale) SiO2 
 PCOD9054690
Probable space group: P -1
;
_chemical_formula_sum "Si O2"
_cell_formula_units_Z 16
_cell_length_a 15.389855
_cell_length_b 16.143015
_cell_length_c 9.882233
_cell_angle_alpha 53.028730
_cell_angle_beta 83.879302
_cell_angle_gamma 38.992293
_cell_volume 859.379788
_symmetry_space_group_name_H-M "P -1"
_symmetry_group_IT_number 2
_symmetry_cell_setting 'triclinic'
loop_
_space_group_symop_operation_xyz
x,y,z
-x,-y,-z
loop_
_atom_site_type_symbol
_atom_site_label
_atom_site_fract_x
_atom_site_fract_y
_atom_site_fract_z
Si Si1 0.482104 0.821137 0.674040
Si Si2 0.944373 0.143610 0.980267
Si Si3 0.614514 0.299458 0.576369
Si Si4 0.342036 0.396335 0.569146
Si Si5 0.066136 0.372549 0.253203
Si Si6 0.658314 0.691173 0.050761
Si Si7 0.656430 0.792014 0.451809
Si Si8 0.438155 0.492109 0.140259
O O1 0.607360 0.686229 0.924886
O O2 0.567570 0.819925 0.563711
O O3 0.505950 0.685062 0.733945
O O4 0.255096 0.096436 0.467866
O O5 0.842804 0.343665 0.716152
O O6 0.786818 0.272195 0.993279
O O7 0.000000 0.000000 0.000000
O O8 0.152614 0.953754 0.193804
O O9 0.500000 0.500000 0.500000
O O10 0.522738 0.282072 0.619760
O O11 0.566115 0.391271 0.345765
O O12 0.334637 0.296332 0.587850
O O13 0.350294 0.367511 0.755420
O O14 0.144888 0.367976 0.360759
O O15 0.000000 0.500000 0.000000
O O16 0.874243 0.512736 0.189383
O O17 0.493155 0.957777 0.812785
O O18 0.500000 0.500000 0.000000
#
# Coordination Sequence:
#
# PCOD9054690 Si02
#       8
#     2   2   2   2   2   2   2   2
#     4  11  22  41  63  93 130 168 210 264 327 382
#     4  11  23  43  70  92 128 177 221 258 330 397
#     4  11  23  45  69  88 130 179 211 268 331 383
#     4  11  25  41  65  98 129 168 219 272 319 383
#     4  11  21  37  66  90 127 173 211 259 324 387
#     4  11  24  39  65  95 131 169 214 269 321 388
#     4  11  21  42  62  92 130 169 216 262 316 389
#     4  11  26  43  68 104 133 164 220 282 319 386
#
# _framework density 18.618077
#
# number of rings (size 3 to 8) (size 9 to 14) (size 15 to 20)
#    0.000    1.000    7.500    1.125    1.750    7.000 
#    0.000    0.000    0.000    0.000    0.000    0.000 
#    0.000    0.000    0.000    0.000    0.000    0.000 
#
# Total GULP energy -89274.027590 kJ/mol
# GULP energy per Si atom -5579.626724 kJ/mol
# Density = 1.857570 g / cm^3
# Si number density = 18.618077 Si / 1000 Ang^3
#
#
#
# Elastic Constant Matrix: (Units=GPa)
#
#
# Indices 1 2 3 4 5 6 
#
# 1 68.8178 35.9617 54.5049 -1.2480 10.9641 1.3616
# 2 35.9617 62.5991 53.8343 10.5787 -5.2667 -3.6288
# 3 54.5049 53.8343 133.5199 10.8392 25.0860 -32.9163
# 4 -1.2480 10.5787 10.8392 39.6966 -8.8252 -7.2564
# 5 10.9641 -5.2667 25.0860 -8.8252 36.3159 5.2957
# 6 1.3616 -3.6288 -32.9163 -7.2564 5.2957 36.3870
#
#
#
# Elastic Compliance Matrix: (Units=1/GPa)
#
#
# Indices 1 2 3 4 5 6 
#
# 1 0.027888 -0.006278 -0.012787 0.004245 0.002392 -0.012739
# 2 -0.006278 0.043549 -0.026125 -0.002548 0.029109 -0.023800
# 3 -0.012787 -0.026125 0.039084 -0.004769 -0.033503 0.037155
# 4 0.004245 -0.002548 -0.004769 0.029223 0.008770 -0.000175
# 5 0.002392 0.029109 -0.033503 0.008770 0.061366 -0.034676
# 6 -0.012739 -0.023800 0.037155 -0.000175 -0.034676 0.064208
#
#
# Mechanical properties :
#
#
# Convention : Reuss Voigt Hill
#
# Bulk Modulus (GPa) = 49.65463 61.50430 55.57947
# Shear Modulus (GPa) = 13.79640 30.52227 22.15934
#
# Velocity S-wave (km/s) = 2.72512 4.05333 3.45368
# Velocity P-wave (km/s) = 6.05225 7.41704 6.76913
#
# Compressibility (1/GPa) = 0.02013911
#
# Stress axis : x y z
#
# Youngs Moduli (GPa) = 35.85806 22.96285 25.58564
#
# Poissons Ratio (x) = 0.14417 0.32717
# Poissons Ratio (y) = 0.22513 0.66843
# Poissons Ratio (z) = 0.45853 0.59991
#
# Static dielectric constant tensor:
#      x y z
#    x 1.666650 -0.033050 -0.010870 
#    y -0.033050 1.791060 0.046220 
#    z -0.010870 0.046220 1.660270 
# 
# From -- ./inp_files/312733.got.cif
#   From: 2010.05.17/outbox.cif.g08.bks.cpg/sg2_157_cif.got.tgz:312733.got - 2010.06.03 11:33:40.
