data_PCOD9054573
_publ_section_title
;
Structure prediction by ZEFSAII (Michael W. Deem and Ramdas Pophale) SiO2 
 PCOD9054573
Probable space group: P -1
;
_chemical_formula_sum "Si O2"
_cell_formula_units_Z 12
_cell_length_a 12.109162
_cell_length_b 5.818804
_cell_length_c 8.461294
_cell_angle_alpha 88.658070
_cell_angle_beta 65.706414
_cell_angle_gamma 122.095916
_cell_volume 437.146835
_symmetry_space_group_name_H-M "P -1"
_symmetry_group_IT_number 2
_symmetry_cell_setting 'triclinic'
loop_
_space_group_symop_operation_xyz
x,y,z
-x,-y,-z
loop_
_atom_site_type_symbol
_atom_site_label
_atom_site_fract_x
_atom_site_fract_y
_atom_site_fract_z
Si Si1 0.052038 0.376884 0.843510
Si Si2 0.931220 0.222921 0.411020
Si Si3 0.293457 0.630774 0.183793
Si Si4 0.515020 0.207752 0.625118
Si Si5 0.262330 0.247090 0.712823
Si Si6 0.236925 0.067760 0.152579
O O1 0.102216 0.565207 0.650732
O O2 0.188954 0.386256 0.833751
O O3 0.901478 0.075330 0.885698
O O4 0.000000 0.500000 0.000000
O O5 0.839477 0.052169 0.624419
O O6 0.111077 0.409741 0.322212
O O7 0.873954 0.000533 0.307002
O O8 0.397263 0.777243 0.273851
O O9 0.311693 0.900087 0.085042
O O10 0.325580 0.410749 0.097351
O O11 0.355474 0.155443 0.746604
O O12 0.622968 0.525264 0.487143
O O13 0.500000 0.000000 0.500000
#
# Coordination Sequence:
#
# PCOD9054573 Si02
#       6
#     2   2   2   2   2   2
#     4  11  24  40  62  97 135 172 217 271 330 394
#     4  11  21  39  65  95 124 166 226 275 326 382
#     4  11  21  36  62  93 129 166 212 270 328 387
#     4  11  23  36  59  99 133 168 211 277 336 388
#     4  11  21  38  62  91 134 167 213 268 339 385
#     4  11  21  38  65  95 127 166 221 273 324 381
#
# _framework density 27.450728999999999
#
# number of rings (size 3 to 8) (size 9 to 14) (size 15 to 20)
#    0.000    1.000    3.333    6.500    2.333    0.667 
#    0.000    0.000    0.000    5.000    0.000    0.000 
#    0.000    0.000    0.000    0.000    0.000    0.000 
#
# Total GULP energy -67194.305878 kJ/mol
# GULP energy per Si atom -5599.525490 kJ/mol
# Density = 2.738825 g / cm^3
# Si number density = 27.450729 Si / 1000 Ang^3
#
#
#
# Elastic Constant Matrix: (Units=GPa)
#
#
# Indices 1 2 3 4 5 6 
#
# 1 255.3396 69.1360 69.8443 12.4910 -6.5313 -9.4733
# 2 69.1360 151.9898 24.6362 29.9418 -0.2443 -8.2119
# 3 69.8443 24.6362 92.0087 -12.4213 0.9378 -5.2790
# 4 12.4910 29.9418 -12.4213 37.3070 -6.7519 10.0329
# 5 -6.5313 -0.2443 0.9378 -6.7519 43.5437 4.3616
# 6 -9.4733 -8.2119 -5.2790 10.0329 4.3616 56.9258
#
#
#
# Elastic Compliance Matrix: (Units=1/GPa)
#
#
# Indices 1 2 3 4 5 6 
#
# 1 0.005566 -0.001390 -0.004117 -0.002215 0.000502 0.000696
# 2 -0.001390 0.009558 -0.002562 -0.009092 -0.001775 0.002648
# 3 -0.004117 -0.002562 0.015837 0.009145 0.000569 -0.001241
# 4 -0.002215 -0.009092 0.009145 0.041428 0.006710 -0.008648
# 5 0.000502 -0.001775 0.000569 0.006710 0.024377 -0.003170
# 6 0.000696 0.002648 -0.001241 -0.008648 -0.003170 0.019717
#
#
# Mechanical properties :
#
#
# Convention : Reuss Voigt Hill
#
# Bulk Modulus (GPa) = 67.45816 91.84122 79.64969
# Shear Modulus (GPa) = 36.34731 49.93673 43.14202
#
# Velocity S-wave (km/s) = 3.64276 4.26977 3.96866
# Velocity P-wave (km/s) = 6.50542 7.60508 7.07664
#
# Compressibility (1/GPa) = 0.01482400
#
# Stress axis : x y z
#
# Youngs Moduli (GPa) = 179.66693 104.62291 63.14145
#
# Poissons Ratio (x) = 0.14538 0.25997
# Poissons Ratio (y) = 0.24966 0.16176
# Poissons Ratio (z) = 0.73974 0.26803
#
# Static dielectric constant tensor:
#      x y z
#    x 2.155490 -0.083730 -0.033010 
#    y -0.083730 2.190500 -0.000830 
#    z -0.033010 -0.000830 2.214970 
# 
# From -- ./inp_files/26259.got.cif
#   From: 2010.05.17/outbox.cif.g08.bks.cpg/sg2_14_cif.got.tgz:26259.got - 2010.06.03 11:33:40.
