data_PCOD9054597
_publ_section_title
;
Structure prediction by ZEFSAII (Michael W. Deem and Ramdas Pophale) SiO2 
 PCOD9054597
Probable space group: P -1
;
_chemical_formula_sum "Si O2"
_cell_formula_units_Z 14
_cell_length_a 12.056499
_cell_length_b 5.216751
_cell_length_c 10.439865
_cell_angle_alpha 83.075335
_cell_angle_beta 122.656875
_cell_angle_gamma 90.468157
_cell_volume 547.517101
_symmetry_space_group_name_H-M "P -1"
_symmetry_group_IT_number 2
_symmetry_cell_setting 'triclinic'
loop_
_space_group_symop_operation_xyz
x,y,z
-x,-y,-z
loop_
_atom_site_type_symbol
_atom_site_label
_atom_site_fract_x
_atom_site_fract_y
_atom_site_fract_z
Si Si1 0.636619 0.189990 0.037568
Si Si2 0.281122 0.905896 0.507257
Si Si3 0.107334 0.210035 0.538226
Si Si4 0.819467 0.663791 0.146397
Si Si5 0.478291 0.596173 0.783169
Si Si6 0.100785 0.592978 0.272056
Si Si7 0.378527 0.345128 0.374008
O O1 0.740323 0.413545 0.088639
O O2 0.554694 0.248170 0.115719
O O3 0.720597 0.923443 0.074216
O O4 0.528697 0.302495 0.860145
O O5 0.348042 0.633649 0.612425
O O6 0.091856 0.378361 0.390567
O O7 0.243846 0.047781 0.606303
O O8 0.365144 0.084144 0.461782
O O9 0.123746 0.357092 0.671371
O O10 0.850130 0.150110 0.647070
O O11 0.000000 0.000000 0.500000
O O12 0.948302 0.659110 0.134038
O O13 0.585179 0.708376 0.748038
O O14 0.231781 0.496120 0.278739
O O15 0.500000 0.500000 0.500000
#
# Coordination Sequence:
#
# PCOD9054597 Si02
#       7
#     2   2   2   2   2   2   2
#     4  11  28  45  73  98 138 195 227 288 333 419
#     4  11  22  40  65 104 132 174 225 293 354 404
#     4  11  21  36  66 103 140 173 218 292 356 404
#     4  12  24  45  67 102 141 177 236 276 352 417
#     4  11  24  47  66 100 138 181 242 276 347 413
#     4  11  24  39  68 103 137 177 226 290 361 408
#     4  11  25  41  69 104 137 179 227 294 354 411
#
# _framework density 25.569977000000002
#
# number of rings (size 3 to 8) (size 9 to 14) (size 15 to 20)
#    0.000    0.857    4.286    2.571    4.000    3.429 
#    0.000    1.429    0.000    0.000    0.000    0.000 
#    0.000    0.000    0.000    0.000    0.000    0.000 
#
# Total GULP energy -78216.235832 kJ/mol
# GULP energy per Si atom -5586.873988 kJ/mol
# Density = 2.551178 g / cm^3
# Si number density = 25.569977 Si / 1000 Ang^3
#
#
#
# Elastic Constant Matrix: (Units=GPa)
#
#
# Indices 1 2 3 4 5 6 
#
# 1 213.8231 60.4576 46.6726 -11.1732 22.3147 -10.0016
# 2 60.4576 126.0973 25.1773 -6.9723 24.9066 16.3030
# 3 46.6726 25.1773 55.1133 -9.0987 12.5837 2.8580
# 4 -11.1732 -6.9723 -9.0987 31.3253 -0.1296 14.1553
# 5 22.3147 24.9066 12.5837 -0.1296 39.5455 -4.2918
# 6 -10.0016 16.3030 2.8580 14.1553 -4.2918 61.7435
#
#
#
# Elastic Compliance Matrix: (Units=1/GPa)
#
#
# Indices 1 2 3 4 5 6 
#
# 1 0.006434 -0.002370 -0.004409 -0.000385 -0.000527 0.001924
# 2 -0.002370 0.011185 -0.000976 0.003356 -0.005870 -0.004469
# 3 -0.004409 -0.000976 0.024849 0.007022 -0.005170 -0.003576
# 4 -0.000385 0.003356 0.007022 0.039367 -0.005159 -0.010657
# 5 -0.000527 -0.005870 -0.005170 -0.005159 0.031461 0.005073
# 6 0.001924 -0.004469 -0.003576 -0.010657 0.005073 0.020649
#
#
# Mechanical properties :
#
#
# Convention : Reuss Voigt Hill
#
# Bulk Modulus (GPa) = 37.09549 73.29430 55.19490
# Shear Modulus (GPa) = 31.55746 44.03796 37.79771
#
# Velocity S-wave (km/s) = 3.51687 4.15451 3.84892
# Velocity P-wave (km/s) = 5.57047 7.19303 6.43311
#
# Compressibility (1/GPa) = 0.02695746
#
# Stress axis : x y z
#
# Youngs Moduli (GPa) = 155.41808 89.40813 40.24310
#
# Poissons Ratio (x) = 0.21194 0.17742
# Poissons Ratio (y) = 0.36841 0.03927
# Poissons Ratio (z) = 0.68521 0.08726
#
# Static dielectric constant tensor:
#      x y z
#    x 2.108480 -0.084580 0.068590 
#    y -0.084580 2.026540 -0.039550 
#    z 0.068590 -0.039550 2.105610 
# 
# From -- ./inp_files/410337.got.cif
#   From: 2010.05.17/outbox.cif.g08.bks.cpg/sg2_206_cif.got.tgz:410337.got - 2010.06.03 11:33:40.
