data_PCOD9054654
_publ_section_title
;
Structure prediction by ZEFSAII (Michael W. Deem and Ramdas Pophale) SiO2 
 PCOD9054654
Probable space group: P -1
;
_chemical_formula_sum "Si O2"
_cell_formula_units_Z 16
_cell_length_a 14.983831
_cell_length_b 14.330346
_cell_length_c 8.722331
_cell_angle_alpha 82.825536
_cell_angle_beta 98.672252
_cell_angle_gamma 28.422499
_cell_volume 737.574079
_symmetry_space_group_name_H-M "P -1"
_symmetry_group_IT_number 2
_symmetry_cell_setting 'triclinic'
loop_
_space_group_symop_operation_xyz
x,y,z
-x,-y,-z
loop_
_atom_site_type_symbol
_atom_site_label
_atom_site_fract_x
_atom_site_fract_y
_atom_site_fract_z
Si Si1 0.054398 0.231918 0.103274
Si Si2 0.906385 0.294513 0.603978
Si Si3 0.551982 0.040959 0.316519
Si Si4 0.954802 0.170876 0.321277
Si Si5 0.793205 0.836603 0.136640
Si Si6 0.743056 0.187826 0.271617
Si Si7 0.122725 0.351707 0.288686
Si Si8 0.602197 0.615947 0.730764
O O1 0.056030 0.318598 0.198254
O O2 0.058530 0.132463 0.220773
O O3 0.234617 0.081319 0.046944
O O4 0.820980 0.447429 0.906768
O O5 0.867013 0.321064 0.406728
O O6 0.688644 0.497453 0.613396
O O7 0.039231 0.261502 0.692329
O O8 0.083622 0.040755 0.735540
O O9 0.575082 0.030067 0.143248
O O10 0.761743 0.782173 0.491038
O O11 0.326144 0.205002 0.275829
O O12 0.557139 0.140679 0.371837
O O13 0.766025 0.273577 0.212441
O O14 0.153638 0.921862 0.506314
O O15 0.920391 0.617884 0.184854
O O16 0.511100 0.354769 0.198786
#
# Coordination Sequence:
#
# PCOD9054654 Si02
#       8
#     2   2   2   2   2   2   2   2
#     4  11  23  39  57  89 128 151 190 250 297 341
#     4   9  18  37  63  85 115 154 193 243 289 340
#     4  11  22  39  64  85 112 164 205 231 287 356
#     4   9  20  41  64  87 117 154 196 251 286 346
#     4  11  21  38  63  85 123 159 187 248 298 337
#     4   9  19  40  68  82 116 154 204 237 293 348
#     4  11  23  41  60  87 119 156 205 242 280 350
#     4  11  21  37  63  85 123 155 189 245 298 351
#
# _framework density 21.692737000000001
#
# number of rings (size 3 to 8) (size 9 to 14) (size 15 to 20)
#    0.750    1.000    3.750    2.250    0.000    1.500 
#    0.000    3.750    0.000    0.000    0.000    0.000 
#    0.000    0.000    0.000    0.000    0.000    0.000 
#
# Total GULP energy -89262.731617 kJ/mol
# GULP energy per Si atom -5578.920726 kJ/mol
# Density = 2.164336 g / cm^3
# Si number density = 21.692737 Si / 1000 Ang^3
#
#
#
# Elastic Constant Matrix: (Units=GPa)
#
#
# Indices 1 2 3 4 5 6 
#
# 1 128.9763 23.8696 33.7750 22.6334 -17.2464 -8.6697
# 2 23.8696 75.5155 16.8029 26.9213 -18.9892 -16.6659
# 3 33.7750 16.8029 37.6694 6.7152 -19.8059 -1.6927
# 4 22.6334 26.9213 6.7152 18.4938 -6.7856 -3.7585
# 5 -17.2464 -18.9892 -19.8059 -6.7856 39.9354 3.5505
# 6 -8.6697 -16.6659 -1.6927 -3.7585 3.5505 15.7851
#
#
#
# Elastic Compliance Matrix: (Units=1/GPa)
#
#
# Indices 1 2 3 4 5 6 
#
# 1 0.014119 0.008888 -0.012290 -0.023940 -0.000755 0.010290
# 2 0.008888 0.043949 -0.012386 -0.061544 0.005100 0.034154
# 3 -0.012290 -0.012386 0.048069 0.019058 0.017124 -0.013987
# 4 -0.023940 -0.061544 0.019058 0.158289 0.000161 -0.038430
# 5 -0.000755 0.005100 0.017124 0.000161 0.035766 -0.001200
# 6 0.010290 0.034154 -0.013987 -0.038430 -0.001200 0.094681
#
#
# Mechanical properties :
#
#
# Convention : Reuss Voigt Hill
#
# Bulk Modulus (GPa) = 13.41197 43.45072 28.43134
# Shear Modulus (GPa) = 11.07899 26.02378 18.55138
#
# Velocity S-wave (km/s) = 2.26237 3.46736 2.92753
# Velocity P-wave (km/s) = 3.60840 6.00863 4.95602
#
# Compressibility (1/GPa) = 0.07456027
#
# Stress axis : x y z
#
# Youngs Moduli (GPa) = 70.82730 22.75343 20.80335
#
# Poissons Ratio (x) = -0.20222 0.25568
# Poissons Ratio (y) = -0.62948 0.25767
# Poissons Ratio (z) = 0.87049 0.28182
#
# Static dielectric constant tensor:
#      x y z
#    x 1.833290 -0.025230 0.004690 
#    y -0.025230 1.804640 -0.020940 
#    z 0.004690 -0.020940 1.849110 
# 
# From -- ./inp_files/313386.got.cif
#   From: 2010.05.17/outbox.cif.g08.bks.cpg/sg2_157_cif.got.tgz:313386.got - 2010.06.03 11:33:40.
