data_PCOD9054161
_publ_section_title
;
Structure prediction by ZEFSAII (Michael W. Deem and Ramdas Pophale) SiO2 
 PCOD9054161
Probable space group: P -1
;
_chemical_formula_sum "Si O2"
_cell_formula_units_Z 16
_cell_length_a 16.213061
_cell_length_b 9.294058
_cell_length_c 11.300376
_cell_angle_alpha 54.785330
_cell_angle_beta 34.222457
_cell_angle_gamma 49.372082
_cell_volume 723.903016
_symmetry_space_group_name_H-M "P -1"
_symmetry_group_IT_number 2
_symmetry_cell_setting 'triclinic'
loop_
_space_group_symop_operation_xyz
x,y,z
-x,-y,-z
loop_
_atom_site_type_symbol
_atom_site_label
_atom_site_fract_x
_atom_site_fract_y
_atom_site_fract_z
Si Si1 0.914072 0.376529 0.599102
Si Si2 0.656321 0.690307 0.226246
Si Si3 0.297278 0.636366 0.952595
Si Si4 0.677801 0.963593 0.272724
Si Si5 0.927300 0.074343 0.341340
Si Si6 0.398846 0.648299 0.417003
Si Si7 0.008112 0.753551 0.051626
Si Si8 0.953641 0.647230 0.797375
O O1 0.000000 0.500000 0.500000
O O2 0.930817 0.403763 0.427687
O O3 0.747508 0.433907 0.836924
O O4 0.006319 0.150013 0.615405
O O5 0.700850 0.816485 0.208287
O O6 0.476646 0.751297 0.367226
O O7 0.673229 0.488870 0.362775
O O8 0.765493 0.696544 0.981945
O O9 0.454757 0.490059 0.770350
O O10 0.318666 0.832939 0.859364
O O11 0.139255 0.694036 0.028307
O O12 0.821355 0.872311 0.239518
O O13 0.500000 0.000000 0.500000
O O14 0.747935 0.185909 0.545414
O O15 0.023831 0.178641 0.248067
O O16 0.942092 0.125913 0.162303
O O17 0.008103 0.556776 0.089714
#
# Coordination Sequence:
#
# PCOD9054161 Si02
#       8
#     2   2   2   2   2   2   2   2
#     4  12  26  47  67  96 141 191 227 277 340 420
#     4  11  20  41  63 100 137 173 216 286 347 393
#     4  12  24  44  67 101 144 179 225 283 349 403
#     4  12  25  36  65 108 142 166 222 293 351 392
#     4  12  25  41  73 104 128 177 242 281 338 403
#     4  11  22  40  67 100 138 171 223 296 335 396
#     4  12  22  41  74 101 133 176 235 282 338 402
#     4  12  23  44  71  98 136 178 233 275 339 416
#
# _framework density 22.102409999999999
#
# number of rings (size 3 to 8) (size 9 to 14) (size 15 to 20)
#    0.000    0.250    7.500    2.625    0.000    0.000 
#    0.000    3.125    0.000    0.000    0.000    0.000 
#    0.000    0.000    0.000    0.000    0.000    0.000 
#
# Total GULP energy -89233.823808 kJ/mol
# GULP energy per Si atom -5577.113988 kJ/mol
# Density = 2.205210 g / cm^3
# Si number density = 22.102410 Si / 1000 Ang^3
#
#
#
# Elastic Constant Matrix: (Units=GPa)
#
#
# Indices 1 2 3 4 5 6 
#
# 1 48.7861 22.5724 36.6434 3.3567 -18.5122 25.4443
# 2 22.5724 93.6741 30.9271 -11.7921 -28.9776 12.6052
# 3 36.6434 30.9271 142.0891 14.2663 -14.9066 -0.4966
# 4 3.3567 -11.7921 14.2663 39.4532 1.9253 -14.9595
# 5 -18.5122 -28.9776 -14.9066 1.9253 33.7496 -2.5475
# 6 25.4443 12.6052 -0.4966 -14.9595 -2.5475 32.2370
#
#
#
# Elastic Compliance Matrix: (Units=1/GPa)
#
#
# Indices 1 2 3 4 5 6 
#
# 1 0.110574 0.004180 -0.020228 -0.043216 0.049820 -0.105338
# 2 0.004180 0.016520 -0.003428 0.002224 0.014259 -0.007653
# 3 -0.020228 -0.003428 0.011882 0.003853 -0.007601 0.018676
# 4 -0.043216 0.002224 0.003853 0.050089 -0.018795 0.055058
# 5 0.049820 0.014259 -0.007601 -0.018795 0.063236 -0.048740
# 6 -0.105338 -0.007653 0.018676 0.055058 -0.048740 0.139141
#
#
# Mechanical properties :
#
#
# Convention : Reuss Voigt Hill
#
# Bulk Modulus (GPa) = 9.99764 51.64834 30.82299
# Shear Modulus (GPa) = 10.78201 34.04840 22.41520
#
# Velocity S-wave (km/s) = 2.21106 3.92916 3.18803
# Velocity P-wave (km/s) = 3.32439 6.63346 5.24664
#
# Compressibility (1/GPa) = 0.10002360
#
# Stress axis : x y z
#
# Youngs Moduli (GPa) = 9.04370 60.53086 84.16309
#
# Poissons Ratio (x) = -0.25301 1.70247
# Poissons Ratio (y) = -0.03780 0.28851
# Poissons Ratio (z) = 0.18294 0.20750
#
# Static dielectric constant tensor:
#      x y z
#    x 1.861150 0.042370 0.050950 
#    y 0.042370 1.938890 0.107500 
#    z 0.050950 0.107500 1.866960 
# 
# From -- ./inp_files/461871.got.cif
#   From: 2010.05.17/outbox.cif.g08.bks.cpg/sg2_231_cif.got.tgz:461871.got - 2010.06.03 11:33:40.
