data_PCOD9054927
_publ_section_title
;
Structure prediction by ZEFSAII (Michael W. Deem and Ramdas Pophale) SiO2 
 PCOD9054927
Probable space group: P -1
;
_chemical_formula_sum "Si O2"
_cell_formula_units_Z 16
_cell_length_a 12.512021
_cell_length_b 10.777892
_cell_length_c 8.240178
_cell_angle_alpha 61.327677
_cell_angle_beta 129.998186
_cell_angle_gamma 96.326688
_cell_volume 713.667241
_symmetry_space_group_name_H-M "P -1"
_symmetry_group_IT_number 2
_symmetry_cell_setting 'triclinic'
loop_
_space_group_symop_operation_xyz
x,y,z
-x,-y,-z
loop_
_atom_site_type_symbol
_atom_site_label
_atom_site_fract_x
_atom_site_fract_y
_atom_site_fract_z
Si Si1 0.247238 0.663983 0.277602
Si Si2 0.011929 0.040769 0.174164
Si Si3 0.615240 0.219191 0.963814
Si Si4 0.402164 0.121369 0.163030
Si Si5 0.315844 0.091029 0.441582
Si Si6 0.722639 0.674792 0.518444
Si Si7 0.408355 0.667253 0.775080
Si Si8 0.174377 0.108210 0.710373
O O1 0.350364 0.690508 0.215238
O O2 0.232103 0.499652 0.349061
O O3 0.307201 0.680431 0.508192
O O4 0.098445 0.794541 0.022459
O O5 0.174825 0.041150 0.368745
O O6 0.960747 0.934480 0.316388
O O7 0.000000 0.000000 0.000000
O O8 0.437923 0.258482 0.763413
O O9 0.656300 0.271803 0.148029
O O10 0.712035 0.049505 0.133233
O O11 0.352965 0.051639 0.316587
O O12 0.474212 0.246226 0.202142
O O13 0.532752 0.002856 0.270232
O O14 0.254634 0.170471 0.891158
O O15 0.295511 0.261159 0.356526
O O16 0.834819 0.761229 0.507837
O O17 0.500000 0.500000 0.000000
#
# Coordination Sequence:
#
# PCOD9054927 Si02
#       8
#     2   2   2   2   2   2   2   2
#     4  11  26  43  66  99 140 181 221 277 344 403
#     4  11  24  46  66  94 137 180 221 277 339 404
#     4  11  22  40  66 103 139 174 219 284 334 394
#     4  11  21  39  66 103 121 167 233 270 329 399
#     4  11  24  38  71  93 128 179 222 275 334 399
#     4  12  22  41  65  97 137 172 226 280 332 397
#     4  12  23  37  67 101 140 171 217 278 342 391
#     4  11  22  41  68  98 135 171 219 285 334 395
#
# _framework density 22.419414
#
# number of rings (size 3 to 8) (size 9 to 14) (size 15 to 20)
#    0.000    0.750    5.000    3.000    5.250    1.000 
#    0.000    1.875    2.750    0.000    0.000    0.000 
#    0.000    0.000    0.000    0.000    0.000    0.000 
#
# Total GULP energy -89305.602694 kJ/mol
# GULP energy per Si atom -5581.600168 kJ/mol
# Density = 2.236839 g / cm^3
# Si number density = 22.419414 Si / 1000 Ang^3
#
#
#
# Elastic Constant Matrix: (Units=GPa)
#
#
# Indices 1 2 3 4 5 6 
#
# 1 148.6794 48.3773 35.9096 2.0162 -6.2288 19.7433
# 2 48.3773 139.7480 24.1691 -14.4953 -0.7336 15.3676
# 3 35.9096 24.1691 68.1594 6.2575 -7.9614 8.5322
# 4 2.0162 -14.4953 6.2575 43.6202 0.1201 -8.1847
# 5 -6.2288 -0.7336 -7.9614 0.1201 35.4236 1.7178
# 6 19.7433 15.3676 8.5322 -8.1847 1.7178 27.1484
#
#
#
# Elastic Compliance Matrix: (Units=1/GPa)
#
#
# Indices 1 2 3 4 5 6 
#
# 1 0.008873 -0.002179 -0.003025 -0.001608 0.001074 -0.004821
# 2 -0.002179 0.008773 -0.002081 0.002980 -0.000593 -0.001791
# 3 -0.003025 -0.002081 0.018268 -0.003890 0.003727 -0.003772
# 4 -0.001608 0.002980 -0.003890 0.026185 -0.001606 0.008701
# 5 0.001074 -0.000593 0.003727 -0.001606 0.029442 -0.003964
# 6 -0.004821 -0.001791 -0.003772 0.008701 -0.003964 0.045414
#
#
# Mechanical properties :
#
#
# Convention : Reuss Voigt Hill
#
# Bulk Modulus (GPa) = 46.85592 63.72211 55.28901
# Shear Modulus (GPa) = 31.51797 37.78048 34.64923
#
# Velocity S-wave (km/s) = 3.75351 4.10953 3.93555
# Velocity P-wave (km/s) = 6.30319 7.14158 6.73544
#
# Compressibility (1/GPa) = 0.02134202
#
# Stress axis : x y z
#
# Youngs Moduli (GPa) = 112.70647 113.98487 54.74063
#
# Poissons Ratio (x) = 0.24841 0.16560
# Poissons Ratio (y) = 0.24562 0.11394
# Poissons Ratio (z) = 0.34096 0.23724
#
# Static dielectric constant tensor:
#      x y z
#    x 1.936220 -0.016880 -0.092010 
#    y -0.016880 1.846120 -0.013820 
#    z -0.092010 -0.013820 1.903020 
# 
# From -- ./inp_files/257173.got.cif
#   From: 2010.05.17/outbox.cif.g08.bks.cpg/sg2_129_cif.got.tgz:257173.got - 2010.06.03 11:33:40.
