data_PCOD9054004
_publ_section_title
;
Structure prediction by ZEFSAII (Michael W. Deem and Ramdas Pophale) SiO2 
 PCOD9054004
Probable space group: P -1
;
_chemical_formula_sum "Si O2"
_cell_formula_units_Z 16
_cell_length_a 8.647426
_cell_length_b 12.597971
_cell_length_c 13.946226
_cell_angle_alpha 63.034400
_cell_angle_beta 75.156593
_cell_angle_gamma 129.337050
_cell_volume 644.004061
_symmetry_space_group_name_H-M "P -1"
_symmetry_group_IT_number 2
_symmetry_cell_setting 'triclinic'
loop_
_space_group_symop_operation_xyz
x,y,z
-x,-y,-z
loop_
_atom_site_type_symbol
_atom_site_label
_atom_site_fract_x
_atom_site_fract_y
_atom_site_fract_z
Si Si1 0.855248 0.172762 0.385111
Si Si2 0.348968 0.530870 0.774890
Si Si3 0.733898 0.016223 0.987860
Si Si4 0.333376 0.889395 0.230916
Si Si5 0.501157 0.373438 0.831211
Si Si6 0.135962 0.046189 0.641822
Si Si7 0.426198 0.577834 0.426739
Si Si8 0.601520 0.877108 0.727219
O O1 0.164721 0.455776 0.242798
O O2 0.500000 0.000000 0.500000
O O3 0.928982 0.131907 0.303155
O O4 0.828494 0.075066 0.525074
O O5 0.436944 0.464472 0.841725
O O6 0.618333 0.746468 0.565953
O O7 0.332141 0.625694 0.816562
O O8 0.035121 0.289460 0.863649
O O9 0.485992 0.865886 0.178529
O O10 0.773647 0.904089 0.001313
O O11 0.611453 0.992546 0.918826
O O12 0.949022 0.630252 0.413155
O O13 0.486245 0.062673 0.222947
O O14 0.533987 0.412665 0.696072
O O15 0.328601 0.177538 0.656520
O O16 0.822624 0.929139 0.732769
O O17 0.500000 0.500000 0.500000
#
# Coordination Sequence:
#
# PCOD9054004 Si02
#       8
#     2   2   2   2   2   2   2   2
#     4  11  23  37  63 101 132 159 203 276 335 361
#     4  11  20  41  65  90 124 172 211 254 323 383
#     4  11  27  39  62  91 137 172 202 264 329 389
#     4  11  23  44  61  93 125 174 218 253 323 390
#     4  12  23  42  64  99 130 160 213 274 321 375
#     4  11  20  39  69  98 120 169 221 266 311 378
#     4  12  20  37  71  94 119 159 220 264 308 377
#     4  11  21  42  72  89 125 169 227 266 302 389
#
# _framework density 24.844563000000001
#
# number of rings (size 3 to 8) (size 9 to 14) (size 15 to 20)
#    0.000    0.750    7.500    1.125    1.750    3.000 
#    0.000    1.875    0.000    0.000    0.000    0.000 
#    0.000    0.000    0.000    0.000    0.000    0.000 
#
# Total GULP energy -89463.282136 kJ/mol
# GULP energy per Si atom -5591.455133 kJ/mol
# Density = 2.478802 g / cm^3
# Si number density = 24.844563 Si / 1000 Ang^3
#
#
#
# Elastic Constant Matrix: (Units=GPa)
#
#
# Indices 1 2 3 4 5 6 
#
# 1 46.5342 15.5576 -1.3483 -9.8666 -2.6761 8.4537
# 2 15.5576 184.4935 24.0332 -19.3408 2.4621 -9.7291
# 3 -1.3483 24.0332 41.4465 -8.7226 -10.0132 -5.6601
# 4 -9.8666 -19.3408 -8.7226 37.9374 -1.5783 -4.8006
# 5 -2.6761 2.4621 -10.0132 -1.5783 25.3389 -1.4524
# 6 8.4537 -9.7291 -5.6601 -4.8006 -1.4524 31.6402
#
#
#
# Elastic Compliance Matrix: (Units=1/GPa)
#
#
# Indices 1 2 3 4 5 6 
#
# 1 0.024829 -0.002336 0.003593 0.005554 0.004290 -0.005670
# 2 -0.002336 0.006439 -0.003572 0.002046 -0.002031 0.002182
# 3 0.003593 -0.003572 0.032151 0.007797 0.014234 0.005529
# 4 0.005554 0.002046 0.007797 0.031587 0.005757 0.005597
# 5 0.004290 -0.002031 0.014234 0.005757 0.046316 0.003775
# 6 -0.005670 0.002182 0.005529 0.005597 0.003775 0.035803
#
#
# Mechanical properties :
#
#
# Convention : Reuss Voigt Hill
#
# Bulk Modulus (GPa) = 17.00987 38.77324 27.89156
# Shear Modulus (GPa) = 24.83236 34.59875 29.71555
#
# Velocity S-wave (km/s) = 3.16493 3.73582 3.46216
# Velocity P-wave (km/s) = 4.49634 5.85223 5.21851
#
# Compressibility (1/GPa) = 0.05878939
#
# Stress axis : x y z
#
# Youngs Moduli (GPa) = 40.27569 155.29969 31.10343
#
# Poissons Ratio (x) = 0.36275 -0.11176
# Poissons Ratio (y) = 0.09408 0.11110
# Poissons Ratio (z) = -0.14472 0.55475
#
# Static dielectric constant tensor:
#      x y z
#    x 2.037230 -0.033850 -0.066940 
#    y -0.033850 1.955640 -0.015700 
#    z -0.066940 -0.015700 2.002640 
# 
# From -- ./inp_files/332967.got.cif
#   From: 2010.05.17/outbox.cif.g08.bks.cpg/sg2_167_cif.got.tgz:332967.got - 2010.06.03 11:33:40.
