data_PCOD9054939
_publ_section_title
;
Structure prediction by ZEFSAII (Michael W. Deem and Ramdas Pophale) SiO2 
 PCOD9054939
Probable space group: P -1
;
_chemical_formula_sum "Si O2"
_cell_formula_units_Z 16
_cell_length_a 13.063019
_cell_length_b 9.071278
_cell_length_c 13.747102
_cell_angle_alpha 72.677674
_cell_angle_beta 128.866127
_cell_angle_gamma 143.669959
_cell_volume 670.877224
_symmetry_space_group_name_H-M "P -1"
_symmetry_group_IT_number 2
_symmetry_cell_setting 'triclinic'
loop_
_space_group_symop_operation_xyz
x,y,z
-x,-y,-z
loop_
_atom_site_type_symbol
_atom_site_label
_atom_site_fract_x
_atom_site_fract_y
_atom_site_fract_z
Si Si1 0.321900 0.770644 0.151430
Si Si2 0.839545 0.835954 0.235847
Si Si3 0.091595 0.378121 0.804573
Si Si4 0.150750 0.901167 0.980876
Si Si5 0.314933 0.408919 0.477940
Si Si6 0.688692 0.793884 0.784458
Si Si7 0.422625 0.616208 0.129025
Si Si8 0.725817 0.272558 0.643822
O O1 0.318979 0.918000 0.052553
O O2 0.513079 0.834718 0.214179
O O3 0.328180 0.824243 0.257171
O O4 0.083524 0.431301 0.069952
O O5 0.038056 0.582448 0.284184
O O6 0.806407 0.626928 0.221433
O O7 0.619783 0.697458 0.186616
O O8 0.870548 0.985641 0.133565
O O9 0.280899 0.557228 0.968862
O O10 0.926525 0.922390 0.606653
O O11 0.869698 0.054001 0.769250
O O12 0.268985 0.088534 0.109864
O O13 0.500000 0.500000 0.500000
O O14 0.437867 0.550682 0.627729
O O15 0.257927 0.526624 0.385636
O O16 0.745371 0.670265 0.859071
O O17 0.500000 0.000000 0.500000
#
# Coordination Sequence:
#
# PCOD9054939 Si02
#       8
#     2   2   2   2   2   2   2   2
#     4  11  21  39  66  99 128 168 220 279 321 392
#     4  12  26  43  64 100 138 180 216 272 339 400
#     4  12  22  41  68 100 129 173 226 278 320 391
#     4  11  21  40  67  97 128 167 227 272 327 381
#     4  12  24  43  67  99 130 176 222 272 330 398
#     4  12  22  41  69  94 129 174 224 275 323 390
#     4  12  26  40  66 100 138 174 220 275 340 388
#     4  12  22  41  70 104 128 168 227 281 330 383
#
# _framework density 23.849371000000001
#
# number of rings (size 3 to 8) (size 9 to 14) (size 15 to 20)
#    0.000    0.250    7.500    3.000    0.000    1.000 
#    0.000    0.000    0.000    2.250    0.000    0.000 
#    0.000    0.000    0.000    0.000    0.000    0.000 
#
# Total GULP energy -89422.138924 kJ/mol
# GULP energy per Si atom -5588.883683 kJ/mol
# Density = 2.379509 g / cm^3
# Si number density = 23.849371 Si / 1000 Ang^3
#
#
#
# Elastic Constant Matrix: (Units=GPa)
#
#
# Indices 1 2 3 4 5 6 
#
# 1 141.4122 16.0058 30.4639 -3.5022 22.3551 -32.4630
# 2 16.0058 47.6662 12.4454 -8.0997 6.5408 -15.9048
# 3 30.4639 12.4454 126.1332 13.2164 -5.5375 -1.8896
# 4 -3.5022 -8.0997 13.2164 25.6627 -14.0222 5.6385
# 5 22.3551 6.5408 -5.5375 -14.0222 32.9739 -7.6634
# 6 -32.4630 -15.9048 -1.8896 5.6385 -7.6634 40.0644
#
#
#
# Elastic Compliance Matrix: (Units=1/GPa)
#
#
# Indices 1 2 3 4 5 6 
#
# 1 0.010269 0.000104 -0.002401 -0.002662 -0.006817 0.007319
# 2 0.000104 0.026245 -0.003309 0.007769 -0.000395 0.009178
# 3 -0.002401 -0.003309 0.009398 -0.005119 0.001254 -0.001855
# 4 -0.002662 0.007769 -0.005119 0.056848 0.022896 -0.002935
# 5 -0.006817 -0.000395 0.001254 0.022896 0.044916 -0.000252
# 6 0.007319 0.009178 -0.001855 -0.002935 -0.000252 0.034811
#
#
# Mechanical properties :
#
#
# Convention : Reuss Voigt Hill
#
# Bulk Modulus (GPa) = 28.81779 48.11574 38.46677
# Shear Modulus (GPa) = 24.35874 36.82664 30.59269
#
# Velocity S-wave (km/s) = 3.19934 3.93381 3.58543
# Velocity P-wave (km/s) = 5.07515 6.39154 5.77100
#
# Compressibility (1/GPa) = 0.03470078
#
# Stress axis : x y z
#
# Youngs Moduli (GPa) = 97.38042 38.10254 106.40386
#
# Poissons Ratio (x) = -0.00396 0.25549
# Poissons Ratio (y) = -0.01013 0.35205
# Poissons Ratio (z) = 0.23382 0.12607
#
# Static dielectric constant tensor:
#      x y z
#    x 2.108650 0.037590 0.056470 
#    y 0.037590 1.959780 -0.014490 
#    z 0.056470 -0.014490 1.905400 
# 
# From -- ./inp_files/514368.got.cif
#   From: 2010.05.17/outbox.cif.g08.bks.cpg/sg2_258_cif.got.tgz:514368.got - 2010.06.03 11:33:40.
