data_PCOD9054227
_publ_section_title
;
Structure prediction by ZEFSAII (Michael W. Deem and Ramdas Pophale) SiO2 
 PCOD9054227
Probable space group: P -1
;
_chemical_formula_sum "Si O2"
_cell_formula_units_Z 16
_cell_length_a 12.723768
_cell_length_b 9.063718
_cell_length_c 7.981442
_cell_angle_alpha 117.369559
_cell_angle_beta 118.931440
_cell_angle_gamma 55.777250
_cell_volume 643.317605
_symmetry_space_group_name_H-M "P -1"
_symmetry_group_IT_number 2
_symmetry_cell_setting 'triclinic'
loop_
_space_group_symop_operation_xyz
x,y,z
-x,-y,-z
loop_
_atom_site_type_symbol
_atom_site_label
_atom_site_fract_x
_atom_site_fract_y
_atom_site_fract_z
Si Si1 0.761054 0.432568 0.219956
Si Si2 0.535286 0.834321 0.163400
Si Si3 0.350591 0.598792 0.372835
Si Si4 0.346934 0.917322 0.748508
Si Si5 0.291065 0.840408 0.131216
Si Si6 0.063718 0.210371 0.259663
Si Si7 0.836544 0.519282 0.686108
Si Si8 0.064738 0.145999 0.625992
O O1 0.650139 0.628823 0.174796
O O2 0.789178 0.466138 0.447812
O O3 0.904383 0.336534 0.185848
O O4 0.712995 0.272102 0.094603
O O5 0.412626 0.893691 0.230023
O O6 0.599744 0.977233 0.286632
O O7 0.464738 0.840054 0.933539
O O8 0.500000 0.500000 0.500000
O O9 0.299584 0.780280 0.545727
O O10 0.333719 0.680961 0.219465
O O11 0.277651 0.466841 0.267096
O O12 0.206375 0.069901 0.788262
O O13 0.147103 0.001821 0.149709
O O14 0.130756 0.316681 0.260107
O O15 0.082867 0.194042 0.469682
O O16 0.967262 0.335563 0.738513
O O17 0.000000 0.000000 0.500000
#
# Coordination Sequence:
#
# PCOD9054227 Si02
#       8
#     2   2   2   2   2   2   2   2
#     4  11  23  45  68  97 135 177 228 268 337 404
#     4  11  25  42  70  98 134 182 219 281 327 411
#     4  12  25  41  66  97 138 174 220 280 338 400
#     4  11  23  44  67  97 133 176 233 262 334 407
#     4  12  25  43  67 103 137 172 224 278 349 381
#     4  11  24  42  70 103 133 176 226 285 331 393
#     4  11  23  43  72  96 132 180 231 270 331 406
#     4  11  20  41  70  99 125 179 229 274 322 402
#
# _framework density 24.871072999999999
#
# number of rings (size 3 to 8) (size 9 to 14) (size 15 to 20)
#    0.000    0.750    2.500    6.000    3.500    0.500 
#    2.250    0.625    0.000    0.000    0.000    0.000 
#    0.000    0.000    0.000    0.000    0.000    0.000 
#
# Total GULP energy -89508.539785 kJ/mol
# GULP energy per Si atom -5594.283737 kJ/mol
# Density = 2.481447 g / cm^3
# Si number density = 24.871073 Si / 1000 Ang^3
#
#
#
# Elastic Constant Matrix: (Units=GPa)
#
#
# Indices 1 2 3 4 5 6 
#
# 1 141.5410 43.1478 -4.3194 -17.9766 20.2000 12.4385
# 2 43.1478 100.3419 0.7859 -29.2576 13.0938 -13.9928
# 3 -4.3194 0.7859 35.1394 -13.3079 5.0554 -7.9896
# 4 -17.9766 -29.2576 -13.3079 28.9974 -8.3383 14.6872
# 5 20.2000 13.0938 5.0554 -8.3383 31.0581 0.6057
# 6 12.4385 -13.9928 -7.9896 14.6872 0.6057 54.9401
#
#
#
# Elastic Compliance Matrix: (Units=1/GPa)
#
#
# Indices 1 2 3 4 5 6 
#
# 1 0.009541 -0.002511 0.003047 0.005523 -0.004086 -0.003788
# 2 -0.002511 0.016199 0.006094 0.016461 -0.001792 0.001200
# 3 0.003047 0.006094 0.038595 0.024552 -0.004241 -0.000042
# 4 0.005523 0.016461 0.024552 0.074190 0.005650 -0.013383
# 5 -0.004086 -0.001792 -0.004241 0.005650 0.037859 -0.002076
# 6 -0.003788 0.001200 -0.000042 -0.013383 -0.002076 0.022959
#
#
# Mechanical properties :
#
#
# Convention : Reuss Voigt Hill
#
# Bulk Modulus (GPa) = 12.88740 39.58344 26.23542
# Shear Modulus (GPa) = 23.59063 38.82632 31.20847
#
# Velocity S-wave (km/s) = 3.08314 3.95537 3.54617
# Velocity P-wave (km/s) = 4.22697 6.06712 5.22863
#
# Compressibility (1/GPa) = 0.07759517
#
# Stress axis : x y z
#
# Youngs Moduli (GPa) = 104.80912 61.73258 25.90995
#
# Poissons Ratio (x) = 0.15502 -0.07896
# Poissons Ratio (y) = 0.26319 -0.15789
# Poissons Ratio (z) = -0.31939 -0.37618
#
# Static dielectric constant tensor:
#      x y z
#    x 1.998960 -0.202760 -0.105210 
#    y -0.202760 1.464300 -0.181420 
#    z -0.105210 -0.181420 1.906470 
# 
# From -- ./inp_files/245223.got.cif
#   From: 2010.05.17/outbox.cif.g08.bks.cpg/sg2_123_cif.got.tgz:245223.got - 2010.06.03 11:33:40.
