data_PCOD9054105
_publ_section_title
;
Structure prediction by ZEFSAII (Michael W. Deem and Ramdas Pophale) SiO2 
 PCOD9054105
Probable space group: P -1
;
_chemical_formula_sum "Si O2"
_cell_formula_units_Z 14
_cell_length_a 13.071236
_cell_length_b 12.182846
_cell_length_c 9.545536
_cell_angle_alpha 45.865857
_cell_angle_beta 121.763248
_cell_angle_gamma 138.549301
_cell_volume 722.167737
_symmetry_space_group_name_H-M "P -1"
_symmetry_group_IT_number 2
_symmetry_cell_setting 'triclinic'
loop_
_space_group_symop_operation_xyz
x,y,z
-x,-y,-z
loop_
_atom_site_type_symbol
_atom_site_label
_atom_site_fract_x
_atom_site_fract_y
_atom_site_fract_z
Si Si1 0.931157 0.071730 0.274302
Si Si2 0.896884 0.836623 0.192577
Si Si3 0.062597 0.659924 0.528042
Si Si4 0.655103 0.097550 0.117386
Si Si5 0.823422 0.484667 0.042756
Si Si6 0.403364 0.035999 0.490322
Si Si7 0.383887 0.534838 0.840036
O O1 0.784365 0.067422 0.206689
O O2 0.881662 0.940926 0.216059
O O3 0.000000 0.000000 0.500000
O O4 0.072501 0.295497 0.134484
O O5 0.743456 0.655675 0.169948
O O6 0.960746 0.729337 0.398256
O O7 0.000000 0.000000 0.000000
O O8 0.073771 0.559548 0.760553
O O9 0.000000 0.500000 0.500000
O O10 0.231731 0.874482 0.447711
O O11 0.742089 0.329161 0.995872
O O12 0.600663 0.013891 0.308198
O O13 0.500000 0.000000 0.000000
O O14 0.702562 0.448401 0.107274
O O15 0.503423 0.267253 0.342964
O O16 0.500000 0.000000 0.500000
O O17 0.500000 0.500000 0.000000
#
# Coordination Sequence:
#
# PCOD9054105 Si02
#       7
#     2   2   2   2   2   2   2
#     4  12  27  47  71 100 145 185 227 292 350 420
#     4  12  24  44  70 106 133 181 235 282 338 411
#     4  11  20  40  69 103 133 171 232 283 334 404
#     4  11  27  46  70 102 140 184 228 286 353 420
#     4  11  24  47  69  99 136 187 232 282 346 417
#     4  11  22  43  69  99 135 175 230 284 340 406
#     4  12  25  40  70 105 138 174 229 298 340 396
#
# _framework density 19.386077
#
# number of rings (size 3 to 8) (size 9 to 14) (size 15 to 20)
#    0.000    0.571    5.714    3.000    4.000    4.571 
#    0.000    1.429    0.000    0.000    0.000    0.000 
#    0.000    0.000    0.000    0.000    0.000    0.000 
#
# Total GULP energy -78008.510939 kJ/mol
# GULP energy per Si atom -5572.036496 kJ/mol
# Density = 1.934195 g / cm^3
# Si number density = 19.386077 Si / 1000 Ang^3
#
#
#
# Elastic Constant Matrix: (Units=GPa)
#
#
# Indices 1 2 3 4 5 6 
#
# 1 133.3830 64.7724 55.4796 15.3018 7.2252 -10.3503
# 2 64.7724 201.2158 57.1217 -1.1444 9.2732 -5.5278
# 3 55.4796 57.1217 88.1686 -17.4546 12.6735 8.0426
# 4 15.3018 -1.1444 -17.4546 46.6107 3.1263 2.6834
# 5 7.2252 9.2732 12.6735 3.1263 31.2693 3.2122
# 6 -10.3503 -5.5278 8.0426 2.6834 3.2122 40.1347
#
#
#
# Elastic Compliance Matrix: (Units=1/GPa)
#
#
# Indices 1 2 3 4 5 6 
#
# 1 0.013921 -0.001516 -0.010330 -0.008930 0.001705 0.005912
# 2 -0.001516 0.006483 -0.003467 -0.000699 -0.000227 0.001262
# 3 -0.010330 -0.003467 0.024522 0.013442 -0.007005 -0.008394
# 4 -0.008930 -0.000699 0.013442 0.030156 -0.005507 -0.006668
# 5 0.001705 -0.000227 -0.007005 -0.005507 0.035108 -0.000629
# 6 0.005912 0.001262 -0.008394 -0.006668 -0.000629 0.028793
#
#
# Mechanical properties :
#
#
# Convention : Reuss Voigt Hill
#
# Bulk Modulus (GPa) = 69.92981 86.39052 78.16017
# Shear Modulus (GPa) = 28.67378 39.96251 34.31815
#
# Velocity S-wave (km/s) = 3.85007 4.54519 4.21199
# Velocity P-wave (km/s) = 7.47760 8.49735 8.00373
#
# Compressibility (1/GPa) = 0.01430005
#
# Stress axis : x y z
#
# Youngs Moduli (GPa) = 71.83533 154.24556 40.77952
#
# Poissons Ratio (x) = 0.23378 0.42125
# Poissons Ratio (y) = 0.10888 0.14140
# Poissons Ratio (z) = 0.74205 0.53484
#
# Static dielectric constant tensor:
#      x y z
#    x 1.632510 -0.011440 0.045700 
#    y -0.011440 1.466800 -0.063100 
#    z 0.045700 -0.063100 1.650260 
# 
# From -- ./inp_files/154180.got.cif
#   From: 2010.05.17/outbox.cif.g08.bks.cpg/sg2_78_cif.got.tgz:154180.got - 2010.06.03 11:33:40.
