data_PCOD9054466
_publ_section_title
;
Structure prediction by ZEFSAII (Michael W. Deem and Ramdas Pophale) SiO2 
 PCOD9054466
Probable space group: P -1
;
_chemical_formula_sum "Si O2"
_cell_formula_units_Z 14
_cell_length_a 11.061335
_cell_length_b 13.889592
_cell_length_c 7.923180
_cell_angle_alpha 141.536337
_cell_angle_beta 87.847941
_cell_angle_gamma 112.383471
_cell_volume 624.128811
_symmetry_space_group_name_H-M "P -1"
_symmetry_group_IT_number 2
_symmetry_cell_setting 'triclinic'
loop_
_space_group_symop_operation_xyz
x,y,z
-x,-y,-z
loop_
_atom_site_type_symbol
_atom_site_label
_atom_site_fract_x
_atom_site_fract_y
_atom_site_fract_z
Si Si1 0.861632 0.042407 0.742506
Si Si2 0.785497 0.354236 0.762044
Si Si3 0.899558 0.744752 0.266518
Si Si4 0.516708 0.790455 0.841826
Si Si5 0.583256 0.458635 0.801448
Si Si6 0.250319 0.808158 0.796236
Si Si7 0.370844 0.026938 0.577617
O O1 0.861232 0.175514 0.063081
O O2 0.697981 0.939851 0.533652
O O3 0.972404 0.149150 0.729243
O O4 0.894281 0.890021 0.587187
O O5 0.626661 0.322880 0.695169
O O6 0.756127 0.180941 0.631443
O O7 0.886997 0.568097 0.112816
O O8 0.831369 0.340402 0.552511
O O9 0.747961 0.643528 0.027928
O O10 0.494440 0.632245 0.496884
O O11 0.636597 0.989335 0.019988
O O12 0.359951 0.767042 0.826497
O O13 0.576210 0.817390 0.065580
O O14 0.500000 0.500000 0.000000
O O15 0.500000 0.000000 0.500000
#
# Coordination Sequence:
#
# PCOD9054466 Si02
#       7
#     2   2   2   2   2   2   2
#     4  11  21  35  57  80 112 147 181 230 268 320
#     4   8  20  36  54  82 106 141 189 221 268 331
#     4   9  22  36  53  81 108 150 189 211 271 339
#     4   9  17  32  52  86 105 136 188 223 272 330
#     4   9  17  33  61  75 103 144 189 219 260 330
#     4   9  16  31  57  77 107 141 183 223 264 327
#     4  11  21  32  57  86 114 138 177 234 281 309
#
# _framework density 22.431266000000001
#
# number of rings (size 3 to 8) (size 9 to 14) (size 15 to 20)
#    0.857    1.714    1.429    1.714    2.000    1.143 
#    0.000    0.714    3.143   21.429    0.000    0.000 
#    0.000    0.000    0.000    0.000    0.000    0.000 
#
# Total GULP energy -78026.467958 kJ/mol
# GULP energy per Si atom -5573.319140 kJ/mol
# Density = 2.238021 g / cm^3
# Si number density = 22.431266 Si / 1000 Ang^3
#
#
#
# Elastic Constant Matrix: (Units=GPa)
#
#
# Indices 1 2 3 4 5 6 
#
# 1 69.3041 21.1407 45.8597 -10.5786 -17.3741 16.2056
# 2 21.1407 18.5651 13.2455 2.3993 -12.7754 7.3454
# 3 45.8597 13.2455 116.6447 -16.3239 -39.1247 3.0453
# 4 -10.5786 2.3993 -16.3239 32.0214 9.2091 -4.7569
# 5 -17.3741 -12.7754 -39.1247 9.2091 38.0017 -4.4703
# 6 16.2056 7.3454 3.0453 -4.7569 -4.4703 28.5080
#
#
#
# Elastic Compliance Matrix: (Units=1/GPa)
#
#
# Indices 1 2 3 4 5 6 
#
# 1 0.033746 -0.036437 -0.011583 0.010192 -0.012248 -0.008777
# 2 -0.036437 0.125085 0.010295 -0.029858 0.041930 -0.011024
# 3 -0.011583 0.010295 0.017441 0.000212 0.016624 0.004711
# 4 0.010192 -0.029858 0.000212 0.042120 -0.014588 0.006617
# 5 -0.012248 0.041930 0.016624 -0.014588 0.055539 0.000658
# 6 -0.008777 -0.011024 0.004711 0.006617 0.000658 0.043612
#
#
# Mechanical properties :
#
#
# Convention : Reuss Voigt Hill
#
# Bulk Modulus (GPa) = 9.91839 40.55618 25.23729
# Shear Modulus (GPa) = 11.72061 27.99077 19.85569
#
# Velocity S-wave (km/s) = 2.28833 3.53632 2.97842
# Velocity P-wave (km/s) = 3.37835 5.89860 4.80660
#
# Compressibility (1/GPa) = 0.10082280
#
# Stress axis : x y z
#
# Youngs Moduli (GPa) = 29.63315 7.99455 57.33767
#
# Poissons Ratio (x) = 0.29130 0.66413
# Poissons Ratio (y) = 1.07973 -0.59029
# Poissons Ratio (z) = 0.34323 -0.08230
#
# Static dielectric constant tensor:
#      x y z
#    x 1.856510 -0.008750 -0.032080 
#    y -0.008750 1.863310 0.050400 
#    z -0.032080 0.050400 1.878190 
# 
# From -- ./inp_files/278588.got.cif
#   From: 2010.05.17/outbox.cif.g08.bks.cpg/sg2_140_cif.got.tgz:278588.got - 2010.06.03 11:33:40.
