data_PCOD9054784
_publ_section_title
;
Structure prediction by ZEFSAII (Michael W. Deem and Ramdas Pophale) SiO2 
 PCOD9054784
Probable space group: P -1
;
_chemical_formula_sum "Si O2"
_cell_formula_units_Z 16
_cell_length_a 13.867405
_cell_length_b 9.456160
_cell_length_c 14.343137
_cell_angle_alpha 100.575405
_cell_angle_beta 40.103726
_cell_angle_gamma 129.998453
_cell_volume 725.012125
_symmetry_space_group_name_H-M "P -1"
_symmetry_group_IT_number 2
_symmetry_cell_setting 'triclinic'
loop_
_space_group_symop_operation_xyz
x,y,z
-x,-y,-z
loop_
_atom_site_type_symbol
_atom_site_label
_atom_site_fract_x
_atom_site_fract_y
_atom_site_fract_z
Si Si1 0.743110 0.034703 0.560909
Si Si2 0.722708 0.561355 0.821029
Si Si3 0.042820 0.842388 0.107881
Si Si4 0.579078 0.458769 0.264655
Si Si5 0.759640 0.549625 0.448932
Si Si6 0.606335 0.255929 0.709272
Si Si7 0.375315 0.054704 0.580684
Si Si8 0.882989 0.767464 0.915379
O O1 0.724729 0.187855 0.619480
O O2 0.685813 0.980372 0.486593
O O3 0.022652 0.192366 0.386830
O O4 0.522835 0.768240 0.729230
O O5 0.635071 0.365616 0.797384
O O6 0.808907 0.602176 0.868209
O O7 0.500000 0.500000 0.000000
O O8 0.805429 0.625912 0.191082
O O9 0.999847 0.735146 0.227883
O O10 0.047882 0.019334 0.141382
O O11 0.310280 0.010368 0.886812
O O12 0.339674 0.363086 0.463035
O O13 0.674253 0.624826 0.127991
O O14 0.738334 0.447177 0.550620
O O15 0.554455 0.314488 0.510982
O O16 0.120522 0.880414 0.801324
O O17 0.500000 0.000000 0.500000
#
# Coordination Sequence:
#
# PCOD9054784 Si02
#       8
#     2   2   2   2   2   2   2   2
#     4  11  26  43  68 101 142 173 224 289 341 399
#     4  11  23  48  72  92 131 187 239 278 325 401
#     4  12  23  40  71 102 137 174 225 281 338 415
#     4  12  23  41  68 103 139 174 226 281 347 409
#     4  12  22  40  68 102 132 182 223 272 344 407
#     4  12  26  46  68 101 139 181 227 282 340 397
#     4  11  21  38  64  96 142 174 216 281 349 405
#     4  11  23  42  66 101 133 182 230 280 333 403
#
# _framework density 22.068594000000001
#
# number of rings (size 3 to 8) (size 9 to 14) (size 15 to 20)
#    0.000    0.500    6.250    3.375    0.000    1.500 
#    2.250    2.500    0.000    0.000    0.000    0.000 
#    0.000    0.000    0.000    0.000    0.000    0.000 
#
# Total GULP energy -89228.041727 kJ/mol
# GULP energy per Si atom -5576.752608 kJ/mol
# Density = 2.201837 g / cm^3
# Si number density = 22.068594 Si / 1000 Ang^3
#
#
#
# Elastic Constant Matrix: (Units=GPa)
#
#
# Indices 1 2 3 4 5 6 
#
# 1 38.1502 29.6608 37.5852 -11.3847 -1.4821 -6.5690
# 2 29.6608 122.0408 24.9703 1.9852 -3.5397 7.2695
# 3 37.5852 24.9703 104.8977 -8.7485 6.4969 -7.8104
# 4 -11.3847 1.9852 -8.7485 29.1149 0.5755 -1.3104
# 5 -1.4821 -3.5397 6.4969 0.5755 33.8428 3.1460
# 6 -6.5690 7.2695 -7.8104 -1.3104 3.1460 33.3995
#
#
#
# Elastic Compliance Matrix: (Units=1/GPa)
#
#
# Indices 1 2 3 4 5 6 
#
# 1 0.059272 -0.011989 -0.016124 0.019582 0.003084 0.010974
# 2 -0.011989 0.011386 0.000687 -0.005504 0.001092 -0.004994
# 3 -0.016124 0.000687 0.015269 -0.001669 -0.003586 0.000522
# 4 0.019582 -0.005504 -0.001669 0.042179 -0.000708 0.006381
# 5 0.003084 0.001092 -0.003586 -0.000708 0.030814 -0.003400
# 6 0.010974 -0.004994 0.000522 0.006381 -0.003400 0.033879
#
#
# Mechanical properties :
#
#
# Convention : Reuss Voigt Hill
#
# Bulk Modulus (GPa) = 32.18157 49.94679 41.06418
# Shear Modulus (GPa) = 19.37921 30.79629 25.08775
#
# Velocity S-wave (km/s) = 2.96655 3.73967 3.37532
# Velocity P-wave (km/s) = 5.13304 6.42872 5.81707
#
# Compressibility (1/GPa) = 0.03107369
#
# Stress axis : x y z
#
# Youngs Moduli (GPa) = 16.87142 87.82728 65.49375
#
# Poissons Ratio (x) = 1.05297 1.05603
# Poissons Ratio (y) = 0.20227 -0.04498
# Poissons Ratio (z) = 0.27204 -0.06032
#
# Static dielectric constant tensor:
#      x y z
#    x 1.840690 0.032590 0.011050 
#    y 0.032590 1.785600 -0.065010 
#    z 0.011050 -0.065010 1.925010 
# 
# From -- ./inp_files/529886.got.cif
#   From: 2010.05.17/outbox.cif.g08.bks.cpg/sg2_265_cif.got.tgz:529886.got - 2010.06.03 11:33:40.
