data_PCOD9054469
_publ_section_title
;
Structure prediction by ZEFSAII (Michael W. Deem and Ramdas Pophale) SiO2 
 PCOD9054469
Probable space group: P -1
;
_chemical_formula_sum "Si O2"
_cell_formula_units_Z 12
_cell_length_a 6.919003
_cell_length_b 10.076093
_cell_length_c 14.750656
_cell_angle_alpha 31.021309
_cell_angle_beta 125.769111
_cell_angle_gamma 114.027142
_cell_volume 419.063308
_symmetry_space_group_name_H-M "P -1"
_symmetry_group_IT_number 2
_symmetry_cell_setting 'triclinic'
loop_
_space_group_symop_operation_xyz
x,y,z
-x,-y,-z
loop_
_atom_site_type_symbol
_atom_site_label
_atom_site_fract_x
_atom_site_fract_y
_atom_site_fract_z
Si Si1 0.818827 0.863950 0.086892
Si Si2 0.360209 0.041734 0.576347
Si Si3 0.140653 0.661634 0.823850
Si Si4 0.621590 0.724302 0.362019
Si Si5 0.138834 0.746766 0.987451
Si Si6 0.333327 0.584928 0.615240
O O1 0.560268 0.027061 0.881079
O O2 0.871516 0.969504 0.139358
O O3 0.814652 0.552823 0.270422
O O4 0.000000 0.000000 0.000000
O O5 0.293832 0.165255 0.586169
O O6 0.604150 0.125791 0.554501
O O7 0.124334 0.154477 0.384024
O O8 0.347466 0.739470 0.771207
O O9 0.163272 0.716333 0.904640
O O10 0.088537 0.370210 0.972154
O O11 0.500000 0.500000 0.500000
O O12 0.386376 0.570899 0.200276
O O13 0.248720 0.463805 0.572281
#
# Coordination Sequence:
#
# PCOD9054469 Si02
#       6
#     2   2   2   2   2   2
#     4  11  21  33  52  77 105 134 169 217 262 300
#     4   9  16  27  48  77  99 124 164 213 259 287
#     4   9  16  27  51  79 101 125 171 218 240 297
#     4   9  17  32  54  76 100 131 172 215 253 299
#     4   9  17  31  51  76 100 132 173 209 252 300
#     4   9  17  30  51  74 100 133 170 211 253 302
#
# _framework density 28.635290999999999
#
# number of rings (size 3 to 8) (size 9 to 14) (size 15 to 20)
#    0.000    2.667    0.000    5.000    0.000    0.000 
#    0.000    3.333    0.000   18.000    0.000    0.000 
#    0.000    0.000    0.000    0.000    0.000    0.000 
#
# Total GULP energy -66964.011354 kJ/mol
# GULP energy per Si atom -5580.334280 kJ/mol
# Density = 2.857012 g / cm^3
# Si number density = 28.635291 Si / 1000 Ang^3
#
#
#
# Elastic Constant Matrix: (Units=GPa)
#
#
# Indices 1 2 3 4 5 6 
#
# 1 123.2295 57.1636 50.8574 -26.1755 -42.1479 47.4196
# 2 57.1636 175.2565 48.8292 10.1112 -13.3678 0.4653
# 3 50.8574 48.8292 147.4476 -29.6443 -31.3788 22.5126
# 4 -26.1755 10.1112 -29.6443 67.2340 34.8478 -30.9434
# 5 -42.1479 -13.3678 -31.3788 34.8478 54.9846 -22.3380
# 6 47.4196 0.4653 22.5126 -30.9434 -22.3380 47.6073
#
#
#
# Elastic Compliance Matrix: (Units=1/GPa)
#
#
# Indices 1 2 3 4 5 6 
#
# 1 0.020337 -0.005123 -0.001583 -0.005390 0.009301 -0.018598
# 2 -0.005123 0.008033 -0.001996 -0.001917 0.000025 0.004734
# 3 -0.001583 -0.001996 0.008894 0.002735 0.001613 -0.000075
# 4 -0.005390 -0.001917 0.002735 0.029616 -0.015226 0.016200
# 5 0.009301 0.000025 0.001613 -0.015226 0.034346 -0.003808
# 6 -0.018598 0.004734 -0.000075 0.016200 -0.003808 0.048261
#
#
# Mechanical properties :
#
#
# Convention : Reuss Voigt Hill
#
# Bulk Modulus (GPa) = 50.35138 84.40377 67.37758
# Shear Modulus (GPa) = 28.81659 53.23741 41.02700
#
# Velocity S-wave (km/s) = 3.17571 4.31647 3.78927
# Velocity P-wave (km/s) = 5.57393 7.37441 6.53646
#
# Compressibility (1/GPa) = 0.01986043
#
# Stress axis : x y z
#
# Youngs Moduli (GPa) = 49.17048 124.48876 112.43962
#
# Poissons Ratio (x) = 0.63771 0.17800
# Poissons Ratio (y) = 0.25188 0.22444
# Poissons Ratio (z) = 0.07784 0.24849
#
# Static dielectric constant tensor:
#      x y z
#    x 2.434010 -0.002920 -0.143550 
#    y -0.002920 2.210720 0.015750 
#    z -0.143550 0.015750 2.238370 
# 
# From -- ./inp_files/413089.got.cif
#   From: 2010.05.17/outbox.cif.g08.bks.cpg/sg2_207_cif.got.tgz:413089.got - 2010.06.03 11:33:40.
