data_PCOD9054207
_publ_section_title
;
Structure prediction by ZEFSAII (Michael W. Deem and Ramdas Pophale) SiO2 
 PCOD9054207
Probable space group: P -1
;
_chemical_formula_sum "Si O2"
_cell_formula_units_Z 16
_cell_length_a 11.483637
_cell_length_b 13.627960
_cell_length_c 12.417318
_cell_angle_alpha 45.368682
_cell_angle_beta 116.206769
_cell_angle_gamma 148.332941
_cell_volume 659.395724
_symmetry_space_group_name_H-M "P -1"
_symmetry_group_IT_number 2
_symmetry_cell_setting 'triclinic'
loop_
_space_group_symop_operation_xyz
x,y,z
-x,-y,-z
loop_
_atom_site_type_symbol
_atom_site_label
_atom_site_fract_x
_atom_site_fract_y
_atom_site_fract_z
Si Si1 0.041868 0.695242 0.396441
Si Si2 0.635034 0.958682 0.283811
Si Si3 0.905928 0.551664 0.052578
Si Si4 0.903596 0.249411 0.380618
Si Si5 0.759104 0.688903 0.261914
Si Si6 0.574787 0.944884 0.897308
Si Si7 0.557034 0.370791 0.723108
Si Si8 0.230310 0.291370 0.005445
O O1 0.000000 0.500000 0.500000
O O2 0.164613 0.819582 0.468136
O O3 0.795526 0.561686 0.401753
O O4 0.201114 0.897891 0.206875
O O5 0.437675 0.900701 0.221032
O O6 0.702734 0.016470 0.392699
O O7 0.567205 0.763796 0.338826
O O8 0.881036 0.233543 0.112238
O O9 0.662813 0.310151 0.070535
O O10 0.858435 0.640590 0.039287
O O11 0.949985 0.452092 0.214772
O O12 0.154164 0.391871 0.351946
O O13 0.532457 0.568739 0.308342
O O14 0.748294 0.691646 0.127253
O O15 0.009183 0.986936 0.177475
O O16 0.553594 0.849027 0.075258
O O17 0.500000 0.500000 0.000000
#
# Coordination Sequence:
#
# PCOD9054207 Si02
#       8
#     2   2   2   2   2   2   2   2
#     4  12  27  46  66  94 139 181 219 271 338 397
#     4  11  22  38  69 105 127 169 222 273 329 385
#     4  11  20  41  69 103 131 167 226 278 330 386
#     4  11  25  43  65  99 138 178 220 269 324 400
#     4  11  25  41  63 100 131 175 226 266 328 407
#     4  11  22  41  70 103 130 171 222 277 330 390
#     4  12  22  41  73  96 133 170 224 279 330 380
#     4  11  22  40  68 102 137 167 215 285 337 375
#
# _framework density 24.26464
#
# number of rings (size 3 to 8) (size 9 to 14) (size 15 to 20)
#    0.000    0.750    3.750    5.625    1.750    2.500 
#    0.000    5.625    0.000    0.000    0.000    0.000 
#    0.000    0.000    0.000    0.000    0.000    0.000 
#
# Total GULP energy -89696.358367 kJ/mol
# GULP energy per Si atom -5606.022398 kJ/mol
# Density = 2.420941 g / cm^3
# Si number density = 24.264640 Si / 1000 Ang^3
#
#
#
# Elastic Constant Matrix: (Units=GPa)
#
#
# Indices 1 2 3 4 5 6 
#
# 1 187.3813 37.5990 30.3014 12.7054 -0.5141 -3.3306
# 2 37.5990 111.6345 23.6521 27.6253 -3.2494 0.1384
# 3 30.3014 23.6521 87.5842 20.6643 -15.5069 -5.5053
# 4 12.7054 27.6253 20.6643 29.1256 0.2362 -12.0481
# 5 -0.5141 -3.2494 -15.5069 0.2362 46.9132 3.9270
# 6 -3.3306 0.1384 -5.5053 -12.0481 3.9270 36.9547
#
#
#
# Elastic Compliance Matrix: (Units=1/GPa)
#
#
# Indices 1 2 3 4 5 6 
#
# 1 0.005956 -0.001799 -0.001814 0.000630 -0.000709 0.000554
# 2 -0.001799 0.012935 0.000318 -0.013700 0.001451 -0.004784
# 3 -0.001814 0.000318 0.015465 -0.011416 0.005352 -0.002151
# 4 0.000630 -0.013700 -0.011416 0.063391 -0.006691 0.019785
# 5 -0.000709 0.001451 0.005352 -0.006691 0.023542 -0.003955
# 6 0.000554 -0.004784 -0.002151 0.019785 -0.003955 0.033678
#
#
# Mechanical properties :
#
#
# Convention : Reuss Voigt Hill
#
# Bulk Modulus (GPa) = 36.01611 63.30056 49.65833
# Shear Modulus (GPa) = 29.27171 42.26856 35.77014
#
# Velocity S-wave (km/s) = 3.47703 4.17823 3.84365
# Velocity P-wave (km/s) = 5.56731 7.03001 6.34098
#
# Compressibility (1/GPa) = 0.02776535
#
# Stress axis : x y z
#
# Youngs Moduli (GPa) = 167.89164 77.31158 64.66198
#
# Poissons Ratio (x) = 0.13908 0.11731
# Poissons Ratio (y) = 0.30203 -0.02055
# Poissons Ratio (z) = 0.30458 -0.02457
#
# Static dielectric constant tensor:
#      x y z
#    x 1.917230 0.002520 0.009520 
#    y 0.002520 1.929050 -0.054580 
#    z 0.009520 -0.054580 1.980340 
# 
# From -- ./inp_files/432625.got.cif
#   From: 2010.05.17/outbox.cif.g08.bks.cpg/sg2_217_cif.got.tgz:432625.got - 2010.06.03 11:33:40.
