data_PCOD9054808
_publ_section_title
;
Structure prediction by ZEFSAII (Michael W. Deem and Ramdas Pophale) SiO2 
 PCOD9054808
Probable space group: P -1
;
_chemical_formula_sum "Si O2"
_cell_formula_units_Z 16
_cell_length_a 15.545188
_cell_length_b 15.615909
_cell_length_c 11.801287
_cell_angle_alpha 153.471330
_cell_angle_beta 142.864957
_cell_angle_gamma 41.248928
_cell_volume 764.510134
_symmetry_space_group_name_H-M "P -1"
_symmetry_group_IT_number 2
_symmetry_cell_setting 'triclinic'
loop_
_space_group_symop_operation_xyz
x,y,z
-x,-y,-z
loop_
_atom_site_type_symbol
_atom_site_label
_atom_site_fract_x
_atom_site_fract_y
_atom_site_fract_z
Si Si1 0.988496 0.885138 0.690577
Si Si2 0.459946 0.451311 0.231421
Si Si3 0.417659 0.071476 0.383529
Si Si4 0.675913 0.923766 0.322580
Si Si5 0.744193 0.200000 0.256287
Si Si6 0.065840 0.698937 0.793516
Si Si7 0.639209 0.529229 0.110412
Si Si8 0.638024 0.113494 0.281736
O O1 0.090599 0.790687 0.585791
O O2 0.047410 0.777161 0.738932
O O3 0.819545 0.872198 0.485860
O O4 0.998249 0.114435 0.979553
O O5 0.631962 0.397217 0.362091
O O6 0.408090 0.659404 0.474607
O O7 0.391385 0.273599 0.004677
O O8 0.407786 0.448104 0.042522
O O9 0.325258 0.272653 0.560820
O O10 0.500000 0.000000 0.500000
O O11 0.546242 0.063273 0.415253
O O12 0.315375 0.927986 0.056847
O O13 0.720325 0.022267 0.371069
O O14 0.720083 0.100962 0.233909
O O15 0.231374 0.640467 0.934323
O O16 0.000000 0.500000 0.500000
O O17 0.500000 0.500000 0.000000
O O18 0.500000 0.000000 0.000000
#
# Coordination Sequence:
#
# PCOD9054808 Si02
#       8
#     2   2   2   2   2   2   2   2
#     4  11  25  43  62  94 141 177 213 267 342 384
#     4  11  23  42  68  96 127 165 226 272 328 383
#     4  11  21  38  66  97 130 165 217 268 328 381
#     4  11  24  43  67  94 131 180 210 274 333 387
#     4  11  24  42  67  98 131 175 218 273 321 395
#     4  11  24  40  62  93 139 182 215 256 325 408
#     4  12  22  36  64  98 128 166 217 265 321 387
#     4  12  24  45  71  96 125 170 231 276 324 382
#
# _framework density 20.928435
#
# number of rings (size 3 to 8) (size 9 to 14) (size 15 to 20)
#    0.000    0.750    5.000    4.875    3.500    0.500 
#    2.250    0.625    0.000    0.000    0.000    0.000 
#    0.000    0.000    0.000    0.000    0.000    0.000 
#
# Total GULP energy -89421.167875 kJ/mol
# GULP energy per Si atom -5588.822992 kJ/mol
# Density = 2.088080 g / cm^3
# Si number density = 20.928435 Si / 1000 Ang^3
#
#
#
# Elastic Constant Matrix: (Units=GPa)
#
#
# Indices 1 2 3 4 5 6 
#
# 1 76.8534 40.9798 14.7763 -0.6784 -5.9219 -0.2950
# 2 40.9798 121.4741 3.3767 8.3046 -0.2887 1.5329
# 3 14.7763 3.3767 74.7665 24.0243 -4.9757 -2.0555
# 4 -0.6784 8.3046 24.0243 35.5013 -0.6421 0.4243
# 5 -5.9219 -0.2887 -4.9757 -0.6421 23.9069 -12.2496
# 6 -0.2950 1.5329 -2.0555 0.4243 -12.2496 33.3125
#
#
#
# Elastic Compliance Matrix: (Units=1/GPa)
#
#
# Indices 1 2 3 4 5 6 
#
# 1 0.017504 -0.006122 -0.004387 0.004793 0.004351 0.001705
# 2 -0.006122 0.010517 0.001834 -0.003836 -0.001606 -0.000967
# 3 -0.004387 0.001834 0.018703 -0.013132 0.003807 0.002598
# 4 0.004793 -0.003836 -0.013132 0.038037 -0.001382 -0.001584
# 5 0.004351 -0.001606 0.003807 -0.001382 0.054005 0.020223
# 6 0.001705 -0.000967 0.002598 -0.001584 0.020223 0.037695
#
#
# Mechanical properties :
#
#
# Convention : Reuss Voigt Hill
#
# Bulk Modulus (GPa) = 34.04231 43.48438 38.76334
# Shear Modulus (GPa) = 24.55771 32.80823 28.68297
#
# Velocity S-wave (km/s) = 3.42923 3.96364 3.70608
# Velocity P-wave (km/s) = 5.65516 6.46297 6.07251
#
# Compressibility (1/GPa) = 0.02937521
#
# Stress axis : x y z
#
# Youngs Moduli (GPa) = 57.13116 95.08352 53.46618
#
# Poissons Ratio (x) = 0.58209 0.23453
# Poissons Ratio (y) = 0.34975 -0.09805
# Poissons Ratio (z) = 0.25061 -0.17438
#
# Static dielectric constant tensor:
#      x y z
#    x 1.762770 0.007090 0.003880 
#    y 0.007090 1.795060 0.009540 
#    z 0.003880 0.009540 1.837920 
# 
# From -- ./inp_files/455293.got.cif
#   From: 2010.05.17/outbox.cif.g08.bks.cpg/sg2_228_cif.got.tgz:455293.got - 2010.06.03 11:33:40.
