data_PCOD9054653
_publ_section_title
;
Structure prediction by ZEFSAII (Michael W. Deem and Ramdas Pophale) SiO2 
 PCOD9054653
Probable space group: P -1
;
_chemical_formula_sum "Si O2"
_cell_formula_units_Z 16
_cell_length_a 15.104721
_cell_length_b 12.100542
_cell_length_c 9.477567
_cell_angle_alpha 99.652447
_cell_angle_beta 57.780481
_cell_angle_gamma 51.891574
_cell_volume 767.695833
_symmetry_space_group_name_H-M "P -1"
_symmetry_group_IT_number 2
_symmetry_cell_setting 'triclinic'
loop_
_space_group_symop_operation_xyz
x,y,z
-x,-y,-z
loop_
_atom_site_type_symbol
_atom_site_label
_atom_site_fract_x
_atom_site_fract_y
_atom_site_fract_z
Si Si1 0.057629 0.507863 0.674023
Si Si2 0.002188 0.253813 0.455804
Si Si3 0.255442 0.391182 0.046644
Si Si4 0.078922 0.624015 0.958379
Si Si5 0.385118 0.525046 0.711117
Si Si6 0.370164 0.048118 0.232686
Si Si7 0.904313 0.034522 0.879722
Si Si8 0.785282 0.070159 0.298741
O O1 0.027080 0.588337 0.870047
O O2 0.244331 0.256313 0.466110
O O3 0.076732 0.592708 0.567860
O O4 0.876351 0.596820 0.793561
O O5 0.207698 0.116936 0.310900
O O6 0.838096 0.417334 0.751628
O O7 0.044000 0.096189 0.317101
O O8 0.195292 0.460422 0.950620
O O9 0.476959 0.161640 0.849351
O O10 0.227012 0.590262 0.780199
O O11 0.884146 0.866543 0.225339
O O12 0.500000 0.500000 0.500000
O O13 0.557596 0.292155 0.576735
O O14 0.261565 0.720392 0.957162
O O15 0.500000 0.000000 0.000000
O O16 0.094554 0.933293 0.743001
O O17 0.824396 0.040540 0.088655
#
# Coordination Sequence:
#
# PCOD9054653 Si02
#       8
#     2   2   2   2   2   2   2   2
#     4  11  22  38  62  88 113 157 203 237 286 353
#     4  11  21  37  63  85 114 158 201 233 292 350
#     4  11  24  41  56  86 126 156 193 243 292 348
#     4  11  23  38  61  89 120 155 191 244 304 339
#     4   9  20  35  56  91 120 145 191 242 290 351
#     4  11  21  38  58  84 122 155 199 246 279 342
#     4   9  18  34  59  90 110 148 197 242 285 344
#     4   9  18  36  58  85 122 142 189 250 291 337
#
# _framework density 20.841588000000002
#
# number of rings (size 3 to 8) (size 9 to 14) (size 15 to 20)
#    0.000    1.750    3.750    1.875    0.000    6.500 
#    0.000    2.500    0.000    4.500    0.000    0.000 
#    0.000    0.000    0.000    0.000    0.000    0.000 
#
# Total GULP energy -89331.719956 kJ/mol
# GULP energy per Si atom -5583.232497 kJ/mol
# Density = 2.079415 g / cm^3
# Si number density = 20.841588 Si / 1000 Ang^3
#
#
#
# Elastic Constant Matrix: (Units=GPa)
#
#
# Indices 1 2 3 4 5 6 
#
# 1 83.5221 12.9599 51.3939 21.0850 34.1089 -2.4275
# 2 12.9599 97.7350 31.9455 33.2601 7.5465 -15.3762
# 3 51.3939 31.9455 81.7068 46.5782 16.2236 -7.9240
# 4 21.0850 33.2601 46.5782 44.3896 -0.1976 -5.1369
# 5 34.1089 7.5465 16.2236 -0.1976 34.8587 -2.3234
# 6 -2.4275 -15.3762 -7.9240 -5.1369 -2.3234 21.3948
#
#
#
# Elastic Compliance Matrix: (Units=1/GPa)
#
#
# Indices 1 2 3 4 5 6 
#
# 1 0.031090 0.002584 -0.015797 -0.000604 -0.023845 -0.003201
# 2 0.002584 0.016066 0.003345 -0.015822 -0.007086 0.008510
# 3 -0.015797 0.003345 0.049414 -0.046082 -0.008061 0.006973
# 4 -0.000604 -0.015822 -0.046082 0.082450 0.025535 -0.005938
# 5 -0.023845 -0.007086 -0.008061 0.025535 0.057557 0.001598
# 6 -0.003201 0.008510 0.006973 -0.005938 0.001598 0.053824
#
#
# Mechanical properties :
#
#
# Convention : Reuss Voigt Hill
#
# Bulk Modulus (GPa) = 13.01509 50.61807 31.81658
# Shear Modulus (GPa) = 14.89206 31.23958 23.06582
#
# Velocity S-wave (km/s) = 2.67598 3.87577 3.33035
# Velocity P-wave (km/s) = 3.97569 6.66097 5.48519
#
# Compressibility (1/GPa) = 0.07683390
#
# Stress axis : x y z
#
# Youngs Moduli (GPa) = 32.16466 62.24266 20.23705
#
# Poissons Ratio (x) = -0.16084 0.31969
# Poissons Ratio (y) = -0.08312 -0.06769
# Poissons Ratio (z) = 0.50812 -0.20820
#
# Static dielectric constant tensor:
#      x y z
#    x 1.718590 0.048700 -0.017160 
#    y 0.048700 1.817500 0.000780 
#    z -0.017160 0.000780 1.762970 
# 
# From -- ./inp_files/273543.got.cif
#   From: 2010.05.17/outbox.cif.g08.bks.cpg/sg2_137_cif.got.tgz:273543.got - 2010.06.03 11:33:40.
