data_PCOD9054308
_publ_section_title
;
Structure prediction by ZEFSAII (Michael W. Deem and Ramdas Pophale) SiO2 
 PCOD9054308
Probable space group: P -1
;
_chemical_formula_sum "Si O2"
_cell_formula_units_Z 15
_cell_length_a 11.286715
_cell_length_b 8.603547
_cell_length_c 10.793798
_cell_angle_alpha 101.682981
_cell_angle_beta 137.356054
_cell_angle_gamma 96.953960
_cell_volume 635.137119
_symmetry_space_group_name_H-M "P -1"
_symmetry_group_IT_number 2
_symmetry_cell_setting 'triclinic'
loop_
_space_group_symop_operation_xyz
x,y,z
-x,-y,-z
loop_
_atom_site_type_symbol
_atom_site_label
_atom_site_fract_x
_atom_site_fract_y
_atom_site_fract_z
Si Si1 0.261919 0.232901 0.473084
Si Si2 0.706716 0.158883 0.192751
Si Si3 0.928550 0.097210 0.563923
Si Si4 0.598669 0.463829 0.190649
Si Si5 0.873154 0.100474 0.058851
Si Si6 0.000000 0.500000 0.000000
Si Si7 0.779208 0.714183 0.980425
Si Si8 0.369415 0.806571 0.319786
O O1 0.266632 0.362645 0.607572
O O2 0.474327 0.272748 0.597209
O O3 0.100670 0.217281 0.245660
O O4 0.190466 0.042510 0.448121
O O5 0.794277 0.163608 0.395410
O O6 0.696437 0.341732 0.197557
O O7 0.824466 0.123282 0.167071
O O8 0.500000 0.000000 0.000000
O O9 0.105496 0.237820 0.793073
O O10 0.000000 0.000000 0.500000
O O11 0.500000 0.500000 0.000000
O O12 0.440160 0.362483 0.156648
O O13 0.827826 0.897307 0.976390
O O14 0.745386 0.166019 0.884724
O O15 0.812889 0.328796 0.768803
O O16 0.147839 0.415350 0.052650
O O17 0.500000 0.000000 0.500000
#
# Coordination Sequence:
#
# PCOD9054308 Si02
#       8
#     2   2   2   2   2   1   2   2
#     4  11  24  44  69 106 150 190 238 315 370 448
#     4  12  22  38  70 106 143 191 236 297 383 460
#     4  11  20  42  70 104 146 190 240 298 378 452
#     4  12  24  40  67 107 152 189 238 304 375 450
#     4  11  25  47  74 108 143 190 255 307 384 464
#     4  12  28  50  76 106 144 202 260 316 374 448
#     4  11  24  46  71 103 148 193 247 308 367 450
#     4  12  27  52  78 103 143 201 260 318 384 445
#
# _framework density 23.616948000000001
#
# number of rings (size 3 to 8) (size 9 to 14) (size 15 to 20)
#    0.000    0.533    5.333    4.800    0.000    3.733 
#    2.400    1.333    0.000    0.000    0.000    0.000 
#    0.000    0.000    0.000    0.000    0.000    0.000 
#
# Total GULP energy -83672.167786 kJ/mol
# GULP energy per Si atom -5578.144519 kJ/mol
# Density = 2.356319 g / cm^3
# Si number density = 23.616948 Si / 1000 Ang^3
#
#
#
# Elastic Constant Matrix: (Units=GPa)
#
#
# Indices 1 2 3 4 5 6 
#
# 1 82.6856 5.3604 15.7525 6.7747 13.0088 -21.3935
# 2 5.3604 52.1298 26.0897 13.0773 -3.6448 -27.0821
# 3 15.7525 26.0897 129.8040 -0.0623 13.2779 3.1628
# 4 6.7747 13.0773 -0.0623 38.2990 -6.0998 -9.6337
# 5 13.0088 -3.6448 13.2779 -6.0998 43.6802 8.1397
# 6 -21.3935 -27.0821 3.1628 -9.6337 8.1397 34.7384
#
#
#
# Elastic Compliance Matrix: (Units=1/GPa)
#
#
# Indices 1 2 3 4 5 6 
#
# 1 0.019893 0.012941 -0.004748 -0.003278 -0.008295 0.023807
# 2 0.012941 0.050262 -0.012221 -0.008521 -0.005949 0.047298
# 3 -0.004748 -0.012221 0.011085 0.001733 -0.000329 -0.012903
# 4 -0.003278 -0.008521 0.001733 0.029890 0.004195 -0.001514
# 5 -0.008295 -0.005949 -0.000329 0.004195 0.028387 -0.015205
# 6 0.023807 0.047298 -0.012903 -0.001514 -0.015205 0.084639
#
#
# Mechanical properties :
#
#
# Convention : Reuss Voigt Hill
#
# Bulk Modulus (GPa) = 13.66403 39.89160 26.77782
# Shear Modulus (GPa) = 19.48503 37.83795 28.66149
#
# Velocity S-wave (km/s) = 2.87547 4.00703 3.48745
# Velocity P-wave (km/s) = 4.10155 6.19162 5.25161
#
# Compressibility (1/GPa) = 0.07318483
#
# Stress axis : x y z
#
# Youngs Moduli (GPa) = 50.26876 19.89578 90.20934
#
# Poissons Ratio (x) = -0.25748 0.42835
# Poissons Ratio (y) = -0.65055 1.10243
# Poissons Ratio (z) = 0.23869 0.24314
#
# Static dielectric constant tensor:
#      x y z
#    x 1.905730 0.031310 0.044420 
#    y 0.031310 1.959710 -0.027030 
#    z 0.044420 -0.027030 1.933730 
# 
# From -- ./inp_files/258479.got.cif
#   From: 2010.05.17/outbox.cif.g08.bks.cpg/sg2_130_cif.got.tgz:258479.got - 2010.06.03 11:33:40.
