data_PCOD9054175
_publ_section_title
;
Structure prediction by ZEFSAII (Michael W. Deem and Ramdas Pophale) SiO2 
 PCOD9054175
Probable space group: P -1
;
_chemical_formula_sum "Si O2"
_cell_formula_units_Z 16
_cell_length_a 14.130562
_cell_length_b 9.085682
_cell_length_c 19.051500
_cell_angle_alpha 80.883286
_cell_angle_beta 158.669650
_cell_angle_gamma 112.146659
_cell_volume 675.941059
_symmetry_space_group_name_H-M "P -1"
_symmetry_group_IT_number 2
_symmetry_cell_setting 'triclinic'
loop_
_space_group_symop_operation_xyz
x,y,z
-x,-y,-z
loop_
_atom_site_type_symbol
_atom_site_label
_atom_site_fract_x
_atom_site_fract_y
_atom_site_fract_z
Si Si1 0.593697 0.371454 0.602590
Si Si2 0.057816 0.732300 0.636196
Si Si3 0.634562 0.112249 0.311901
Si Si4 0.615521 0.685911 0.023651
Si Si5 0.175533 0.086961 0.454096
Si Si6 0.962986 0.661749 0.155197
Si Si7 0.331683 0.670699 0.550352
Si Si8 0.114266 0.037696 0.186556
O O1 0.500000 0.500000 0.500000
O O2 0.452030 0.281380 0.587322
O O3 0.976585 0.457412 0.844610
O O4 0.367836 0.182750 0.411396
O O5 0.121298 0.789722 0.593946
O O6 0.069342 0.886112 0.677991
O O7 0.733022 0.521391 0.455253
O O8 0.347161 0.716467 0.850127
O O9 0.751518 0.263431 0.443761
O O10 0.647089 0.951238 0.363054
O O11 0.247300 0.022649 0.039888
O O12 0.636078 0.627675 0.963057
O O13 0.500000 0.500000 0.000000
O O14 0.961247 0.895534 0.270714
O O15 0.115827 0.653508 0.335838
O O16 0.117851 0.859841 0.205390
O O17 0.713181 0.836994 0.774582
#
# Coordination Sequence:
#
# PCOD9054175 Si02
#       8
#     2   2   2   2   2   2   2   2
#     4  11  23  41  69  96 130 164 208 270 333 376
#     4  12  25  42  63  95 132 172 213 268 321 386
#     4  12  23  42  63  90 131 177 218 255 319 387
#     4  12  23  41  68  96 124 168 226 268 316 379
#     4  12  24  44  65  94 135 172 206 271 326 379
#     4  11  20  41  65  95 122 162 218 270 313 373
#     4  11  22  40  65  94 127 165 220 270 319 376
#     4  11  22  40  67  96 126 169 217 266 316 384
#
# _framework density 23.6707
#
# number of rings (size 3 to 8) (size 9 to 14) (size 15 to 20)
#    0.000    0.500    5.000    5.250    0.000    0.000 
#    0.000    3.750    0.000    0.000    0.000    0.000 
#    0.000    0.000    0.000    0.000    0.000    0.000 
#
# Total GULP energy -89266.822178 kJ/mol
# GULP energy per Si atom -5579.176386 kJ/mol
# Density = 2.361682 g / cm^3
# Si number density = 23.670700 Si / 1000 Ang^3
#
#
#
# Elastic Constant Matrix: (Units=GPa)
#
#
# Indices 1 2 3 4 5 6 
#
# 1 142.6390 67.8826 15.0812 1.5470 37.8580 12.8941
# 2 67.8826 170.1727 17.4080 -19.9855 26.8071 24.0677
# 3 15.0812 17.4080 51.1782 -11.0887 19.9166 5.3057
# 4 1.5470 -19.9855 -11.0887 36.6813 -3.0285 15.6715
# 5 37.8580 26.8071 19.9166 -3.0285 32.7637 -6.6810
# 6 12.8941 24.0677 5.3057 15.6715 -6.6810 52.1330
#
#
#
# Elastic Compliance Matrix: (Units=1/GPa)
#
#
# Indices 1 2 3 4 5 6 
#
# 1 0.012108 -0.002201 0.003524 -0.000079 -0.015209 -0.004262
# 2 -0.002201 0.010081 0.003556 0.009556 -0.008709 -0.008460
# 3 0.003524 0.003556 0.033319 0.015587 -0.028704 -0.014268
# 4 -0.000079 0.009556 0.015587 0.045036 -0.017476 -0.021756
# 5 -0.015209 -0.008709 -0.028704 -0.017476 0.076302 0.025735
# 6 -0.004262 -0.008460 -0.014268 -0.021756 0.025735 0.035432
#
#
# Mechanical properties :
#
#
# Convention : Reuss Voigt Hill
#
# Bulk Modulus (GPa) = 15.32184 62.74818 39.03501
# Shear Modulus (GPa) = 22.29403 41.89013 32.09208
#
# Velocity S-wave (km/s) = 3.07227 4.21135 3.68608
# Velocity P-wave (km/s) = 4.36716 7.08616 5.88582
#
# Compressibility (1/GPa) = 0.06526631
#
# Stress axis : x y z
#
# Youngs Moduli (GPa) = 82.58679 99.19261 30.01331
#
# Poissons Ratio (x) = 0.21835 -0.10577
# Poissons Ratio (y) = 0.18180 -0.10673
# Poissons Ratio (z) = -0.29104 -0.35275
#
# Static dielectric constant tensor:
#      x y z
#    x 1.941500 0.018250 0.039240 
#    y 0.018250 1.892700 -0.006220 
#    z 0.039240 -0.006220 2.105330 
# 
# From -- ./inp_files/295599.got.cif
#   From: 2010.05.17/outbox.cif.g08.bks.cpg/sg2_148_cif.got.tgz:295599.got - 2010.06.03 11:33:40.
