data_PCOD9054768
_publ_section_title
;
Structure prediction by ZEFSAII (Michael W. Deem and Ramdas Pophale) SiO2 
 PCOD9054768
Probable space group: P -1
;
_chemical_formula_sum "Si O2"
_cell_formula_units_Z 16
_cell_length_a 4.762413
_cell_length_b 12.003797
_cell_length_c 14.714451
_cell_angle_alpha 88.474046
_cell_angle_beta 85.690526
_cell_angle_gamma 120.977400
_cell_volume 717.063958
_symmetry_space_group_name_H-M "P -1"
_symmetry_group_IT_number 2
_symmetry_cell_setting 'triclinic'
loop_
_space_group_symop_operation_xyz
x,y,z
-x,-y,-z
loop_
_atom_site_type_symbol
_atom_site_label
_atom_site_fract_x
_atom_site_fract_y
_atom_site_fract_z
Si Si1 0.738271 0.653735 0.009329
Si Si2 0.342739 0.262082 0.356220
Si Si3 0.925354 0.492834 0.256318
Si Si4 0.833192 0.122674 0.532118
Si Si5 0.715737 0.137956 0.265915
Si Si6 0.643833 0.279733 0.106828
Si Si7 0.333723 0.122975 0.657990
Si Si8 0.343196 0.334521 0.780670
O O1 0.670724 0.683891 0.110627
O O2 0.500000 0.500000 0.000000
O O3 0.671205 0.731995 0.932205
O O4 0.103956 0.685816 0.982469
O O5 0.665443 0.405362 0.342149
O O6 0.677978 0.191764 0.592907
O O7 0.098598 0.213646 0.448433
O O8 0.097658 0.240366 0.278700
O O9 0.797702 0.399966 0.172194
O O10 0.915311 0.622193 0.236589
O O11 0.304064 0.541914 0.259422
O O12 0.498590 0.172274 0.336191
O O13 0.041206 0.084107 0.593619
O O14 0.500000 0.000000 0.500000
O O15 0.611756 0.160880 0.169122
O O16 0.676268 0.000214 0.291917
O O17 0.296200 0.212338 0.729591
#
# Coordination Sequence:
#
# PCOD9054768 Si02
#       8
#     2   2   2   2   2   2   2   2
#     4  12  21  38  66 100 130 173 233 270 313 382
#     4  11  23  40  69 101 126 166 226 287 326 383
#     4  11  21  41  64  96 136 170 221 270 336 386
#     4  12  25  45  71 100 128 167 236 280 322 393
#     4  11  23  40  65  97 138 166 217 281 341 379
#     4  11  21  38  64 101 128 168 226 285 314 374
#     4  12  27  44  65  99 139 176 214 273 343 402
#     4  12  25  42  64  96 142 182 212 267 338 403
#
# _framework density 22.313210999999999
#
# number of rings (size 3 to 8) (size 9 to 14) (size 15 to 20)
#    0.000    0.500    3.750    6.750    0.000    0.000 
#    0.000    5.000    0.000    0.000    0.000    0.000 
#    0.000    0.000    0.000    0.000    0.000    0.000 
#
# Total GULP energy -89483.030579 kJ/mol
# GULP energy per Si atom -5592.689411 kJ/mol
# Density = 2.226242 g / cm^3
# Si number density = 22.313211 Si / 1000 Ang^3
#
#
#
# Elastic Constant Matrix: (Units=GPa)
#
#
# Indices 1 2 3 4 5 6 
#
# 1 112.9893 16.3997 30.7114 -0.5657 -7.3294 -15.2113
# 2 16.3997 66.0117 55.4175 -4.2899 0.3409 -24.5653
# 3 30.7114 55.4175 119.9800 -5.1677 -9.9932 -14.7273
# 4 -0.5657 -4.2899 -5.1677 30.0419 -6.4536 -3.0642
# 5 -7.3294 0.3409 -9.9932 -6.4536 36.9117 -3.5623
# 6 -15.2113 -24.5653 -14.7273 -3.0642 -3.5623 33.8249
#
#
#
# Elastic Compliance Matrix: (Units=1/GPa)
#
#
# Indices 1 2 3 4 5 6 
#
# 1 0.010081 0.001329 -0.002415 0.000864 0.001943 0.004730
# 2 0.001329 0.033533 -0.013348 0.004275 -0.001038 0.019418
# 3 -0.002415 -0.013348 0.014987 0.000993 0.003509 -0.003795
# 4 0.000864 0.004275 0.000993 0.036528 0.007563 0.008031
# 5 0.001943 -0.001038 0.003509 0.007563 0.030292 0.005523
# 6 0.004730 0.019418 -0.003795 0.008031 0.005523 0.045450
#
#
# Mechanical properties :
#
#
# Convention : Reuss Voigt Hill
#
# Bulk Modulus (GPa) = 33.63041 56.00425 44.81733
# Shear Modulus (GPa) = 23.84918 33.25253 28.55086
#
# Velocity S-wave (km/s) = 3.27285 3.86458 3.58096
# Velocity P-wave (km/s) = 5.42096 6.71319 6.10138
#
# Compressibility (1/GPa) = 0.02973499
#
# Stress axis : x y z
#
# Youngs Moduli (GPa) = 99.19629 29.82107 66.72359
#
# Poissons Ratio (x) = -0.03963 0.16111
# Poissons Ratio (y) = -0.13184 0.89061
# Poissons Ratio (z) = 0.23952 0.39804
#
# Static dielectric constant tensor:
#      x y z
#    x 1.819200 0.006820 -0.005630 
#    y 0.006820 1.833080 -0.030870 
#    z -0.005630 -0.030870 1.859530 
# 
# From -- ./inp_files/364538.got.cif
#   From: 2010.05.17/outbox.cif.g08.bks.cpg/sg2_183_cif.got.tgz:364538.got - 2010.06.03 11:33:40.
