data_PCOD9054915
_publ_section_title
;
Structure prediction by ZEFSAII (Michael W. Deem and Ramdas Pophale) SiO2 
 PCOD9054915
Probable space group: P -1
;
_chemical_formula_sum "Si O2"
_cell_formula_units_Z 16
_cell_length_a 11.987998
_cell_length_b 10.767917
_cell_length_c 7.780102
_cell_angle_alpha 44.957972
_cell_angle_beta 65.967844
_cell_angle_gamma 54.297536
_cell_volume 576.229746
_symmetry_space_group_name_H-M "P -1"
_symmetry_group_IT_number 2
_symmetry_cell_setting 'triclinic'
loop_
_space_group_symop_operation_xyz
x,y,z
-x,-y,-z
loop_
_atom_site_type_symbol
_atom_site_label
_atom_site_fract_x
_atom_site_fract_y
_atom_site_fract_z
Si Si1 0.780331 0.274457 0.289262
Si Si2 0.898595 0.898801 0.381775
Si Si3 0.410817 0.818239 0.700440
Si Si4 0.190135 0.638083 0.298445
Si Si5 0.615148 0.283462 0.703548
Si Si6 0.807228 0.613248 0.133338
Si Si7 0.946159 0.482006 0.746970
Si Si8 0.461123 0.093021 0.156626
O O1 0.642025 0.327337 0.209712
O O2 0.734328 0.215722 0.555334
O O3 0.827755 0.436250 0.160706
O O4 0.893519 0.071880 0.335037
O O5 0.911391 0.692102 0.647380
O O6 0.038996 0.817934 0.261531
O O7 0.738300 0.000877 0.320704
O O8 0.518522 0.786694 0.812676
O O9 0.472182 0.895058 0.428600
O O10 0.312501 0.692998 0.191564
O O11 0.225471 0.468494 0.586955
O O12 0.171842 0.571602 0.185028
O O13 0.500000 0.500000 0.500000
O O14 0.558877 0.126595 0.925925
O O15 0.073465 0.338128 0.921282
O O16 0.685748 0.794592 0.945935
O O17 0.000000 0.500000 0.500000
#
# Coordination Sequence:
#
# PCOD9054915 Si02
#       8
#     2   2   2   2   2   2   2   2
#     4   9  19  38  61 100 129 175 212 281 344 371
#     4   8  17  38  60  89 137 169 221 265 327 408
#     4   9  23  41  60  94 139 184 209 276 341 388
#     4   9  18  37  65 100 135 176 215 278 337 395
#     4  11  21  39  65 103 133 169 226 279 329 396
#     4   9  17  33  63  95 126 165 225 271 321 389
#     4   8  16  33  62  96 129 176 214 269 336 389
#     4  11  21  42  63  96 141 173 231 262 328 416
#
# _framework density 27.766704000000001
#
# number of rings (size 3 to 8) (size 9 to 14) (size 15 to 20)
#    0.750    2.250    2.500    0.000    0.000    5.500 
#    4.500    6.875    0.000    3.000    0.000    6.125 
#    0.000    0.000    0.000    0.000    0.000    0.000 
#
# Total GULP energy -89319.045407 kJ/mol
# GULP energy per Si atom -5582.440338 kJ/mol
# Density = 2.770351 g / cm^3
# Si number density = 27.766704 Si / 1000 Ang^3
#
#
#
# Elastic Constant Matrix: (Units=GPa)
#
#
# Indices 1 2 3 4 5 6 
#
# 1 209.4141 40.7380 39.6296 -2.0255 17.8349 19.4677
# 2 40.7380 91.7360 36.9406 -6.8176 10.5398 13.4362
# 3 39.6296 36.9406 86.5090 2.4584 5.2599 -4.3454
# 4 -2.0255 -6.8176 2.4584 25.5349 6.4243 -2.2157
# 5 17.8349 10.5398 5.2599 6.4243 74.0524 13.5313
# 6 19.4677 13.4362 -4.3454 -2.2157 13.5313 45.8596
#
#
#
# Elastic Compliance Matrix: (Units=1/GPa)
#
#
# Indices 1 2 3 4 5 6 
#
# 1 0.005674 -0.001264 -0.002128 0.000317 -0.000694 -0.002020
# 2 -0.001264 0.014913 -0.006044 0.004393 -0.001061 -0.003880
# 3 -0.002128 -0.006044 0.015414 -0.002860 -0.000216 0.004060
# 4 0.000317 0.004393 -0.002860 0.041893 -0.004432 0.001639
# 5 -0.000694 -0.001061 -0.000216 -0.004432 0.014961 -0.004044
# 6 -0.002020 -0.003880 0.004060 0.001639 -0.004044 0.025457
#
#
# Mechanical properties :
#
#
# Convention : Reuss Voigt Hill
#
# Bulk Modulus (GPa) = 58.38233 69.14173 63.76203
# Shear Modulus (GPa) = 34.99159 47.11277 41.05218
#
# Velocity S-wave (km/s) = 3.55378 4.12361 3.84926
# Velocity P-wave (km/s) = 6.15718 6.90125 6.53980
#
# Compressibility (1/GPa) = 0.01712847
#
# Stress axis : x y z
#
# Youngs Moduli (GPa) = 176.25399 67.05714 64.87787
#
# Poissons Ratio (x) = 0.08473 0.13805
# Poissons Ratio (y) = 0.22272 0.39214
# Poissons Ratio (z) = 0.37503 0.40531
#
# Static dielectric constant tensor:
#      x y z
#    x 2.214390 -0.053630 -0.080350 
#    y -0.053630 2.278290 0.132130 
#    z -0.080350 0.132130 2.267570 
# 
# From -- ./inp_files/312365.got.cif
#   From: 2010.05.17/outbox.cif.g08.bks.cpg/sg2_157_cif.got.tgz:312365.got - 2010.06.03 11:33:40.
