data_PCOD9054864
_publ_section_title
;
Structure prediction by ZEFSAII (Michael W. Deem and Ramdas Pophale) SiO2 
 PCOD9054864
Probable space group: P -1
;
_chemical_formula_sum "Si O2"
_cell_formula_units_Z 14
_cell_length_a 9.075670
_cell_length_b 13.379217
_cell_length_c 17.910553
_cell_angle_alpha 26.542532
_cell_angle_beta 35.651416
_cell_angle_gamma 44.128750
_cell_volume 566.085207
_symmetry_space_group_name_H-M "P -1"
_symmetry_group_IT_number 2
_symmetry_cell_setting 'triclinic'
loop_
_space_group_symop_operation_xyz
x,y,z
-x,-y,-z
loop_
_atom_site_type_symbol
_atom_site_label
_atom_site_fract_x
_atom_site_fract_y
_atom_site_fract_z
Si Si1 0.124133 0.582361 0.700982
Si Si2 0.373076 0.032667 0.611762
Si Si3 0.134432 0.236105 0.805687
Si Si4 0.801638 0.045720 0.832576
Si Si5 0.624547 0.028378 0.759789
Si Si6 0.646279 0.525621 0.592626
Si Si7 0.600976 0.723564 0.848645
O O1 0.025288 0.417667 0.785085
O O2 0.349590 0.478477 0.724742
O O3 0.890048 0.670369 0.783236
O O4 0.241457 0.804531 0.465371
O O5 0.540900 0.913692 0.685180
O O6 0.500000 0.000000 0.500000
O O7 0.366132 0.297164 0.454348
O O8 0.076869 0.951958 0.803809
O O9 0.226931 0.354567 0.612373
O O10 0.385575 0.164544 0.793627
O O11 0.000000 0.000000 0.000000
O O12 0.800830 0.303588 0.688855
O O13 0.810032 0.003718 0.768103
O O14 0.500000 0.000000 0.000000
O O15 0.512559 0.813474 0.905120
O O16 0.500000 0.500000 0.000000
#
# Coordination Sequence:
#
# PCOD9054864 Si02
#       7
#     2   2   2   2   2   2   2
#     4  11  21  41  75 103 139 181 252 298 367 419
#     4  12  29  50  70 109 156 196 239 306 384 438
#     4  11  21  38  76 105 137 175 254 308 351 422
#     4  12  28  47  76 107 151 195 245 304 377 439
#     4  11  22  45  69 104 135 193 244 298 355 441
#     4  11  24  46  72 105 141 196 244 305 360 448
#     4  12  27  44  73 107 144 193 251 304 362 445
#
# _framework density 24.731256999999999
#
# number of rings (size 3 to 8) (size 9 to 14) (size 15 to 20)
#    0.000    0.571    5.714    3.429    6.000    1.143 
#    0.000    1.429    0.000    0.000    0.000    0.000 
#    0.000    0.000    0.000    0.000    0.000    0.000 
#
# Total GULP energy -78139.224041 kJ/mol
# GULP energy per Si atom -5581.373146 kJ/mol
# Density = 2.467497 g / cm^3
# Si number density = 24.731257 Si / 1000 Ang^3
#
#
#
# Elastic Constant Matrix: (Units=GPa)
#
#
# Indices 1 2 3 4 5 6 
#
# 1 75.9348 43.2883 -5.8859 -4.0120 -3.1584 -2.0316
# 2 43.2883 169.5843 24.6265 -5.3382 -9.8260 3.9150
# 3 -5.8859 24.6265 54.6848 -9.5460 -19.7447 -3.6095
# 4 -4.0120 -5.3382 -9.5460 39.2712 1.6820 -19.3891
# 5 -3.1584 -9.8260 -19.7447 1.6820 28.3069 -3.2162
# 6 -2.0316 3.9150 -3.6095 -19.3891 -3.2162 49.8185
#
#
#
# Elastic Compliance Matrix: (Units=1/GPa)
#
#
# Indices 1 2 3 4 5 6 
#
# 1 0.017117 -0.005029 0.006970 0.004322 0.005180 0.003615
# 2 -0.005029 0.007814 -0.004965 -0.001516 -0.001434 -0.001861
# 3 0.006970 -0.004965 0.031469 0.011031 0.021329 0.008625
# 4 0.004322 -0.001516 0.011031 0.035702 0.007286 0.015460
# 5 0.005180 -0.001434 0.021329 0.007286 0.050759 0.007982
# 6 0.003615 -0.001861 0.008625 0.015460 0.007982 0.027524
#
#
# Mechanical properties :
#
#
# Convention : Reuss Voigt Hill
#
# Bulk Modulus (GPa) = 19.85997 47.14018 33.50008
# Shear Modulus (GPa) = 25.87795 39.35767 32.61781
#
# Velocity S-wave (km/s) = 3.23827 3.99358 3.63559
# Velocity P-wave (km/s) = 4.69357 6.35352 5.58556
#
# Compressibility (1/GPa) = 0.05035254
#
# Stress axis : x y z
#
# Youngs Moduli (GPa) = 58.42228 127.98170 31.77734
#
# Poissons Ratio (x) = 0.64358 -0.22150
# Poissons Ratio (y) = 0.29379 0.15778
# Poissons Ratio (z) = -0.40723 0.63545
#
# Static dielectric constant tensor:
#      x y z
#    x 16.114800 -68.202220 -20.315150 
#    y -68.202220 330.461510 97.657340 
#    z -20.315150 97.657340 31.131900 
# 
# From -- ./inp_files/559474.got.cif
#   From: 2010.05.17/outbox.cif.g08.bks.cpg/sg2_280_cif.got.tgz:559474.got - 2010.06.03 11:33:40.
