data_PCOD9054253
_publ_section_title
;
Structure prediction by ZEFSAII (Michael W. Deem and Ramdas Pophale) SiO2 
 PCOD9054253
Probable space group: P -1
;
_chemical_formula_sum "Si O2"
_cell_formula_units_Z 16
_cell_length_a 15.075343
_cell_length_b 18.416681
_cell_length_c 11.728665
_cell_angle_alpha 128.803449
_cell_angle_beta 151.132738
_cell_angle_gamma 31.578232
_cell_volume 725.621020
_symmetry_space_group_name_H-M "P -1"
_symmetry_group_IT_number 2
_symmetry_cell_setting 'triclinic'
loop_
_space_group_symop_operation_xyz
x,y,z
-x,-y,-z
loop_
_atom_site_type_symbol
_atom_site_label
_atom_site_fract_x
_atom_site_fract_y
_atom_site_fract_z
Si Si1 0.641287 0.262662 0.633421
Si Si2 0.912187 0.629277 0.960359
Si Si3 0.676585 0.446672 0.838785
Si Si4 0.344871 0.143124 0.387221
Si Si5 0.823578 0.025425 0.219378
Si Si6 0.781470 0.222632 0.247047
Si Si7 0.505798 0.959814 0.810896
Si Si8 0.695339 0.184161 0.862926
O O1 0.382299 0.290461 0.360164
O O2 0.546368 0.399964 0.608429
O O3 0.670781 0.258987 0.798683
O O4 0.936516 0.107623 0.740164
O O5 0.750583 0.790503 0.983720
O O6 0.000000 0.500000 0.000000
O O7 0.184847 0.551206 0.107669
O O8 0.415858 0.610001 0.769585
O O9 0.974501 0.298907 0.106628
O O10 0.458794 0.073925 0.318658
O O11 0.439728 0.206801 0.601257
O O12 0.500000 0.000000 0.500000
O O13 0.651513 0.182992 0.123769
O O14 0.000000 0.000000 0.500000
O O15 0.617675 0.020297 0.014398
O O16 0.738102 0.222503 0.064408
O O17 0.144971 0.087021 0.553938
O O18 0.000000 0.000000 0.000000
#
# Coordination Sequence:
#
# PCOD9054253 Si02
#       8
#     2   2   2   2   2   2   2   2
#     4  12  23  48  72 103 145 191 243 296 365 437
#     4  11  24  46  77  99 140 195 245 294 361 438
#     4  11  27  45  68 110 148 183 247 298 363 427
#     4  11  20  41  73 100 138 200 240 286 360 439
#     4  12  26  45  76 103 143 192 251 303 356 434
#     4  12  27  45  70 113 150 187 241 306 361 425
#     4  11  23  47  69 106 141 190 247 283 371 439
#     4  12  20  41  75 102 144 192 239 293 356 441
#
# _framework density 22.050076000000001
#
# number of rings (size 3 to 8) (size 9 to 14) (size 15 to 20)
#    0.000    0.500    8.750    1.500    1.750    4.000 
#    0.000    0.000    0.000    0.000    0.000    0.000 
#    0.000    0.000    0.000    0.000    0.000    0.000 
#
# Total GULP energy -89365.885441 kJ/mol
# GULP energy per Si atom -5585.367840 kJ/mol
# Density = 2.199989 g / cm^3
# Si number density = 22.050076 Si / 1000 Ang^3
#
#
#
# Elastic Constant Matrix: (Units=GPa)
#
#
# Indices 1 2 3 4 5 6 
#
# 1 99.1978 31.9230 35.8429 2.6069 4.6965 25.0293
# 2 31.9230 112.3927 29.3306 -5.7582 16.4539 12.6669
# 3 35.8429 29.3306 69.9015 19.1812 13.2920 3.6080
# 4 2.6069 -5.7582 19.1812 40.0508 13.2229 6.8788
# 5 4.6965 16.4539 13.2920 13.2229 33.4272 3.9613
# 6 25.0293 12.6669 3.6080 6.8788 3.9613 44.4986
#
#
#
# Elastic Compliance Matrix: (Units=1/GPa)
#
#
# Indices 1 2 3 4 5 6 
#
# 1 0.015397 -0.001284 -0.008191 0.003761 0.001224 -0.008321
# 2 -0.001284 0.012113 -0.004953 0.006705 -0.006131 -0.002815
# 3 -0.008191 -0.004953 0.023939 -0.012073 -0.001879 0.006110
# 4 0.003761 0.006705 -0.012073 0.036991 -0.012757 -0.007628
# 5 0.001224 -0.006131 -0.001879 -0.012757 0.038585 -0.000254
# 6 -0.008321 -0.002815 0.006110 -0.007628 -0.000254 0.028661
#
#
# Mechanical properties :
#
#
# Convention : Reuss Voigt Hill
#
# Bulk Modulus (GPa) = 44.26371 52.85389 48.55880
# Shear Modulus (GPa) = 26.03183 35.88835 30.96009
#
# Velocity S-wave (km/s) = 3.43968 4.03871 3.75117
# Velocity P-wave (km/s) = 5.99107 6.76537 6.38996
#
# Compressibility (1/GPa) = 0.02259187
#
# Stress axis : x y z
#
# Youngs Moduli (GPa) = 64.94943 82.55633 41.77293
#
# Poissons Ratio (x) = 0.10602 0.34218
# Poissons Ratio (y) = 0.08341 0.20689
# Poissons Ratio (z) = 0.53202 0.40888
#
# Static dielectric constant tensor:
#      x y z
#    x 1.899960 0.078240 0.106290 
#    y 0.078240 1.834620 0.088440 
#    z 0.106290 0.088440 2.007610 
# 
# From -- ./inp_files/456997.got.cif
#   From: 2010.05.17/outbox.cif.g08.bks.cpg/sg2_229_cif.got.tgz:456997.got - 2010.06.03 11:33:40.
