data_PCOD9054792
_publ_section_title
;
Structure prediction by ZEFSAII (Michael W. Deem and Ramdas Pophale) SiO2 
 PCOD9054792
Probable space group: P -1
;
_chemical_formula_sum "Si O2"
_cell_formula_units_Z 16
_cell_length_a 18.827240
_cell_length_b 23.259491
_cell_length_c 9.583433
_cell_angle_alpha 150.457382
_cell_angle_beta 149.985187
_cell_angle_gamma 20.256701
_cell_volume 685.384231
_symmetry_space_group_name_H-M "P -1"
_symmetry_group_IT_number 2
_symmetry_cell_setting 'triclinic'
loop_
_space_group_symop_operation_xyz
x,y,z
-x,-y,-z
loop_
_atom_site_type_symbol
_atom_site_label
_atom_site_fract_x
_atom_site_fract_y
_atom_site_fract_z
Si Si1 0.784663 0.177926 0.179300
Si Si2 0.346400 0.345944 0.807972
Si Si3 0.730657 0.350830 0.733072
Si Si4 0.712496 0.402046 0.323227
Si Si5 0.817188 0.189472 0.796758
Si Si6 0.217182 0.269243 0.185518
Si Si7 0.552202 0.112402 0.188789
Si Si8 0.229118 0.390349 0.009197
O O1 0.712636 0.295518 0.441157
O O2 0.856171 0.225985 0.286866
O O3 0.581182 0.226995 0.893448
O O4 0.975419 0.981086 0.132438
O O5 0.233902 0.316896 0.466173
O O6 0.223159 0.544063 0.997062
O O7 0.366669 0.313245 0.938143
O O8 0.513811 0.472861 0.714962
O O9 0.890107 0.192162 0.776173
O O10 0.777109 0.494271 0.654593
O O11 0.722941 0.349381 0.073225
O O12 0.663584 0.170555 0.483168
O O13 0.417904 0.188108 0.262490
O O14 0.009511 0.449826 0.130515
O O15 0.265730 0.101017 0.938719
O O16 0.366600 0.214059 0.966115
#
# Coordination Sequence:
#
# PCOD9054792 Si02
#       8
#     2   2   2   2   2   2   2   2
#     4  11  21  40  63  99 136 171 208 278 348 395
#     4  11  23  44  66  96 135 172 222 274 328 407
#     4  11  21  40  65  97 136 168 208 275 342 398
#     4  11  21  38  65  94 132 171 213 273 337 397
#     4  12  24  38  68 104 132 168 218 276 346 404
#     4  11  27  46  67  94 133 182 231 273 328 386
#     4  11  25  46  67  97 137 173 224 284 326 400
#     4  12  23  45  70  95 132 183 225 273 334 395
#
# _framework density 23.344567999999999
#
# number of rings (size 3 to 8) (size 9 to 14) (size 15 to 20)
#    0.000    0.750    3.750    4.875    1.750    2.500 
#    2.250    0.000    0.000    0.000    0.000    0.000 
#    0.000    0.000    0.000    0.000    0.000    0.000 
#
# Total GULP energy -89293.484141 kJ/mol
# GULP energy per Si atom -5580.842759 kJ/mol
# Density = 2.329143 g / cm^3
# Si number density = 23.344568 Si / 1000 Ang^3
#
#
#
# Elastic Constant Matrix: (Units=GPa)
#
#
# Indices 1 2 3 4 5 6 
#
# 1 58.8519 -6.8583 19.2712 -0.7172 -18.8559 29.9160
# 2 -6.8583 105.5618 14.1548 -19.8491 -6.3589 10.6327
# 3 19.2712 14.1548 112.8216 -5.9957 -20.8834 1.3810
# 4 -0.7172 -19.8491 -5.9957 13.4184 1.1563 -5.9892
# 5 -18.8559 -6.3589 -20.8834 1.1563 24.5694 -12.6464
# 6 29.9160 10.6327 1.3810 -5.9892 -12.6464 31.3223
#
#
#
# Elastic Compliance Matrix: (Units=1/GPa)
#
#
# Indices 1 2 3 4 5 6 
#
# 1 0.044525 0.006618 -0.006967 -0.010952 0.008221 -0.043241
# 2 0.006618 0.014266 -0.001210 0.017827 0.003711 -0.006203
# 3 -0.006967 -0.001210 0.012526 0.008069 0.011050 0.012517
# 4 -0.010952 0.017827 0.008069 0.117038 0.014093 0.032122
# 5 0.008221 0.003711 0.011050 0.014093 0.067089 0.020183
# 6 -0.043241 -0.006203 0.012517 0.032122 0.020183 0.089071
#
#
# Mechanical properties :
#
#
# Convention : Reuss Voigt Hill
#
# Bulk Modulus (GPa) = 14.66268 36.70785 25.68526
# Shear Modulus (GPa) = 13.50017 30.57319 22.03668
#
# Velocity S-wave (km/s) = 2.40740 3.62283 3.07575
# Velocity P-wave (km/s) = 3.74460 5.76701 4.86212
#
# Compressibility (1/GPa) = 0.06820037
#
# Stress axis : x y z
#
# Youngs Moduli (GPa) = 22.45910 70.09764 79.83139
#
# Poissons Ratio (x) = -0.46393 0.55617
# Poissons Ratio (y) = -0.14864 0.09660
# Poissons Ratio (z) = 0.15647 0.08483
#
# Static dielectric constant tensor:
#      x y z
#    x 1.914420 0.021500 0.013140 
#    y 0.021500 2.068580 -0.007950 
#    z 0.013140 -0.007950 1.851770 
# 
# From -- ./inp_files/207710.got.cif
#   From: 2010.05.17/outbox.cif.g08.bks.cpg/sg2_104_cif.got.tgz:207710.got - 2010.06.03 11:33:40.
