data_PCOD9054197
_publ_section_title
;
Structure prediction by ZEFSAII (Michael W. Deem and Ramdas Pophale) SiO2 
 PCOD9054197
Probable space group: P -1
;
_chemical_formula_sum "Si O2"
_cell_formula_units_Z 12
_cell_length_a 16.191277
_cell_length_b 5.621002
_cell_length_c 8.769081
_cell_angle_alpha 90.105163
_cell_angle_beta 56.082072
_cell_angle_gamma 116.311234
_cell_volume 560.405058
_symmetry_space_group_name_H-M "P -1"
_symmetry_group_IT_number 2
_symmetry_cell_setting 'triclinic'
loop_
_space_group_symop_operation_xyz
x,y,z
-x,-y,-z
loop_
_atom_site_type_symbol
_atom_site_label
_atom_site_fract_x
_atom_site_fract_y
_atom_site_fract_z
Si Si1 0.772190 0.896769 0.398330
Si Si2 0.003206 0.968630 0.318785
Si Si3 0.531577 0.511423 0.789927
Si Si4 0.448502 0.908892 0.722790
Si Si5 0.908315 0.494727 0.212152
Si Si6 0.781764 0.642532 0.105649
O O1 0.670709 0.669945 0.610922
O O2 0.730871 0.788746 0.264405
O O3 0.899972 0.990447 0.342575
O O4 0.792064 0.203560 0.373224
O O5 0.131846 0.181646 0.118689
O O6 0.000000 0.000000 0.500000
O O7 0.972624 0.663175 0.296603
O O8 0.495451 0.718710 0.748530
O O9 0.475262 0.191978 0.783168
O O10 0.500000 0.500000 0.000000
O O11 0.310667 0.671150 0.849302
O O12 0.500000 0.000000 0.500000
O O13 0.864248 0.654263 0.155751
O O14 0.000000 0.500000 0.000000
#
# Coordination Sequence:
#
# PCOD9054197 Si02
#       6
#     2   2   2   2   2   2
#     4  11  23  44  69  93 135 182 223 282 343 420
#     4  11  25  40  63 103 134 170 221 284 350 406
#     4  12  29  48  71 106 147 187 233 295 361 409
#     4  12  26  48  76 105 138 190 245 288 341 429
#     4  11  20  41  68  94 131 176 225 273 344 414
#     4  11  23  41  70  98 133 174 231 283 340 415
#
# _framework density 21.413084000000001
#
# number of rings (size 3 to 8) (size 9 to 14) (size 15 to 20)
#    0.000    0.667    5.000    3.000    7.000    2.000 
#    0.000    0.000    0.000    0.000    0.000    0.000 
#    0.000    0.000    0.000    0.000    0.000    0.000 
#
# Total GULP energy -66830.039535 kJ/mol
# GULP energy per Si atom -5569.169961 kJ/mol
# Density = 2.136435 g / cm^3
# Si number density = 21.413084 Si / 1000 Ang^3
#
#
#
# Elastic Constant Matrix: (Units=GPa)
#
#
# Indices 1 2 3 4 5 6 
#
# 1 46.5696 25.8264 17.0014 5.6127 16.6636 -1.5027
# 2 25.8264 198.1225 109.9903 5.2650 22.7290 29.0937
# 3 17.0014 109.9903 167.6343 -12.2322 24.0588 35.9112
# 4 5.6127 5.2650 -12.2322 40.0031 6.7210 -2.3865
# 5 16.6636 22.7290 24.0588 6.7210 26.2674 -6.0062
# 6 -1.5027 29.0937 35.9112 -2.3865 -6.0062 32.6359
#
#
#
# Elastic Compliance Matrix: (Units=1/GPa)
#
#
# Indices 1 2 3 4 5 6 
#
# 1 0.028533 -0.002238 0.001419 -0.000390 -0.017717 -0.001542
# 2 -0.002238 0.008680 -0.004614 -0.002086 -0.002086 -0.003300
# 3 0.001419 -0.004614 0.014510 0.006540 -0.015092 -0.014087
# 4 -0.000390 -0.002086 0.006540 0.029123 -0.012660 -0.005556
# 5 -0.017717 -0.002086 -0.015092 -0.012660 0.075163 0.030557
# 6 -0.001542 -0.003300 -0.014087 -0.005556 0.030557 0.054230
#
#
# Mechanical properties :
#
#
# Convention : Reuss Voigt Hill
#
# Bulk Modulus (GPa) = 24.47574 79.77362 52.12468
# Shear Modulus (GPa) = 21.30165 37.08184 29.19175
#
# Velocity S-wave (km/s) = 3.15746 4.16593 3.69625
# Velocity P-wave (km/s) = 4.97472 7.77660 6.52776
#
# Compressibility (1/GPa) = 0.04085678
#
# Stress axis : x y z
#
# Youngs Moduli (GPa) = 35.04710 115.20656 68.91869
#
# Poissons Ratio (x) = 0.25783 -0.09780
# Poissons Ratio (y) = 0.07844 0.31800
# Poissons Ratio (z) = -0.04974 0.53159
#
# Static dielectric constant tensor:
#      x y z
#    x 1.760310 -0.006800 0.009510 
#    y -0.006800 1.758410 -0.153580 
#    z 0.009510 -0.153580 1.466360 
# 
# From -- ./inp_files/321341.got.cif
#   From: 2010.05.17/outbox.cif.g08.bks.cpg/sg2_161_cif.got.tgz:321341.got - 2010.06.03 11:33:40.
