data_PCOD9054410
_publ_section_title
;
Structure prediction by ZEFSAII (Michael W. Deem and Ramdas Pophale) SiO2 
 PCOD9054410
Probable space group: P -1
;
_chemical_formula_sum "Si O2"
_cell_formula_units_Z 15
_cell_length_a 15.172086
_cell_length_b 10.942989
_cell_length_c 9.329849
_cell_angle_alpha 54.219607
_cell_angle_beta 138.975123
_cell_angle_gamma 147.194226
_cell_volume 545.524102
_symmetry_space_group_name_H-M "P -1"
_symmetry_group_IT_number 2
_symmetry_cell_setting 'triclinic'
loop_
_space_group_symop_operation_xyz
x,y,z
-x,-y,-z
loop_
_atom_site_type_symbol
_atom_site_label
_atom_site_fract_x
_atom_site_fract_y
_atom_site_fract_z
Si Si1 0.802657 0.030223 0.528172
Si Si2 0.720085 0.791194 0.841689
Si Si3 0.713557 0.100804 0.937651
Si Si4 0.198793 0.280570 0.713987
Si Si5 0.396986 0.740912 0.579523
Si Si6 0.976004 0.550591 0.121927
Si Si7 0.569641 0.709579 0.231164
Si Si8 0.000000 0.500000 0.500000
O O1 0.824166 0.224354 0.444730
O O2 0.967625 0.132997 0.536575
O O3 0.871561 0.991877 0.776476
O O4 0.604442 0.791195 0.380043
O O5 0.548651 0.780855 0.633538
O O6 0.635596 0.560063 0.843718
O O7 0.757804 0.798759 0.050750
O O8 0.794728 0.310355 0.985860
O O9 0.620702 0.899557 0.068575
O O10 0.919038 0.238781 0.999358
O O11 0.533311 0.965407 0.691439
O O12 0.319124 0.535273 0.724585
O O13 0.276411 0.282555 0.658431
O O14 0.178285 0.612982 0.345165
O O15 0.930968 0.535349 0.243474
#
# Coordination Sequence:
#
# PCOD9054410 Si02
#       8
#     2   2   2   2   2   2   2   1
#     4  12  25  41  65  99 135 180 215 278 349 389
#     4  11  23  41  69  97 134 168 224 286 337 394
#     4  11  21  42  69  97 132 174 236 269 324 409
#     4  11  21  41  69  95 129 174 224 272 335 404
#     4  11  20  44  70  96 130 179 229 276 337 395
#     4  11  25  41  69  97 136 185 224 275 332 407
#     4  11  21  42  67  95 131 170 222 284 325 400
#     4  12  24  42  64  96 146 172 216 286 330 398
#
# _framework density 27.496493000000001
#
# number of rings (size 3 to 8) (size 9 to 14) (size 15 to 20)
#    0.000    0.800    5.333    3.200    0.000    1.067 
#    0.000    0.667   11.733    0.000    0.000    0.000 
#    0.000    0.000    0.000    0.000    0.000    0.000 
#
# Total GULP energy -83552.306639 kJ/mol
# GULP energy per Si atom -5570.153776 kJ/mol
# Density = 2.743391 g / cm^3
# Si number density = 27.496493 Si / 1000 Ang^3
#
#
#
# Elastic Constant Matrix: (Units=GPa)
#
#
# Indices 1 2 3 4 5 6 
#
# 1 51.1398 13.6606 23.0084 13.5539 -5.8167 2.4188
# 2 13.6606 173.3186 38.6846 15.3454 -22.9177 -36.6182
# 3 23.0084 38.6846 94.3450 11.9784 -22.2846 -21.8070
# 4 13.5539 15.3454 11.9784 53.6082 1.6679 -21.3034
# 5 -5.8167 -22.9177 -22.2846 1.6679 40.3401 1.3043
# 6 2.4188 -36.6182 -21.8070 -21.3034 1.3043 30.8074
#
#
#
# Elastic Compliance Matrix: (Units=1/GPa)
#
#
# Indices 1 2 3 4 5 6 
#
# 1 0.029332 -0.004159 -0.009618 -0.013180 -0.002155 -0.023077
# 2 -0.004159 0.009171 0.001230 0.003772 0.004665 0.014510
# 3 -0.009618 0.001230 0.017970 0.004957 0.008452 0.018008
# 4 -0.013180 0.003772 0.004957 0.032206 0.000638 0.031271
# 5 -0.002155 0.004665 0.008452 0.000638 0.031422 0.010808
# 6 -0.023077 0.014510 0.018008 0.031271 0.010808 0.085431
#
#
# Mechanical properties :
#
#
# Convention : Reuss Voigt Hill
#
# Bulk Modulus (GPa) = 31.86677 52.16783 42.01730
# Shear Modulus (GPa) = 20.73968 41.18112 30.96040
#
# Velocity S-wave (km/s) = 2.74937 3.87419 3.35920
# Velocity P-wave (km/s) = 4.65760 6.24710 5.50997
#
# Compressibility (1/GPa) = 0.03138065
#
# Stress axis : x y z
#
# Youngs Moduli (GPa) = 34.09263 109.03550 55.64940
#
# Poissons Ratio (x) = 0.45346 0.53522
# Poissons Ratio (y) = 0.14179 -0.06848
# Poissons Ratio (z) = 0.32789 -0.13417
#
# Static dielectric constant tensor:
#      x y z
#    x 2.598960 0.725120 -0.010870 
#    y 0.725120 3.550160 -0.151650 
#    z -0.010870 -0.151650 2.327770 
# 
# From -- ./inp_files/181805.got.cif
#   From: 2010.05.17/outbox.cif.g08.bks.cpg/sg2_91_cif.got.tgz:181805.got - 2010.06.03 11:33:40.
