data_PCOD9054186
_publ_section_title
;
Structure prediction by ZEFSAII (Michael W. Deem and Ramdas Pophale) SiO2 
 PCOD9054186
Probable space group: P -1
;
_chemical_formula_sum "Si O2"
_cell_formula_units_Z 16
_cell_length_a 9.921367
_cell_length_b 18.223450
_cell_length_c 7.724048
_cell_angle_alpha 66.415517
_cell_angle_beta 82.280309
_cell_angle_gamma 30.864375
_cell_volume 588.063956
_symmetry_space_group_name_H-M "P -1"
_symmetry_group_IT_number 2
_symmetry_cell_setting 'triclinic'
loop_
_space_group_symop_operation_xyz
x,y,z
-x,-y,-z
loop_
_atom_site_type_symbol
_atom_site_label
_atom_site_fract_x
_atom_site_fract_y
_atom_site_fract_z
Si Si1 0.034425 0.685723 0.909226
Si Si2 0.345745 0.683723 0.791239
Si Si3 0.683636 0.632698 0.215000
Si Si4 0.254641 0.239955 0.426734
Si Si5 0.356742 0.921796 0.216912
Si Si6 0.895480 0.795101 0.193113
Si Si7 0.835929 0.076483 0.221967
Si Si8 0.706944 0.294872 0.600801
O O1 0.111957 0.740165 0.843498
O O2 0.794754 0.780647 0.724911
O O3 0.349558 0.482892 0.000509
O O4 0.950378 0.711449 0.095601
O O5 0.240949 0.829621 0.684973
O O6 0.415117 0.620376 0.645772
O O7 0.630472 0.728672 0.276394
O O8 0.523821 0.638675 0.320343
O O9 0.008986 0.437657 0.290629
O O10 0.475786 0.768161 0.965740
O O11 0.567146 0.109242 0.561974
O O12 0.200876 0.204080 0.623944
O O13 0.066042 0.019587 0.147015
O O14 0.310572 0.026609 0.016183
O O15 0.179685 0.693688 0.310790
O O16 0.005067 0.905902 0.322499
#
# Coordination Sequence:
#
# PCOD9054186 Si02
#       8
#     2   2   2   2   2   2   2   2
#     4  11  24  38  63  94 131 165 207 261 316 378
#     4  11  21  38  60  97 130 159 212 266 315 370
#     4  11  21  42  69  90 122 167 218 263 309 371
#     4  12  26  42  67  93 131 173 205 258 324 375
#     4  11  23  43  66  92 127 170 214 255 317 382
#     4  12  23  43  65  96 129 166 212 261 313 382
#     4  11  20  41  67  90 125 166 215 266 310 368
#     4  11  21  36  68  97 122 164 214 267 318 362
#
# _framework density 27.207923999999998
#
# number of rings (size 3 to 8) (size 9 to 14) (size 15 to 20)
#    0.000    0.750    6.250    2.625    1.750    1.500 
#    0.000    0.000    2.750    4.500    0.000    0.000 
#    0.000    0.000    0.000    0.000    0.000    0.000 
#
# Total GULP energy -89626.083010 kJ/mol
# GULP energy per Si atom -5601.630188 kJ/mol
# Density = 2.714600 g / cm^3
# Si number density = 27.207924 Si / 1000 Ang^3
#
#
#
# Elastic Constant Matrix: (Units=GPa)
#
#
# Indices 1 2 3 4 5 6 
#
# 1 78.1336 12.9112 17.6479 -0.2670 7.1765 6.2271
# 2 12.9112 117.1680 35.4459 3.9460 9.4231 16.7344
# 3 17.6479 35.4459 126.6319 9.3905 38.3856 9.1017
# 4 -0.2670 3.9460 9.3905 67.5001 9.2714 8.4650
# 5 7.1765 9.4231 38.3856 9.2714 42.3144 4.2174
# 6 6.2271 16.7344 9.1017 8.4650 4.2174 30.3364
#
#
#
# Elastic Compliance Matrix: (Units=1/GPa)
#
#
# Indices 1 2 3 4 5 6 
#
# 1 0.013461 -0.000752 -0.001304 0.000652 -0.000875 -0.002017
# 2 -0.000752 0.010015 -0.002572 0.000279 0.000644 -0.004766
# 3 -0.001304 -0.002572 0.011831 -0.000086 -0.009874 -0.000467
# 4 0.000652 0.000279 -0.000086 0.015773 -0.003129 -0.004228
# 5 -0.000875 0.000644 -0.009874 -0.003129 0.033378 -0.000981
# 6 -0.002017 -0.004766 -0.000467 -0.004228 -0.000981 0.037463
#
#
# Mechanical properties :
#
#
# Convention : Reuss Voigt Hill
#
# Bulk Modulus (GPa) = 38.38573 50.43818 44.41195
# Shear Modulus (GPa) = 35.74988 45.09209 40.42099
#
# Velocity S-wave (km/s) = 3.62878 4.07543 3.85857
# Velocity P-wave (km/s) = 5.62995 6.38152 6.01748
#
# Compressibility (1/GPa) = 0.02605135
#
# Stress axis : x y z
#
# Youngs Moduli (GPa) = 74.29049 99.84795 84.52069
#
# Poissons Ratio (x) = 0.07513 0.11018
# Poissons Ratio (y) = 0.05590 0.21739
# Poissons Ratio (z) = 0.09684 0.25681
#
# Static dielectric constant tensor:
#      x y z
#    x 2.144140 -0.047940 0.030180 
#    y -0.047940 2.208990 -0.018990 
#    z 0.030180 -0.018990 2.136520 
# 
# From -- ./inp_files/277851.got.cif
#   From: 2010.05.17/outbox.cif.g08.bks.cpg/sg2_139_cif.got.tgz:277851.got - 2010.06.03 11:33:40.
