data_PCOD9054202
_publ_section_title
;
Structure prediction by ZEFSAII (Michael W. Deem and Ramdas Pophale) SiO2 
 PCOD9054202
Probable space group: P -1
;
_chemical_formula_sum "Si O2"
_cell_formula_units_Z 14
_cell_length_a 22.784588
_cell_length_b 9.290135
_cell_length_c 9.015606
_cell_angle_alpha 49.227722
_cell_angle_beta 56.916529
_cell_angle_gamma 27.985433
_cell_volume 675.605911
_symmetry_space_group_name_H-M "P -1"
_symmetry_group_IT_number 2
_symmetry_cell_setting 'triclinic'
loop_
_space_group_symop_operation_xyz
x,y,z
-x,-y,-z
loop_
_atom_site_type_symbol
_atom_site_label
_atom_site_fract_x
_atom_site_fract_y
_atom_site_fract_z
Si Si1 0.208410 0.825356 0.124264
Si Si2 0.373264 0.239915 0.097645
Si Si3 0.970045 0.128097 0.623281
Si Si4 0.387848 0.397360 0.439402
Si Si5 0.827962 0.841564 0.298315
Si Si6 0.788688 0.303766 0.241524
Si Si7 0.432697 0.761523 0.547985
O O1 0.327204 0.529011 0.051921
O O2 0.124737 0.823829 0.226376
O O3 0.272976 0.686904 0.288665
O O4 0.139108 0.153990 0.915259
O O5 0.387868 0.052792 0.330498
O O6 0.270450 0.432837 0.983277
O O7 0.500000 0.000000 0.000000
O O8 0.912949 0.469254 0.473032
O O9 0.000000 0.000000 0.500000
O O10 0.094766 0.859743 0.730033
O O11 0.319835 0.489923 0.624775
O O12 0.464722 0.416131 0.351928
O O13 0.500000 0.000000 0.500000
O O14 0.829587 0.013063 0.299243
O O15 0.688041 0.071403 0.337744
O O16 0.500000 0.500000 0.500000
#
# Coordination Sequence:
#
# PCOD9054202 Si02
#       7
#     2   2   2   2   2   2   2
#     4  11  24  44  69  98 136 176 223 276 333 395
#     4  11  20  41  68  97 132 173 220 271 335 396
#     4  12  25  47  70  95 137 179 226 280 333 389
#     4  12  21  40  70  98 136 176 215 275 345 395
#     4  11  25  46  67  98 136 175 228 277 328 403
#     4  11  24  43  70  99 130 180 227 271 335 400
#     4  12  22  40  67  99 138 170 217 278 334 398
#
# _framework density 20.722138000000001
#
# number of rings (size 3 to 8) (size 9 to 14) (size 15 to 20)
#    0.000    0.571    7.143    1.286    0.000    3.429 
#    5.143    0.000    0.000    0.000    0.000    0.000 
#    0.000    0.000    0.000    0.000    0.000    0.000 
#
# Total GULP energy -78114.146997 kJ/mol
# GULP energy per Si atom -5579.581928 kJ/mol
# Density = 2.067497 g / cm^3
# Si number density = 20.722138 Si / 1000 Ang^3
#
#
#
# Elastic Constant Matrix: (Units=GPa)
#
#
# Indices 1 2 3 4 5 6 
#
# 1 134.3800 22.4327 29.9527 -7.6969 21.0489 -26.5109
# 2 22.4327 60.2327 8.8021 4.6229 0.7196 -6.7975
# 3 29.9527 8.8021 116.6642 -0.9473 4.1572 -17.2785
# 4 -7.6969 4.6229 -0.9473 29.4338 0.2645 8.0671
# 5 21.0489 0.7196 4.1572 0.2645 36.5824 -1.9221
# 6 -26.5109 -6.7975 -17.2785 8.0671 -1.9221 33.3971
#
#
#
# Elastic Compliance Matrix: (Units=1/GPa)
#
#
# Indices 1 2 3 4 5 6 
#
# 1 0.010425 -0.003028 -0.001306 0.001479 -0.005469 0.006311
# 2 -0.003028 0.018353 -0.000361 -0.004325 0.001573 0.002281
# 3 -0.001306 -0.000361 0.009533 -0.001096 -0.000102 0.004080
# 4 0.001479 -0.004325 -0.001096 0.037605 -0.001409 -0.009438
# 5 -0.005469 0.001573 -0.000102 -0.001409 0.030369 -0.001986
# 6 0.006311 0.002281 0.004080 -0.009438 -0.001986 0.039693
#
#
# Mechanical properties :
#
#
# Convention : Reuss Voigt Hill
#
# Bulk Modulus (GPa) = 34.57619 48.18355 41.37987
# Shear Modulus (GPa) = 30.30155 36.55527 33.42841
#
# Velocity S-wave (km/s) = 3.82812 4.20464 4.02079
# Velocity P-wave (km/s) = 6.02173 6.84651 6.44732
#
# Compressibility (1/GPa) = 0.02892163
#
# Stress axis : x y z
#
# Youngs Moduli (GPa) = 95.92660 54.48666 104.89501
#
# Poissons Ratio (x) = 0.16496 0.13704
# Poissons Ratio (y) = 0.29042 0.03784
# Poissons Ratio (z) = 0.12532 0.01966
#
# Static dielectric constant tensor:
#      x y z
#    x 1.768860 0.054570 -0.134500 
#    y 0.054570 1.850800 -0.228430 
#    z -0.134500 -0.228430 2.365420 
# 
# From -- ./inp_files/187262.got.cif
#   From: 2010.05.17/outbox.cif.g08.bks.cpg/sg2_94_cif.got.tgz:187262.got - 2010.06.03 11:33:40.
