data_PCOD9054813
_publ_section_title
;
Structure prediction by ZEFSAII (Michael W. Deem and Ramdas Pophale) SiO2 
 PCOD9054813
Probable space group: P -1
;
_chemical_formula_sum "Si O2"
_cell_formula_units_Z 16
_cell_length_a 10.949721
_cell_length_b 13.537965
_cell_length_c 5.595331
_cell_angle_alpha 73.220984
_cell_angle_beta 77.513491
_cell_angle_gamma 56.336365
_cell_volume 659.307262
_symmetry_space_group_name_H-M "P -1"
_symmetry_group_IT_number 2
_symmetry_cell_setting 'triclinic'
loop_
_space_group_symop_operation_xyz
x,y,z
-x,-y,-z
loop_
_atom_site_type_symbol
_atom_site_label
_atom_site_fract_x
_atom_site_fract_y
_atom_site_fract_z
Si Si1 0.754672 0.023834 0.121876
Si Si2 0.276899 0.333337 0.139095
Si Si3 0.810788 0.411041 0.877782
Si Si4 0.443925 0.757221 0.218229
Si Si5 0.010885 0.106984 0.531901
Si Si6 0.136736 0.204983 0.026848
Si Si7 0.711845 0.361425 0.454778
Si Si8 0.491846 0.119472 0.507288
O O1 0.640870 0.095302 0.332929
O O2 0.917471 0.945738 0.206741
O O3 0.712706 0.137672 0.893898
O O4 0.743784 0.913606 0.090185
O O5 0.193570 0.291336 0.028121
O O6 0.344172 0.234005 0.388181
O O7 0.180931 0.469092 0.179693
O O8 0.424087 0.317439 0.969096
O O9 0.724132 0.408192 0.154954
O O10 0.977141 0.292635 0.908191
O O11 0.730628 0.419260 0.653568
O O12 0.420274 0.663763 0.444270
O O13 0.492516 0.842624 0.264096
O O14 0.113592 0.139756 0.310870
O O15 0.858361 0.229991 0.496916
O O16 0.000000 0.000000 0.500000
O O17 0.500000 0.000000 0.500000
#
# Coordination Sequence:
#
# PCOD9054813 Si02
#       8
#     2   2   2   2   2   2   2   2
#     4  11  21  38  66  99 137 178 227 291 362 420
#     4  11  26  45  71  98 139 192 238 296 356 429
#     4  11  27  49  73 106 141 192 243 300 353 428
#     4  11  26  42  68 102 139 188 238 300 358 430
#     4  11  23  39  68 106 142 187 230 298 361 429
#     4  11  23  44  68 104 141 182 239 294 366 425
#     4  11  26  47  72 105 147 185 245 296 362 419
#     4  11  23  42  66 101 139 182 234 290 359 428
#
# _framework density 24.267897999999999
#
# number of rings (size 3 to 8) (size 9 to 14) (size 15 to 20)
#    0.000    1.000    1.250    4.875    8.750    4.000 
#    0.000    1.875    0.000    0.000    0.000    0.000 
#    0.000    0.000    0.000    0.000    0.000    0.000 
#
# Total GULP energy -89355.209847 kJ/mol
# GULP energy per Si atom -5584.700615 kJ/mol
# Density = 2.421266 g / cm^3
# Si number density = 24.267898 Si / 1000 Ang^3
#
#
#
# Elastic Constant Matrix: (Units=GPa)
#
#
# Indices 1 2 3 4 5 6 
#
# 1 54.1683 21.4389 5.5617 -2.8877 0.0592 7.7846
# 2 21.4389 145.6750 26.1359 2.4724 9.3948 7.3584
# 3 5.5617 26.1359 44.6984 5.6135 0.9251 -5.7463
# 4 -2.8877 2.4724 5.6135 29.2171 3.5858 7.4363
# 5 0.0592 9.3948 0.9251 3.5858 21.5101 -3.5288
# 6 7.7846 7.3584 -5.7463 7.4363 -3.5288 38.9804
#
#
#
# Elastic Compliance Matrix: (Units=1/GPa)
#
#
# Indices 1 2 3 4 5 6 
#
# 1 0.020543 -0.002428 -0.002232 0.003914 -0.000332 -0.004750
# 2 -0.002428 0.008493 -0.005036 0.001132 -0.004076 -0.002445
# 3 -0.002232 -0.005036 0.027355 -0.007283 0.003412 0.007127
# 4 0.003914 0.001132 -0.007283 0.039605 -0.008499 -0.010394
# 5 -0.000332 -0.004076 0.003412 -0.008499 0.050781 0.007557
# 6 -0.004750 -0.002445 0.007127 -0.010394 0.007557 0.030782
#
#
# Mechanical properties :
#
#
# Convention : Reuss Voigt Hill
#
# Bulk Modulus (GPa) = 27.02784 38.97942 33.00363
# Shear Modulus (GPa) = 23.89123 30.70187 27.29655
#
# Velocity S-wave (km/s) = 3.14104 3.56072 3.35744
# Velocity P-wave (km/s) = 4.93116 5.74473 5.35342
#
# Compressibility (1/GPa) = 0.03699889
#
# Stress axis : x y z
#
# Youngs Moduli (GPa) = 48.67901 117.74997 36.55694
#
# Poissons Ratio (x) = 0.28589 0.08159
# Poissons Ratio (y) = 0.11819 0.18409
# Poissons Ratio (z) = 0.10864 0.59296
#
# Static dielectric constant tensor:
#      x y z
#    x 2.095020 0.071570 0.010140 
#    y 0.071570 1.894900 0.009830 
#    z 0.010140 0.009830 2.032300 
# 
# From -- ./inp_files/69168.got.cif
#   From: 2010.05.17/outbox.cif.g08.bks.cpg/sg2_35_cif.got.tgz:69168.got - 2010.06.03 11:33:40.
