data_PCOD9054516
_publ_section_title
;
Structure prediction by ZEFSAII (Michael W. Deem and Ramdas Pophale) SiO2 
 PCOD9054516
Probable space group: P -1
;
_chemical_formula_sum "Si O2"
_cell_formula_units_Z 16
_cell_length_a 13.141821
_cell_length_b 17.817557
_cell_length_c 11.137353
_cell_angle_alpha 82.675478
_cell_angle_beta 65.389209
_cell_angle_gamma 26.718570
_cell_volume 854.292123
_symmetry_space_group_name_H-M "P -1"
_symmetry_group_IT_number 2
_symmetry_cell_setting 'triclinic'
loop_
_space_group_symop_operation_xyz
x,y,z
-x,-y,-z
loop_
_atom_site_type_symbol
_atom_site_label
_atom_site_fract_x
_atom_site_fract_y
_atom_site_fract_z
Si Si1 0.908931 0.039546 0.400318
Si Si2 0.463771 0.648616 0.036460
Si Si3 0.583718 0.087234 0.492719
Si Si4 0.886953 0.492094 0.712230
Si Si5 0.423914 0.917681 0.785904
Si Si6 0.140362 0.226055 0.430304
Si Si7 0.459464 0.453667 0.444641
Si Si8 0.248753 0.682160 0.919771
O O1 0.736388 0.067790 0.467947
O O2 0.679748 0.247948 0.422148
O O3 0.000000 0.000000 0.500000
O O4 0.211906 0.843644 0.208002
O O5 0.626508 0.475747 0.058006
O O6 0.712052 0.551428 0.884003
O O7 0.295634 0.717078 0.990164
O O8 0.661211 0.028917 0.325076
O O9 0.212909 0.318834 0.633762
O O10 0.718011 0.932401 0.532264
O O11 0.665263 0.698939 0.736737
O O12 0.969246 0.387882 0.578446
O O13 0.591038 0.891741 0.733294
O O14 0.111838 0.099906 0.973679
O O15 0.890948 0.354009 0.432408
O O16 0.500000 0.500000 0.500000
O O17 0.559156 0.415369 0.270213
#
# Coordination Sequence:
#
# PCOD9054516 Si02
#       8
#     2   2   2   2   2   2   2   2
#     4  12  25  42  63  89 123 162 203 247 302 363
#     4  11  22  38  62  91 123 158 202 251 301 354
#     4  11  21  37  59  87 122 160 200 247 302 356
#     4  11  21  35  59  91 122 156 200 251 302 353
#     4  11  21  35  59  91 122 156 200 251 302 353
#     4  11  21  37  59  87 122 160 200 247 302 356
#     4  12  25  42  63  89 123 162 203 247 302 363
#     4  11  22  38  62  91 123 158 202 251 301 354
#
# _framework density 18.728956
#
# number of rings (size 3 to 8) (size 9 to 14) (size 15 to 20)
#    0.000    0.750    2.500    9.000    0.000    1.000 
#    0.000    1.250    0.000    0.000    0.000    0.000 
#    0.000    0.000    0.000    0.000    0.000    0.000 
#
# Total GULP energy -89515.707013 kJ/mol
# GULP energy per Si atom -5594.731688 kJ/mol
# Density = 1.868633 g / cm^3
# Si number density = 18.728956 Si / 1000 Ang^3
#
#
#
# Elastic Constant Matrix: (Units=GPa)
#
#
# Indices 1 2 3 4 5 6 
#
# 1 97.5568 -7.1909 17.0642 2.1133 -13.3972 -10.4290
# 2 -7.1909 44.4302 -20.5815 1.9757 4.6788 4.6624
# 3 17.0642 -20.5815 48.6863 1.1410 -12.9604 -7.3333
# 4 2.1133 1.9757 1.1410 32.4233 0.0171 -4.8683
# 5 -13.3972 4.6788 -12.9604 0.0171 34.2846 -0.6955
# 6 -10.4290 4.6624 -7.3333 -4.8683 -0.6955 32.7748
#
#
#
# Elastic Compliance Matrix: (Units=1/GPa)
#
#
# Indices 1 2 3 4 5 6 
#
# 1 0.011539 -0.000051 -0.002635 -0.000187 0.003584 0.003138
# 2 -0.000051 0.028241 0.011914 -0.002394 0.000596 -0.001711
# 3 -0.002635 0.011914 0.029413 -0.000981 0.008546 0.004083
# 4 -0.000187 -0.002394 -0.000981 0.031752 -0.000036 0.004777
# 5 0.003584 0.000596 0.008546 -0.000036 0.033792 0.003680
# 6 0.003138 -0.001711 0.004083 0.004777 0.003680 0.033454
#
#
# Mechanical properties :
#
#
# Convention : Reuss Voigt Hill
#
# Bulk Modulus (GPa) = 11.40944 18.80633 15.10789
# Shear Modulus (GPa) = 27.94028 33.32197 30.63112
#
# Velocity S-wave (km/s) = 3.86660 4.22259 4.04851
# Velocity P-wave (km/s) = 5.10287 5.81695 5.47157
#
# Compressibility (1/GPa) = 0.08764669
#
# Stress axis : x y z
#
# Youngs Moduli (GPa) = 86.66110 35.40960 33.99887
#
# Poissons Ratio (x) = 0.00182 0.08959
# Poissons Ratio (y) = 0.00446 -0.40505
# Poissons Ratio (z) = 0.22837 -0.42185
#
# Static dielectric constant tensor:
#      x y z
#    x 1.631610 -0.004190 -0.019570 
#    y -0.004190 1.635630 0.007390 
#    z -0.019570 0.007390 1.634100 
# 
# From -- ./inp_files/425514.got.cif
#   From: 2010.05.17/outbox.cif.g08.bks.cpg/sg2_213_cif.got.tgz:425514.got - 2010.06.03 11:33:40.
