data_PCOD9054104
_publ_section_title
;
Structure prediction by ZEFSAII (Michael W. Deem and Ramdas Pophale) SiO2 
 PCOD9054104
Probable space group: P -1
;
_chemical_formula_sum "Si O2"
_cell_formula_units_Z 14
_cell_length_a 21.930889
_cell_length_b 16.923454
_cell_length_c 13.151672
_cell_angle_alpha 35.723631
_cell_angle_beta 26.472947
_cell_angle_gamma 18.552862
_cell_volume 668.646959
_symmetry_space_group_name_H-M "P -1"
_symmetry_group_IT_number 2
_symmetry_cell_setting 'triclinic'
loop_
_space_group_symop_operation_xyz
x,y,z
-x,-y,-z
loop_
_atom_site_type_symbol
_atom_site_label
_atom_site_fract_x
_atom_site_fract_y
_atom_site_fract_z
Si Si1 0.999906 0.158730 0.352997
Si Si2 0.261008 0.727961 0.849249
Si Si3 0.394822 0.302476 0.099683
Si Si4 0.427375 0.430746 0.612705
Si Si5 0.311313 0.287524 0.472078
Si Si6 0.286622 0.272313 0.090466
Si Si7 0.374962 0.504451 0.266307
O O1 0.807960 0.368479 0.328947
O O2 0.911125 0.254292 0.503960
O O3 0.000000 0.000000 0.500000
O O4 0.292613 0.961002 0.103583
O O5 0.318945 0.780037 0.615649
O O6 0.470083 0.583667 0.773460
O O7 0.286374 0.545589 0.981700
O O8 0.000000 0.000000 0.000000
O O9 0.320587 0.331376 0.295923
O O10 0.298566 0.270696 0.196887
O O11 0.500000 0.500000 0.500000
O O12 0.368811 0.353077 0.849549
O O13 0.412291 0.324091 0.354271
O O14 0.013032 0.506924 0.718818
O O15 0.500000 0.000000 0.500000
O O16 0.500000 0.000000 0.000000
O O17 0.500000 0.500000 0.000000
#
# Coordination Sequence:
#
# PCOD9054104 Si02
#       7
#     2   2   2   2   2   2   2
#     4  11  20  40  69 103 132 170 232 291 338 389
#     4  11  25  40  71 105 135 176 233 292 333 399
#     4  12  24  47  69 102 140 180 230 291 343 409
#     4  11  23  44  71 100 134 180 235 280 338 410
#     4  12  28  47  70 103 144 187 226 286 354 419
#     4  12  28  47  70 103 144 187 226 286 354 419
#     4  11  23  44  71 100 134 180 235 280 338 410
#
# _framework density 20.937805000000001
#
# number of rings (size 3 to 8) (size 9 to 14) (size 15 to 20)
#    0.000    0.571    5.714    2.143    4.000    5.714 
#    0.000    5.000    0.000    0.000    0.000    0.000 
#    0.000    0.000    0.000    0.000    0.000    0.000 
#
# Total GULP energy -78024.317007 kJ/mol
# GULP energy per Si atom -5573.165500 kJ/mol
# Density = 2.089015 g / cm^3
# Si number density = 20.937805 Si / 1000 Ang^3
#
#
#
# Elastic Constant Matrix: (Units=GPa)
#
#
# Indices 1 2 3 4 5 6 
#
# 1 57.3490 22.3077 -3.5775 -4.4369 4.7149 32.7032
# 2 22.3077 104.7576 40.5538 13.3341 -6.2185 26.7450
# 3 -3.5775 40.5538 118.0075 13.7127 8.5904 10.6771
# 4 -4.4369 13.3341 13.7127 41.7016 0.4586 -3.4086
# 5 4.7149 -6.2185 8.5904 0.4586 45.5130 2.0083
# 6 32.7032 26.7450 10.6771 -3.4086 2.0083 34.1981
#
#
#
# Elastic Compliance Matrix: (Units=1/GPa)
#
#
# Indices 1 2 3 4 5 6 
#
# 1 0.041544 -0.000755 0.005517 -0.000438 -0.003648 -0.040690
# 2 -0.000755 0.014497 -0.003833 -0.004312 0.003269 -0.010040
# 3 0.005517 -0.003833 0.010947 -0.002225 -0.002885 -0.005748
# 4 -0.000438 -0.004312 -0.002225 0.026639 -0.000709 0.007183
# 5 -0.003648 0.003269 -0.002885 -0.000709 0.023331 0.000392
# 6 -0.040690 -0.010040 -0.005748 0.007183 0.000392 0.078492
#
#
# Mechanical properties :
#
#
# Convention : Reuss Voigt Hill
#
# Bulk Modulus (GPa) = 14.52518 44.29799 29.41158
# Shear Modulus (GPa) = 23.09030 39.00454 31.04742
#
# Velocity S-wave (km/s) = 3.32445 4.32079 3.85494
# Velocity P-wave (km/s) = 4.65707 6.78934 5.82166
#
# Compressibility (1/GPa) = 0.06884597
#
# Stress axis : x y z
#
# Youngs Moduli (GPa) = 24.07074 68.98094 91.34660
#
# Poissons Ratio (x) = 0.05207 -0.50395
# Poissons Ratio (y) = 0.01817 0.35015
# Poissons Ratio (z) = -0.13280 0.26442
#
# Static dielectric constant tensor:
#      x y z
#    x 1.514190 0.139630 0.065520 
#    y 0.139630 1.655760 0.040140 
#    z 0.065520 0.040140 1.905940 
# 
# From -- ./inp_files/154184.got.cif
#   From: 2010.05.17/outbox.cif.g08.bks.cpg/sg2_78_cif.got.tgz:154184.got - 2010.06.03 11:33:40.
