data_PCOD9054434
_publ_section_title
;
Structure prediction by ZEFSAII (Michael W. Deem and Ramdas Pophale) SiO2 
 PCOD9054434
Probable space group: P -1
;
_chemical_formula_sum "Si O2"
_cell_formula_units_Z 14
_cell_length_a 13.227629
_cell_length_b 13.814391
_cell_length_c 8.627847
_cell_angle_alpha 119.942371
_cell_angle_beta 99.621298
_cell_angle_gamma 32.637578
_cell_volume 619.307309
_symmetry_space_group_name_H-M "P -1"
_symmetry_group_IT_number 2
_symmetry_cell_setting 'triclinic'
loop_
_space_group_symop_operation_xyz
x,y,z
-x,-y,-z
loop_
_atom_site_type_symbol
_atom_site_label
_atom_site_fract_x
_atom_site_fract_y
_atom_site_fract_z
Si Si1 0.512279 0.362807 0.823936
Si Si2 0.625465 0.271992 0.418080
Si Si3 0.063708 0.755500 0.168712
Si Si4 0.286635 0.479177 0.302025
Si Si5 0.826784 0.762234 0.216592
Si Si6 0.493837 0.942264 0.112241
Si Si7 0.154218 0.145660 0.374179
O O1 0.566535 0.312615 0.615915
O O2 0.694003 0.110223 0.756865
O O3 0.500000 0.500000 0.000000
O O4 0.270442 0.543162 0.937772
O O5 0.500000 0.500000 0.500000
O O6 0.517169 0.284758 0.287449
O O7 0.892713 0.014955 0.274528
O O8 0.173347 0.671563 0.300127
O O9 0.905590 0.799834 0.182038
O O10 0.104703 0.636173 0.515152
O O11 0.335276 0.325369 0.083790
O O12 0.588150 0.940913 0.256041
O O13 0.827592 0.793693 0.421121
O O14 0.000000 0.500000 0.000000
O O15 0.260735 0.112594 0.236377
O O16 0.500000 0.000000 0.000000
#
# Coordination Sequence:
#
# PCOD9054434 Si02
#       7
#     2   2   2   2   2   2   2
#     4  12  26  47  77 102 138 195 237 292 370 423
#     4  12  28  45  73 107 140 188 244 300 361 417
#     4  11  24  48  73 100 147 187 233 300 348 436
#     4  11  24  47  70 105 145 184 241 293 353 435
#     4  11  20  45  71 100 136 192 237 279 356 424
#     4  12  25  41  70 107 145 185 240 294 352 427
#     4  11  24  46  73 102 145 190 239 293 354 437
#
# _framework density 22.605902
#
# number of rings (size 3 to 8) (size 9 to 14) (size 15 to 20)
#    0.000    0.571    7.143    2.143    2.000    4.571 
#    0.000    0.000    0.000    0.000    0.000    0.000 
#    0.000    0.000    0.000    0.000    0.000    0.000 
#
# Total GULP energy -78232.068182 kJ/mol
# GULP energy per Si atom -5588.004870 kJ/mol
# Density = 2.255445 g / cm^3
# Si number density = 22.605902 Si / 1000 Ang^3
#
#
#
# Elastic Constant Matrix: (Units=GPa)
#
#
# Indices 1 2 3 4 5 6 
#
# 1 44.1070 -3.1435 14.1246 -8.2426 -6.5599 7.8937
# 2 -3.1435 70.2948 -4.6202 3.4237 5.5167 -3.5278
# 3 14.1246 -4.6202 72.8577 11.3105 -1.8134 -2.4328
# 4 -8.2426 3.4237 11.3105 29.5941 -9.1370 -0.3176
# 5 -6.5599 5.5167 -1.8134 -9.1370 49.5945 -3.4257
# 6 7.8937 -3.5278 -2.4328 -0.3176 -3.4257 32.0901
#
#
#
# Elastic Compliance Matrix: (Units=1/GPa)
#
#
# Indices 1 2 3 4 5 6 
#
# 1 0.029739 -0.000632 -0.007933 0.013044 0.005616 -0.007258
# 2 -0.000632 0.014698 0.001538 -0.003101 -0.002121 0.001631
# 3 -0.007933 0.001538 0.016880 -0.009465 -0.002134 0.003079
# 4 0.013044 -0.003101 -0.009465 0.044366 0.009705 -0.002792
# 5 0.005616 -0.002121 -0.002134 0.009705 0.022905 0.000765
# 6 -0.007258 0.001631 0.003079 -0.002792 0.000765 0.033414
#
#
# Mechanical properties :
#
#
# Convention : Reuss Voigt Hill
#
# Bulk Modulus (GPa) = 21.15829 22.22013 21.68921
# Shear Modulus (GPa) = 26.06737 34.31564 30.19151
#
# Velocity S-wave (km/s) = 3.39945 3.90037 3.65849
# Velocity P-wave (km/s) = 4.97878 5.48950 5.24037
#
# Compressibility (1/GPa) = 0.04726280
#
# Stress axis : x y z
#
# Youngs Moduli (GPa) = 33.62565 68.03659 59.24245
#
# Poissons Ratio (x) = 0.04298 0.46997
# Poissons Ratio (y) = 0.02124 -0.09110
# Poissons Ratio (z) = 0.26675 -0.10462
#
# Static dielectric constant tensor:
#      x y z
#    x 1.984850 0.022620 0.055260 
#    y 0.022620 1.926950 0.039230 
#    z 0.055260 0.039230 1.839010 
# 
# From -- ./inp_files/313952.got.cif
#   From: 2010.05.17/outbox.cif.g08.bks.cpg/sg2_157_cif.got.tgz:313952.got - 2010.06.03 11:33:40.
