data_PCOD9054734
_publ_section_title
;
Structure prediction by ZEFSAII (Michael W. Deem and Ramdas Pophale) SiO2 
 PCOD9054734
Probable space group: P -1
;
_chemical_formula_sum "Si O2"
_cell_formula_units_Z 16
_cell_length_a 9.154289
_cell_length_b 16.547306
_cell_length_c 8.108776
_cell_angle_alpha 111.639312
_cell_angle_beta 87.902629
_cell_angle_gamma 128.326526
_cell_volume 864.049035
_symmetry_space_group_name_H-M "P -1"
_symmetry_group_IT_number 2
_symmetry_cell_setting 'triclinic'
loop_
_space_group_symop_operation_xyz
x,y,z
-x,-y,-z
loop_
_atom_site_type_symbol
_atom_site_label
_atom_site_fract_x
_atom_site_fract_y
_atom_site_fract_z
Si Si1 0.878040 0.019065 0.294322
Si Si2 0.388104 0.591000 0.241839
Si Si3 0.006340 0.229010 0.280577
Si Si4 0.644156 0.564915 0.389104
Si Si5 0.266088 0.162221 0.593718
Si Si6 0.334714 0.610113 0.878903
Si Si7 0.217933 0.195043 0.980830
Si Si8 0.016568 0.585650 0.692156
O O1 0.857091 0.104855 0.278751
O O2 0.092870 0.095266 0.420866
O O3 0.737341 0.932817 0.384290
O O4 0.851119 0.931391 0.097354
O O5 0.522945 0.559414 0.241407
O O6 0.529005 0.724607 0.395781
O O7 0.192784 0.496562 0.275638
O O8 0.332382 0.592709 0.060357
O O9 0.182179 0.308165 0.461964
O O10 0.092477 0.213807 0.104028
O O11 0.945505 0.303538 0.297863
O O12 0.500000 0.500000 0.500000
O O13 0.722345 0.501672 0.290246
O O14 0.215576 0.204824 0.787435
O O15 0.559299 0.713171 0.904452
O O16 0.188935 0.627224 0.840097
O O17 0.000000 0.500000 0.500000
#
# Coordination Sequence:
#
# PCOD9054734 Si02
#       8
#     2   2   2   2   2   2   2   2
#     4   9  18  36  58  90 116 145 190 244 291 330
#     4  11  21  38  61  85 114 152 196 244 291 339
#     4  12  21  35  59  90 119 148 193 238 290 344
#     4  12  20  35  58  91 117 146 194 246 294 340
#     4   8  18  34  59  88 117 142 187 244 295 328
#     4  11  22  39  56  84 122 157 191 237 287 350
#     4   9  19  35  61  87 112 148 194 242 280 332
#     4  12  25  40  55  85 122 160 190 231 297 357
#
# _framework density 18.517468999999998
#
# number of rings (size 3 to 8) (size 9 to 14) (size 15 to 20)
#    0.750    0.750    5.000    1.125    0.000    1.000 
#    0.000    0.625    0.000    0.750    0.000    0.000 
#    0.000    0.000    0.000    0.000    0.000    0.000 
#
# Total GULP energy -89092.535883 kJ/mol
# GULP energy per Si atom -5568.283493 kJ/mol
# Density = 1.847532 g / cm^3
# Si number density = 18.517469 Si / 1000 Ang^3
#
#
#
# Elastic Constant Matrix: (Units=GPa)
#
#
# Indices 1 2 3 4 5 6 
#
# 1 86.0868 29.9914 17.8843 -6.2404 10.2356 -33.1157
# 2 29.9914 98.2185 4.1470 6.0306 -3.2134 -32.6811
# 3 17.8843 4.1470 58.1695 12.1400 4.0459 -16.2955
# 4 -6.2404 6.0306 12.1400 23.9819 -10.7712 1.9741
# 5 10.2356 -3.2134 4.0459 -10.7712 20.8121 0.4781
# 6 -33.1157 -32.6811 -16.2955 1.9741 0.4781 28.5524
#
#
#
# Elastic Compliance Matrix: (Units=1/GPa)
#
#
# Indices 1 2 3 4 5 6 
#
# 1 0.025485 0.005372 0.006477 -0.009854 -0.018991 0.040402
# 2 0.005372 0.022612 0.013609 -0.020626 -0.013425 0.041530
# 3 0.006477 0.013609 0.037377 -0.037532 -0.028866 0.047499
# 4 -0.009854 -0.020626 -0.037532 0.095469 0.059839 -0.064060
# 5 -0.018991 -0.013425 -0.028866 0.059839 0.093266 -0.059566
# 6 0.040402 0.041530 0.047499 -0.064060 -0.059566 0.161953
#
#
# Mechanical properties :
#
#
# Convention : Reuss Voigt Hill
#
# Bulk Modulus (GPa) = 7.33194 38.50225 22.91709
# Shear Modulus (GPa) = 11.60875 27.36609 19.48742
#
# Velocity S-wave (km/s) = 2.50653 3.84846 3.24756
# Velocity P-wave (km/s) = 3.51354 6.37064 5.14441
#
# Compressibility (1/GPa) = 0.13638962
#
# Stress axis : x y z
#
# Youngs Moduli (GPa) = 39.23922 44.22357 26.75476
#
# Poissons Ratio (x) = -0.23756 -0.17330
# Poissons Ratio (y) = -0.21078 -0.36410
# Poissons Ratio (z) = -0.25417 -0.60183
#
# Static dielectric constant tensor:
#      x y z
#    x 1.621830 -0.018090 0.002500 
#    y -0.018090 1.706290 -0.010640 
#    z 0.002500 -0.010640 1.666800 
# 
# From -- ./inp_files/215354.got.cif
#   From: 2010.05.17/outbox.cif.g08.bks.cpg/sg2_108_cif.got.tgz:215354.got - 2010.06.03 11:33:40.
