data_PCOD9054336
_publ_section_title
;
Structure prediction by ZEFSAII (Michael W. Deem and Ramdas Pophale) SiO2 
 PCOD9054336
Probable space group: P -1
;
_chemical_formula_sum "Si O2"
_cell_formula_units_Z 16
_cell_length_a 18.907576
_cell_length_b 9.175687
_cell_length_c 11.321026
_cell_angle_alpha 75.847555
_cell_angle_beta 46.607355
_cell_angle_gamma 38.747250
_cell_volume 686.020229
_symmetry_space_group_name_H-M "P -1"
_symmetry_group_IT_number 2
_symmetry_cell_setting 'triclinic'
loop_
_space_group_symop_operation_xyz
x,y,z
-x,-y,-z
loop_
_atom_site_type_symbol
_atom_site_label
_atom_site_fract_x
_atom_site_fract_y
_atom_site_fract_z
Si Si1 0.473970 0.710571 0.804794
Si Si2 0.799152 0.153881 0.986238
Si Si3 0.585213 0.722381 0.433291
Si Si4 0.883139 0.267730 0.498070
Si Si5 0.192154 0.328574 0.355848
Si Si6 0.518751 0.777090 0.253300
Si Si7 0.993762 0.336328 0.983512
Si Si8 0.233953 0.292392 0.048713
O O1 0.540938 0.682272 0.605813
O O2 0.667517 0.484547 0.699918
O O3 0.391993 0.654272 0.899899
O O4 0.289088 0.048025 0.004941
O O5 0.720728 0.422249 0.058400
O O6 0.991233 0.896402 0.734621
O O7 0.835749 0.991081 0.086506
O O8 0.477975 0.785517 0.432845
O O9 0.810306 0.469729 0.199738
O O10 0.500000 0.000000 0.500000
O O11 0.860922 0.463834 0.538176
O O12 0.000000 0.000000 0.500000
O O13 0.258375 0.297471 0.157461
O O14 0.000000 0.500000 0.500000
O O15 0.346178 0.014664 0.309132
O O16 0.580690 0.866702 0.184187
O O17 0.957320 0.410301 0.869378
O O18 0.000000 0.500000 0.000000
#
# Coordination Sequence:
#
# PCOD9054336 Si02
#       8
#     2   2   2   2   2   2   2   2
#     4  12  24  45  74 101 143 189 234 293 358 424
#     4  12  27  46  73 112 140 184 241 299 358 417
#     4  11  20  42  73 102 137 189 234 287 362 418
#     4  12  28  49  74 103 145 191 241 295 352 433
#     4  12  27  45  70 104 140 190 239 293 352 429
#     4  11  26  45  71 102 145 183 234 299 354 422
#     4  11  22  41  72 104 141 185 236 289 349 427
#     4  11  23  44  72  99 139 193 233 287 364 417
#
# _framework density 23.322928000000001
#
# number of rings (size 3 to 8) (size 9 to 14) (size 15 to 20)
#    0.000    0.500    6.250    1.875    3.500    4.000 
#    2.250    0.000    0.000    0.000    0.000    0.000 
#    0.000    0.000    0.000    0.000    0.000    0.000 
#
# Total GULP energy -89215.824847 kJ/mol
# GULP energy per Si atom -5575.989053 kJ/mol
# Density = 2.326984 g / cm^3
# Si number density = 23.322928 Si / 1000 Ang^3
#
#
#
# Elastic Constant Matrix: (Units=GPa)
#
#
# Indices 1 2 3 4 5 6 
#
# 1 92.3684 32.2135 22.2652 21.0478 -1.5430 -24.7466
# 2 32.2135 117.7872 21.1038 23.3005 14.5527 -29.5637
# 3 22.2652 21.1038 64.0536 7.7438 7.5222 -9.5791
# 4 21.0478 23.3005 7.7438 24.3643 -2.8050 -5.8753
# 5 -1.5430 14.5527 7.5222 -2.8050 52.4812 -0.5806
# 6 -24.7466 -29.5637 -9.5791 -5.8753 -0.5806 38.2095
#
#
#
# Elastic Compliance Matrix: (Units=1/GPa)
#
#
# Indices 1 2 3 4 5 6 
#
# 1 0.016288 0.000433 -0.003214 -0.011421 0.000301 0.008327
# 2 0.000433 0.013505 -0.001490 -0.011212 -0.004023 0.008571
# 3 -0.003214 -0.001490 0.017816 -0.001493 -0.002304 0.000967
# 4 -0.011421 -0.011212 -0.001493 0.061142 0.006178 -0.006951
# 5 0.000301 -0.004023 -0.002304 0.006178 0.020815 -0.002229
# 6 0.008327 0.008571 0.000967 -0.006951 -0.002229 0.037336
#
#
# Mechanical properties :
#
#
# Convention : Reuss Voigt Hill
#
# Bulk Modulus (GPa) = 25.59712 47.26380 36.43046
# Shear Modulus (GPa) = 26.53008 36.25279 31.39143
#
# Velocity S-wave (km/s) = 3.37636 3.94684 3.67270
# Velocity P-wave (km/s) = 5.11846 6.40929 5.79990
#
# Compressibility (1/GPa) = 0.03906689
#
# Stress axis : x y z
#
# Youngs Moduli (GPa) = 61.39368 74.04923 56.12998
#
# Poissons Ratio (x) = -0.03209 0.18040
# Poissons Ratio (y) = -0.02661 0.08365
# Poissons Ratio (z) = 0.19731 0.11036
#
# Static dielectric constant tensor:
#      x y z
#    x 1.888630 -0.093290 0.066090 
#    y -0.093290 2.158320 -0.750720 
#    z 0.066090 -0.750720 3.828620 
# 
# From -- ./inp_files/462116.got.cif
#   From: 2010.05.17/outbox.cif.g08.bks.cpg/sg2_232_cif.got.tgz:462116.got - 2010.06.03 11:33:40.
