data_PCOD9054780
_publ_section_title
;
Structure prediction by ZEFSAII (Michael W. Deem and Ramdas Pophale) SiO2 
 PCOD9054780
Probable space group: P -1
;
_chemical_formula_sum "Si O2"
_cell_formula_units_Z 16
_cell_length_a 23.268412
_cell_length_b 5.714701
_cell_length_c 8.565520
_cell_angle_alpha 94.650382
_cell_angle_beta 47.058577
_cell_angle_gamma 69.626129
_cell_volume 692.494874
_symmetry_space_group_name_H-M "P -1"
_symmetry_group_IT_number 2
_symmetry_cell_setting 'triclinic'
loop_
_space_group_symop_operation_xyz
x,y,z
-x,-y,-z
loop_
_atom_site_type_symbol
_atom_site_label
_atom_site_fract_x
_atom_site_fract_y
_atom_site_fract_z
Si Si1 0.142016 0.280752 0.097609
Si Si2 0.035844 0.763433 0.550464
Si Si3 0.110779 0.314743 0.819981
Si Si4 0.722507 0.149549 0.956665
Si Si5 0.528590 0.696359 0.366290
Si Si6 0.538218 0.181582 0.857786
Si Si7 0.831536 0.197034 0.487832
Si Si8 0.717380 0.796474 0.689004
O O1 0.121356 0.489505 0.290232
O O2 0.049724 0.268695 0.259700
O O3 0.235364 0.991857 0.962251
O O4 0.141021 0.381264 0.930504
O O5 0.074093 0.826156 0.635623
O O6 0.000000 0.000000 0.500000
O O7 0.176179 0.318198 0.566064
O O8 0.144974 0.989419 0.719203
O O9 0.000000 0.500000 0.000000
O O10 0.808311 0.096652 0.686562
O O11 0.687239 0.982901 0.911542
O O12 0.641247 0.475003 0.138149
O O13 0.500000 0.500000 0.500000
O O14 0.484349 0.776982 0.280309
O O15 0.500000 0.000000 0.500000
O O16 0.647429 0.990241 0.694186
O O17 0.500000 0.500000 0.000000
O O18 0.500000 0.000000 0.000000
O O19 0.732683 0.495700 0.663768
#
# Coordination Sequence:
#
# PCOD9054780 Si02
#       8
#     2   2   2   2   2   2   2   2
#     4  11  24  39  65  96 139 173 231 289 348 413
#     4  11  21  38  64  95 129 183 229 276 345 421
#     4  11  26  43  63 101 145 180 234 300 352 417
#     4  11  24  45  70 100 137 182 235 294 354 445
#     4  12  29  49  76 112 154 187 239 314 385 439
#     4  12  26  50  82 109 147 200 253 306 376 458
#     4  11  23  43  70  94 133 186 239 280 354 423
#     4  11  25  45  73 100 139 190 239 294 357 444
#
# _framework density 23.104865
#
# number of rings (size 3 to 8) (size 9 to 14) (size 15 to 20)
#    0.000    0.750    3.750    3.000    8.750    4.000 
#    0.000    0.000    0.000    0.000    0.000    0.000 
#    0.000    0.000    0.000    0.000    0.000    0.000 
#
# Total GULP energy -89282.059876 kJ/mol
# GULP energy per Si atom -5580.128742 kJ/mol
# Density = 2.305228 g / cm^3
# Si number density = 23.104865 Si / 1000 Ang^3
#
#
#
# Elastic Constant Matrix: (Units=GPa)
#
#
# Indices 1 2 3 4 5 6 
#
# 1 86.8841 31.5547 16.7313 12.5015 15.3670 -21.3556
# 2 31.5547 126.2941 33.0629 18.4759 5.0884 -20.0983
# 3 16.7313 33.0629 79.8632 13.7555 0.2789 -0.0110
# 4 12.5015 18.4759 13.7555 44.5664 -2.5536 -4.6226
# 5 15.3670 5.0884 0.2789 -2.5536 36.0637 6.0432
# 6 -21.3556 -20.0983 -0.0110 -4.6226 6.0432 48.3328
#
#
#
# Elastic Compliance Matrix: (Units=1/GPa)
#
#
# Indices 1 2 3 4 5 6 
#
# 1 0.016107 -0.001553 -0.002201 -0.002909 -0.008039 0.007197
# 2 -0.001553 0.010189 -0.003467 -0.002441 -0.001509 0.003505
# 3 -0.002201 -0.003467 0.014885 -0.002746 0.001599 -0.002873
# 4 -0.002909 -0.002441 -0.002746 0.025279 0.003448 -0.000315
# 5 -0.008039 -0.001509 0.001599 0.003448 0.032934 -0.007967
# 6 0.007197 0.003505 -0.002873 -0.000315 -0.007967 0.026293
#
#
# Mechanical properties :
#
#
# Convention : Reuss Voigt Hill
#
# Bulk Modulus (GPa) = 37.39874 50.63768 44.01821
# Shear Modulus (GPa) = 33.54738 39.90543 36.72641
#
# Velocity S-wave (km/s) = 3.81460 4.16040 3.99125
# Velocity P-wave (km/s) = 5.96852 6.71138 6.35082
#
# Compressibility (1/GPa) = 0.02673887
#
# Stress axis : x y z
#
# Youngs Moduli (GPa) = 62.08434 98.14075 67.18287
#
# Poissons Ratio (x) = 0.15244 0.14789
# Poissons Ratio (y) = 0.09643 0.23290
# Poissons Ratio (z) = 0.13667 0.34022
#
# Static dielectric constant tensor:
#      x y z
#    x 1.912180 0.139760 -0.020440 
#    y 0.139760 2.113310 -0.006610 
#    z -0.020440 -0.006610 1.917290 
# 
# From -- ./inp_files/53942.got.cif
#   From: 2010.05.17/outbox.cif.g08.bks.cpg/sg2_27_cif.got.tgz:53942.got - 2010.06.03 11:33:40.
