data_PCOD9054598
_publ_section_title
;
Structure prediction by ZEFSAII (Michael W. Deem and Ramdas Pophale) SiO2 
 PCOD9054598
Probable space group: P -1
;
_chemical_formula_sum "Si O2"
_cell_formula_units_Z 14
_cell_length_a 10.678238
_cell_length_b 8.132120
_cell_length_c 9.280828
_cell_angle_alpha 47.452985
_cell_angle_beta 108.452796
_cell_angle_gamma 106.725111
_cell_volume 560.065045
_symmetry_space_group_name_H-M "P -1"
_symmetry_group_IT_number 2
_symmetry_cell_setting 'triclinic'
loop_
_space_group_symop_operation_xyz
x,y,z
-x,-y,-z
loop_
_atom_site_type_symbol
_atom_site_label
_atom_site_fract_x
_atom_site_fract_y
_atom_site_fract_z
Si Si1 0.550011 0.641735 0.071940
Si Si2 0.120705 0.542316 0.909864
Si Si3 0.215205 0.987967 0.840345
Si Si4 0.247415 0.653809 0.310984
Si Si5 0.155185 0.426101 0.678082
Si Si6 0.472070 0.113497 0.682421
Si Si7 0.318427 0.354342 0.285878
O O1 0.692512 0.585903 0.206784
O O2 0.433592 0.561003 0.188780
O O3 0.500000 0.500000 0.000000
O O4 0.540811 0.890835 0.866726
O O5 0.226029 0.372404 0.103787
O O6 0.176796 0.801158 0.812422
O O7 0.086279 0.487365 0.764757
O O8 0.000000 0.500000 0.000000
O O9 0.124966 0.184736 0.731525
O O10 0.360959 0.102026 0.775570
O O11 0.217554 0.842884 0.073958
O O12 0.161013 0.617120 0.445029
O O13 0.402264 0.700477 0.384187
O O14 0.234247 0.423701 0.350708
O O15 0.390429 0.142065 0.487561
#
# Coordination Sequence:
#
# PCOD9054598 Si02
#       7
#     2   2   2   2   2   2   2
#     4  12  22  38  60 104 146 175 215 267 335 418
#     4  11  27  52  69  90 135 180 235 295 328 378
#     4  11  23  43  69  99 137 182 218 271 339 396
#     4  11  21  36  66 106 137 173 212 265 337 416
#     4  12  23  43  70 103 135 174 227 270 336 415
#     4  12  20  36  67 100 144 177 204 262 346 412
#     4  11  22  39  65  97 136 177 214 272 338 395
#
# _framework density 24.997095000000002
#
# number of rings (size 3 to 8) (size 9 to 14) (size 15 to 20)
#    0.000    0.571    8.571    1.714    0.000    1.143 
#    7.714    3.571    0.000    0.000    0.000    0.000 
#    0.000    0.000    0.000    0.000    0.000    0.000 
#
# Total GULP energy -78235.830302 kJ/mol
# GULP energy per Si atom -5588.273593 kJ/mol
# Density = 2.494020 g / cm^3
# Si number density = 24.997095 Si / 1000 Ang^3
#
#
#
# Elastic Constant Matrix: (Units=GPa)
#
#
# Indices 1 2 3 4 5 6 
#
# 1 72.3173 16.0866 31.3547 7.1368 -1.3797 -12.6522
# 2 16.0866 82.4997 38.8754 14.3616 -6.5114 -17.3531
# 3 31.3547 38.8754 159.2058 8.0390 -6.5042 -7.3719
# 4 7.1368 14.3616 8.0390 28.9684 -4.8867 -5.5956
# 5 -1.3797 -6.5114 -6.5042 -4.8867 40.8122 14.3061
# 6 -12.6522 -17.3531 -7.3719 -5.5956 14.3061 28.6219
#
#
#
# Elastic Compliance Matrix: (Units=1/GPa)
#
#
# Indices 1 2 3 4 5 6 
#
# 1 0.016586 -0.000131 -0.002890 -0.002250 -0.002810 0.007473
# 2 -0.000131 0.016446 -0.003361 -0.005780 -0.001678 0.008756
# 3 -0.002890 -0.003361 0.007627 0.000097 0.001285 -0.001974
# 4 -0.002250 -0.005780 0.000097 0.038737 0.003115 0.001542
# 5 -0.002810 -0.001678 0.001285 0.003115 0.030529 -0.016578
# 6 0.007473 0.008756 -0.001974 0.001542 -0.016578 0.051630
#
#
# Mechanical properties :
#
#
# Convention : Reuss Voigt Hill
#
# Bulk Modulus (GPa) = 35.84778 54.07291 44.96034
# Shear Modulus (GPa) = 27.23065 34.86091 31.04578
#
# Velocity S-wave (km/s) = 3.30411 3.73848 3.52799
# Velocity P-wave (km/s) = 5.37849 6.34930 5.88395
#
# Compressibility (1/GPa) = 0.02789573
#
# Stress axis : x y z
#
# Youngs Moduli (GPa) = 60.29283 60.80408 131.10844
#
# Poissons Ratio (x) = 0.00794 0.37887
# Poissons Ratio (y) = 0.00788 0.44071
# Poissons Ratio (z) = 0.17423 0.20439
#
# Static dielectric constant tensor:
#      x y z
#    x 2.152560 0.121000 -0.065430 
#    y 0.121000 2.156440 -0.016180 
#    z -0.065430 -0.016180 2.037160 
# 
# From -- ./inp_files/200444.got.cif
#   From: 2010.05.17/outbox.cif.g08.bks.cpg/sg2_101_cif.got.tgz:200444.got - 2010.06.03 11:33:40.
