data_PCOD9054697
_publ_section_title
;
Structure prediction by ZEFSAII (Michael W. Deem and Ramdas Pophale) SiO2 
 PCOD9054697
Probable space group: P -1
;
_chemical_formula_sum "Si O2"
_cell_formula_units_Z 16
_cell_length_a 21.674997
_cell_length_b 12.835331
_cell_length_c 12.946106
_cell_angle_alpha 147.119024
_cell_angle_beta 157.223714
_cell_angle_gamma 30.879310
_cell_volume 693.992544
_symmetry_space_group_name_H-M "P -1"
_symmetry_group_IT_number 2
_symmetry_cell_setting 'triclinic'
loop_
_space_group_symop_operation_xyz
x,y,z
-x,-y,-z
loop_
_atom_site_type_symbol
_atom_site_label
_atom_site_fract_x
_atom_site_fract_y
_atom_site_fract_z
Si Si1 0.240106 0.025831 0.535544
Si Si2 0.740495 0.619544 0.033921
Si Si3 0.702016 0.391576 0.194448
Si Si4 0.960628 0.241249 0.656828
Si Si5 0.608433 0.321903 0.675276
Si Si6 0.234891 0.438945 0.216951
Si Si7 0.135976 0.964360 0.002693
Si Si8 0.138580 0.333903 0.439029
O O1 0.299892 0.137325 0.811608
O O2 0.200247 0.188793 0.513696
O O3 0.063533 0.005611 0.279809
O O4 0.369383 0.809191 0.505623
O O5 0.938648 0.491774 0.272335
O O6 0.617405 0.540077 0.843043
O O7 0.748211 0.549948 0.870080
O O8 0.825503 0.367373 0.463536
O O9 0.763729 0.161041 0.047001
O O10 0.749182 0.533686 0.302892
O O11 0.500000 0.500000 0.000000
O O12 0.869948 0.339629 0.706512
O O13 0.000000 0.000000 0.500000
O O14 0.130801 0.293061 0.955607
O O15 0.433757 0.346128 0.483982
O O16 0.773304 0.186544 0.886035
O O17 0.150631 0.180330 0.233334
#
# Coordination Sequence:
#
# PCOD9054697 Si02
#       8
#     2   2   2   2   2   2   2   2
#     4  11  21  37  66  99 127 165 203 258 326 387
#     4  12  21  38  65  91 128 170 203 251 321 384
#     4  12  26  43  67  97 123 166 224 273 314 369
#     4  11  27  47  69  87 127 178 221 264 319 373
#     4  11  23  39  63 100 134 160 208 260 317 390
#     4  11  26  44  63  92 128 172 216 263 311 379
#     4  11  21  38  67  96 128 163 207 262 325 382
#     4  11  21  38  65  93 127 161 203 258 323 378
#
# _framework density 23.055004
#
# number of rings (size 3 to 8) (size 9 to 14) (size 15 to 20)
#    0.000    0.750    5.000    3.000    1.750    5.000 
#    0.000    0.000    0.000    0.000    0.000    0.000 
#    0.000    0.000    0.000    0.000    0.000    0.000 
#
# Total GULP energy -89606.617492 kJ/mol
# GULP energy per Si atom -5600.413593 kJ/mol
# Density = 2.300253 g / cm^3
# Si number density = 23.055004 Si / 1000 Ang^3
#
#
#
# Elastic Constant Matrix: (Units=GPa)
#
#
# Indices 1 2 3 4 5 6 
#
# 1 70.5749 23.2757 32.6054 -1.0650 -2.6579 -24.9873
# 2 23.2757 89.7021 55.8166 14.4472 19.9243 -31.6529
# 3 32.6054 55.8166 95.4714 19.5586 19.6864 -32.2331
# 4 -1.0650 14.4472 19.5586 39.2261 -16.2465 -7.5131
# 5 -2.6579 19.9243 19.6864 -16.2465 38.0166 -1.2835
# 6 -24.9873 -31.6529 -32.2331 -7.5131 -1.2835 46.2144
#
#
#
# Elastic Compliance Matrix: (Units=1/GPa)
#
#
# Indices 1 2 3 4 5 6 
#
# 1 0.022410 -0.003096 -0.009477 0.013429 0.014037 0.005959
# 2 -0.003096 0.022320 -0.004030 -0.010417 -0.013985 0.008721
# 3 -0.009477 -0.004030 0.026427 -0.018952 -0.020101 0.006908
# 4 0.013429 -0.010417 -0.018952 0.054958 0.039596 -0.003058
# 5 0.014037 -0.013985 -0.020101 0.039596 0.061680 -0.007859
# 6 0.005959 0.008721 0.006908 -0.003058 -0.007859 0.034937
#
#
# Mechanical properties :
#
#
# Convention : Reuss Voigt Hill
#
# Bulk Modulus (GPa) = 26.34928 53.23821 39.79374
# Shear Modulus (GPa) = 18.61583 34.29479 26.45531
#
# Velocity S-wave (km/s) = 2.84465 3.86102 3.39113
# Velocity P-wave (km/s) = 4.71626 6.55886 5.71234
#
# Compressibility (1/GPa) = 0.03795170
#
# Stress axis : x y z
#
# Youngs Moduli (GPa) = 44.62294 44.80237 37.84000
#
# Poissons Ratio (x) = 0.13869 0.35862
# Poissons Ratio (y) = 0.13813 0.15249
# Poissons Ratio (z) = 0.42290 0.18055
#
# Static dielectric constant tensor:
#      x y z
#    x 1.864570 -0.002510 -0.073450 
#    y -0.002510 1.843460 -0.004580 
#    z -0.073450 -0.004580 1.879160 
# 
# From -- ./inp_files/543089.got.cif
#   From: 2010.05.17/outbox.cif.g08.bks.cpg/sg2_272_cif.got.tgz:543089.got - 2010.06.03 11:33:40.
