data_PCOD9054540
_publ_section_title
;
Structure prediction by ZEFSAII (Michael W. Deem and Ramdas Pophale) SiO2 
 PCOD9054540
Probable space group: P -1
;
_chemical_formula_sum "Si O2"
_cell_formula_units_Z 16
_cell_length_a 8.201445
_cell_length_b 11.438742
_cell_length_c 17.490240
_cell_angle_alpha 31.022268
_cell_angle_beta 120.441665
_cell_angle_gamma 125.232698
_cell_volume 690.436703
_symmetry_space_group_name_H-M "P -1"
_symmetry_group_IT_number 2
_symmetry_cell_setting 'triclinic'
loop_
_space_group_symop_operation_xyz
x,y,z
-x,-y,-z
loop_
_atom_site_type_symbol
_atom_site_label
_atom_site_fract_x
_atom_site_fract_y
_atom_site_fract_z
Si Si1 0.529236 0.503829 0.334017
Si Si2 0.028152 0.246271 0.914639
Si Si3 0.702600 0.314139 0.611362
Si Si4 0.524412 0.646850 0.019231
Si Si5 0.205539 0.049998 0.474675
Si Si6 0.400725 0.910075 0.116981
Si Si7 0.522118 0.854354 0.747132
Si Si8 0.112168 0.626210 0.587696
O O1 0.543745 0.412606 0.475729
O O2 0.545179 0.779432 0.188816
O O3 0.708585 0.448953 0.363696
O O4 0.324278 0.332293 0.345329
O O5 0.064260 0.473849 0.740445
O O6 0.804823 0.184438 0.927280
O O7 0.239462 0.297742 0.977308
O O8 0.000000 0.000000 0.000000
O O9 0.650904 0.207396 0.743804
O O10 0.912376 0.522018 0.549558
O O11 0.701727 0.089774 0.682766
O O12 0.433840 0.737969 0.873314
O O13 0.523541 0.810067 0.000597
O O14 0.436261 0.362277 0.166083
O O15 0.360901 0.941235 0.615466
O O16 0.165198 0.902902 0.468295
O O17 0.000000 0.000000 0.500000
#
# Coordination Sequence:
#
# PCOD9054540 Si02
#       8
#     2   2   2   2   2   2   2   2
#     4  11  22  35  54  84 117 149 185 231 290 337
#     4   9  17  32  55  79 104 142 187 232 271 329
#     4   9  19  35  55  80 108 151 190 230 274 341
#     4   9  16  31  55  82 107 137 186 241 271 319
#     4  11  22  37  59  85 114 146 187 234 281 340
#     4   9  18  32  55  83 110 143 190 234 274 332
#     4   9  18  32  56  86 105 138 189 235 281 315
#     4  11  21  36  55  82 115 149 185 233 292 334
#
# _framework density 23.173739000000001
#
# number of rings (size 3 to 8) (size 9 to 14) (size 15 to 20)
#    0.000    2.250    1.250    3.375    0.000    2.000 
#    0.000    2.500    0.000    0.750    0.000    0.000 
#    0.000    0.000    0.000    0.000    0.000    0.000 
#
# Total GULP energy -89280.899531 kJ/mol
# GULP energy per Si atom -5580.056221 kJ/mol
# Density = 2.312099 g / cm^3
# Si number density = 23.173739 Si / 1000 Ang^3
#
#
#
# Elastic Constant Matrix: (Units=GPa)
#
#
# Indices 1 2 3 4 5 6 
#
# 1 72.3016 43.1901 9.3755 -20.9813 5.1863 -14.8823
# 2 43.1901 166.6372 32.6968 -38.0105 9.0517 2.3959
# 3 9.3755 32.6968 73.7719 -29.3368 9.2996 -6.7345
# 4 -20.9813 -38.0105 -29.3368 40.6905 -14.5330 -3.2659
# 5 5.1863 9.0517 9.2996 -14.5330 30.2089 -7.4991
# 6 -14.8823 2.3959 -6.7345 -3.2659 -7.4991 26.4405
#
#
#
# Elastic Compliance Matrix: (Units=1/GPa)
#
#
# Indices 1 2 3 4 5 6 
#
# 1 0.024476 -0.004267 0.006891 0.018482 0.008998 0.020753
# 2 -0.004267 0.008452 -0.001861 0.004084 -0.000044 -0.003150
# 3 0.006891 -0.001861 0.022541 0.021452 0.006286 0.014221
# 4 0.018482 0.004084 0.021452 0.066212 0.028754 0.031830
# 5 0.008998 -0.000044 0.006286 0.028754 0.049491 0.024258
# 6 0.020753 -0.003150 0.014221 0.031830 0.024258 0.064221
#
#
# Mechanical properties :
#
#
# Convention : Reuss Voigt Hill
#
# Bulk Modulus (GPa) = 17.54609 53.69283 35.61946
# Shear Modulus (GPa) = 19.77321 34.63119 27.20220
#
# Velocity S-wave (km/s) = 2.92423 3.86996 3.42985
# Velocity P-wave (km/s) = 4.35769 6.57182 5.57576
#
# Compressibility (1/GPa) = 0.05699274
#
# Stress axis : x y z
#
# Youngs Moduli (GPa) = 40.85605 118.32092 44.36287
#
# Poissons Ratio (x) = 0.50491 -0.30569
# Poissons Ratio (y) = 0.17435 0.08258
# Poissons Ratio (z) = -0.28152 0.22025
#
# Static dielectric constant tensor:
#      x y z
#    x 1.906750 -0.035630 -0.023750 
#    y -0.035630 1.925220 0.003520 
#    z -0.023750 0.003520 1.930880 
# 
# From -- ./inp_files/239868.got.cif
#   From: 2010.05.17/outbox.cif.g08.bks.cpg/sg2_120_cif.got.tgz:239868.got - 2010.06.03 11:33:40.
