data_PCOD9054781
_publ_section_title
;
Structure prediction by ZEFSAII (Michael W. Deem and Ramdas Pophale) SiO2 
 PCOD9054781
Probable space group: P -1
;
_chemical_formula_sum "Si O2"
_cell_formula_units_Z 16
_cell_length_a 13.816125
_cell_length_b 13.129063
_cell_length_c 9.125004
_cell_angle_alpha 115.451583
_cell_angle_beta 60.933807
_cell_angle_gamma 150.459238
_cell_volume 713.213620
_symmetry_space_group_name_H-M "P -1"
_symmetry_group_IT_number 2
_symmetry_cell_setting 'triclinic'
loop_
_space_group_symop_operation_xyz
x,y,z
-x,-y,-z
loop_
_atom_site_type_symbol
_atom_site_label
_atom_site_fract_x
_atom_site_fract_y
_atom_site_fract_z
Si Si1 0.122404 0.641252 0.851680
Si Si2 0.301713 0.458076 0.247495
Si Si3 0.956046 0.853818 0.539276
Si Si4 0.447510 0.933528 0.322070
Si Si5 0.355785 0.254730 0.619162
Si Si6 0.747417 0.456049 0.924184
Si Si7 0.304499 0.467950 0.702437
Si Si8 0.991716 0.382864 0.538494
O O1 0.982763 0.620299 0.868599
O O2 0.101609 0.517132 0.685630
O O3 0.358451 0.874629 0.804953
O O4 0.000000 0.500000 0.000000
O O5 0.522423 0.673853 0.280877
O O6 0.292151 0.461692 0.084096
O O7 0.227451 0.290113 0.297678
O O8 0.129190 0.402079 0.384363
O O9 0.887192 0.705353 0.374973
O O10 0.154989 0.012893 0.589008
O O11 0.000000 0.000000 0.500000
O O12 0.370150 0.743583 0.202508
O O13 0.245751 0.837090 0.390220
O O14 0.500000 0.000000 0.500000
O O15 0.309963 0.349396 0.702490
O O16 0.505240 0.360131 0.438544
O O17 0.686028 0.427412 0.118742
O O18 0.000000 0.500000 0.500000
#
# Coordination Sequence:
#
# PCOD9054781 Si02
#       8
#     2   2   2   2   2   2   2   2
#     4  11  25  41  63  95 141 169 218 285 333 393
#     4  11  21  38  64  95 131 174 223 276 329 402
#     4   9  20  40  64  89 123 168 221 270 329 395
#     4  11  21  43  70  90 134 184 218 263 341 407
#     4   9  20  39  64  89 122 172 221 265 337 399
#     4  11  24  40  62  98 135 170 223 280 336 390
#     4   9  20  41  62  89 129 165 215 281 329 392
#     4  11  21  42  63  94 132 175 222 274 328 404
#
# _framework density 22.433671
#
# number of rings (size 3 to 8) (size 9 to 14) (size 15 to 20)
#    0.000    1.750    3.750    0.750    3.500    6.500 
#    0.000    2.500    0.000    0.000    0.000    0.000 
#    0.000    0.000    0.000    0.000    0.000    0.000 
#
# Total GULP energy -89121.404646 kJ/mol
# GULP energy per Si atom -5570.087790 kJ/mol
# Density = 2.238261 g / cm^3
# Si number density = 22.433671 Si / 1000 Ang^3
#
#
#
# Elastic Constant Matrix: (Units=GPa)
#
#
# Indices 1 2 3 4 5 6 
#
# 1 64.3879 22.1444 -14.2035 0.9490 12.6422 5.4242
# 2 22.1444 140.1123 28.1076 -2.0569 11.2801 27.0720
# 3 -14.2035 28.1076 83.0537 3.0328 5.1903 -5.7515
# 4 0.9490 -2.0569 3.0328 26.4880 -3.2010 4.0726
# 5 12.6422 11.2801 5.1903 -3.2010 33.7367 -1.1615
# 6 5.4242 27.0720 -5.7515 4.0726 -1.1615 32.0664
#
#
#
# Elastic Compliance Matrix: (Units=1/GPa)
#
#
# Indices 1 2 3 4 5 6 
#
# 1 0.019283 -0.003725 0.005149 -0.002548 -0.006984 0.000877
# 2 -0.003725 0.010775 -0.004971 0.002860 -0.001507 -0.009776
# 3 0.005149 -0.004971 0.015355 -0.003652 -0.002754 0.006444
# 4 -0.002548 0.002860 -0.003652 0.040148 0.004108 -0.007589
# 5 -0.006984 -0.001507 -0.002754 0.004108 0.033667 0.002658
# 6 0.000877 -0.009776 0.006444 -0.007589 0.002658 0.041507
#
#
# Mechanical properties :
#
#
# Convention : Reuss Voigt Hill
#
# Bulk Modulus (GPa) = 26.09742 39.96122 33.02932
# Shear Modulus (GPa) = 27.68511 35.22526 31.45518
#
# Velocity S-wave (km/s) = 3.51677 3.96687 3.74858
# Velocity P-wave (km/s) = 5.30553 6.23162 5.78713
#
# Compressibility (1/GPa) = 0.03831796
#
# Stress axis : x y z
#
# Youngs Moduli (GPa) = 51.86009 92.80384 65.12561
#
# Poissons Ratio (x) = 0.34570 -0.33530
# Poissons Ratio (y) = 0.19318 0.32374
# Poissons Ratio (z) = -0.26700 0.46133
#
# Static dielectric constant tensor:
#      x y z
#    x 1.989640 -0.157630 0.139810 
#    y -0.157630 2.471500 -0.554410 
#    z 0.139810 -0.554410 2.320530 
# 
# From -- ./inp_files/313678.got.cif
#   From: 2010.05.17/outbox.cif.g08.bks.cpg/sg2_157_cif.got.tgz:313678.got - 2010.06.03 11:33:40.
