data_PCOD9054412
_publ_section_title
;
Structure prediction by ZEFSAII (Michael W. Deem and Ramdas Pophale) SiO2 
 PCOD9054412
Probable space group: P -1
;
_chemical_formula_sum "Si O2"
_cell_formula_units_Z 16
_cell_length_a 9.137691
_cell_length_b 19.282621
_cell_length_c 12.548154
_cell_angle_alpha 137.922715
_cell_angle_beta 35.551476
_cell_angle_gamma 141.835690
_cell_volume 761.301473
_symmetry_space_group_name_H-M "P -1"
_symmetry_group_IT_number 2
_symmetry_cell_setting 'triclinic'
loop_
_space_group_symop_operation_xyz
x,y,z
-x,-y,-z
loop_
_atom_site_type_symbol
_atom_site_label
_atom_site_fract_x
_atom_site_fract_y
_atom_site_fract_z
Si Si1 0.661900 0.437948 0.885624
Si Si2 0.903469 0.189475 0.678519
Si Si3 0.389988 0.182280 0.832860
Si Si4 0.129362 0.827730 0.735380
Si Si5 0.500987 0.025893 0.901205
Si Si6 0.747937 0.536573 0.178116
Si Si7 0.908393 0.557599 0.521537
Si Si8 0.017758 0.928703 0.703715
O O1 0.498637 0.297861 0.829737
O O2 0.960817 0.471343 0.692586
O O3 0.500000 0.500000 0.000000
O O4 0.678585 0.489873 0.048772
O O5 0.636601 0.184574 0.764293
O O6 0.788222 0.118556 0.776686
O O7 0.027526 0.132849 0.453944
O O8 0.115789 0.324861 0.727887
O O9 0.245015 0.064947 0.715645
O O10 0.148804 0.178999 0.050380
O O11 0.137268 0.878093 0.669462
O O12 0.075132 0.696085 0.605050
O O13 0.378580 0.912265 0.765246
O O14 0.273677 0.076126 0.087352
O O15 0.500000 0.000000 0.000000
O O16 0.422761 0.479373 0.350477
O O17 0.000000 0.500000 0.000000
O O18 0.000000 0.500000 0.500000
#
# Coordination Sequence:
#
# PCOD9054412 Si02
#       8
#     2   2   2   2   2   2   2   2
#     4  12  25  46  74 104 144 194 243 301 359 429
#     4  12  24  43  72 105 143 184 239 296 368 431
#     4  11  20  44  71 103 141 181 241 302 353 432
#     4  11  21  44  77 101 139 186 248 295 353 439
#     4  11  26  45  67 106 145 182 227 308 370 421
#     4  12  27  47  70 108 151 189 241 302 363 431
#     4  12  26  47  74 106 140 195 249 295 360 432
#     4  11  24  42  75 105 133 188 246 292 358 436
#
# _framework density 21.016642000000001
#
# number of rings (size 3 to 8) (size 9 to 14) (size 15 to 20)
#    0.000    0.500    6.250    1.875    1.750    6.000 
#    0.000    0.000    0.000    0.000    0.000    0.000 
#    0.000    0.000    0.000    0.000    0.000    0.000 
#
# Total GULP energy -89223.533037 kJ/mol
# GULP energy per Si atom -5576.470815 kJ/mol
# Density = 2.096881 g / cm^3
# Si number density = 21.016642 Si / 1000 Ang^3
#
#
#
# Elastic Constant Matrix: (Units=GPa)
#
#
# Indices 1 2 3 4 5 6 
#
# 1 106.2214 4.0592 24.1578 8.6428 33.2143 -5.6951
# 2 4.0592 135.9656 42.4773 14.3382 -4.8497 -6.0378
# 3 24.1578 42.4773 136.2688 -2.6903 22.1619 8.8249
# 4 8.6428 14.3382 -2.6903 47.5867 7.8777 1.4023
# 5 33.2143 -4.8497 22.1619 7.8777 56.8875 7.5671
# 6 -5.6951 -6.0378 8.8249 1.4023 7.5671 33.9982
#
#
#
# Elastic Compliance Matrix: (Units=1/GPa)
#
#
# Indices 1 2 3 4 5 6 
#
# 1 0.012212 0.000129 -0.001362 -0.001303 -0.006943 0.004021
# 2 0.000129 0.008924 -0.003362 -0.003325 0.002172 0.002133
# 3 -0.001362 -0.003362 0.009353 0.002382 -0.003111 -0.002659
# 4 -0.001303 -0.003325 0.002382 0.023001 -0.003421 -0.001614
# 5 -0.006943 0.002172 -0.003111 -0.003421 0.024197 -0.005214
# 6 0.004021 0.002133 -0.002659 -0.001614 -0.005214 0.032383
#
#
# Mechanical properties :
#
#
# Convention : Reuss Voigt Hill
#
# Bulk Modulus (GPa) = 46.94917 57.76048 52.35482
# Shear Modulus (GPa) = 39.56999 48.21188 43.89094
#
# Velocity S-wave (km/s) = 4.34382 4.79475 4.57485
# Velocity P-wave (km/s) = 6.89536 7.62861 7.27123
#
# Compressibility (1/GPa) = 0.02129963
#
# Stress axis : x y z
#
# Youngs Moduli (GPa) = 81.88878 112.05840 106.91759
#
# Poissons Ratio (x) = -0.01450 0.14565
# Poissons Ratio (y) = -0.01059 0.35941
# Poissons Ratio (z) = 0.11155 0.37670
#
# Static dielectric constant tensor:
#      x y z
#    x 1.776010 0.002700 -0.012250 
#    y 0.002700 1.776170 -0.018960 
#    z -0.012250 -0.018960 1.739890 
# 
# From -- ./inp_files/403318.got.cif
#   From: 2010.05.17/outbox.cif.g08.bks.cpg/sg2_202_cif.got.tgz:403318.got - 2010.06.03 11:33:40.
