data_PCOD9054464
_publ_section_title
;
Structure prediction by ZEFSAII (Michael W. Deem and Ramdas Pophale) SiO2 
 PCOD9054464
Probable space group: P -1
;
_chemical_formula_sum "Si O2"
_cell_formula_units_Z 16
_cell_length_a 16.143138
_cell_length_b 9.302131
_cell_length_c 12.658453
_cell_angle_alpha 73.070503
_cell_angle_beta 32.071992
_cell_angle_gamma 56.511102
_cell_volume 772.131144
_symmetry_space_group_name_H-M "P -1"
_symmetry_group_IT_number 2
_symmetry_cell_setting 'triclinic'
loop_
_space_group_symop_operation_xyz
x,y,z
-x,-y,-z
loop_
_atom_site_type_symbol
_atom_site_label
_atom_site_fract_x
_atom_site_fract_y
_atom_site_fract_z
Si Si1 0.832360 0.478750 0.168076
Si Si2 0.711198 0.315178 0.771833
Si Si3 0.691728 0.477610 0.535981
Si Si4 0.522940 0.823662 0.964642
Si Si5 0.651297 0.354916 0.274141
Si Si6 0.740040 0.769470 0.522971
Si Si7 0.110742 0.560141 0.296135
Si Si8 0.554020 0.101719 0.500012
O O1 0.815416 0.391505 0.313520
O O2 0.831818 0.360064 0.098492
O O3 0.645393 0.694370 0.305520
O O4 0.000000 0.500000 0.000000
O O5 0.750294 0.355542 0.603639
O O6 0.859059 0.305495 0.696861
O O7 0.500000 0.500000 0.000000
O O8 0.674802 0.158320 0.838797
O O9 0.471598 0.563103 0.718725
O O10 0.711136 0.643083 0.505424
O O11 0.620575 0.790928 0.751933
O O12 0.676383 0.636851 0.908372
O O13 0.500000 0.000000 0.000000
O O14 0.500000 0.500000 0.500000
O O15 0.687089 0.157983 0.296166
O O16 0.964620 0.663435 0.335142
O O17 0.650189 0.968557 0.525043
O O18 0.000000 0.500000 0.500000
O O19 0.500000 0.000000 0.500000
#
# Coordination Sequence:
#
# PCOD9054464 Si02
#       8
#     2   2   2   2   2   2   2   2
#     4  10  22  41  58  91 121 147 193 248 294 348
#     4  10  18  36  60  86 116 154 199 234 285 355
#     4  10  17  35  65  81 111 164 191 226 297 347
#     4  10  22  37  57  89 120 145 197 252 282 333
#     4   8  18  35  59  86 114 147 193 235 293 352
#     4  11  19  37  61  84 116 161 197 227 292 351
#     4   9  18  36  58  79 116 154 194 233 279 349
#     4  10  18  36  64  84 112 155 195 238 286 349
#
# _framework density 20.721869000000002
#
# number of rings (size 3 to 8) (size 9 to 14) (size 15 to 20)
#    0.000    2.500    6.250    0.000    0.000    3.000 
#    6.750    4.375    5.500    0.000    0.000    0.000 
#    0.000    0.000    0.000    0.000    0.000    0.000 
#
# Total GULP energy -89122.434289 kJ/mol
# GULP energy per Si atom -5570.152143 kJ/mol
# Density = 2.067470 g / cm^3
# Si number density = 20.721869 Si / 1000 Ang^3
#
#
#
# Elastic Constant Matrix: (Units=GPa)
#
#
# Indices 1 2 3 4 5 6 
#
# 1 155.6235 58.3583 26.4562 -10.3614 -26.5451 24.3901
# 2 58.3583 107.3122 14.4834 -13.5579 -13.7501 16.6255
# 3 26.4562 14.4834 31.4197 -16.6251 -6.5768 0.5027
# 4 -10.3614 -13.5579 -16.6251 22.0126 5.0512 -6.0727
# 5 -26.5451 -13.7501 -6.5768 5.0512 31.8955 -14.0343
# 6 24.3901 16.6255 0.5027 -6.0727 -14.0343 52.3047
#
#
#
# Elastic Compliance Matrix: (Units=1/GPa)
#
#
# Indices 1 2 3 4 5 6 
#
# 1 0.010388 -0.004173 -0.009271 -0.006566 0.004684 -0.002934
# 2 -0.004173 0.012467 0.001169 0.006130 0.000672 -0.001136
# 3 -0.009271 0.001169 0.064386 0.046968 0.002826 0.009544
# 4 -0.006566 0.006130 0.046968 0.084829 -0.002207 0.009919
# 5 0.004684 0.000672 0.002826 -0.002207 0.040017 0.008056
# 6 -0.002934 -0.001136 0.009544 0.009919 0.008056 0.024070
#
#
# Mechanical properties :
#
#
# Convention : Reuss Voigt Hill
#
# Bulk Modulus (GPa) = 15.95106 54.77234 35.36170
# Shear Modulus (GPa) = 17.75554 34.24642 26.00098
#
# Velocity S-wave (km/s) = 2.93038 4.06972 3.54610
# Velocity P-wave (km/s) = 4.37766 6.96943 5.81966
#
# Compressibility (1/GPa) = 0.06269177
#
# Stress axis : x y z
#
# Youngs Moduli (GPa) = 96.26257 80.21412 15.53141
#
# Poissons Ratio (x) = 0.33473 0.14399
# Poissons Ratio (y) = 0.40170 -0.01816
# Poissons Ratio (z) = 0.89242 -0.09379
#
# Static dielectric constant tensor:
#      x y z
#    x 1.826600 0.033680 -0.020270 
#    y 0.033680 1.763900 -0.016400 
#    z -0.020270 -0.016400 1.857530 
# 
# From -- ./inp_files/445813.got.cif
#   From: 2010.05.17/outbox.cif.g08.bks.cpg/sg2_223_cif.got.tgz:445813.got - 2010.06.03 11:33:40.
