data_PCOD9054157
_publ_section_title
;
Structure prediction by ZEFSAII (Michael W. Deem and Ramdas Pophale) SiO2 
 PCOD9054157
Probable space group: P -1
;
_chemical_formula_sum "Si O2"
_cell_formula_units_Z 14
_cell_length_a 9.871289
_cell_length_b 8.182306
_cell_length_c 18.191926
_cell_angle_alpha 66.294716
_cell_angle_beta 152.315922
_cell_angle_gamma 118.077539
_cell_volume 601.927476
_symmetry_space_group_name_H-M "P -1"
_symmetry_group_IT_number 2
_symmetry_cell_setting 'triclinic'
loop_
_space_group_symop_operation_xyz
x,y,z
-x,-y,-z
loop_
_atom_site_type_symbol
_atom_site_label
_atom_site_fract_x
_atom_site_fract_y
_atom_site_fract_z
Si Si1 0.034167 0.084404 0.731116
Si Si2 0.391127 0.647130 0.973053
Si Si3 0.112598 0.301072 0.189381
Si Si4 0.817688 0.287630 0.284959
Si Si5 0.276547 0.133297 0.153633
Si Si6 0.285520 0.101323 0.530375
Si Si7 0.658229 0.346656 0.546690
O O1 0.770165 0.164643 0.621579
O O2 0.345277 0.235863 0.869572
O O3 0.028745 0.902486 0.807482
O O4 0.927768 0.035084 0.606069
O O5 0.308946 0.776368 0.845726
O O6 0.100789 0.580376 0.899575
O O7 0.500000 0.500000 0.000000
O O8 0.155706 0.255564 0.133496
O O9 0.439594 0.370252 0.371787
O O10 0.527384 0.270409 0.198615
O O11 0.038583 0.172650 0.445362
O O12 0.039151 0.489063 0.339975
O O13 0.469396 0.996926 0.303754
O O14 0.000000 0.000000 0.000000
O O15 0.462746 0.290073 0.536939
#
# Coordination Sequence:
#
# PCOD9054157 Si02
#       7
#     2   2   2   2   2   2   2
#     4  11  20  40  75  97 135 175 242 281 333 409
#     4  12  25  41  70 106 137 177 239 293 339 399
#     4  11  23  45  69  99 135 190 231 282 343 415
#     4  12  26  42  69 108 143 180 226 291 349 407
#     4  12  27  46  70 103 144 182 231 286 352 416
#     4  11  23  45  72 101 133 192 231 280 342 420
#     4  11  21  43  74 102 135 178 239 286 340 408
#
# _framework density 23.258616
#
# number of rings (size 3 to 8) (size 9 to 14) (size 15 to 20)
#    0.000    0.571    7.143    3.000    2.000    0.571 
#    0.000    0.714    0.000    0.000    0.000    0.000 
#    0.000    0.000    0.000    0.000    0.000    0.000 
#
# Total GULP energy -78152.041579 kJ/mol
# GULP energy per Si atom -5582.288684 kJ/mol
# Density = 2.320568 g / cm^3
# Si number density = 23.258616 Si / 1000 Ang^3
#
#
#
# Elastic Constant Matrix: (Units=GPa)
#
#
# Indices 1 2 3 4 5 6 
#
# 1 159.6686 23.6911 50.7660 4.8122 23.5770 -17.8831
# 2 23.6911 59.7562 35.7206 5.9466 2.7867 -6.7775
# 3 50.7660 35.7206 159.5883 18.2600 2.1552 -0.6244
# 4 4.8122 5.9466 18.2600 43.1660 -6.3254 6.1605
# 5 23.5770 2.7867 2.1552 -6.3254 39.0868 -9.2200
# 6 -17.8831 -6.7775 -0.6244 6.1605 -9.2200 21.7469
#
#
#
# Elastic Compliance Matrix: (Units=1/GPa)
#
#
# Indices 1 2 3 4 5 6 
#
# 1 0.008289 -0.001108 -0.002188 -0.001131 -0.003773 0.005129
# 2 -0.001108 0.020402 -0.003994 -0.001780 0.000581 0.006083
# 3 -0.002188 -0.003994 0.008107 -0.002301 0.000307 -0.002030
# 4 -0.001131 -0.001780 -0.002301 0.026078 0.003386 -0.007502
# 5 -0.003773 0.000581 0.000307 0.003386 0.030485 0.009052
# 6 0.005129 0.006083 -0.002030 -0.007502 0.009052 0.058002
#
#
# Mechanical properties :
#
#
# Convention : Reuss Voigt Hill
#
# Bulk Modulus (GPa) = 45.01136 66.59649 55.80393
# Shear Modulus (GPa) = 28.84346 38.72229 33.78287
#
# Velocity S-wave (km/s) = 3.52535 4.08469 3.81529
# Velocity P-wave (km/s) = 5.99711 7.13733 6.59192
#
# Compressibility (1/GPa) = 0.02221661
#
# Stress axis : x y z
#
# Youngs Moduli (GPa) = 120.64490 49.01560 123.34281
#
# Poissons Ratio (x) = 0.05431 0.26992
# Poissons Ratio (y) = 0.13367 0.49268
# Poissons Ratio (z) = 0.26401 0.19579
#
# Static dielectric constant tensor:
#      x y z
#    x 1.928450 -0.045720 0.024640 
#    y -0.045720 1.953960 -0.054560 
#    z 0.024640 -0.054560 1.913980 
# 
# From -- ./inp_files/251786.got.cif
#   From: 2010.05.17/outbox.cif.g08.bks.cpg/sg2_126_cif.got.tgz:251786.got - 2010.06.03 11:33:40.
