data_PCOD9054109
_publ_section_title
;
Structure prediction by ZEFSAII (Michael W. Deem and Ramdas Pophale) SiO2 
 PCOD9054109
Probable space group: P -1
;
_chemical_formula_sum "Si O2"
_cell_formula_units_Z 16
_cell_length_a 22.429395
_cell_length_b 11.938064
_cell_length_c 11.970365
_cell_angle_alpha 35.739552
_cell_angle_beta 143.524779
_cell_angle_gamma 156.047515
_cell_volume 733.335994
_symmetry_space_group_name_H-M "P -1"
_symmetry_group_IT_number 2
_symmetry_cell_setting 'triclinic'
loop_
_space_group_symop_operation_xyz
x,y,z
-x,-y,-z
loop_
_atom_site_type_symbol
_atom_site_label
_atom_site_fract_x
_atom_site_fract_y
_atom_site_fract_z
Si Si1 0.764057 0.310383 0.422361
Si Si2 0.345645 0.678804 0.985269
Si Si3 0.973899 0.788319 0.997393
Si Si4 0.739996 0.866035 0.697430
Si Si5 0.094455 0.892225 0.464021
Si Si6 0.129882 0.792026 0.028073
Si Si7 0.161158 0.127941 0.614841
Si Si8 0.675715 0.284973 0.544575
O O1 0.697990 0.315160 0.209522
O O2 0.738829 0.402604 0.418892
O O3 0.947027 0.548712 0.500112
O O4 0.692258 0.994455 0.580813
O O5 0.194668 0.505732 0.973434
O O6 0.361854 0.469957 0.179000
O O7 0.500000 0.000000 0.000000
O O8 0.099081 0.969518 0.137969
O O9 0.047863 0.758567 0.040143
O O10 0.957127 0.969338 0.764842
O O11 0.773811 0.971621 0.534564
O O12 0.144626 0.981704 0.595333
O O13 0.196832 0.049513 0.839083
O O14 0.249338 0.801971 0.229950
O O15 0.000000 0.500000 0.000000
O O16 0.279267 0.471963 0.507221
O O17 0.000000 0.000000 0.500000
O O18 0.500000 0.000000 0.500000
#
# Coordination Sequence:
#
# PCOD9054109 Si02
#       8
#     2   2   2   2   2   2   2   2
#     4  12  22  41  71  94 131 175 224 278 339 405
#     4  11  26  43  62 101 141 174 213 279 350 401
#     4  11  20  41  71  96 130 174 229 276 325 405
#     4  11  23  40  71  98 126 172 231 274 326 402
#     4  11  20  40  69 105 132 170 231 284 324 395
#     4  12  23  42  72 102 133 180 237 283 332 403
#     4  12  23  42  71 100 137 183 232 281 333 412
#     4  12  28  46  67 102 142 182 227 289 352 399
#
# _framework density 21.818103000000001
#
# number of rings (size 3 to 8) (size 9 to 14) (size 15 to 20)
#    0.000    0.500    7.500    1.125    0.000    4.000 
#    0.000    1.250    0.000    0.000    0.000    0.000 
#    0.000    0.000    0.000    0.000    0.000    0.000 
#
# Total GULP energy -89520.243185 kJ/mol
# GULP energy per Si atom -5595.015199 kJ/mol
# Density = 2.176844 g / cm^3
# Si number density = 21.818103 Si / 1000 Ang^3
#
#
#
# Elastic Constant Matrix: (Units=GPa)
#
#
# Indices 1 2 3 4 5 6 
#
# 1 56.4456 18.8106 28.2381 9.5811 -10.3802 -21.7876
# 2 18.8106 131.0801 30.0139 -3.4181 2.1356 -13.0779
# 3 28.2381 30.0139 101.1974 -1.9361 -15.8282 -2.4174
# 4 9.5811 -3.4181 -1.9361 31.5841 -8.5737 2.3224
# 5 -10.3802 2.1356 -15.8282 -8.5737 30.7786 2.0719
# 6 -21.7876 -13.0779 -2.4174 2.3224 2.0719 29.7885
#
#
#
# Elastic Compliance Matrix: (Units=1/GPa)
#
#
# Indices 1 2 3 4 5 6 
#
# 1 0.034435 -0.000822 -0.008678 -0.012332 0.002094 0.024937
# 2 -0.000822 0.008714 -0.002655 0.000140 -0.002422 0.003166
# 3 -0.008678 -0.002655 0.014039 0.005503 0.006499 -0.007254
# 4 -0.012332 0.000140 0.005503 0.039510 0.010497 -0.012322
# 5 0.002094 -0.002422 0.006499 0.010497 0.039805 -0.002591
# 6 0.024937 0.003166 -0.007254 -0.012322 -0.002591 0.053751
#
#
# Mechanical properties :
#
#
# Convention : Reuss Voigt Hill
#
# Bulk Modulus (GPa) = 30.41609 49.20535 39.81072
# Shear Modulus (GPa) = 22.17051 32.54092 27.35572
#
# Velocity S-wave (km/s) = 3.19117 3.86614 3.54476
# Velocity P-wave (km/s) = 5.24873 6.52157 5.91946
#
# Compressibility (1/GPa) = 0.03287734
#
# Stress axis : x y z
#
# Youngs Moduli (GPa) = 29.04005 114.75836 71.22970
#
# Poissons Ratio (x) = 0.09438 0.61810
# Poissons Ratio (y) = 0.02388 0.18915
# Poissons Ratio (z) = 0.25200 0.30474
#
# Static dielectric constant tensor:
#      x y z
#    x 1.899740 -0.008890 0.020330 
#    y -0.008890 1.807910 -0.042320 
#    z 0.020330 -0.042320 1.872040 
# 
# From -- ./inp_files/307939.got.cif
#   From: 2010.05.17/outbox.cif.g08.bks.cpg/sg2_154_cif.got.tgz:307939.got - 2010.06.03 11:33:40.
