data_PCOD9054242
_publ_section_title
;
Structure prediction by ZEFSAII (Michael W. Deem and Ramdas Pophale) SiO2 
 PCOD9054242
Probable space group: P -1
;
_chemical_formula_sum "Si O2"
_cell_formula_units_Z 16
_cell_length_a 7.797596
_cell_length_b 17.381907
_cell_length_c 5.309940
_cell_angle_alpha 88.209826
_cell_angle_beta 91.830911
_cell_angle_gamma 107.477486
_cell_volume 685.941863
_symmetry_space_group_name_H-M "P -1"
_symmetry_group_IT_number 2
_symmetry_cell_setting 'triclinic'
loop_
_space_group_symop_operation_xyz
x,y,z
-x,-y,-z
loop_
_atom_site_type_symbol
_atom_site_label
_atom_site_fract_x
_atom_site_fract_y
_atom_site_fract_z
Si Si1 0.628718 0.097082 0.319269
Si Si2 0.064974 0.765477 0.494093
Si Si3 0.478028 0.142544 0.825424
Si Si4 0.858656 0.659261 0.849296
Si Si5 0.956981 0.041855 0.244582
Si Si6 0.858616 0.811997 0.076008
Si Si7 0.125633 0.506933 0.250407
Si Si8 0.765676 0.318511 0.846536
O O1 0.788510 0.181263 0.318811
O O2 0.543446 0.102673 0.589320
O O3 0.749555 0.038948 0.272174
O O4 0.494405 0.095779 0.086929
O O5 0.145618 0.697420 0.405957
O O6 0.876379 0.714115 0.598624
O O7 0.032822 0.820911 0.259615
O O8 0.605584 0.235346 0.871576
O O9 0.282350 0.153204 0.792847
O O10 0.785901 0.715370 0.028916
O O11 0.788676 0.566463 0.775749
O O12 0.064802 0.670903 0.956042
O O13 0.078408 0.134002 0.178134
O O14 0.000000 0.000000 0.500000
O O15 0.000000 0.000000 0.000000
O O16 0.267387 0.595740 0.208676
O O17 0.000000 0.500000 0.500000
O O18 0.000000 0.500000 0.000000
#
# Coordination Sequence:
#
# PCOD9054242 Si02
#       8
#     2   2   2   2   2   2   2   2
#     4  11  22  43  65  94 121 165 205 246 304 372
#     4  10  17  35  64  85 120 162 215 252 289 358
#     4  11  24  39  65  94 131 165 199 255 309 365
#     4  10  18  34  61  85 118 165 213 256 292 359
#     4  12  25  44  70  94 120 159 204 253 302 370
#     4  11  25  40  62  97 124 162 208 254 311 373
#     4  10  19  30  54  90 118 156 212 266 296 343
#     4   9  18  34  55  91 122 161 210 255 308 352
#
# _framework density 23.325592
#
# number of rings (size 3 to 8) (size 9 to 14) (size 15 to 20)
#    0.000    1.500    3.750    3.000    1.750    0.000 
#    0.000    4.375    0.000    0.750    0.000    0.000 
#    0.000    0.000    0.000    0.000    0.000    0.000 
#
# Total GULP energy -89096.227341 kJ/mol
# GULP energy per Si atom -5568.514209 kJ/mol
# Density = 2.327250 g / cm^3
# Si number density = 23.325592 Si / 1000 Ang^3
#
#
#
# Elastic Constant Matrix: (Units=GPa)
#
#
# Indices 1 2 3 4 5 6 
#
# 1 63.7059 42.8454 23.0116 10.7696 -12.4280 -16.8333
# 2 42.8454 140.4595 51.2563 11.7022 -2.7970 -21.6359
# 3 23.0116 51.2563 128.0107 2.8976 -0.6933 -15.1091
# 4 10.7696 11.7022 2.8976 29.0970 -3.5624 -6.0280
# 5 -12.4280 -2.7970 -0.6933 -3.5624 22.5334 4.3788
# 6 -16.8333 -21.6359 -15.1091 -6.0280 4.3788 34.7344
#
#
#
# Elastic Compliance Matrix: (Units=1/GPa)
#
#
# Indices 1 2 3 4 5 6 
#
# 1 0.024151 -0.005449 -0.001342 -0.004116 0.010855 0.005644
# 2 -0.005449 0.010291 -0.002813 -0.001620 -0.002574 0.002589
# 3 -0.001342 -0.002813 0.009385 0.000977 -0.001031 0.001980
# 4 -0.004116 -0.001620 0.000977 0.037530 0.002796 0.003582
# 5 0.010855 -0.002574 -0.001031 0.002796 0.050988 -0.002733
# 6 0.005644 0.002589 0.001980 0.003582 -0.002733 0.034965
#
#
# Mechanical properties :
#
#
# Convention : Reuss Voigt Hill
#
# Bulk Modulus (GPa) = 40.61634 62.93363 51.77499
# Shear Modulus (GPa) = 25.67753 31.61050 28.64402
#
# Velocity S-wave (km/s) = 3.32148 3.68528 3.50810
# Velocity P-wave (km/s) = 5.67100 6.71918 6.21722
#
# Compressibility (1/GPa) = 0.02462063
#
# Stress axis : x y z
#
# Youngs Moduli (GPa) = 41.40572 97.17654 106.55128
#
# Poissons Ratio (x) = 0.52952 0.14295
# Poissons Ratio (y) = 0.22562 0.29968
# Poissons Ratio (z) = 0.05555 0.27331
#
# Static dielectric constant tensor:
#      x y z
#    x 1.881420 0.026220 -0.020810 
#    y 0.026220 2.015340 0.017260 
#    z -0.020810 0.017260 1.954600 
# 
# From -- ./inp_files/44644.got.cif
#   From: 2010.05.17/outbox.cif.g08.bks.cpg/sg2_23_cif.got.tgz:44644.got - 2010.06.03 11:33:40.
