data_PCOD9054644
_publ_section_title
;
Structure prediction by ZEFSAII (Michael W. Deem and Ramdas Pophale) SiO2 
 PCOD9054644
Probable space group: P -1
;
_chemical_formula_sum "Si O2"
_cell_formula_units_Z 16
_cell_length_a 8.310117
_cell_length_b 16.482228
_cell_length_c 8.342982
_cell_angle_alpha 88.428812
_cell_angle_beta 82.895440
_cell_angle_gamma 140.679941
_cell_volume 704.630148
_symmetry_space_group_name_H-M "P -1"
_symmetry_group_IT_number 2
_symmetry_cell_setting 'triclinic'
loop_
_space_group_symop_operation_xyz
x,y,z
-x,-y,-z
loop_
_atom_site_type_symbol
_atom_site_label
_atom_site_fract_x
_atom_site_fract_y
_atom_site_fract_z
Si Si1 0.737075 0.344014 0.920584
Si Si2 0.612900 0.542591 0.707564
Si Si3 0.878943 0.123736 0.828556
Si Si4 0.739190 0.939123 0.097982
Si Si5 0.411526 0.985079 0.687946
Si Si6 0.660573 0.694043 0.450864
Si Si7 0.704290 0.426946 0.232537
Si Si8 0.979261 0.285220 0.076555
O O1 0.495782 0.216186 0.858334
O O2 0.990931 0.472328 0.784186
O O3 0.641535 0.368600 0.067241
O O4 0.858416 0.317332 0.010057
O O5 0.761971 0.657564 0.550664
O O6 0.531463 0.426181 0.644701
O O7 0.360759 0.502306 0.763847
O O8 0.776896 0.601198 0.845222
O O9 0.675001 0.095989 0.754146
O O10 0.096881 0.173423 0.679912
O O11 0.024955 0.235733 0.936172
O O12 0.706763 0.992333 0.955929
O O13 0.749866 0.996320 0.255010
O O14 0.000000 0.000000 0.000000
O O15 0.500000 0.000000 0.500000
O O16 0.238207 0.842964 0.779500
O O17 0.489281 0.679208 0.597432
#
# Coordination Sequence:
#
# PCOD9054644 Si02
#       8
#     2   2   2   2   2   2   2   2
#     4  11  21  40  61  86 127 158 207 250 311 367
#     4   9  20  37  63  88 119 161 203 250 301 362
#     4  11  21  41  66  90 125 160 208 262 302 378
#     4  11  25  43  64  93 124 169 207 258 318 370
#     4  11  23  41  65  95 121 167 209 262 311 369
#     4   9  20  40  63  92 124 157 208 254 309 362
#     4   9  22  38  61  87 121 166 194 257 305 366
#     4  11  21  37  62  94 120 159 213 249 304 372
#
# _framework density 22.706948000000001
#
# number of rings (size 3 to 8) (size 9 to 14) (size 15 to 20)
#    0.750    1.000    2.500    2.250    3.500    3.000 
#    4.500    1.875    0.000    0.000    0.000    0.000 
#    0.000    0.000    0.000    0.000    0.000    0.000 
#
# Total GULP energy -89308.561004 kJ/mol
# GULP energy per Si atom -5581.785063 kJ/mol
# Density = 2.265527 g / cm^3
# Si number density = 22.706948 Si / 1000 Ang^3
#
#
#
# Elastic Constant Matrix: (Units=GPa)
#
#
# Indices 1 2 3 4 5 6 
#
# 1 44.2398 -3.4824 25.4118 12.5652 -16.9683 11.2355
# 2 -3.4824 39.6755 24.2247 -8.4271 -5.5954 8.3138
# 3 25.4118 24.2247 143.9353 -15.9558 -36.2001 10.0437
# 4 12.5652 -8.4271 -15.9558 38.7160 9.8456 1.6424
# 5 -16.9683 -5.5954 -36.2001 9.8456 35.2698 3.7479
# 6 11.2355 8.3138 10.0437 1.6424 3.7479 25.2537
#
#
#
# Elastic Compliance Matrix: (Units=1/GPa)
#
#
# Indices 1 2 3 4 5 6 
#
# 1 0.052260 0.012734 -0.003534 -0.022796 0.033029 -0.029457
# 2 0.012734 0.033721 -0.004701 -0.000186 0.008417 -0.016134
# 3 -0.003534 -0.004701 0.010930 0.002624 0.008319 -0.002632
# 4 -0.022796 -0.000186 0.002624 0.039000 -0.020213 0.009623
# 5 0.033029 0.008417 0.008319 -0.020213 0.062817 -0.028782
# 6 -0.029457 -0.016134 -0.002632 0.009623 -0.028782 0.062707
#
#
# Mechanical properties :
#
#
# Convention : Reuss Voigt Hill
#
# Bulk Modulus (GPa) = 9.44231 35.57321 22.50776
# Shear Modulus (GPa) = 17.37667 31.96103 24.66885
#
# Velocity S-wave (km/s) = 2.76933 3.75579 3.29964
# Velocity P-wave (km/s) = 3.79380 5.87437 4.94475
#
# Compressibility (1/GPa) = 0.10590634
#
# Stress axis : x y z
#
# Youngs Moduli (GPa) = 19.13491 29.65526 91.49515
#
# Poissons Ratio (x) = -0.37762 0.32339
# Poissons Ratio (y) = -0.24366 0.43016
# Poissons Ratio (z) = 0.06763 0.13942
#
# Static dielectric constant tensor:
#      x y z
#    x 1.911820 -0.019510 0.006120 
#    y -0.019510 1.854910 -0.037360 
#    z 0.006120 -0.037360 1.893220 
# 
# From -- ./inp_files/217861.got.cif
#   From: 2010.05.17/outbox.cif.g08.bks.cpg/sg2_109_cif.got.tgz:217861.got - 2010.06.03 11:33:40.
