data_PCOD9054990
_publ_section_title
;
Structure prediction by ZEFSAII (Michael W. Deem and Ramdas Pophale) SiO2 
 PCOD9054990
Probable space group: P -1
;
_chemical_formula_sum "Si O2"
_cell_formula_units_Z 16
_cell_length_a 12.369813
_cell_length_b 11.412476
_cell_length_c 7.782468
_cell_angle_alpha 129.625734
_cell_angle_beta 46.568871
_cell_angle_gamma 124.466013
_cell_volume 598.351646
_symmetry_space_group_name_H-M "P -1"
_symmetry_group_IT_number 2
_symmetry_cell_setting 'triclinic'
loop_
_space_group_symop_operation_xyz
x,y,z
-x,-y,-z
loop_
_atom_site_type_symbol
_atom_site_label
_atom_site_fract_x
_atom_site_fract_y
_atom_site_fract_z
Si Si1 0.642395 0.415632 0.270385
Si Si2 0.892396 0.700580 0.177689
Si Si3 0.298182 0.034049 0.356201
Si Si4 0.410405 0.969279 0.788733
Si Si5 0.548322 0.307411 0.924639
Si Si6 0.728343 0.512718 0.636086
Si Si7 0.092832 0.931371 0.978764
Si Si8 0.998024 0.209120 0.499072
O O1 0.500000 0.500000 0.500000
O O2 0.788652 0.531312 0.135251
O O3 0.591062 0.288729 0.060396
O O4 0.695483 0.404051 0.397730
O O5 0.002234 0.731862 0.250565
O O6 0.783641 0.821918 0.429922
O O7 0.992007 0.759025 0.960007
O O8 0.444220 0.096847 0.377532
O O9 0.176035 0.885711 0.434419
O O10 0.343835 0.992007 0.075534
O O11 0.485840 0.133297 0.769958
O O12 0.262917 0.910199 0.777652
O O13 0.403344 0.387802 0.144894
O O14 0.683107 0.410230 0.759667
O O15 0.891429 0.639121 0.569609
O O16 0.084416 0.065388 0.255978
O O17 0.000000 0.000000 0.000000
#
# Coordination Sequence:
#
# PCOD9054990 Si02
#       8
#     2   2   2   2   2   2   2   2
#     4   9  18  30  54  85 109 144 190 239 288 323
#     4  10  18  35  56  83 110 144 194 234 272 346
#     4  10  19  33  61  80 113 155 189 230 290 349
#     4  11  20  36  54  89 115 150 187 233 296 342
#     4  10  19  33  55  86 115 142 193 243 281 345
#     4   9  18  31  55  78 112 149 188 242 278 334
#     4  11  21  31  55  84 113 143 187 239 280 334
#     4  10  17  36  55  81 109 148 197 228 285 336
#
# _framework density 26.740131999999999
#
# number of rings (size 3 to 8) (size 9 to 14) (size 15 to 20)
#    0.000    2.000    3.750    2.250    1.750    1.000 
#    0.000    3.125    0.000    6.000    3.250    0.000 
#    0.000    0.000    0.000    0.000    0.000    0.000 
#
# Total GULP energy -89398.676206 kJ/mol
# GULP energy per Si atom -5587.417263 kJ/mol
# Density = 2.667927 g / cm^3
# Si number density = 26.740132 Si / 1000 Ang^3
#
#
#
# Elastic Constant Matrix: (Units=GPa)
#
#
# Indices 1 2 3 4 5 6 
#
# 1 145.2917 33.1965 42.4557 -9.9596 -5.0140 9.3269
# 2 33.1965 102.1672 26.5090 -42.1750 -9.0744 5.6607
# 3 42.4557 26.5090 82.5941 -18.7489 -10.2324 0.2081
# 4 -9.9596 -42.1750 -18.7489 45.9525 -0.5275 -4.3450
# 5 -5.0140 -9.0744 -10.2324 -0.5275 42.4922 -5.8240
# 6 9.3269 5.6607 0.2081 -4.3450 -5.8240 39.3506
#
#
#
# Elastic Compliance Matrix: (Units=1/GPa)
#
#
# Indices 1 2 3 4 5 6 
#
# 1 0.008684 -0.002747 -0.004277 -0.002589 -0.000906 -0.002060
# 2 -0.002747 0.017362 -0.000243 0.015317 0.003567 0.000374
# 3 -0.004277 -0.000243 0.016123 0.005673 0.003689 0.002136
# 4 -0.002589 0.015317 0.005673 0.037950 0.005262 0.003349
# 5 -0.000906 0.003567 0.003689 0.005262 0.025700 0.004067
# 6 -0.002060 0.000374 0.002136 0.003349 0.004067 0.026808
#
#
# Mechanical properties :
#
#
# Convention : Reuss Voigt Hill
#
# Bulk Modulus (GPa) = 36.18447 59.37503 47.77975
# Shear Modulus (GPa) = 31.97517 40.75184 36.36351
#
# Velocity S-wave (km/s) = 3.46175 3.90807 3.69166
# Velocity P-wave (km/s) = 5.43503 6.52815 6.00651
#
# Compressibility (1/GPa) = 0.02763616
#
# Stress axis : x y z
#
# Youngs Moduli (GPa) = 115.15996 57.59571 62.02280
#
# Poissons Ratio (x) = 0.15822 0.26526
# Poissons Ratio (y) = 0.31635 0.01505
# Poissons Ratio (z) = 0.49252 0.01397
#
# Static dielectric constant tensor:
#      x y z
#    x 2.073740 -0.022430 0.090680 
#    y -0.022430 2.098450 -0.034460 
#    z 0.090680 -0.034460 2.242120 
# 
# From -- ./inp_files/243908.got.cif
#   From: 2010.05.17/outbox.cif.g08.bks.cpg/sg2_122_cif.got.tgz:243908.got - 2010.06.03 11:33:40.
