data_PCOD9054854
_publ_section_title
;
Structure prediction by ZEFSAII (Michael W. Deem and Ramdas Pophale) SiO2 
 PCOD9054854
Probable space group: P -1
;
_chemical_formula_sum "Si O2"
_cell_formula_units_Z 12
_cell_length_a 9.832818
_cell_length_b 10.607111
_cell_length_c 9.110242
_cell_angle_alpha 116.576998
_cell_angle_beta 40.349760
_cell_angle_gamma 94.709061
_cell_volume 492.144014
_symmetry_space_group_name_H-M "P -1"
_symmetry_group_IT_number 2
_symmetry_cell_setting 'triclinic'
loop_
_space_group_symop_operation_xyz
x,y,z
-x,-y,-z
loop_
_atom_site_type_symbol
_atom_site_label
_atom_site_fract_x
_atom_site_fract_y
_atom_site_fract_z
Si Si1 0.103739 0.763878 0.814011
Si Si2 0.890472 0.241706 0.651081
Si Si3 0.988759 0.495092 0.830371
Si Si4 0.535925 0.292184 0.746368
Si Si5 0.779506 0.099707 0.934775
Si Si6 0.585981 0.965744 0.242225
O O1 0.315355 0.770056 0.556688
O O2 0.136655 0.586256 0.705291
O O3 0.084442 0.845016 0.028683
O O4 0.865238 0.863743 0.976315
O O5 0.041645 0.326818 0.632290
O O6 0.703133 0.341123 0.731877
O O7 0.742414 0.220419 0.896647
O O8 0.061563 0.072126 0.354197
O O9 0.723782 0.597240 0.039352
O O10 0.000000 0.500000 0.000000
O O11 0.522304 0.150952 0.775674
O O12 0.568249 0.090292 0.196563
O O13 0.500000 0.000000 0.500000
#
# Coordination Sequence:
#
# PCOD9054854 Si02
#       6
#     2   2   2   2   2   2
#     4  11  22  44  72  98 140 185 234 283 345 417
#     4  11  24  45  69 106 146 177 230 291 351 407
#     4  11  25  47  71  99 137 187 240 282 347 419
#     4  11  24  43  72 102 138 185 233 289 344 413
#     4  11  22  42  73 102 143 183 222 292 346 411
#     4  11  21  38  71 106 138 182 234 278 345 415
#
# _framework density 24.383109000000001
#
# number of rings (size 3 to 8) (size 9 to 14) (size 15 to 20)
#    0.000    1.000    5.000    2.000    0.000    2.000 
#    3.000    0.000    0.000    0.000    0.000    0.000 
#    0.000    0.000    0.000    0.000    0.000    0.000 
#
# Total GULP energy -67030.733549 kJ/mol
# GULP energy per Si atom -5585.894462 kJ/mol
# Density = 2.432761 g / cm^3
# Si number density = 24.383109 Si / 1000 Ang^3
#
#
#
# Elastic Constant Matrix: (Units=GPa)
#
#
# Indices 1 2 3 4 5 6 
#
# 1 121.8212 41.9546 8.5276 7.7943 26.9009 21.2265
# 2 41.9546 121.3665 36.2623 -18.0839 19.0367 16.4383
# 3 8.5276 36.2623 62.4566 -17.6605 7.5999 4.7396
# 4 7.7943 -18.0839 -17.6605 37.2180 -1.5726 11.6329
# 5 26.9009 19.0367 7.5999 -1.5726 35.0322 0.2176
# 6 21.2265 16.4383 4.7396 11.6329 0.2176 45.0739
#
#
#
# Elastic Compliance Matrix: (Units=1/GPa)
#
#
# Indices 1 2 3 4 5 6 
#
# 1 0.011682 -0.002905 0.000521 -0.002761 -0.007605 -0.003747
# 2 -0.002905 0.012540 -0.004548 0.005711 -0.003315 -0.004185
# 3 0.000521 -0.004548 0.021572 0.008798 -0.002194 -0.003115
# 4 -0.002761 0.005711 0.008798 0.037942 -0.001118 -0.011495
# 5 -0.007605 -0.003315 -0.002194 -0.001118 0.036581 0.005133
# 6 -0.003747 -0.004185 -0.003115 -0.011495 0.005133 0.028746
#
#
# Mechanical properties :
#
#
# Convention : Reuss Voigt Hill
#
# Bulk Modulus (GPa) = 31.31928 53.23705 42.27816
# Shear Modulus (GPa) = 28.80663 38.05815 33.43239
#
# Velocity S-wave (km/s) = 3.44090 3.95503 3.70689
# Velocity P-wave (km/s) = 5.35341 6.53738 5.97479
#
# Compressibility (1/GPa) = 0.03192922
#
# Stress axis : x y z
#
# Youngs Moduli (GPa) = 85.60403 79.74207 46.35660
#
# Poissons Ratio (x) = 0.23162 -0.02413
# Poissons Ratio (y) = 0.24864 0.21085
# Poissons Ratio (z) = -0.04457 0.36270
#
# Static dielectric constant tensor:
#      x y z
#    x 1.926130 0.017600 0.043230 
#    y 0.017600 2.072330 0.066050 
#    z 0.043230 0.066050 1.957970 
# 
# From -- ./inp_files/68042.got.cif
#   From: 2010.05.17/outbox.cif.g08.bks.cpg/sg2_35_cif.got.tgz:68042.got - 2010.06.03 11:33:40.
