data_PCOD9054510
_publ_section_title
;
Structure prediction by ZEFSAII (Michael W. Deem and Ramdas Pophale) SiO2 
 PCOD9054510
Probable space group: P -1
;
_chemical_formula_sum "Si O2"
_cell_formula_units_Z 14
_cell_length_a 10.417849
_cell_length_b 7.045402
_cell_length_c 8.983253
_cell_angle_alpha 105.440131
_cell_angle_beta 72.796760
_cell_angle_gamma 65.057062
_cell_volume 509.619578
_symmetry_space_group_name_H-M "P -1"
_symmetry_group_IT_number 2
_symmetry_cell_setting 'triclinic'
loop_
_space_group_symop_operation_xyz
x,y,z
-x,-y,-z
loop_
_atom_site_type_symbol
_atom_site_label
_atom_site_fract_x
_atom_site_fract_y
_atom_site_fract_z
Si Si1 0.241265 0.212130 0.052508
Si Si2 0.063822 0.135969 0.599178
Si Si3 0.876743 0.403958 0.240228
Si Si4 0.385603 0.149098 0.709148
Si Si5 0.180698 0.711004 0.057432
Si Si6 0.770652 0.540484 0.638960
Si Si7 0.641297 0.239592 0.735961
O O1 0.213663 0.460621 0.053382
O O2 0.298900 0.210366 0.202205
O O3 0.067862 0.250199 0.130485
O O4 0.354517 0.041600 0.845396
O O5 0.205843 0.331594 0.745031
O O6 0.001159 0.127056 0.781718
O O7 0.952277 0.389469 0.614532
O O8 0.000000 0.000000 0.500000
O O9 0.800671 0.472399 0.442594
O O10 0.816794 0.288903 0.119836
O O11 0.472447 0.276625 0.771176
O O12 0.500000 0.000000 0.500000
O O13 0.242244 0.990230 0.450908
O O14 0.294210 0.773100 0.120288
O O15 0.663280 0.441603 0.706350
#
# Coordination Sequence:
#
# PCOD9054510 Si02
#       7
#     2   2   2   2   2   2   2
#     4   9  20  37  56  81 111 150 188 220 269 333
#     4   7  14  31  54  79 104 142 177 218 270 318
#     4  11  21  35  58  88 110 143 191 227 273 324
#     4  11  24  36  59  83 110 150 182 233 274 328
#     4   8  16  31  57  79 104 146 187 227 252 326
#     4   9  19  36  62  81 109 148 183 234 272 323
#     4   9  19  36  56  83 114 141 186 224 286 323
#
# _framework density 27.47147
#
# number of rings (size 3 to 8) (size 9 to 14) (size 15 to 20)
#    0.000    3.429    0.000    2.143    6.000    5.714 
#    0.000    7.143    0.000    0.000    0.000    0.000 
#    0.000    0.000    0.000    0.000    0.000    0.000 
#
# Total GULP energy -78041.457577 kJ/mol
# GULP energy per Si atom -5574.389827 kJ/mol
# Density = 2.740894 g / cm^3
# Si number density = 27.471470 Si / 1000 Ang^3
#
#
#
# Elastic Constant Matrix: (Units=GPa)
#
#
# Indices 1 2 3 4 5 6 
#
# 1 144.4650 14.4723 47.9014 -22.9322 0.6323 15.0289
# 2 14.4723 44.2685 15.0603 -1.5542 7.3432 12.1500
# 3 47.9014 15.0603 281.9553 -25.6246 7.1963 15.8804
# 4 -22.9322 -1.5542 -25.6246 32.0035 6.3721 1.7224
# 5 0.6323 7.3432 7.1963 6.3721 45.4409 5.5048
# 6 15.0289 12.1500 15.8804 1.7224 5.5048 39.8889
#
#
#
# Elastic Compliance Matrix: (Units=1/GPa)
#
#
# Indices 1 2 3 4 5 6 
#
# 1 0.008480 -0.001575 -0.000689 0.005635 -0.000223 -0.002653
# 2 -0.001575 0.025682 -0.000589 0.000664 -0.003333 -0.006564
# 3 -0.000689 -0.000589 0.004050 0.002945 -0.000806 -0.001189
# 4 0.005635 0.000664 0.002945 0.039025 -0.005590 -0.004412
# 5 -0.000223 -0.003333 -0.000806 -0.005590 0.023654 -0.001603
# 6 -0.002653 -0.006564 -0.001189 -0.004412 -0.001603 0.028954
#
#
# Mechanical properties :
#
#
# Convention : Reuss Voigt Hill
#
# Bulk Modulus (GPa) = 30.76308 69.50630 50.13469
# Shear Modulus (GPa) = 34.15596 49.68364 41.91980
#
# Velocity S-wave (km/s) = 3.52991 4.25732 3.91057
# Velocity P-wave (km/s) = 5.27600 7.03723 6.21927
#
# Compressibility (1/GPa) = 0.03250649
#
# Stress axis : x y z
#
# Youngs Moduli (GPa) = 117.92550 38.93734 246.88770
#
# Poissons Ratio (x) = 0.06131 0.17017
# Poissons Ratio (y) = 0.18569 0.14546
# Poissons Ratio (z) = 0.08128 0.02294
#
# Static dielectric constant tensor:
#      x y z
#    x 2.162540 -0.107090 0.023590 
#    y -0.107090 2.376130 0.079770 
#    z 0.023590 0.079770 2.399120 
# 
# From -- ./inp_files/240931.got.cif
#   From: 2010.05.17/outbox.cif.g08.bks.cpg/sg2_121_cif.got.tgz:240931.got - 2010.06.03 11:33:40.
