data_PCOD9054994
_publ_section_title
;
Structure prediction by ZEFSAII (Michael W. Deem and Ramdas Pophale) SiO2 
 PCOD9054994
Probable space group: P -1
;
_chemical_formula_sum "Si O2"
_cell_formula_units_Z 14
_cell_length_a 8.838261
_cell_length_b 21.666654
_cell_length_c 8.497452
_cell_angle_alpha 31.902596
_cell_angle_beta 111.199355
_cell_angle_gamma 124.052835
_cell_volume 688.019737
_symmetry_space_group_name_H-M "P -1"
_symmetry_group_IT_number 2
_symmetry_cell_setting 'triclinic'
loop_
_space_group_symop_operation_xyz
x,y,z
-x,-y,-z
loop_
_atom_site_type_symbol
_atom_site_label
_atom_site_fract_x
_atom_site_fract_y
_atom_site_fract_z
Si Si1 0.346291 0.645935 0.440839
Si Si2 0.558082 0.150444 0.249667
Si Si3 0.802562 0.863044 0.687444
Si Si4 0.383164 0.140978 0.694387
Si Si5 0.260755 0.849031 0.373489
Si Si6 0.989505 0.405918 0.342559
Si Si7 0.709208 0.566988 0.366274
O O1 0.533141 0.731232 0.433542
O O2 0.171899 0.613057 0.557018
O O3 0.309129 0.510350 0.635416
O O4 0.367383 0.748021 0.088188
O O5 0.371786 0.142874 0.269303
O O6 0.715565 0.193312 0.351619
O O7 0.500000 0.000000 0.500000
O O8 0.748076 0.858194 0.494128
O O9 0.803860 0.727520 0.026658
O O10 0.000000 0.000000 0.500000
O O11 0.563774 0.145859 0.666221
O O12 0.285513 0.997266 0.059321
O O13 0.076386 0.739402 0.448631
O O14 0.174298 0.459347 0.400755
O O15 0.000000 0.500000 0.000000
O O16 0.500000 0.500000 0.500000
#
# Coordination Sequence:
#
# PCOD9054994 Si02
#       7
#     2   2   2   2   2   2   2
#     4  11  23  43  69  98 132 179 233 276 336 411
#     4  11  21  39  70 101 132 174 226 279 336 400
#     4  11  25  44  66  96 139 180 223 277 346 400
#     4   9  19  37  63  94 123 174 219 271 328 390
#     4   9  18  36  64  91 129 164 222 278 319 382
#     4  11  25  44  69  97 130 180 238 277 330 409
#     4  12  26  45  66  99 147 178 216 285 354 403
#
# _framework density 20.348253
#
# number of rings (size 3 to 8) (size 9 to 14) (size 15 to 20)
#    0.000    1.429    2.857    2.143    8.000    0.571 
#    0.000    0.714    0.000    0.000    0.000    0.000 
#    0.000    0.000    0.000    0.000    0.000    0.000 
#
# Total GULP energy -78245.644627 kJ/mol
# GULP energy per Si atom -5588.974616 kJ/mol
# Density = 2.030194 g / cm^3
# Si number density = 20.348253 Si / 1000 Ang^3
#
#
#
# Elastic Constant Matrix: (Units=GPa)
#
#
# Indices 1 2 3 4 5 6 
#
# 1 61.7284 52.3510 38.2550 3.8815 -11.7004 -3.7622
# 2 52.3510 181.6267 58.7177 -0.0025 -0.2281 3.0777
# 3 38.2550 58.7177 127.9992 2.0819 -8.5056 -4.1858
# 4 3.8815 -0.0025 2.0819 45.2701 -8.4175 1.5132
# 5 -11.7004 -0.2281 -8.5056 -8.4175 29.2200 -2.1124
# 6 -3.7622 3.0777 -4.1858 1.5132 -2.1124 29.2749
#
#
#
# Elastic Compliance Matrix: (Units=1/GPa)
#
#
# Indices 1 2 3 4 5 6 
#
# 1 0.026140 -0.006239 -0.004186 -0.000445 0.009370 0.004116
# 2 -0.006239 0.008015 -0.002096 0.000115 -0.003170 -0.002179
# 3 -0.004186 -0.002096 0.010155 0.000108 0.001384 0.001229
# 4 -0.000445 0.000115 0.000108 0.023363 0.006527 -0.000790
# 5 0.009370 -0.003170 0.001384 0.006527 0.040546 0.004324
# 6 0.004116 -0.002179 0.001229 -0.000790 0.004324 0.035445
#
#
# Mechanical properties :
#
#
# Convention : Reuss Voigt Hill
#
# Bulk Modulus (GPa) = 51.89795 74.44462 63.17129
# Shear Modulus (GPa) = 28.55041 35.55506 32.05273
#
# Velocity S-wave (km/s) = 3.74985 4.18464 3.97319
# Velocity P-wave (km/s) = 6.65648 7.74680 7.22225
#
# Compressibility (1/GPa) = 0.01926858
#
# Stress axis : x y z
#
# Youngs Moduli (GPa) = 38.25506 124.77240 98.47079
#
# Poissons Ratio (x) = 0.77849 0.41219
# Poissons Ratio (y) = 0.23868 0.20636
# Poissons Ratio (z) = 0.16013 0.26148
#
# Static dielectric constant tensor:
#      x y z
#    x 1.720690 -0.012500 -0.001130 
#    y -0.012500 1.733960 -0.021210 
#    z -0.001130 -0.021210 1.715050 
# 
# From -- ./inp_files/222901.got.cif
#   From: 2010.05.17/outbox.cif.g08.bks.cpg/sg2_112_cif.got.tgz:222901.got - 2010.06.03 11:33:40.
