data_PCOD9054820
_publ_section_title
;
Structure prediction by ZEFSAII (Michael W. Deem and Ramdas Pophale) SiO2 
 PCOD9054820
Probable space group: P -1
;
_chemical_formula_sum "Si O2"
_cell_formula_units_Z 16
_cell_length_a 9.994264
_cell_length_b 16.553249
_cell_length_c 9.343253
_cell_angle_alpha 84.124181
_cell_angle_beta 73.071317
_cell_angle_gamma 140.037876
_cell_volume 805.503516
_symmetry_space_group_name_H-M "P -1"
_symmetry_group_IT_number 2
_symmetry_cell_setting 'triclinic'
loop_
_space_group_symop_operation_xyz
x,y,z
-x,-y,-z
loop_
_atom_site_type_symbol
_atom_site_label
_atom_site_fract_x
_atom_site_fract_y
_atom_site_fract_z
Si Si1 0.548323 0.436075 0.922945
Si Si2 0.949893 0.899759 0.827753
Si Si3 0.529637 0.931125 0.419583
Si Si4 0.665911 0.601599 0.293056
Si Si5 0.012138 0.395398 0.868069
Si Si6 0.433856 0.884701 0.121736
Si Si7 0.960050 0.075151 0.865888
Si Si8 0.893758 0.368674 0.223298
O O1 0.488974 0.424870 0.775893
O O2 0.829226 0.534277 0.837025
O O3 0.500000 0.500000 0.000000
O O4 0.332291 0.270562 0.085555
O O5 0.176818 0.955539 0.685191
O O6 0.018482 0.027047 0.756587
O O7 0.963582 0.900401 0.996449
O O8 0.461177 0.908072 0.278260
O O9 0.330906 0.772429 0.580962
O O10 0.500000 0.000000 0.500000
O O11 0.500000 0.500000 0.500000
O O12 0.899029 0.772654 0.241157
O O13 0.773912 0.570541 0.197848
O O14 0.832511 0.280825 0.815193
O O15 0.101935 0.531372 0.795149
O O16 0.858799 0.321397 0.079154
O O17 0.500000 0.000000 0.000000
O O18 0.656098 0.932904 0.991181
#
# Coordination Sequence:
#
# PCOD9054820 Si02
#       8
#     2   2   2   2   2   2   2   2
#     4  11  21  41  67  88 124 172 211 250 327 390
#     4   9  20  38  61  90 120 156 208 263 305 376
#     4  11  24  40  66  98 126 164 217 265 316 386
#     4  11  24  39  65  91 128 164 213 264 315 387
#     4  11  24  44  62  93 133 173 208 265 334 371
#     4  11  21  38  67  91 127 166 209 258 323 384
#     4   9  19  38  61  86 119 163 201 255 319 369
#     4  11  25  42  67  93 132 170 216 269 316 388
#
# _framework density 19.863350000000001
#
# number of rings (size 3 to 8) (size 9 to 14) (size 15 to 20)
#    0.000    1.500    2.500    2.250    5.250    1.500 
#    0.000    0.000    0.000    3.750    0.000    0.000 
#    0.000    0.000    0.000    0.000    0.000    0.000 
#
# Total GULP energy -89292.831648 kJ/mol
# GULP energy per Si atom -5580.801978 kJ/mol
# Density = 1.981814 g / cm^3
# Si number density = 19.863350 Si / 1000 Ang^3
#
#
#
# Elastic Constant Matrix: (Units=GPa)
#
#
# Indices 1 2 3 4 5 6 
#
# 1 49.1228 24.3707 10.5940 5.3204 0.6777 -14.4720
# 2 24.3707 60.6794 28.2965 -5.6273 -9.1670 -15.9849
# 3 10.5940 28.2965 104.2340 -9.3289 7.2679 -14.1337
# 4 5.3204 -5.6273 -9.3289 29.0165 -5.0102 -3.0805
# 5 0.6777 -9.1670 7.2679 -5.0102 24.4863 3.6988
# 6 -14.4720 -15.9849 -14.1337 -3.0805 3.6988 41.2133
#
#
#
# Elastic Compliance Matrix: (Units=1/GPa)
#
#
# Indices 1 2 3 4 5 6 
#
# 1 0.029183 -0.012775 0.001141 -0.008312 -0.008510 0.005827
# 2 -0.012775 0.028376 -0.006081 0.008712 0.013986 0.003831
# 3 0.001141 -0.006081 0.012090 0.001772 -0.005966 0.002856
# 4 -0.008312 0.008712 0.001772 0.040437 0.010768 0.003124
# 5 -0.008510 0.013986 -0.005966 0.010768 0.050793 -0.003363
# 6 0.005827 0.003831 0.002856 0.003124 -0.003363 0.029311
#
#
# Mechanical properties :
#
#
# Convention : Reuss Voigt Hill
#
# Bulk Modulus (GPa) = 29.22143 37.83984 33.53064
# Shear Modulus (GPa) = 21.09470 28.99489 25.04480
#
# Velocity S-wave (km/s) = 3.26236 3.82477 3.55470
# Velocity P-wave (km/s) = 5.37901 6.21262 5.81078
#
# Compressibility (1/GPa) = 0.03422145
#
# Stress axis : x y z
#
# Youngs Moduli (GPa) = 34.26652 35.24047 82.70977
#
# Poissons Ratio (x) = 0.45018 -0.09440
# Poissons Ratio (y) = 0.43774 0.50296
# Poissons Ratio (z) = -0.03911 0.21430
#
# Static dielectric constant tensor:
#      x y z
#    x 1.796750 -0.018100 0.009370 
#    y -0.018100 1.725500 -0.006840 
#    z 0.009370 -0.006840 1.668260 
# 
# From -- ./inp_files/189910.got.cif
#   From: 2010.05.17/outbox.cif.g08.bks.cpg/sg2_95_cif.got.tgz:189910.got - 2010.06.03 11:33:40.
