data_PCOD9054932
_publ_section_title
;
Structure prediction by ZEFSAII (Michael W. Deem and Ramdas Pophale) SiO2 
 PCOD9054932
Probable space group: P -1
;
_chemical_formula_sum "Si O2"
_cell_formula_units_Z 16
_cell_length_a 8.979422
_cell_length_b 14.404542
_cell_length_c 10.944566
_cell_angle_alpha 119.042570
_cell_angle_beta 137.548151
_cell_angle_gamma 83.720223
_cell_volume 757.469186
_symmetry_space_group_name_H-M "P -1"
_symmetry_group_IT_number 2
_symmetry_cell_setting 'triclinic'
loop_
_space_group_symop_operation_xyz
x,y,z
-x,-y,-z
loop_
_atom_site_type_symbol
_atom_site_label
_atom_site_fract_x
_atom_site_fract_y
_atom_site_fract_z
Si Si1 0.586802 0.819666 0.946665
Si Si2 0.786151 0.371950 0.789129
Si Si3 0.571243 0.927560 0.743596
Si Si4 0.690372 0.789800 0.503805
Si Si5 0.187763 0.815545 0.890056
Si Si6 0.155526 0.976019 0.393627
Si Si7 0.074346 0.777429 0.049065
Si Si8 0.523456 0.630721 0.621896
O O1 0.539882 0.867088 0.818088
O O2 0.398885 0.824169 0.933838
O O3 0.525272 0.683319 0.791436
O O4 0.868201 0.903296 0.205646
O O5 0.553190 0.332166 0.713964
O O6 0.903725 0.288664 0.859066
O O7 0.677538 0.356817 0.578145
O O8 0.000000 0.500000 0.000000
O O9 0.634068 0.857902 0.628947
O O10 0.338618 0.952543 0.580505
O O11 0.785568 0.054520 0.978751
O O12 0.919682 0.758396 0.635192
O O13 0.755890 0.887046 0.497425
O O14 0.207968 0.763861 0.000951
O O15 0.170404 0.910325 0.235181
O O16 0.794876 0.719645 0.803792
O O17 0.500000 0.500000 0.500000
#
# Coordination Sequence:
#
# PCOD9054932 Si02
#       8
#     2   2   2   2   2   2   2   2
#     4  11  25  42  60  96 139 170 206 259 321 396
#     4  12  23  39  69  97 116 157 225 275 312 363
#     4  12  21  39  64  93 131 175 214 256 310 379
#     4  12  21  39  65  95 127 168 214 265 310 380
#     4  12  24  39  61  97 141 172 201 256 333 383
#     4  11  22  39  65  98 128 170 220 259 315 372
#     4  11  21  39  66  94 127 162 215 267 310 375
#     4  11  22  42  70  91 117 165 221 270 312 366
#
# _framework density 21.122971
#
# number of rings (size 3 to 8) (size 9 to 14) (size 15 to 20)
#    0.000    0.500    7.500    2.625    0.000    0.500 
#    2.250    0.625    0.000    1.500    0.000    0.000 
#    0.000    0.000    0.000    0.000    0.000    0.000 
#
# Total GULP energy -89183.035254 kJ/mol
# GULP energy per Si atom -5573.939703 kJ/mol
# Density = 2.107489 g / cm^3
# Si number density = 21.122971 Si / 1000 Ang^3
#
#
#
# Elastic Constant Matrix: (Units=GPa)
#
#
# Indices 1 2 3 4 5 6 
#
# 1 95.4649 13.4017 16.6302 -12.9405 18.7473 -3.6166
# 2 13.4017 79.9504 23.7195 0.5291 6.5325 6.2508
# 3 16.6302 23.7195 124.5728 -1.7687 35.7057 2.8448
# 4 -12.9405 0.5291 -1.7687 41.7473 -4.6223 5.0557
# 5 18.7473 6.5325 35.7057 -4.6223 25.8615 -1.4059
# 6 -3.6166 6.2508 2.8448 5.0557 -1.4059 15.2006
#
#
#
# Elastic Compliance Matrix: (Units=1/GPa)
#
#
# Indices 1 2 3 4 5 6 
#
# 1 0.012987 -0.001958 0.001705 0.002736 -0.010693 0.001677
# 2 -0.001958 0.013950 -0.002605 -0.000089 0.001173 -0.005577
# 3 0.001705 -0.002605 0.014229 -0.000764 -0.020514 -0.002829
# 4 0.002736 -0.000089 -0.000764 0.026052 0.003342 -0.007525
# 5 -0.010693 0.001173 -0.020514 0.003342 0.075406 0.006675
# 6 0.001677 -0.005577 -0.002829 -0.007525 0.006675 0.072129
#
#
# Mechanical properties :
#
#
# Convention : Reuss Voigt Hill
#
# Bulk Modulus (GPa) = 28.20924 45.27676 36.74300
# Shear Modulus (GPa) = 21.52513 32.97766 27.25140
#
# Velocity S-wave (km/s) = 3.19570 3.95552 3.59574
# Velocity P-wave (km/s) = 5.19620 6.50714 5.88826
#
# Compressibility (1/GPa) = 0.03544937
#
# Stress axis : x y z
#
# Youngs Moduli (GPa) = 76.99811 71.68696 70.27656
#
# Poissons Ratio (x) = 0.14038 -0.11979
# Poissons Ratio (y) = 0.15078 0.18306
# Poissons Ratio (z) = -0.13125 0.18674
#
# Static dielectric constant tensor:
#      x y z
#    x 1.764640 0.003760 0.007380 
#    y 0.003760 1.851290 0.007990 
#    z 0.007380 0.007990 1.840870 
# 
# From -- ./inp_files/258653.got.cif
#   From: 2010.05.17/outbox.cif.g08.bks.cpg/sg2_130_cif.got.tgz:258653.got - 2010.06.03 11:33:40.
