data_PCOD9054969
_publ_section_title
;
Structure prediction by ZEFSAII (Michael W. Deem and Ramdas Pophale) SiO2 
 PCOD9054969
Probable space group: P -1
;
_chemical_formula_sum "Si O2"
_cell_formula_units_Z 16
_cell_length_a 9.656411
_cell_length_b 14.413311
_cell_length_c 15.682449
_cell_angle_alpha 34.897555
_cell_angle_beta 45.255076
_cell_angle_gamma 70.860490
_cell_volume 700.046122
_symmetry_space_group_name_H-M "P -1"
_symmetry_group_IT_number 2
_symmetry_cell_setting 'triclinic'
loop_
_space_group_symop_operation_xyz
x,y,z
-x,-y,-z
loop_
_atom_site_type_symbol
_atom_site_label
_atom_site_fract_x
_atom_site_fract_y
_atom_site_fract_z
Si Si1 0.428215 0.760728 0.253593
Si Si2 0.259471 0.991742 0.221298
Si Si3 0.066327 0.009848 0.061674
Si Si4 0.052399 0.404376 0.971606
Si Si5 0.443770 0.275114 0.439548
Si Si6 0.940932 0.624672 0.196251
Si Si7 0.510294 0.058952 0.241917
Si Si8 0.753479 0.932732 0.489925
O O1 0.666647 0.924561 0.085839
O O2 0.284697 0.536045 0.524047
O O3 0.242264 0.814856 0.309115
O O4 0.541927 0.810343 0.072847
O O5 0.364235 0.007181 0.257252
O O6 0.997114 0.945786 0.377796
O O7 0.083729 0.199043 0.951251
O O8 0.000000 0.000000 0.000000
O O9 0.829507 0.803036 0.360235
O O10 0.334057 0.497457 0.799933
O O11 0.053697 0.468519 0.825475
O O12 0.000000 0.500000 0.000000
O O13 0.855475 0.160581 0.245508
O O14 0.483936 0.124305 0.586849
O O15 0.431896 0.228950 0.379515
O O16 0.203525 0.744213 0.038291
O O17 0.382150 0.105237 0.334051
#
# Coordination Sequence:
#
# PCOD9054969 Si02
#       8
#     2   2   2   2   2   2   2   2
#     4  11  23  43  65  89 138 181 225 272 335 403
#     4  11  25  44  64  90 137 191 215 272 343 394
#     4  11  21  39  68  99 132 173 218 288 336 382
#     4  12  22  38  72 105 133 173 218 280 344 396
#     4  11  22  41  69 102 131 169 225 277 343 386
#     4  11  23  41  67 105 134 166 235 284 329 403
#     4  11  22  42  67  95 135 178 215 280 338 391
#     4  12  23  46  66 101 143 171 225 283 331 403
#
# _framework density 22.855636000000001
#
# number of rings (size 3 to 8) (size 9 to 14) (size 15 to 20)
#    0.000    0.750    5.000    4.875    0.000    1.500 
#    2.250    0.625    0.000    0.000    0.000    0.000 
#    0.000    0.000    0.000    0.000    0.000    0.000 
#
# Total GULP energy -89470.281847 kJ/mol
# GULP energy per Si atom -5591.892615 kJ/mol
# Density = 2.280362 g / cm^3
# Si number density = 22.855636 Si / 1000 Ang^3
#
#
#
# Elastic Constant Matrix: (Units=GPa)
#
#
# Indices 1 2 3 4 5 6 
#
# 1 106.8259 17.6020 1.3323 14.6833 -8.4245 20.6802
# 2 17.6020 55.5286 -12.7202 16.0481 2.8289 9.6316
# 3 1.3323 -12.7202 72.3403 9.5864 -11.4245 6.7702
# 4 14.6833 16.0481 9.5864 31.4942 2.7764 -6.1060
# 5 -8.4245 2.8289 -11.4245 2.7764 27.7123 12.9121
# 6 20.6802 9.6316 6.7702 -6.1060 12.9121 43.2323
#
#
#
# Elastic Compliance Matrix: (Units=1/GPa)
#
#
# Indices 1 2 3 4 5 6 
#
# 1 0.015033 0.002696 0.005995 -0.014545 0.015390 -0.015381
# 2 0.002696 0.029166 0.011947 -0.024205 0.013110 -0.016992
# 3 0.005995 0.011947 0.023783 -0.021614 0.021266 -0.018658
# 4 -0.014545 -0.024205 -0.021614 0.067323 -0.034115 0.035433
# 5 0.015390 0.013110 0.021266 -0.034115 0.069929 -0.039317
# 6 -0.015381 -0.016992 -0.018658 0.035433 -0.039317 0.053943
#
#
# Mechanical properties :
#
#
# Convention : Reuss Voigt Hill
#
# Bulk Modulus (GPa) = 9.15286 27.45812 18.30549
# Shear Modulus (GPa) = 19.66028 35.71981 27.69005
#
# Velocity S-wave (km/s) = 2.93609 3.95757 3.48446
# Velocity P-wave (km/s) = 3.93795 5.73785 4.92090
#
# Compressibility (1/GPa) = 0.10925548
#
# Stress axis : x y z
#
# Youngs Moduli (GPa) = 66.52194 34.28669 42.04748
#
# Poissons Ratio (x) = -0.09242 -0.25206
# Poissons Ratio (y) = -0.17931 -0.50234
# Poissons Ratio (z) = -0.39877 -0.40962
#
# Static dielectric constant tensor:
#      x y z
#    x 1.856910 -0.029850 0.015300 
#    y -0.029850 1.910760 0.015880 
#    z 0.015300 0.015880 1.875620 
# 
# From -- ./inp_files/455905.got.cif
#   From: 2010.05.17/outbox.cif.g08.bks.cpg/sg2_228_cif.got.tgz:455905.got - 2010.06.03 11:33:40.
