data_PCOD9054680
_publ_section_title
;
Structure prediction by ZEFSAII (Michael W. Deem and Ramdas Pophale) SiO2 
 PCOD9054680
Probable space group: P -1
;
_chemical_formula_sum "Si O2"
_cell_formula_units_Z 12
_cell_length_a 8.645873
_cell_length_b 11.831592
_cell_length_c 9.798160
_cell_angle_alpha 135.341319
_cell_angle_beta 121.605631
_cell_angle_gamma 39.034958
_cell_volume 442.771050
_symmetry_space_group_name_H-M "P -1"
_symmetry_group_IT_number 2
_symmetry_cell_setting 'triclinic'
loop_
_space_group_symop_operation_xyz
x,y,z
-x,-y,-z
loop_
_atom_site_type_symbol
_atom_site_label
_atom_site_fract_x
_atom_site_fract_y
_atom_site_fract_z
Si Si1 0.635265 0.121858 0.419499
Si Si2 0.002064 0.729089 0.436669
Si Si3 0.489208 0.276060 0.194360
Si Si4 0.867008 0.752277 0.679478
Si Si5 0.021980 0.358117 0.070614
Si Si6 0.440770 0.510254 0.140130
O O1 0.663627 0.135074 0.281700
O O2 0.419814 0.119037 0.335815
O O3 0.536776 0.338513 0.637630
O O4 0.872303 0.924861 0.441893
O O5 0.936654 0.813556 0.633549
O O6 0.291266 0.525982 0.376166
O O7 0.902470 0.605906 0.258791
O O8 0.296898 0.243602 0.054185
O O9 0.580259 0.291759 0.106939
O O10 0.000000 0.500000 0.500000
O O11 0.953125 0.750557 0.868359
O O12 0.842228 0.381977 0.903431
O O13 0.500000 0.500000 0.000000
#
# Coordination Sequence:
#
# PCOD9054680 Si02
#       6
#     2   2   2   2   2   2
#     4  11  21  37  65  90 114 157 204 244 286 350
#     4   9  19  36  67  85 114 156 213 230 282 361
#     4   9  22  41  65  80 120 165 197 233 294 365
#     4   9  15  34  60  85 115 157 194 231 285 357
#     4   8  19  38  62  83 121 157 192 238 299 348
#     4  12  23  36  62  93 121 153 193 252 309 336
#
# _framework density 27.102042999999998
#
# number of rings (size 3 to 8) (size 9 to 14) (size 15 to 20)
#    1.000    1.333    1.667    3.500    0.000    0.667 
#    0.000    1.667   11.000    0.000    0.000    0.000 
#    0.000    0.000    0.000    0.000    0.000    0.000 
#
# Total GULP energy -67208.150416 kJ/mol
# GULP energy per Si atom -5600.679201 kJ/mol
# Density = 2.704036 g / cm^3
# Si number density = 27.102043 Si / 1000 Ang^3
#
#
#
# Elastic Constant Matrix: (Units=GPa)
#
#
# Indices 1 2 3 4 5 6 
#
# 1 87.2801 49.6699 46.2808 -25.8410 -9.8648 21.3800
# 2 49.6699 187.2842 47.3876 -46.8845 -9.5325 30.0720
# 3 46.2808 47.3876 108.8588 -32.0748 -17.0448 9.8968
# 4 -25.8410 -46.8845 -32.0748 49.0520 0.6114 -11.0496
# 5 -9.8648 -9.5325 -17.0448 0.6114 50.6270 -27.9831
# 6 21.3800 30.0720 9.8968 -11.0496 -27.9831 43.8482
#
#
#
# Elastic Compliance Matrix: (Units=1/GPa)
#
#
# Indices 1 2 3 4 5 6 
#
# 1 0.017692 -0.001550 -0.005975 0.002253 -0.003097 -0.007624
# 2 -0.001550 0.007890 -0.001149 0.005071 -0.001526 -0.004092
# 3 -0.005975 -0.001149 0.014755 0.006819 0.007199 0.006683
# 4 0.002253 0.005071 0.006819 0.032225 0.006811 0.006352
# 5 -0.003097 -0.001526 0.007199 0.006811 0.035020 0.024998
# 6 -0.007624 -0.004092 0.006683 0.006352 0.024998 0.045375
#
#
# Mechanical properties :
#
#
# Convention : Reuss Voigt Hill
#
# Bulk Modulus (GPa) = 43.49585 74.45550 58.97567
# Shear Modulus (GPa) = 28.09503 44.71109 36.40306
#
# Velocity S-wave (km/s) = 3.22318 4.06609 3.66892
# Velocity P-wave (km/s) = 5.47134 7.04103 6.30522
#
# Compressibility (1/GPa) = 0.02299070
#
# Stress axis : x y z
#
# Youngs Moduli (GPa) = 56.52205 126.74255 67.77340
#
# Poissons Ratio (x) = 0.19642 0.40495
# Poissons Ratio (y) = 0.08759 0.07784
# Poissons Ratio (z) = 0.33772 0.14556
#
# Static dielectric constant tensor:
#      x y z
#    x 2.192280 0.020830 -0.039210 
#    y 0.020830 2.084750 0.066550 
#    z -0.039210 0.066550 2.147750 
# 
# From -- ./inp_files/263532.got.cif
#   From: 2010.05.17/outbox.cif.g08.bks.cpg/sg2_132_cif.got.tgz:263532.got - 2010.06.03 11:33:40.
