data_PCOD9054776
_publ_section_title
;
Structure prediction by ZEFSAII (Michael W. Deem and Ramdas Pophale) SiO2 
 PCOD9054776
Probable space group: P -1
;
_chemical_formula_sum "Si O2"
_cell_formula_units_Z 15
_cell_length_a 14.772749
_cell_length_b 16.428551
_cell_length_c 9.853496
_cell_angle_alpha 127.577726
_cell_angle_beta 110.053590
_cell_angle_gamma 26.458583
_cell_volume 690.832038
_symmetry_space_group_name_H-M "P -1"
_symmetry_group_IT_number 2
_symmetry_cell_setting 'triclinic'
loop_
_space_group_symop_operation_xyz
x,y,z
-x,-y,-z
loop_
_atom_site_type_symbol
_atom_site_label
_atom_site_fract_x
_atom_site_fract_y
_atom_site_fract_z
Si Si1 0.369072 0.409988 0.228182
Si Si2 0.146529 0.730123 0.940068
Si Si3 0.140067 0.185319 0.045827
Si Si4 0.876989 0.192191 0.296246
Si Si5 0.894487 0.489922 0.949723
Si Si6 0.000000 0.500000 0.500000
Si Si7 0.428449 0.744598 0.127652
Si Si8 0.599134 0.999146 0.634036
O O1 0.131146 0.568580 0.241647
O O2 0.286340 0.588173 0.455389
O O3 0.469365 0.347465 0.067953
O O4 0.585437 0.131912 0.129537
O O5 0.374557 0.507760 0.934802
O O6 0.036662 0.723665 0.877402
O O7 0.220872 0.691453 0.787944
O O8 0.926052 0.023398 0.171067
O O9 0.107293 0.324151 0.248396
O O10 0.034935 0.301692 0.958266
O O11 0.156726 0.963458 0.209822
O O12 0.605364 0.792244 0.141391
O O13 0.000000 0.500000 0.000000
O O14 0.861956 0.713374 0.539677
O O15 0.411012 0.878758 0.312000
O O16 0.500000 0.000000 0.500000
#
# Coordination Sequence:
#
# PCOD9054776 Si02
#       8
#     2   2   2   2   2   1   2   2
#     4  11  25  46  67 102 136 181 225 282 341 401
#     4  11  23  47  70 101 136 176 231 283 339 405
#     4  12  23  45  68  95 138 183 221 281 342 401
#     4  11  26  43  71 104 134 178 232 281 339 407
#     4  11  25  43  61  96 137 170 229 279 327 408
#     4  12  20  38  70  90 122 180 220 256 338 400
#     4  11  22  46  68  95 142 176 227 281 339 404
#     4  11  21  38  64  92 123 179 218 267 338 391
#
# _framework density 21.712947
#
# number of rings (size 3 to 8) (size 9 to 14) (size 15 to 20)
#    0.000    0.800    8.000    0.400    1.867    3.733 
#    4.800    0.000    0.000    0.000    0.000    0.000 
#    0.000    0.000    0.000    0.000    0.000    0.000 
#
# Total GULP energy -83539.827359 kJ/mol
# GULP energy per Si atom -5569.321824 kJ/mol
# Density = 2.166353 g / cm^3
# Si number density = 21.712947 Si / 1000 Ang^3
#
#
#
# Elastic Constant Matrix: (Units=GPa)
#
#
# Indices 1 2 3 4 5 6 
#
# 1 38.7458 25.4186 -2.5894 7.4630 -1.7497 4.1819
# 2 25.4186 154.7657 52.9485 15.8541 14.7249 30.3292
# 3 -2.5894 52.9485 123.0212 7.4032 18.7253 6.0617
# 4 7.4630 15.8541 7.4032 21.5829 -5.3295 8.2995
# 5 -1.7497 14.7249 18.7253 -5.3295 24.3705 4.3411
# 6 4.1819 30.3292 6.0617 8.2995 4.3411 29.5147
#
#
#
# Elastic Compliance Matrix: (Units=1/GPa)
#
#
# Indices 1 2 3 4 5 6 
#
# 1 0.031499 -0.006291 0.003603 -0.008706 0.000749 0.003599
# 2 -0.006291 0.010996 -0.003856 -0.002024 -0.003043 -0.008599
# 3 0.003603 -0.003856 0.011235 -0.005760 -0.008006 0.003942
# 4 -0.008706 -0.002024 -0.005760 0.064834 0.022231 -0.017005
# 5 0.000749 -0.003043 -0.008006 0.022231 0.055680 -0.009776
# 6 0.003599 -0.008599 0.003942 -0.017005 -0.009776 0.047618
#
#
# Mechanical properties :
#
#
# Convention : Reuss Voigt Hill
#
# Bulk Modulus (GPa) = 24.60491 52.00979 38.30735
# Shear Modulus (GPa) = 20.12085 31.14395 25.63240
#
# Velocity S-wave (km/s) = 3.04744 3.79139 3.43959
# Velocity P-wave (km/s) = 4.87227 6.57050 5.78405
#
# Compressibility (1/GPa) = 0.04064230
#
# Stress axis : x y z
#
# Youngs Moduli (GPa) = 31.74675 90.94213 89.00568
#
# Poissons Ratio (x) = 0.57211 -0.32070
# Poissons Ratio (y) = 0.19972 0.34324
# Poissons Ratio (z) = -0.11439 0.35071
#
# Static dielectric constant tensor:
#      x y z
#    x 1.884260 -0.051470 0.044020 
#    y -0.051470 1.782370 -0.040540 
#    z 0.044020 -0.040540 1.827430 
# 
# From -- ./inp_files/313970.got.cif
#   From: 2010.05.17/outbox.cif.g08.bks.cpg/sg2_157_cif.got.tgz:313970.got - 2010.06.03 11:33:40.
