data_PCOD9054244
_publ_section_title
;
Structure prediction by ZEFSAII (Michael W. Deem and Ramdas Pophale) SiO2 
 PCOD9054244
Probable space group: P -1
;
_chemical_formula_sum "Si O2"
_cell_formula_units_Z 16
_cell_length_a 11.904689
_cell_length_b 8.561784
_cell_length_c 15.756339
_cell_angle_alpha 85.721449
_cell_angle_beta 26.842993
_cell_angle_gamma 93.583832
_cell_volume 692.803833
_symmetry_space_group_name_H-M "P -1"
_symmetry_group_IT_number 2
_symmetry_cell_setting 'triclinic'
loop_
_space_group_symop_operation_xyz
x,y,z
-x,-y,-z
loop_
_atom_site_type_symbol
_atom_site_label
_atom_site_fract_x
_atom_site_fract_y
_atom_site_fract_z
Si Si1 0.699401 0.252425 0.044715
Si Si2 0.949671 0.184795 0.271249
Si Si3 0.415108 0.477022 0.776599
Si Si4 0.389050 0.921974 0.351391
Si Si5 0.471655 0.307777 0.020727
Si Si6 0.244496 0.486176 0.615877
Si Si7 0.117291 0.158399 0.970769
Si Si8 0.236009 0.661287 0.335462
O O1 0.644348 0.366723 0.150601
O O2 0.588408 0.072145 0.164540
O O3 0.522724 0.253216 0.081555
O O4 0.999738 0.331865 0.812112
O O5 0.743854 0.052108 0.472979
O O6 0.857383 0.350672 0.317545
O O7 0.202462 0.225255 0.158936
O O8 0.007202 0.127032 0.141809
O O9 0.648505 0.527049 0.550102
O O10 0.144947 0.350273 0.929848
O O11 0.520957 0.396696 0.790148
O O12 0.578817 0.816299 0.253426
O O13 0.200560 0.804403 0.414816
O O14 0.690455 0.278874 0.811393
O O15 0.500000 0.500000 0.000000
O O16 0.500000 0.500000 0.500000
O O17 0.000000 0.000000 0.000000
O O18 0.000000 0.500000 0.500000
#
# Coordination Sequence:
#
# PCOD9054244 Si02
#       8
#     2   2   2   2   2   2   2   2
#     4  12  27  46  70 112 151 186 241 309 357 427
#     4  12  23  49  72 105 146 190 244 291 367 442
#     4  11  23  46  69 106 139 190 245 287 369 432
#     4  11  27  44  69 111 148 185 245 298 364 423
#     4  12  20  41  77 101 141 196 235 289 362 438
#     4  12  26  45  76 105 141 190 249 299 362 435
#     4  11  24  46  77  99 141 196 248 296 358 434
#     4  11  20  41  72 101 142 195 238 287 355 443
#
# _framework density 23.094562
#
# number of rings (size 3 to 8) (size 9 to 14) (size 15 to 20)
#    0.000    0.500    8.750    1.500    1.750    4.000 
#    0.000    0.000    0.000    0.000    0.000    0.000 
#    0.000    0.000    0.000    0.000    0.000    0.000 
#
# Total GULP energy -89263.413080 kJ/mol
# GULP energy per Si atom -5578.963317 kJ/mol
# Density = 2.304200 g / cm^3
# Si number density = 23.094562 Si / 1000 Ang^3
#
#
#
# Elastic Constant Matrix: (Units=GPa)
#
#
# Indices 1 2 3 4 5 6 
#
# 1 99.5262 33.2219 48.8478 4.8782 -1.5416 14.6855
# 2 33.2219 78.4089 49.6212 -10.1953 8.9286 31.8966
# 3 48.8478 49.6212 168.4886 -3.7388 31.3816 19.8493
# 4 4.8782 -10.1953 -3.7388 41.1241 9.5924 10.2249
# 5 -1.5416 8.9286 31.3816 9.5924 41.4305 4.4610
# 6 14.6855 31.8966 19.8493 10.2249 4.4610 41.7830
#
#
#
# Elastic Compliance Matrix: (Units=1/GPa)
#
#
# Indices 1 2 3 4 5 6 
#
# 1 0.013777 -0.005478 -0.003723 -0.005049 0.005493 0.001758
# 2 -0.005478 0.027557 -0.002912 0.013443 -0.004842 -0.020500
# 3 -0.003723 -0.002912 0.009324 0.002393 -0.007049 -0.000731
# 4 -0.005049 0.013443 0.002393 0.035332 -0.011240 -0.017071
# 5 0.005493 -0.004842 -0.007049 -0.011240 0.032857 0.004357
# 6 0.001758 -0.020500 -0.000731 -0.017071 0.004357 0.043025
#
#
# Mechanical properties :
#
#
# Convention : Reuss Voigt Hill
#
# Bulk Modulus (GPa) = 37.83429 67.75616 52.79522
# Shear Modulus (GPa) = 25.65307 39.18304 32.41806
#
# Velocity S-wave (km/s) = 3.33646 4.12349 3.75068
# Velocity P-wave (km/s) = 5.59111 7.21617 6.45499
#
# Compressibility (1/GPa) = 0.02643105
#
# Stress axis : x y z
#
# Youngs Moduli (GPa) = 72.58672 36.28901 107.24718
#
# Poissons Ratio (x) = 0.19879 0.39927
# Poissons Ratio (y) = 0.39763 0.31233
# Poissons Ratio (z) = 0.27023 0.10568
#
# Static dielectric constant tensor:
#      x y z
#    x 1.975220 0.109230 -0.032160 
#    y 0.109230 2.005630 -0.016640 
#    z -0.032160 -0.016640 1.902730 
# 
# From -- ./inp_files/515610.got.cif
#   From: 2010.05.17/outbox.cif.g08.bks.cpg/sg2_258_cif.got.tgz:515610.got - 2010.06.03 11:33:40.
