data_PCOD9054895
_publ_section_title
;
Structure prediction by ZEFSAII (Michael W. Deem and Ramdas Pophale) SiO2 
 PCOD9054895
Probable space group: P -1
;
_chemical_formula_sum "Si O2"
_cell_formula_units_Z 16
_cell_length_a 29.632968
_cell_length_b 8.571685
_cell_length_c 5.709729
_cell_angle_alpha 85.874881
_cell_angle_beta 113.715219
_cell_angle_gamma 143.456080
_cell_volume 701.713349
_symmetry_space_group_name_H-M "P -1"
_symmetry_group_IT_number 2
_symmetry_cell_setting 'triclinic'
loop_
_space_group_symop_operation_xyz
x,y,z
-x,-y,-z
loop_
_atom_site_type_symbol
_atom_site_label
_atom_site_fract_x
_atom_site_fract_y
_atom_site_fract_z
Si Si1 0.221409 0.607961 0.334102
Si Si2 0.329141 0.880173 0.112508
Si Si3 0.360387 0.493810 0.738789
Si Si4 0.462845 0.019457 0.610993
Si Si5 0.978108 0.258246 0.476049
Si Si6 0.609397 0.761666 0.190794
Si Si7 0.957075 0.713088 0.895021
Si Si8 0.221180 0.328113 0.680442
O O1 0.232900 0.645957 0.077305
O O2 0.153307 0.549808 0.311689
O O3 0.193757 0.362766 0.396627
O O4 0.327075 0.937616 0.584805
O O5 0.421852 0.064258 0.408573
O O6 0.300750 0.650114 0.927097
O O7 0.356852 0.114080 0.016896
O O8 0.359732 0.322985 0.636815
O O9 0.267850 0.291192 0.706337
O O10 0.381692 0.702885 0.603868
O O11 0.451817 0.721335 0.066251
O O12 0.500000 0.000000 0.500000
O O13 0.000000 0.500000 0.500000
O O14 0.010888 0.271896 0.291756
O O15 0.867700 0.932954 0.314154
O O16 0.021085 0.314090 0.809202
O O17 0.500000 0.500000 0.000000
O O18 0.000000 0.000000 0.000000
#
# Coordination Sequence:
#
# PCOD9054895 Si02
#       8
#     2   2   2   2   2   2   2   2
#     4  11  25  44  72 100 138 187 239 293 352 443
#     4  11  23  43  68  96 133 185 237 283 351 425
#     4  11  24  39  65  97 137 176 229 289 349 416
#     4  11  21  39  63  94 131 181 229 275 346 422
#     4  12  29  50  77 113 155 190 242 319 384 443
#     4  11  26  43  64 101 144 179 231 296 350 416
#     4  12  26  50  81 110 147 201 253 304 376 455
#     4  11  24  44  70 100 137 183 236 296 358 439
#
# _framework density 22.801335000000002
#
# number of rings (size 3 to 8) (size 9 to 14) (size 15 to 20)
#    0.000    0.750    3.750    3.000    8.750    3.000 
#    2.250    0.000    0.000    0.000    0.000    0.000 
#    0.000    0.000    0.000    0.000    0.000    0.000 
#
# Total GULP energy -89247.646462 kJ/mol
# GULP energy per Si atom -5577.977904 kJ/mol
# Density = 2.274944 g / cm^3
# Si number density = 22.801335 Si / 1000 Ang^3
#
#
#
# Elastic Constant Matrix: (Units=GPa)
#
#
# Indices 1 2 3 4 5 6 
#
# 1 131.6518 48.6829 19.4202 -9.4993 -7.5401 27.4590
# 2 48.6829 94.8433 24.6113 -3.7193 -0.3465 6.7654
# 3 19.4202 24.6113 54.3180 -12.0076 2.9584 5.3707
# 4 -9.4993 -3.7193 -12.0076 35.5989 0.6244 2.0387
# 5 -7.5401 -0.3465 2.9584 0.6244 35.0157 -3.3756
# 6 27.4590 6.7654 5.3707 2.0387 -3.3756 49.4635
#
#
#
# Elastic Compliance Matrix: (Units=1/GPa)
#
#
# Indices 1 2 3 4 5 6 
#
# 1 0.010905 -0.004937 -0.000701 0.002428 0.001806 -0.005279
# 2 -0.004937 0.014256 -0.005180 -0.001650 -0.000320 0.001399
# 3 -0.000701 -0.005180 0.022904 0.007146 -0.002443 -0.001850
# 4 0.002428 -0.001650 0.007146 0.031180 -0.000966 -0.003249
# 5 0.001806 -0.000320 -0.002443 -0.000966 0.029298 0.001346
# 6 -0.005279 0.001399 -0.001850 -0.003249 0.001346 0.023383
#
#
# Mechanical properties :
#
#
# Convention : Reuss Voigt Hill
#
# Bulk Modulus (GPa) = 37.83905 51.80467 44.82186
# Shear Modulus (GPa) = 30.79376 36.55554 33.67465
#
# Velocity S-wave (km/s) = 3.67893 4.00837 3.84718
# Velocity P-wave (km/s) = 5.88874 6.64771 6.27970
#
# Compressibility (1/GPa) = 0.02642772
#
# Stress axis : x y z
#
# Youngs Moduli (GPa) = 91.70489 70.14441 43.66121
#
# Poissons Ratio (x) = 0.34629 0.03063
# Poissons Ratio (y) = 0.45274 0.22617
# Poissons Ratio (z) = 0.06433 0.36335
#
# Static dielectric constant tensor:
#      x y z
#    x 1.896040 0.065860 -0.081760 
#    y 0.065860 1.942270 -0.093490 
#    z -0.081760 -0.093490 2.093060 
# 
# From -- ./inp_files/55366.got.cif
#   From: 2010.05.17/outbox.cif.g08.bks.cpg/sg2_28_cif.got.tgz:55366.got - 2010.06.03 11:33:40.
