data_PCOD9054476
_publ_section_title
;
Structure prediction by ZEFSAII (Michael W. Deem and Ramdas Pophale) SiO2 
 PCOD9054476
Probable space group: P -1
;
_chemical_formula_sum "Si O2"
_cell_formula_units_Z 14
_cell_length_a 16.603350
_cell_length_b 5.352566
_cell_length_c 25.737820
_cell_angle_alpha 99.426621
_cell_angle_beta 163.801510
_cell_angle_gamma 81.798794
_cell_volume 628.580794
_symmetry_space_group_name_H-M "P -1"
_symmetry_group_IT_number 2
_symmetry_cell_setting 'triclinic'
loop_
_space_group_symop_operation_xyz
x,y,z
-x,-y,-z
loop_
_atom_site_type_symbol
_atom_site_label
_atom_site_fract_x
_atom_site_fract_y
_atom_site_fract_z
Si Si1 0.329285 0.516275 0.512223
Si Si2 0.515199 0.109427 0.115477
Si Si3 0.957607 0.722117 0.940109
Si Si4 0.019619 0.600175 0.216639
Si Si5 0.717934 0.572091 0.186350
Si Si6 0.361936 0.867870 0.359104
Si Si7 0.212783 0.853629 0.002326
O O1 0.621284 0.672297 0.713774
O O2 0.217218 0.585006 0.387959
O O3 0.419645 0.224337 0.551359
O O4 0.050504 0.551807 0.375399
O O5 0.669059 0.364411 0.195410
O O6 0.655505 0.862919 0.170907
O O7 0.182208 0.162854 0.895087
O O8 0.465072 0.050698 0.144316
O O9 0.205538 0.713911 0.048259
O O10 0.000000 0.500000 0.000000
O O11 0.000000 0.000000 0.000000
O O12 0.211033 0.619884 0.284256
O O13 0.824018 0.348322 0.074478
O O14 0.500000 0.500000 0.000000
O O15 0.500000 0.000000 0.500000
O O16 0.089585 0.010444 0.175804
#
# Coordination Sequence:
#
# PCOD9054476 Si02
#       7
#     2   2   2   2   2   2   2
#     4  12  24  43  70 103 152 184 228 291 354 423
#     4  11  24  41  65 104 140 187 226 266 346 430
#     4  12  29  49  70 103 137 187 240 295 356 406
#     4  11  21  38  67 107 137 182 219 284 362 421
#     4  12  25  41  64 103 154 186 222 273 350 439
#     4  11  21  33  63 106 139 175 223 277 364 427
#     4  11  22  44  72  98 144 176 234 296 347 427
#
# _framework density 22.272393999999998
#
# number of rings (size 3 to 8) (size 9 to 14) (size 15 to 20)
#    0.000    0.571    5.714    2.571    4.000    2.286 
#    0.000    0.000    0.000    5.143    0.000    0.000 
#    0.000    0.000    0.000    0.000    0.000    0.000 
#
# Total GULP energy -78078.164864 kJ/mol
# GULP energy per Si atom -5577.011776 kJ/mol
# Density = 2.222170 g / cm^3
# Si number density = 22.272394 Si / 1000 Ang^3
#
#
#
# Elastic Constant Matrix: (Units=GPa)
#
#
# Indices 1 2 3 4 5 6 
#
# 1 106.9835 61.7187 52.4554 -13.2087 19.1477 18.2328
# 2 61.7187 153.5192 43.2954 -16.9218 15.5594 -5.6316
# 3 52.4554 43.2954 65.6703 -2.9930 29.7812 -14.8790
# 4 -13.2087 -16.9218 -2.9930 39.4437 -13.9777 7.0642
# 5 19.1477 15.5594 29.7812 -13.9777 36.8167 -5.2359
# 6 18.2328 -5.6316 -14.8790 7.0642 -5.2359 51.4301
#
#
#
# Elastic Compliance Matrix: (Units=1/GPa)
#
#
# Indices 1 2 3 4 5 6 
#
# 1 0.030216 -0.003545 -0.032694 0.015216 0.015003 -0.021121
# 2 -0.003545 0.009208 -0.004056 0.003206 0.002580 0.000914
# 3 -0.032694 -0.004056 0.069685 -0.028538 -0.044115 0.030735
# 4 0.015216 0.003206 -0.028538 0.042351 0.027575 -0.016309
# 5 0.015003 0.002580 -0.044115 0.027575 0.062254 -0.015249
# 6 -0.021121 0.000914 0.030735 -0.016309 -0.015249 0.036611
#
#
# Mechanical properties :
#
#
# Convention : Reuss Voigt Hill
#
# Bulk Modulus (GPa) = 35.06379 71.23466 53.14922
# Shear Modulus (GPa) = 14.68763 36.78501 25.73632
#
# Velocity S-wave (km/s) = 2.57077 4.06839 3.40299
# Velocity P-wave (km/s) = 4.95874 7.35676 6.27340
#
# Compressibility (1/GPa) = 0.02851945
#
# Stress axis : x y z
#
# Youngs Moduli (GPa) = 33.09528 108.59552 14.35020
#
# Poissons Ratio (x) = 0.38502 0.46916
# Poissons Ratio (y) = 0.11734 0.05820
# Poissons Ratio (z) = 1.08201 0.44047
#
# Static dielectric constant tensor:
#      x y z
#    x 1.549930 -0.023130 -0.323470 
#    y -0.023130 1.936180 -0.055270 
#    z -0.323470 -0.055270 1.583060 
# 
# From -- ./inp_files/611184.got.cif
#   From: 2010.05.17/outbox.cif.g08.bks.cpg/sg2_306_cif.got.tgz:611184.got - 2010.06.03 11:33:40.
