data_PCOD9054773
_publ_section_title
;
Structure prediction by ZEFSAII (Michael W. Deem and Ramdas Pophale) SiO2 
 PCOD9054773
Probable space group: P -1
;
_chemical_formula_sum "Si O2"
_cell_formula_units_Z 16
_cell_length_a 12.257979
_cell_length_b 11.576982
_cell_length_c 8.895777
_cell_angle_alpha 68.827038
_cell_angle_beta 35.368078
_cell_angle_gamma 69.783192
_cell_volume 678.331833
_symmetry_space_group_name_H-M "P -1"
_symmetry_group_IT_number 2
_symmetry_cell_setting 'triclinic'
loop_
_space_group_symop_operation_xyz
x,y,z
-x,-y,-z
loop_
_atom_site_type_symbol
_atom_site_label
_atom_site_fract_x
_atom_site_fract_y
_atom_site_fract_z
Si Si1 0.730568 0.599217 0.486484
Si Si2 0.477327 0.697778 0.339805
Si Si3 0.325237 0.549600 0.851938
Si Si4 0.004010 0.079546 0.308301
Si Si5 0.143286 0.667929 0.539008
Si Si6 0.328288 0.140208 0.726808
Si Si7 0.840918 0.951617 0.308604
Si Si8 0.993300 0.678311 0.366592
O O1 0.511187 0.576581 0.727518
O O2 0.845537 0.474447 0.354795
O O3 0.760930 0.723580 0.300729
O O4 0.800448 0.617124 0.570227
O O5 0.354999 0.621670 0.629239
O O6 0.653227 0.597560 0.141210
O O7 0.348083 0.715782 0.327936
O O8 0.531626 0.811673 0.327847
O O9 0.143416 0.612078 0.111787
O O10 0.994656 0.225727 0.280782
O O11 0.831549 0.046269 0.412617
O O12 0.000000 0.000000 0.500000
O O13 0.196599 0.056310 0.009452
O O14 0.083872 0.666083 0.433367
O O15 0.339649 0.070675 0.582012
O O16 0.934922 0.822523 0.331559
O O17 0.000000 0.000000 0.000000
#
# Coordination Sequence:
#
# PCOD9054773 Si02
#       8
#     2   2   2   2   2   2   2   2
#     4   9  21  39  60  98 121 153 211 240 308 376
#     4   9  20  39  56  93 122 154 202 250 309 363
#     4   9  20  38  61  88 133 156 196 258 296 373
#     4  11  22  40  62  86 124 157 207 260 296 354
#     4  11  23  37  60  93 127 159 197 251 312 369
#     4   9  20  40  64  84 119 158 202 255 299 362
#     4   9  20  39  61  84 113 161 214 247 289 361
#     4  11  21  38  64  89 123 170 197 246 320 364
#
# _framework density 23.587275000000002
#
# number of rings (size 3 to 8) (size 9 to 14) (size 15 to 20)
#    0.000    2.250    1.250    1.125    7.000    2.500 
#    2.250    1.250    8.250    0.000    0.000    0.000 
#    0.000    0.000    0.000    0.000    0.000    0.000 
#
# Total GULP energy -89170.008179 kJ/mol
# GULP energy per Si atom -5573.125511 kJ/mol
# Density = 2.353359 g / cm^3
# Si number density = 23.587275 Si / 1000 Ang^3
#
#
#
# Elastic Constant Matrix: (Units=GPa)
#
#
# Indices 1 2 3 4 5 6 
#
# 1 212.8953 47.5041 26.2089 -9.1043 -7.5230 40.2380
# 2 47.5041 55.6565 3.8470 -16.5628 -3.1781 34.2647
# 3 26.2089 3.8470 23.1269 2.0269 -1.6269 5.9082
# 4 -9.1043 -16.5628 2.0269 26.6924 4.1003 1.9702
# 5 -7.5230 -3.1781 -1.6269 4.1003 14.3476 6.3988
# 6 40.2380 34.2647 5.9082 1.9702 6.3988 48.8240
#
#
#
# Elastic Compliance Matrix: (Units=1/GPa)
#
#
# Indices 1 2 3 4 5 6 
#
# 1 0.006931 -0.003065 -0.006315 0.000644 0.003520 -0.003285
# 2 -0.003065 0.058442 0.003149 0.034944 0.020894 -0.043018
# 3 -0.006315 0.003149 0.051741 -0.004820 0.006373 -0.003908
# 4 0.000644 0.034944 -0.004820 0.061416 0.002123 -0.027228
# 5 0.003520 0.020894 0.006373 0.002123 0.089749 -0.030184
# 6 -0.003285 -0.043018 -0.003908 -0.027228 -0.030184 0.058906
#
#
# Mechanical properties :
#
#
# Convention : Reuss Voigt Hill
#
# Bulk Modulus (GPa) = 9.55542 49.64429 29.59985
# Shear Modulus (GPa) = 13.35003 32.24738 22.79871
#
# Velocity S-wave (km/s) = 2.38162 3.70151 3.11234
# Velocity P-wave (km/s) = 3.40921 6.27384 5.04895
#
# Compressibility (1/GPa) = 0.10465263
#
# Stress axis : x y z
#
# Youngs Moduli (GPa) = 144.27786 17.11111 19.32697
#
# Poissons Ratio (x) = 0.05244 0.12204
# Poissons Ratio (y) = 0.44216 -0.06085
# Poissons Ratio (z) = 0.91106 -0.05388
#
# Static dielectric constant tensor:
#      x y z
#    x 1.965800 0.031630 -0.011720 
#    y 0.031630 1.938450 0.038880 
#    z -0.011720 0.038880 1.863840 
# 
# From -- ./inp_files/254362.got.cif
#   From: 2010.05.17/outbox.cif.g08.bks.cpg/sg2_128_cif.got.tgz:254362.got - 2010.06.03 11:33:40.
