data_PCOD9054421
_publ_section_title
;
Structure prediction by ZEFSAII (Michael W. Deem and Ramdas Pophale) SiO2 
 PCOD9054421
Probable space group: P -1
;
_chemical_formula_sum "Si O2"
_cell_formula_units_Z 16
_cell_length_a 6.779895
_cell_length_b 8.847287
_cell_length_c 20.548045
_cell_angle_alpha 53.471981
_cell_angle_beta 53.350998
_cell_angle_gamma 58.357840
_cell_volume 766.736580
_symmetry_space_group_name_H-M "P -1"
_symmetry_group_IT_number 2
_symmetry_cell_setting 'triclinic'
loop_
_space_group_symop_operation_xyz
x,y,z
-x,-y,-z
loop_
_atom_site_type_symbol
_atom_site_label
_atom_site_fract_x
_atom_site_fract_y
_atom_site_fract_z
Si Si1 0.649474 0.297226 0.845335
Si Si2 0.262016 0.188415 0.501361
Si Si3 0.332250 0.349876 0.586944
Si Si4 0.803107 0.615787 0.666409
Si Si5 0.337281 0.024092 0.182896
Si Si6 0.786630 0.017799 0.638192
Si Si7 0.830559 0.716244 0.968832
Si Si8 0.073144 0.029163 0.904368
O O1 0.623607 0.513638 0.769366
O O2 0.416430 0.261904 0.942337
O O3 0.897282 0.229174 0.859410
O O4 0.686358 0.154881 0.812177
O O5 0.249071 0.278930 0.552311
O O6 0.291146 0.337339 0.401019
O O7 0.500000 0.000000 0.500000
O O8 0.007803 0.122245 0.551818
O O9 0.500000 0.500000 0.500000
O O10 0.081154 0.463590 0.646015
O O11 0.516152 0.167048 0.634920
O O12 0.815693 0.818309 0.644371
O O13 0.190239 0.030304 0.277434
O O14 0.631461 0.988403 0.152570
O O15 0.254499 0.216149 0.104933
O O16 0.000000 0.500000 0.000000
O O17 0.992813 0.861536 0.923182
O O18 0.000000 0.000000 0.000000
#
# Coordination Sequence:
#
# PCOD9054421 Si02
#       8
#     2   2   2   2   2   2   2   2
#     4  11  24  44  66 100 134 176 229 279 336 401
#     4  12  25  48  74  98 143 183 224 287 339 403
#     4  12  25  46  75 100 134 183 230 279 346 404
#     4  12  26  46  70 104 140 179 231 282 341 407
#     4  11  24  45  70  96 136 178 225 279 338 400
#     4  12  27  47  70 104 140 180 231 283 339 410
#     4  11  25  42  67  98 138 175 222 278 338 404
#     4  11  20  44  72  91 127 180 225 274 338 399
#
# _framework density 20.867660999999998
#
# number of rings (size 3 to 8) (size 9 to 14) (size 15 to 20)
#    0.000    0.500    5.000    3.750    3.500    3.500 
#    4.500    0.000    0.000    0.000    0.000    0.000 
#    0.000    0.000    0.000    0.000    0.000    0.000 
#
# Total GULP energy -89542.549686 kJ/mol
# GULP energy per Si atom -5596.409355 kJ/mol
# Density = 2.082017 g / cm^3
# Si number density = 20.867661 Si / 1000 Ang^3
#
#
#
# Elastic Constant Matrix: (Units=GPa)
#
#
# Indices 1 2 3 4 5 6 
#
# 1 88.3322 21.7692 21.1185 -11.9427 16.9977 -7.6498
# 2 21.7692 96.5776 12.9981 -9.6988 20.8452 -5.1009
# 3 21.1185 12.9981 106.5245 -9.3856 27.0240 6.8693
# 4 -11.9427 -9.6988 -9.3856 30.1570 3.5160 2.0222
# 5 16.9977 20.8452 27.0240 3.5160 35.3945 -1.9206
# 6 -7.6498 -5.1009 6.8693 2.0222 -1.9206 31.1556
#
#
#
# Elastic Compliance Matrix: (Units=1/GPa)
#
#
# Indices 1 2 3 4 5 6 
#
# 1 0.013859 -0.001087 -0.000861 0.005359 -0.005743 0.002713
# 2 -0.001087 0.012782 0.001164 0.004967 -0.008348 0.000732
# 3 -0.000861 0.001164 0.012929 0.005591 -0.010911 -0.003907
# 4 0.005359 0.004967 0.005591 0.040416 -0.013923 -0.002585
# 5 -0.005743 -0.008348 -0.010911 -0.013923 0.045824 0.003357
# 6 0.002713 0.000732 -0.003907 -0.002585 0.003357 0.034119
#
#
# Mechanical properties :
#
#
# Convention : Reuss Voigt Hill
#
# Bulk Modulus (GPa) = 26.31390 44.80066 35.55728
# Shear Modulus (GPa) = 28.70865 35.04466 31.87665
#
# Velocity S-wave (km/s) = 3.71313 4.10247 3.91264
# Velocity P-wave (km/s) = 5.56960 6.62992 6.12275
#
# Compressibility (1/GPa) = 0.03800273
#
# Stress axis : x y z
#
# Youngs Moduli (GPa) = 72.15405 78.23454 77.34779
#
# Poissons Ratio (x) = 0.08504 0.06657
# Poissons Ratio (y) = 0.07843 -0.09004
# Poissons Ratio (z) = 0.06210 -0.09107
#
# Static dielectric constant tensor:
#      x y z
#    x 1.733560 -0.005650 0.003260 
#    y -0.005650 1.734660 0.001220 
#    z 0.003260 0.001220 1.779320 
# 
# From -- ./inp_files/47202.got.cif
#   From: 2010.05.17/outbox.cif.g08.bks.cpg/sg2_24_cif.got.tgz:47202.got - 2010.06.03 11:33:40.
