data_PCOD9054478
_publ_section_title
;
Structure prediction by ZEFSAII (Michael W. Deem and Ramdas Pophale) SiO2 
 PCOD9054478
Probable space group: P -1
;
_chemical_formula_sum "Si O2"
_cell_formula_units_Z 16
_cell_length_a 14.328248
_cell_length_b 11.207847
_cell_length_c 7.593466
_cell_angle_alpha 77.247482
_cell_angle_beta 38.081554
_cell_angle_gamma 91.737338
_cell_volume 690.069648
_symmetry_space_group_name_H-M "P -1"
_symmetry_group_IT_number 2
_symmetry_cell_setting 'triclinic'
loop_
_space_group_symop_operation_xyz
x,y,z
-x,-y,-z
loop_
_atom_site_type_symbol
_atom_site_label
_atom_site_fract_x
_atom_site_fract_y
_atom_site_fract_z
Si Si1 0.264748 0.434673 0.727513
Si Si2 0.232793 0.683533 0.543294
Si Si3 0.379088 0.492843 0.940665
Si Si4 0.308159 0.958948 0.317632
Si Si5 0.806926 0.832921 0.958538
Si Si6 0.383954 0.234081 0.073713
Si Si7 0.875690 0.109617 0.757296
Si Si8 0.137753 0.627427 0.323690
O O1 0.194100 0.547081 0.744989
O O2 0.313352 0.461317 0.850647
O O3 0.429824 0.459520 0.367511
O O4 0.179130 0.279749 0.899263
O O5 0.233046 0.822088 0.575629
O O6 0.120834 0.651910 0.547391
O O7 0.424140 0.722986 0.200004
O O8 0.327250 0.355427 0.163972
O O9 0.302491 0.597030 0.081762
O O10 0.236978 0.926230 0.237442
O O11 0.291555 0.096844 0.348623
O O12 0.500000 0.000000 0.000000
O O13 0.647409 0.786910 0.086250
O O14 0.945623 0.855933 0.597341
O O15 0.830450 0.971545 0.967362
O O16 0.858925 0.240157 0.818915
O O17 0.000000 0.500000 0.500000
#
# Coordination Sequence:
#
# PCOD9054478 Si02
#       8
#     2   2   2   2   2   2   2   2
#     4   9  17  32  52  74  98 129 168 209 251 293
#     4   9  18  30  50  76  99 127 167 208 248 295
#     4   9  18  31  50  73 101 135 167 201 248 302
#     4   8  14  27  46  71  99 122 159 210 241 274
#     4   9  16  31  54  76  99 128 166 211 250 295
#     4   8  14  27  48  72  95 123 163 205 239 279
#     4   9  18  31  51  75  97 131 172 202 245 304
#     4  11  21  34  49  72 105 135 165 207 251 295
#
# _framework density 23.186063999999998
#
# number of rings (size 3 to 8) (size 9 to 14) (size 15 to 20)
#    0.000    3.000    0.000    2.250    0.000    2.000 
#    0.000    6.250    0.000    2.250    0.000    0.000 
#    0.000    0.000    0.000    0.000    0.000    0.000 
#
# Total GULP energy -89108.595490 kJ/mol
# GULP energy per Si atom -5569.287218 kJ/mol
# Density = 2.313329 g / cm^3
# Si number density = 23.186064 Si / 1000 Ang^3
#
#
#
# Elastic Constant Matrix: (Units=GPa)
#
#
# Indices 1 2 3 4 5 6 
#
# 1 67.2440 22.0055 24.0184 -19.6622 -9.3073 -3.6848
# 2 22.0055 213.2791 54.1089 -55.2872 22.9939 -45.1200
# 3 24.0184 54.1089 44.5200 -26.9591 -3.8175 -8.3969
# 4 -19.6622 -55.2872 -26.9591 45.7562 -14.6169 8.9481
# 5 -9.3073 22.9939 -3.8175 -14.6169 27.2328 -14.6697
# 6 -3.6848 -45.1200 -8.3969 8.9481 -14.6697 38.0842
#
#
#
# Elastic Compliance Matrix: (Units=1/GPa)
#
#
# Indices 1 2 3 4 5 6 
#
# 1 0.022090 0.001621 -0.002772 0.013894 0.016843 0.006670
# 2 0.001621 0.010002 -0.007811 0.006170 -0.001155 0.008390
# 3 -0.002772 -0.007811 0.059645 0.034699 0.038102 0.010152
# 4 0.013894 0.006170 0.034699 0.068380 0.052030 0.020280
# 5 0.016843 -0.001155 0.038102 0.052030 0.094385 0.032794
# 6 0.006670 0.008390 0.010152 0.020280 0.032794 0.046948
#
#
# Mechanical properties :
#
#
# Convention : Reuss Voigt Hill
#
# Bulk Modulus (GPa) = 13.54776 58.36763 35.95770
# Shear Modulus (GPa) = 14.53580 37.20868 25.87224
#
# Velocity S-wave (km/s) = 2.50655 4.01032 3.34406
# Velocity P-wave (km/s) = 3.77264 6.83168 5.51836
#
# Compressibility (1/GPa) = 0.07381295
#
# Stress axis : x y z
#
# Youngs Moduli (GPa) = 45.26896 99.98073 16.76591
#
# Poissons Ratio (x) = -0.16205 0.04647
# Poissons Ratio (y) = -0.07337 0.13096
# Poissons Ratio (z) = 0.12547 0.78096
#
# Static dielectric constant tensor:
#      x y z
#    x 1.939460 -0.030340 -0.008680 
#    y -0.030340 2.021550 -0.037370 
#    z -0.008680 -0.037370 1.914720 
# 
# From -- ./inp_files/259977.got.cif
#   From: 2010.05.17/outbox.cif.g08.bks.cpg/sg2_130_cif.got.tgz:259977.got - 2010.06.03 11:33:40.
