data_PCOD9054511
_publ_section_title
;
Structure prediction by ZEFSAII (Michael W. Deem and Ramdas Pophale) SiO2 
 PCOD9054511
Probable space group: P -1
;
_chemical_formula_sum "Si O2"
_cell_formula_units_Z 16
_cell_length_a 12.037795
_cell_length_b 11.501842
_cell_length_c 9.027414
_cell_angle_alpha 87.757724
_cell_angle_beta 54.335167
_cell_angle_gamma 120.256142
_cell_volume 772.176462
_symmetry_space_group_name_H-M "P -1"
_symmetry_group_IT_number 2
_symmetry_cell_setting 'triclinic'
loop_
_space_group_symop_operation_xyz
x,y,z
-x,-y,-z
loop_
_atom_site_type_symbol
_atom_site_label
_atom_site_fract_x
_atom_site_fract_y
_atom_site_fract_z
Si Si1 0.073615 0.920182 0.304517
Si Si2 0.165481 0.020050 0.564077
Si Si3 0.301488 0.844378 0.136281
Si Si4 0.497649 0.368219 0.313615
Si Si5 0.830074 0.447823 0.231466
Si Si6 0.241860 0.424748 0.466550
Si Si7 0.127766 0.737139 0.602785
Si Si8 0.720907 0.433865 0.873299
O O1 0.160757 0.008058 0.387638
O O2 0.201066 0.895786 0.131650
O O3 0.890473 0.746862 0.488445
O O4 0.006944 0.995284 0.263750
O O5 0.148012 0.879136 0.638340
O O6 0.343596 0.186065 0.463747
O O7 0.204221 0.776353 0.374672
O O8 0.295986 0.713639 0.078308
O O9 0.500000 0.000000 0.000000
O O10 0.672826 0.421525 0.261768
O O11 0.406399 0.443250 0.408395
O O12 0.565386 0.408352 0.089434
O O13 0.865995 0.560797 0.328460
O O14 0.771225 0.299011 0.371010
O O15 0.000000 0.500000 0.000000
O O16 0.296805 0.541065 0.286059
O O17 0.918974 0.584614 0.761738
#
# Coordination Sequence:
#
# PCOD9054511 Si02
#       8
#     2   2   2   2   2   2   2   2
#     4   9  18  35  62  87 128 165 198 271 329 371
#     4   9  19  38  60  91 126 166 210 257 332 379
#     4  11  21  35  58  96 130 161 209 270 328 374
#     4  11  25  40  65  97 132 175 212 263 328 394
#     4  12  25  43  64  93 132 180 217 261 325 390
#     4  11  22  42  67  95 130 166 223 272 319 379
#     4  11  21  39  63  91 127 169 213 268 318 384
#     4  12  20  38  67  99 123 162 224 276 323 376
#
# _framework density 20.720652999999999
#
# number of rings (size 3 to 8) (size 9 to 14) (size 15 to 20)
#    0.000    1.250    5.000    3.375    0.000    0.500 
#    2.250    0.000    0.000    1.500    0.000    0.000 
#    0.000    0.000    0.000    0.000    0.000    0.000 
#
# Total GULP energy -89278.813498 kJ/mol
# GULP energy per Si atom -5579.925844 kJ/mol
# Density = 2.067349 g / cm^3
# Si number density = 20.720653 Si / 1000 Ang^3
#
#
#
# Elastic Constant Matrix: (Units=GPa)
#
#
# Indices 1 2 3 4 5 6 
#
# 1 99.1857 18.8207 14.7709 8.5421 -14.9603 -12.8143
# 2 18.8207 79.0161 23.8219 2.5245 -6.4518 -21.7373
# 3 14.7709 23.8219 62.6533 9.3581 -17.4051 -8.6012
# 4 8.5421 2.5245 9.3581 29.2831 0.2325 -10.6218
# 5 -14.9603 -6.4518 -17.4051 0.2325 28.7428 6.3630
# 6 -12.8143 -21.7373 -8.6012 -10.6218 6.3630 30.6836
#
#
#
# Elastic Compliance Matrix: (Units=1/GPa)
#
#
# Indices 1 2 3 4 5 6 
#
# 1 0.011669 -0.001860 0.000073 -0.002765 0.005390 0.001501
# 2 -0.001860 0.018195 -0.006627 0.005868 -0.003841 0.013083
# 3 0.000073 -0.006627 0.022867 -0.008271 0.013323 -0.003880
# 4 -0.002765 0.005868 -0.008271 0.043598 -0.009407 0.017727
# 5 0.005390 -0.003841 0.013323 -0.009407 0.047036 -0.009746
# 6 0.001501 0.013083 -0.003880 0.017727 -0.009746 0.049556
#
#
# Mechanical properties :
#
#
# Convention : Reuss Voigt Hill
#
# Bulk Modulus (GPa) = 27.85277 39.52022 33.68650
# Shear Modulus (GPa) = 22.55124 29.97133 26.26128
#
# Velocity S-wave (km/s) = 3.30259 3.80734 3.56391
# Velocity P-wave (km/s) = 5.29283 6.20017 5.76438
#
# Compressibility (1/GPa) = 0.03590307
#
# Stress axis : x y z
#
# Youngs Moduli (GPa) = 85.69476 54.96139 43.73066
#
# Poissons Ratio (x) = 0.10223 -0.00317
# Poissons Ratio (y) = 0.15939 0.28979
# Poissons Ratio (z) = -0.00622 0.36421
#
# Static dielectric constant tensor:
#      x y z
#    x 1.807450 -0.001120 -0.012670 
#    y -0.001120 1.757770 0.039100 
#    z -0.012670 0.039100 1.742640 
# 
# From -- ./inp_files/262470.got.cif
#   From: 2010.05.17/outbox.cif.g08.bks.cpg/sg2_132_cif.got.tgz:262470.got - 2010.06.03 11:33:40.
