data_PCOD9054531
_publ_section_title
;
Structure prediction by ZEFSAII (Michael W. Deem and Ramdas Pophale) SiO2 
 PCOD9054531
Probable space group: P -1
;
_chemical_formula_sum "Si O2"
_cell_formula_units_Z 16
_cell_length_a 19.616142
_cell_length_b 9.100980
_cell_length_c 12.090543
_cell_angle_alpha 105.490068
_cell_angle_beta 40.243755
_cell_angle_gamma 136.653802
_cell_volume 727.794180
_symmetry_space_group_name_H-M "P -1"
_symmetry_group_IT_number 2
_symmetry_cell_setting 'triclinic'
loop_
_space_group_symop_operation_xyz
x,y,z
-x,-y,-z
loop_
_atom_site_type_symbol
_atom_site_label
_atom_site_fract_x
_atom_site_fract_y
_atom_site_fract_z
Si Si1 0.953795 0.252849 0.352331
Si Si2 0.422082 0.740037 0.074412
Si Si3 0.545654 0.445947 0.533254
Si Si4 0.257495 0.900526 0.081533
Si Si5 0.517962 0.720028 0.730949
Si Si6 0.200553 0.445342 0.894191
Si Si7 0.999300 0.818814 0.472743
Si Si8 0.654967 0.085999 0.260263
O O1 0.110560 0.582481 0.229862
O O2 0.943959 0.167752 0.469950
O O3 0.739028 0.046930 0.540125
O O4 0.033727 0.237571 0.152675
O O5 0.219294 0.503928 0.338592
O O6 0.398678 0.616225 0.967124
O O7 0.500000 0.000000 0.000000
O O8 0.587872 0.873317 0.971351
O O9 0.500000 0.500000 0.500000
O O10 0.542553 0.566738 0.658494
O O11 0.747661 0.605706 0.281566
O O12 0.371910 0.111222 0.691157
O O13 0.128389 0.894400 0.234841
O O14 0.375070 0.993317 0.846628
O O15 0.397723 0.656380 0.767815
O O16 0.174039 0.581476 0.899381
O O17 0.000000 0.000000 0.500000
O O18 0.500000 0.000000 0.500000
#
# Coordination Sequence:
#
# PCOD9054531 Si02
#       8
#     2   2   2   2   2   2   2   2
#     4  11  21  40  61  88 122 162 213 249 311 373
#     4  12  22  40  66  87 125 173 214 247 314 383
#     4   9  20  36  61  89 119 161 201 249 319 367
#     4  11  23  40  66  87 124 170 207 260 307 375
#     4  11  21  35  64  87 121 162 204 255 308 368
#     4   9  19  39  63  87 118 162 203 257 301 374
#     4  12  26  38  58  95 130 162 210 263 310 365
#     4   9  19  38  64  89 116 156 208 251 307 370
#
# _framework density 21.984238000000001
#
# number of rings (size 3 to 8) (size 9 to 14) (size 15 to 20)
#    0.000    1.500    3.750    1.875    1.750    2.000 
#    0.000    0.000    0.000   51.000    0.000    0.000 
#    0.000    0.000    0.000    0.000    0.000    0.000 
#
# Total GULP energy -89081.936067 kJ/mol
# GULP energy per Si atom -5567.621004 kJ/mol
# Density = 2.193420 g / cm^3
# Si number density = 21.984238 Si / 1000 Ang^3
#
#
#
# Elastic Constant Matrix: (Units=GPa)
#
#
# Indices 1 2 3 4 5 6 
#
# 1 49.4992 23.1034 20.0762 -11.3297 3.0915 -17.0668
# 2 23.1034 87.6753 12.8299 23.0182 2.1282 -20.2985
# 3 20.0762 12.8299 86.9185 18.1320 -4.7967 5.8658
# 4 -11.3297 23.0182 18.1320 45.7200 5.5363 -3.9999
# 5 3.0915 2.1282 -4.7967 5.5363 32.0729 -7.0979
# 6 -17.0668 -20.2985 5.8658 -3.9999 -7.0979 28.0842
#
#
#
# Elastic Compliance Matrix: (Units=1/GPa)
#
#
# Indices 1 2 3 4 5 6 
#
# 1 0.048735 -0.010904 -0.017586 0.027619 -0.005167 0.028037
# 2 -0.010904 0.018463 0.002321 -0.012886 0.003570 0.005301
# 3 -0.017586 0.002321 0.019527 -0.014988 0.003898 -0.014238
# 4 0.027619 -0.012886 -0.014988 0.043438 -0.008296 0.014691
# 5 -0.005167 0.003570 0.003898 -0.008296 0.034838 0.006250
# 6 0.028037 0.005301 -0.014238 0.014691 0.006250 0.063122
#
#
# Mechanical properties :
#
#
# Convention : Reuss Voigt Hill
#
# Bulk Modulus (GPa) = 29.08040 37.34578 33.21309
# Shear Modulus (GPa) = 17.12769 32.38099 24.75434
#
# Velocity S-wave (km/s) = 2.79425 3.84203 3.35924
# Velocity P-wave (km/s) = 4.86487 6.05854 5.49422
#
# Compressibility (1/GPa) = 0.03438743
#
# Stress axis : x y z
#
# Youngs Moduli (GPa) = 20.51897 54.16220 51.21069
#
# Poissons Ratio (x) = 0.59056 0.90060
# Poissons Ratio (y) = 0.22373 -0.11884
# Poissons Ratio (z) = 0.36085 -0.12569
#
# Static dielectric constant tensor:
#      x y z
#    x 1.924990 0.029200 -0.031840 
#    y 0.029200 1.884860 0.008270 
#    z -0.031840 0.008270 1.872710 
# 
# From -- ./inp_files/348345.got.cif
#   From: 2010.05.17/outbox.cif.g08.bks.cpg/sg2_175_cif.got.tgz:348345.got - 2010.06.03 11:33:40.
