data_PCOD9054862
_publ_section_title
;
Structure prediction by ZEFSAII (Michael W. Deem and Ramdas Pophale) SiO2 
 PCOD9054862
Probable space group: P -1
;
_chemical_formula_sum "Si O2"
_cell_formula_units_Z 14
_cell_length_a 9.390440
_cell_length_b 10.218882
_cell_length_c 13.524013
_cell_angle_alpha 147.100929
_cell_angle_beta 67.365076
_cell_angle_gamma 130.190281
_cell_volume 498.447663
_symmetry_space_group_name_H-M "P -1"
_symmetry_group_IT_number 2
_symmetry_cell_setting 'triclinic'
loop_
_space_group_symop_operation_xyz
x,y,z
-x,-y,-z
loop_
_atom_site_type_symbol
_atom_site_label
_atom_site_fract_x
_atom_site_fract_y
_atom_site_fract_z
Si Si1 0.893584 0.362928 0.224918
Si Si2 0.396586 0.855990 0.326339
Si Si3 0.720720 0.477544 0.035861
Si Si4 0.493529 0.760112 0.713603
Si Si5 0.388270 0.322604 0.163718
Si Si6 0.054227 0.816628 0.309794
Si Si7 0.803413 0.368197 0.530677
O O1 0.737869 0.391856 0.332215
O O2 0.922616 0.471308 0.174094
O O3 0.116109 0.602076 0.360964
O O4 0.798088 0.009680 0.043027
O O5 0.279833 0.527874 0.087573
O O6 0.280218 0.974659 0.387085
O O7 0.500000 0.000000 0.500000
O O8 0.616605 0.032571 0.328255
O O9 0.633299 0.124091 0.870362
O O10 0.569156 0.509424 0.153338
O O11 0.949564 0.741320 0.182974
O O12 0.500000 0.500000 0.500000
O O13 0.533372 0.758868 0.818081
O O14 0.288506 0.457771 0.324033
O O15 0.000000 0.000000 0.500000
O O16 0.000000 0.500000 0.500000
#
# Coordination Sequence:
#
# PCOD9054862 Si02
#       7
#     2   2   2   2   2   2   2
#     4  11  22  42  67 104 143 188 245 307 370 438
#     4  12  27  48  72 103 155 196 247 311 376 457
#     4  11  23  46  75 108 146 195 257 310 372 444
#     4  11  21  38  73 109 141 184 250 316 370 435
#     4  11  21  43  74 108 145 187 249 319 368 443
#     4  12  25  47  73  99 148 204 249 304 370 446
#     4  12  25  46  73 107 148 192 245 312 382 442
#
# _framework density 28.087199999999999
#
# number of rings (size 3 to 8) (size 9 to 14) (size 15 to 20)
#    0.000    0.571    4.286    6.000    2.000    0.000 
#    0.000    2.857    0.000    0.000    0.000    0.000 
#    0.000    0.000    0.000    0.000    0.000    0.000 
#
# Total GULP energy -78126.296699 kJ/mol
# GULP energy per Si atom -5580.449764 kJ/mol
# Density = 2.802327 g / cm^3
# Si number density = 28.087200 Si / 1000 Ang^3
#
#
#
# Elastic Constant Matrix: (Units=GPa)
#
#
# Indices 1 2 3 4 5 6 
#
# 1 197.2429 42.5014 68.9288 -7.1962 39.0700 32.5031
# 2 42.5014 29.0372 33.2625 -10.6362 4.7176 -2.6052
# 3 68.9288 33.2625 145.6079 -27.4729 14.7337 12.0363
# 4 -7.1962 -10.6362 -27.4729 53.6280 1.1133 12.1640
# 5 39.0700 4.7176 14.7337 1.1133 71.5541 -0.5023
# 6 32.5031 -2.6052 12.0363 12.1640 -0.5023 48.3924
#
#
#
# Elastic Compliance Matrix: (Units=1/GPa)
#
#
# Indices 1 2 3 4 5 6 
#
# 1 0.010781 -0.015126 -0.000471 0.000125 -0.004850 -0.008020
# 2 -0.015126 0.069683 -0.010095 0.002927 0.005808 0.015746
# 3 -0.000471 -0.010095 0.010685 0.004342 -0.001373 -0.003991
# 4 0.000125 0.002927 0.004342 0.023047 -0.001562 -0.006816
# 5 -0.004850 0.005808 -0.001373 -0.001562 0.016579 0.004477
# 6 -0.008020 0.015746 -0.003991 -0.006816 0.004477 0.029651
#
#
# Mechanical properties :
#
#
# Convention : Reuss Voigt Hill
#
# Bulk Modulus (GPa) = 25.14747 73.47484 49.31116
# Shear Modulus (GPa) = 22.21586 49.86126 36.03856
#
# Velocity S-wave (km/s) = 2.81545 4.21792 3.58592
# Velocity P-wave (km/s) = 4.42061 7.06664 5.89403
#
# Compressibility (1/GPa) = 0.03976542
#
# Stress axis : x y z
#
# Youngs Moduli (GPa) = 92.75919 14.35063 93.59177
#
# Poissons Ratio (x) = 0.21707 0.04405
# Poissons Ratio (y) = 1.40306 0.94482
# Poissons Ratio (z) = 0.04366 0.14487
#
# Static dielectric constant tensor:
#      x y z
#    x 2.267640 -0.396140 0.059740 
#    y -0.396140 3.871030 -0.375930 
#    z 0.059740 -0.375930 2.309410 
# 
# From -- ./inp_files/501082.got.cif
#   From: 2010.05.17/outbox.cif.g08.bks.cpg/sg2_251_cif.got.tgz:501082.got - 2010.06.03 11:33:40.
