data_PCOD9054576
_publ_section_title
;
Structure prediction by ZEFSAII (Michael W. Deem and Ramdas Pophale) SiO2 
 PCOD9054576
Probable space group: P -1
;
_chemical_formula_sum "Si O2"
_cell_formula_units_Z 16
_cell_length_a 11.900298
_cell_length_b 11.461464
_cell_length_c 10.418961
_cell_angle_alpha 40.560018
_cell_angle_beta 84.638312
_cell_angle_gamma 61.588349
_cell_volume 717.971946
_symmetry_space_group_name_H-M "P -1"
_symmetry_group_IT_number 2
_symmetry_cell_setting 'triclinic'
loop_
_space_group_symop_operation_xyz
x,y,z
-x,-y,-z
loop_
_atom_site_type_symbol
_atom_site_label
_atom_site_fract_x
_atom_site_fract_y
_atom_site_fract_z
Si Si1 0.892416 0.775860 0.802258
Si Si2 0.660299 0.269655 0.022188
Si Si3 0.921603 0.978220 0.861743
Si Si4 0.038732 0.779135 0.542504
Si Si5 0.675085 0.436506 0.149773
Si Si6 0.336669 0.190396 0.322765
Si Si7 0.809775 0.370934 0.714941
Si Si8 0.169967 0.262218 0.537112
O O1 0.886519 0.845047 0.889853
O O2 0.727626 0.900374 0.682359
O O3 0.952526 0.850162 0.625806
O O4 0.000000 0.500000 0.000000
O O5 0.686821 0.278958 0.164372
O O6 0.741153 0.001421 0.206638
O O7 0.487203 0.422536 0.896756
O O8 0.715061 0.377947 0.834495
O O9 0.006689 0.015686 0.718221
O O10 0.802032 0.233156 0.716481
O O11 0.024437 0.809377 0.103851
O O12 0.202520 0.658611 0.674016
O O13 0.985858 0.659141 0.562622
O O14 0.683971 0.608971 0.921201
O O15 0.240247 0.270753 0.392126
O O16 0.500000 0.000000 0.500000
O O17 0.802894 0.589336 0.501455
#
# Coordination Sequence:
#
# PCOD9054576 Si02
#       8
#     2   2   2   2   2   2   2   2
#     4  11  22  38  66  99 129 158 207 274 319 375
#     4  11  23  42  64  97 130 174 213 264 322 387
#     4  11  24  42  64  95 130 172 213 266 325 382
#     4  11  23  38  65  98 127 162 215 269 329 373
#     4  11  23  38  64  98 136 164 211 275 327 375
#     4  11  21  36  62  99 133 165 208 266 328 382
#     4  11  24  45  64  93 132 172 222 262 313 386
#     4  11  23  39  67  93 128 168 215 263 315 380
#
# _framework density 22.284991999999999
#
# number of rings (size 3 to 8) (size 9 to 14) (size 15 to 20)
#    0.000    1.000    5.000    2.625    3.500    0.500 
#    2.250    0.625    0.000    1.500    0.000    0.000 
#    0.000    0.000    0.000    0.000    0.000    0.000 
#
# Total GULP energy -89225.949594 kJ/mol
# GULP energy per Si atom -5576.621850 kJ/mol
# Density = 2.223427 g / cm^3
# Si number density = 22.284992 Si / 1000 Ang^3
#
#
#
# Elastic Constant Matrix: (Units=GPa)
#
#
# Indices 1 2 3 4 5 6 
#
# 1 135.2005 38.1521 29.5561 -19.7708 20.6643 8.6780
# 2 38.1521 94.8585 8.5631 -10.2035 7.7748 16.3842
# 3 29.5561 8.5631 78.5816 -14.9302 0.1104 9.7090
# 4 -19.7708 -10.2035 -14.9302 22.6935 2.9022 -4.7408
# 5 20.6643 7.7748 0.1104 2.9022 35.3671 -2.8912
# 6 8.6780 16.3842 9.7090 -4.7408 -2.8912 18.0507
#
#
#
# Elastic Compliance Matrix: (Units=1/GPa)
#
#
# Indices 1 2 3 4 5 6 
#
# 1 0.010729 -0.002707 -0.002270 0.007326 -0.006314 -0.000568
# 2 -0.002707 0.014094 0.001503 0.002810 -0.002733 -0.011999
# 3 -0.002270 0.001503 0.015703 0.007650 -0.000233 -0.006747
# 4 0.007326 0.002810 0.007650 0.058729 -0.009437 0.003726
# 5 -0.006314 -0.002733 -0.000233 -0.009437 0.034045 0.008616
# 6 -0.000568 -0.011999 -0.006747 0.003726 0.008616 0.072552
#
#
# Mechanical properties :
#
#
# Convention : Reuss Voigt Hill
#
# Bulk Modulus (GPa) = 29.78102 51.24256 40.51179
# Shear Modulus (GPa) = 22.32224 30.71356 26.51790
#
# Velocity S-wave (km/s) = 3.16835 3.71646 3.45330
# Velocity P-wave (km/s) = 5.17468 6.43896 5.84113
#
# Compressibility (1/GPa) = 0.03357844
#
# Stress axis : x y z
#
# Youngs Moduli (GPa) = 93.20295 70.95290 63.68270
#
# Poissons Ratio (x) = 0.19205 0.14453
# Poissons Ratio (y) = 0.25228 -0.09569
# Poissons Ratio (z) = 0.21153 -0.10661
#
# Static dielectric constant tensor:
#      x y z
#    x 1.869510 0.077620 -0.010370 
#    y 0.077620 1.950580 -0.055890 
#    z -0.010370 -0.055890 1.832990 
# 
# From -- ./inp_files/422814.got.cif
#   From: 2010.05.17/outbox.cif.g08.bks.cpg/sg2_212_cif.got.tgz:422814.got - 2010.06.03 11:33:40.
