data_PCOD9054974
_publ_section_title
;
Structure prediction by ZEFSAII (Michael W. Deem and Ramdas Pophale) SiO2 
 PCOD9054974
Probable space group: P -1
;
_chemical_formula_sum "Si O2"
_cell_formula_units_Z 16
_cell_length_a 27.533676
_cell_length_b 19.020627
_cell_length_c 15.510254
_cell_angle_alpha 26.271411
_cell_angle_beta 17.963643
_cell_angle_gamma 17.889521
_cell_volume 766.409571
_symmetry_space_group_name_H-M "P -1"
_symmetry_group_IT_number 2
_symmetry_cell_setting 'triclinic'
loop_
_space_group_symop_operation_xyz
x,y,z
-x,-y,-z
loop_
_atom_site_type_symbol
_atom_site_label
_atom_site_fract_x
_atom_site_fract_y
_atom_site_fract_z
Si Si1 0.940459 0.943429 0.947295
Si Si2 0.457523 0.159637 0.473175
Si Si3 0.631009 0.247704 0.849246
Si Si4 0.887377 0.317342 0.714587
Si Si5 0.987233 0.568616 0.768883
Si Si6 0.588559 0.972629 0.120207
Si Si7 0.080311 0.260020 0.630903
Si Si8 0.046808 0.783882 0.761723
O O1 0.985441 0.780678 0.124709
O O2 0.687320 0.086332 0.183468
O O3 0.088965 0.822260 0.743601
O O4 0.946227 0.112288 0.792642
O O5 0.243275 0.426216 0.521505
O O6 0.393129 0.119435 0.714984
O O7 0.500000 0.000000 0.500000
O O8 0.749505 0.318620 0.533775
O O9 0.384874 0.456375 0.076099
O O10 0.819833 0.028742 0.833592
O O11 0.585358 0.160505 0.942797
O O12 0.017657 0.365976 0.392479
O O13 0.970417 0.252035 0.744296
O O14 0.797728 0.781895 0.914955
O O15 0.976374 0.387105 0.997934
O O16 0.354320 0.073154 0.368035
O O17 0.000000 0.500000 0.500000
#
# Coordination Sequence:
#
# PCOD9054974 Si02
#       8
#     2   2   2   2   2   2   2   2
#     4  11  24  43  67  98 135 173 225 274 334 397
#     4  11  21  39  69 100 135 176 217 263 334 401
#     4  11  24  41  67  99 141 173 219 269 338 398
#     4  12  26  44  68  98 131 181 228 275 330 396
#     4  12  24  40  70  99 140 174 223 269 335 403
#     4  11  23  41  66  99 132 176 220 277 330 393
#     4  11  24  45  74  92 128 178 230 281 332 391
#     4  11  24  41  65 102 140 174 212 277 337 399
#
# _framework density 20.876566
#
# number of rings (size 3 to 8) (size 9 to 14) (size 15 to 20)
#    0.000    0.750    3.750    3.750    3.500    3.500 
#    0.000    0.625    0.000    0.000    0.000    0.000 
#    0.000    0.000    0.000    0.000    0.000    0.000 
#
# Total GULP energy -89447.761169 kJ/mol
# GULP energy per Si atom -5590.485073 kJ/mol
# Density = 2.082905 g / cm^3
# Si number density = 20.876566 Si / 1000 Ang^3
#
#
#
# Elastic Constant Matrix: (Units=GPa)
#
#
# Indices 1 2 3 4 5 6 
#
# 1 91.9694 25.7683 45.6390 1.5943 5.6849 2.6058
# 2 25.7683 79.0017 30.7011 -1.7971 16.9643 7.1735
# 3 45.6390 30.7011 102.9789 -6.1794 33.8277 -4.8410
# 4 1.5943 -1.7971 -6.1794 38.5911 8.7970 -2.3303
# 5 5.6849 16.9643 33.8277 8.7970 32.1638 1.0979
# 6 2.6058 7.1735 -4.8410 -2.3303 1.0979 25.1708
#
#
#
# Elastic Compliance Matrix: (Units=1/GPa)
#
#
# Indices 1 2 3 4 5 6 
#
# 1 0.016671 -0.003600 -0.010721 -0.005506 0.011863 -0.003789
# 2 -0.003600 0.016160 -0.000789 0.002263 -0.007545 -0.003846
# 3 -0.010721 -0.000789 0.024530 0.010931 -0.026759 0.008232
# 4 -0.005506 0.002263 0.010931 0.033143 -0.020987 0.006011
# 5 0.011863 -0.007545 -0.026759 -0.020987 0.067167 -0.009097
# 6 -0.003789 -0.003846 0.008232 0.006011 -0.009097 0.043753
#
#
# Mechanical properties :
#
#
# Convention : Reuss Voigt Hill
#
# Bulk Modulus (GPa) = 36.84288 53.12965 44.98627
# Shear Modulus (GPa) = 20.77355 30.64124 25.70740
#
# Velocity S-wave (km/s) = 3.15789 3.83526 3.51294
# Velocity P-wave (km/s) = 5.56620 6.71691 6.16845
#
# Compressibility (1/GPa) = 0.02714228
#
# Stress axis : x y z
#
# Youngs Moduli (GPa) = 59.98300 61.88293 40.76634
#
# Poissons Ratio (x) = 0.22279 0.43704
# Poissons Ratio (y) = 0.21595 0.03215
# Poissons Ratio (z) = 0.64305 0.04880
#
# Static dielectric constant tensor:
#      x y z
#    x 1.745500 -0.019330 -0.000700 
#    y -0.019330 1.747510 -0.011770 
#    z -0.000700 -0.011770 1.762290 
# 
# From -- ./inp_files/296125.got.cif
#   From: 2010.05.17/outbox.cif.g08.bks.cpg/sg2_149_cif.got.tgz:296125.got - 2010.06.03 11:33:40.
