data_PCOD9054252
_publ_section_title
;
Structure prediction by ZEFSAII (Michael W. Deem and Ramdas Pophale) SiO2 
 PCOD9054252
Probable space group: P -1
;
_chemical_formula_sum "Si O2"
_cell_formula_units_Z 16
_cell_length_a 14.973277
_cell_length_b 8.731114
_cell_length_c 14.903330
_cell_angle_alpha 105.211075
_cell_angle_beta 151.081551
_cell_angle_gamma 92.999686
_cell_volume 724.357390
_symmetry_space_group_name_H-M "P -1"
_symmetry_group_IT_number 2
_symmetry_cell_setting 'triclinic'
loop_
_space_group_symop_operation_xyz
x,y,z
-x,-y,-z
loop_
_atom_site_type_symbol
_atom_site_label
_atom_site_fract_x
_atom_site_fract_y
_atom_site_fract_z
Si Si1 0.108388 0.880476 0.601026
Si Si2 0.652998 0.569188 0.235330
Si Si3 0.280528 0.810549 0.559098
Si Si4 0.026223 0.476538 0.154482
Si Si5 0.624084 0.234686 0.640776
Si Si6 0.651623 0.837427 0.988597
Si Si7 0.821883 0.808877 0.752997
Si Si8 0.826749 0.933057 0.573380
O O1 0.204326 0.849464 0.591873
O O2 0.909203 0.669251 0.437835
O O3 0.296528 0.012006 0.862879
O O4 0.000000 0.000000 0.500000
O O5 0.698520 0.749891 0.362585
O O6 0.500000 0.500000 0.000000
O O7 0.524893 0.380777 0.158700
O O8 0.089669 0.587457 0.321972
O O9 0.295419 0.961881 0.525959
O O10 0.524081 0.851245 0.795047
O O11 0.176090 0.653613 0.241127
O O12 0.115325 0.342572 0.207793
O O13 0.760116 0.342290 0.869334
O O14 0.435517 0.270766 0.458119
O O15 0.500000 0.000000 0.500000
O O16 0.904489 0.903967 0.195138
O O17 0.834518 0.866826 0.669004
O O18 0.000000 0.000000 0.000000
#
# Coordination Sequence:
#
# PCOD9054252 Si02
#       8
#     2   2   2   2   2   2   2   2
#     4  11  21  44  67 101 142 185 231 283 349 422
#     4  11  20  41  72  97 139 184 230 285 350 418
#     4  12  24  43  72 100 141 186 232 295 349 420
#     4  11  27  45  71 110 139 182 242 290 364 428
#     4  11  24  49  74 103 143 182 232 297 361 434
#     4  11  24  43  70  99 143 183 238 287 353 421
#     4  12  26  47  77 100 142 193 236 298 366 423
#     4  11  26  45  65 105 141 181 240 296 351 423
#
# _framework density 22.088543000000001
#
# number of rings (size 3 to 8) (size 9 to 14) (size 15 to 20)
#    0.000    0.750    5.000    2.250    3.500    4.500 
#    0.000    6.250    0.000    0.000    0.000    0.000 
#    0.000    0.000    0.000    0.000    0.000    0.000 
#
# Total GULP energy -89484.965892 kJ/mol
# GULP energy per Si atom -5592.810368 kJ/mol
# Density = 2.203827 g / cm^3
# Si number density = 22.088543 Si / 1000 Ang^3
#
#
#
# Elastic Constant Matrix: (Units=GPa)
#
#
# Indices 1 2 3 4 5 6 
#
# 1 42.3603 2.5692 15.4085 12.9635 -14.7140 10.4294
# 2 2.5692 96.5200 56.4678 3.7071 -3.6751 13.3261
# 3 15.4085 56.4678 164.2309 1.8039 -20.1912 -3.6977
# 4 12.9635 3.7071 1.8039 39.7536 5.9182 4.3276
# 5 -14.7140 -3.6751 -20.1912 5.9182 44.7659 6.6270
# 6 10.4294 13.3261 -3.6977 4.3276 6.6270 28.0074
#
#
#
# Elastic Compliance Matrix: (Units=1/GPa)
#
#
# Indices 1 2 3 4 5 6 
#
# 1 0.039037 0.004843 -0.003621 -0.013349 0.016186 -0.019086
# 2 0.004843 0.014998 -0.005562 -0.001956 0.002032 -0.009853
# 3 -0.003621 -0.005562 0.008621 0.000578 0.001470 0.004696
# 4 -0.013349 -0.001956 0.000578 0.030615 -0.008829 0.003336
# 5 0.016186 0.002032 0.001470 -0.008829 0.031566 -0.012905
# 6 -0.019086 -0.009853 0.004696 0.003336 -0.012905 0.050658
#
#
# Mechanical properties :
#
#
# Convention : Reuss Voigt Hill
#
# Bulk Modulus (GPa) = 18.52629 50.22249 34.37439
# Shear Modulus (GPa) = 24.73205 37.74978 31.24091
#
# Velocity S-wave (km/s) = 3.34979 4.13852 3.76486
# Velocity P-wave (km/s) = 4.83394 6.75446 5.87323
#
# Compressibility (1/GPa) = 0.05397736
#
# Stress axis : x y z
#
# Youngs Moduli (GPa) = 25.61689 66.67405 115.99322
#
# Poissons Ratio (x) = -0.32293 0.42002
# Poissons Ratio (y) = -0.12407 0.64514
# Poissons Ratio (z) = 0.09276 0.37083
#
# Static dielectric constant tensor:
#      x y z
#    x 1.839840 0.010640 -0.004680 
#    y 0.010640 1.811790 -0.011960 
#    z -0.004680 -0.011960 1.828440 
# 
# From -- ./inp_files/530042.got.cif
#   From: 2010.05.17/outbox.cif.g08.bks.cpg/sg2_266_cif.got.tgz:530042.got - 2010.06.03 11:33:40.
