data_PCOD9054888
_publ_section_title
;
Structure prediction by ZEFSAII (Michael W. Deem and Ramdas Pophale) SiO2 
 PCOD9054888
Probable space group: P -1
;
_chemical_formula_sum "Si O2"
_cell_formula_units_Z 16
_cell_length_a 5.455968
_cell_length_b 12.536802
_cell_length_c 22.947498
_cell_angle_alpha 33.469857
_cell_angle_beta 118.140455
_cell_angle_gamma 104.318954
_cell_volume 728.052545
_symmetry_space_group_name_H-M "P -1"
_symmetry_group_IT_number 2
_symmetry_cell_setting 'triclinic'
loop_
_space_group_symop_operation_xyz
x,y,z
-x,-y,-z
loop_
_atom_site_type_symbol
_atom_site_label
_atom_site_fract_x
_atom_site_fract_y
_atom_site_fract_z
Si Si1 0.942900 0.263591 0.680876
Si Si2 0.806204 0.232558 0.881180
Si Si3 0.777666 0.533559 0.131866
Si Si4 0.821573 0.639293 0.967171
Si Si5 0.330317 0.849491 0.729653
Si Si6 0.756957 0.131721 0.048130
Si Si7 0.556060 0.554890 0.366227
Si Si8 0.249041 0.903642 0.382553
O O1 0.641960 0.364553 0.635431
O O2 0.885124 0.144088 0.672256
O O3 0.125800 0.412091 0.613614
O O4 0.155856 0.103937 0.822079
O O5 0.612359 0.317354 0.765405
O O6 0.995430 0.386689 0.843383
O O7 0.657422 0.211252 0.935940
O O8 0.000000 0.000000 0.000000
O O9 0.696399 0.334120 0.231403
O O10 0.872923 0.489944 0.095792
O O11 0.497784 0.730767 0.003719
O O12 0.513698 0.749555 0.853470
O O13 0.957199 0.808671 0.929494
O O14 0.000000 0.500000 0.000000
O O15 0.522487 0.974758 0.662803
O O16 0.013860 0.982386 0.655947
O O17 0.590839 0.318134 0.472651
#
# Coordination Sequence:
#
# PCOD9054888 Si02
#       8
#     2   2   2   2   2   2   2   2
#     4  12  24  43  71 103 137 173 229 284 352 410
#     4  11  25  46  68  99 137 179 231 283 348 403
#     4  11  25  39  67 104 139 180 225 284 343 411
#     4  11  21  39  63 105 143 178 212 281 350 410
#     4  12  24  43  69 102 141 180 228 275 344 416
#     4  11  23  38  70 101 138 173 222 278 353 413
#     4  12  27  47  69  98 138 184 234 286 333 409
#     4  12  26  45  71 100 138 185 228 280 346 405
#
# _framework density 21.976434999999999
#
# number of rings (size 3 to 8) (size 9 to 14) (size 15 to 20)
#    0.000    0.500    3.750    4.875    5.250    1.000 
#    0.000    1.250    0.000    0.000    0.000    0.000 
#    0.000    0.000    0.000    0.000    0.000    0.000 
#
# Total GULP energy -89418.709066 kJ/mol
# GULP energy per Si atom -5588.669317 kJ/mol
# Density = 2.192642 g / cm^3
# Si number density = 21.976435 Si / 1000 Ang^3
#
#
#
# Elastic Constant Matrix: (Units=GPa)
#
#
# Indices 1 2 3 4 5 6 
#
# 1 106.6542 49.5000 12.2511 -19.5686 -7.8925 15.9556
# 2 49.5000 17.7542 19.8517 3.7184 -32.9717 -4.6955
# 3 12.2511 19.8517 91.0663 -1.0782 -10.3394 7.4198
# 4 -19.5686 3.7184 -1.0782 35.6904 3.6379 -4.1460
# 5 -7.8925 -32.9717 -10.3394 3.6379 30.9754 -25.1582
# 6 15.9556 -4.6955 7.4198 -4.1460 -25.1582 27.1271
#
#
#
# Elastic Compliance Matrix: (Units=1/GPa)
#
#
# Indices 1 2 3 4 5 6 
#
# 1 0.007903 0.004122 -0.001193 0.003585 0.012549 0.008577
# 2 0.004122 -0.003886 -0.000329 0.002213 -0.022791 -0.023806
# 3 -0.001193 -0.000329 0.011598 -0.000546 0.004703 0.001751
# 4 0.003585 0.002213 -0.000546 0.030137 0.008138 0.010577
# 5 0.012549 -0.022791 0.004703 0.008138 0.010543 -0.001591
# 6 0.008577 -0.023806 0.001751 0.010577 -0.001591 0.027360
#
#
# Mechanical properties :
#
#
# Convention : Reuss Voigt Hill
#
# Bulk Modulus (GPa) = 48.04389 42.07559 45.05974
# Shear Modulus (GPa) = 58.55229 27.68336 43.11783
#
# Velocity S-wave (km/s) = 5.16731 3.55305 4.43426
# Velocity P-wave (km/s) = 7.58356 6.00163 6.83849
#
# Compressibility (1/GPa) = 0.02081430
#
# Stress axis : x y z
#
# Youngs Moduli (GPa) = 126.53146 -257.32533 86.22029
#
# Poissons Ratio (x) = 1.06076 0.10290
# Poissons Ratio (y) = -0.52160 0.02839
# Poissons Ratio (z) = 0.15101 -0.08472
#
# Static dielectric constant tensor:
#      x y z
#    x 1.932960 -0.044100 -0.084610 
#    y -0.044100 1.863660 -0.027960 
#    z -0.084610 -0.027960 1.934220 
# 
# From -- ./inp_files/69774.got.cif
#   From: 2010.05.17/outbox.cif.g08.bks.cpg/sg2_35_cif.got.tgz:69774.got - 2010.06.03 11:33:40.
