data_PCOD9054076
_publ_section_title
;
Structure prediction by ZEFSAII (Michael W. Deem and Ramdas Pophale) SiO2 
 PCOD9054076
Probable space group: P -1
;
_chemical_formula_sum "Si O2"
_cell_formula_units_Z 16
_cell_length_a 10.912979
_cell_length_b 12.956284
_cell_length_c 9.488683
_cell_angle_alpha 134.067529
_cell_angle_beta 86.859228
_cell_angle_gamma 122.002949
_cell_volume 700.730787
_symmetry_space_group_name_H-M "P -1"
_symmetry_group_IT_number 2
_symmetry_cell_setting 'triclinic'
loop_
_space_group_symop_operation_xyz
x,y,z
-x,-y,-z
loop_
_atom_site_type_symbol
_atom_site_label
_atom_site_fract_x
_atom_site_fract_y
_atom_site_fract_z
Si Si1 0.305463 0.260520 0.073863
Si Si2 0.760475 0.216774 0.445291
Si Si3 0.644300 0.430057 0.098292
Si Si4 0.149302 0.600179 0.749814
Si Si5 0.284991 0.999171 0.017205
Si Si6 0.368941 0.631368 0.518233
Si Si7 0.399173 0.068883 0.576671
Si Si8 0.801330 0.837679 0.343781
O O1 0.498823 0.357476 0.149462
O O2 0.207243 0.072641 0.006930
O O3 0.319208 0.430464 0.295735
O O4 0.242807 0.210226 0.867472
O O5 0.669759 0.296635 0.544198
O O6 0.954153 0.400958 0.571261
O O7 0.745430 0.098533 0.463034
O O8 0.660426 0.057668 0.173223
O O9 0.763165 0.399421 0.119203
O O10 0.737225 0.646606 0.248510
O O11 0.538223 0.284566 0.838087
O O12 0.245774 0.596122 0.613049
O O13 0.177571 0.794921 0.917534
O O14 0.440467 0.184495 0.271986
O O15 0.289893 0.094594 0.517689
O O16 0.500000 0.000000 0.500000
O O17 0.000000 0.000000 0.500000
#
# Coordination Sequence:
#
# PCOD9054076 Si02
#       8
#     2   2   2   2   2   2   2   2
#     4  11  23  41  68  98 128 176 226 274 325 400
#     4  11  22  41  64  93 140 168 213 283 337 389
#     4  11  23  43  69  90 135 179 224 271 337 409
#     4  11  23  42  64 100 135 181 213 273 350 391
#     4  11  20  40  67  94 133 177 221 266 335 402
#     4  11  22  38  67  98 129 172 228 268 325 410
#     4  11  23  43  72 100 123 179 239 277 322 405
#     4  11  25  48  69  95 139 179 218 284 355 393
#
# _framework density 22.833306
#
# number of rings (size 3 to 8) (size 9 to 14) (size 15 to 20)
#    0.000    1.000    3.750    6.375    3.500    0.000 
#    2.250    5.000    0.000    0.000    0.000    0.000 
#    0.000    0.000    0.000    0.000    0.000    0.000 
#
# Total GULP energy -89255.202038 kJ/mol
# GULP energy per Si atom -5578.450127 kJ/mol
# Density = 2.278134 g / cm^3
# Si number density = 22.833306 Si / 1000 Ang^3
#
#
#
# Elastic Constant Matrix: (Units=GPa)
#
#
# Indices 1 2 3 4 5 6 
#
# 1 78.3462 18.3423 63.2010 10.7338 -4.1907 -21.6313
# 2 18.3423 98.9021 44.9277 34.7256 2.5590 -28.6709
# 3 63.2010 44.9277 102.4109 24.3840 -9.7200 -1.4575
# 4 10.7338 34.7256 24.3840 32.4949 -13.9075 -10.5812
# 5 -4.1907 2.5590 -9.7200 -13.9075 47.0133 4.2722
# 6 -21.6313 -28.6709 -1.4575 -10.5812 4.2722 37.0768
#
#
#
# Elastic Compliance Matrix: (Units=1/GPa)
#
#
# Indices 1 2 3 4 5 6 
#
# 1 0.065447 0.029790 -0.054193 0.001968 -0.011956 0.061028
# 2 0.029790 0.038709 -0.031314 -0.020853 -0.015908 0.041964
# 3 -0.054193 -0.031314 0.058701 -0.005794 0.012441 -0.056611
# 4 0.001968 -0.020853 -0.005794 0.065446 0.019360 0.001242
# 5 -0.011956 -0.015908 0.012441 0.019360 0.030899 -0.016823
# 6 0.061028 0.041964 -0.056611 0.001242 -0.016823 0.095093
#
#
# Mechanical properties :
#
#
# Convention : Reuss Voigt Hill
#
# Bulk Modulus (GPa) = 19.44631 59.17792 39.31211
# Shear Modulus (GPa) = 10.35475 33.52955 21.94215
#
# Velocity S-wave (km/s) = 2.13185 3.83619 3.10332
# Velocity P-wave (km/s) = 3.82032 6.75244 5.48590
#
# Compressibility (1/GPa) = 0.05142364
#
# Stress axis : x y z
#
# Youngs Moduli (GPa) = 15.27953 25.83366 17.03553
#
# Poissons Ratio (x) = -0.76959 0.92321
# Poissons Ratio (y) = -0.45518 0.53345
# Poissons Ratio (z) = 0.82805 0.80895
#
# Static dielectric constant tensor:
#      x y z
#    x 2.011070 -0.029370 -0.030850 
#    y -0.029370 2.040720 -0.051100 
#    z -0.030850 -0.051100 1.801180 
# 
# From -- ./inp_files/434313.got.cif
#   From: 2010.05.17/outbox.cif.g08.bks.cpg/sg2_218_cif.got.tgz:434313.got - 2010.06.03 11:33:40.
