data_PCOD9054009
_publ_section_title
;
Structure prediction by ZEFSAII (Michael W. Deem and Ramdas Pophale) SiO2 
 PCOD9054009
Probable space group: P -1
;
_chemical_formula_sum "Si O2"
_cell_formula_units_Z 16
_cell_length_a 8.568529
_cell_length_b 6.034992
_cell_length_c 17.124743
_cell_angle_alpha 126.805954
_cell_angle_beta 92.044897
_cell_angle_gamma 80.608720
_cell_volume 697.356313
_symmetry_space_group_name_H-M "P -1"
_symmetry_group_IT_number 2
_symmetry_cell_setting 'triclinic'
loop_
_space_group_symop_operation_xyz
x,y,z
-x,-y,-z
loop_
_atom_site_type_symbol
_atom_site_label
_atom_site_fract_x
_atom_site_fract_y
_atom_site_fract_z
Si Si1 0.808751 0.888827 0.879544
Si Si2 0.361767 0.717444 0.733546
Si Si3 0.525430 0.196897 0.833243
Si Si4 0.789850 0.240787 0.722027
Si Si5 0.614038 0.228186 0.560595
Si Si6 0.079054 0.688589 0.472865
Si Si7 0.993003 0.206257 0.279504
Si Si8 0.373320 0.800031 0.937065
O O1 0.807165 0.558213 0.809560
O O2 0.951264 0.921724 0.830990
O O3 0.646453 0.035432 0.864638
O O4 0.790827 0.038502 0.994633
O O5 0.500114 0.505995 0.649057
O O6 0.367785 0.723013 0.829351
O O7 0.190603 0.669395 0.695401
O O8 0.388200 0.024892 0.775321
O O9 0.642692 0.196388 0.763361
O O10 0.439692 0.506399 0.917402
O O11 0.733992 0.149841 0.618340
O O12 0.949295 0.036445 0.708208
O O13 0.735247 0.281384 0.504333
O O14 0.500000 0.000000 0.500000
O O15 0.082933 0.462163 0.354906
O O16 0.000000 0.500000 0.500000
O O17 0.000000 0.000000 0.500000
O O18 0.500000 0.000000 0.000000
#
# Coordination Sequence:
#
# PCOD9054009 Si02
#       8
#     2   2   2   2   2   2   2   2
#     4  11  22  42  73  99 141 195 239 293 376 455
#     4  12  26  44  66 113 141 188 252 308 364 448
#     4  11  20  39  71 101 141 180 252 302 371 439
#     4  11  21  46  70 103 142 194 237 302 378 444
#     4  12  24  49  82 112 148 195 259 318 376 459
#     4  12  27  51  79 112 153 205 254 316 398 468
#     4  11  27  45  71 100 154 194 242 304 384 454
#     4  12  22  40  72 105 142 186 245 310 376 440
#
# _framework density 22.943795999999999
#
# number of rings (size 3 to 8) (size 9 to 14) (size 15 to 20)
#    0.000    0.500    6.250    2.625    0.000    2.500 
#    0.000    5.000    0.000    0.000    0.000    0.000 
#    0.000    0.000    0.000    0.000    0.000    0.000 
#
# Total GULP energy -89252.600532 kJ/mol
# GULP energy per Si atom -5578.287533 kJ/mol
# Density = 2.289157 g / cm^3
# Si number density = 22.943796 Si / 1000 Ang^3
#
#
#
# Elastic Constant Matrix: (Units=GPa)
#
#
# Indices 1 2 3 4 5 6 
#
# 1 109.4576 29.9095 22.4567 -3.9472 -12.0119 6.9302
# 2 29.9095 104.8269 46.6594 20.4996 -2.4366 4.2482
# 3 22.4567 46.6594 99.0089 19.9792 -17.3005 -0.5159
# 4 -3.9472 20.4996 19.9792 43.6880 8.4992 -6.3734
# 5 -12.0119 -2.4366 -17.3005 8.4992 40.6100 -0.0207
# 6 6.9302 4.2482 -0.5159 -6.3734 -0.0207 30.4115
#
#
#
# Elastic Compliance Matrix: (Units=1/GPa)
#
#
# Indices 1 2 3 4 5 6 
#
# 1 0.010539 -0.002804 -0.001170 0.002186 0.001992 -0.001570
# 2 -0.002804 0.013518 -0.005093 -0.004346 -0.001279 -0.002247
# 3 -0.001170 -0.005093 0.015232 -0.006069 0.007108 -0.000031
# 4 0.002186 -0.004346 -0.006069 0.030504 -0.008580 0.006393
# 5 0.001992 -0.001279 0.007108 -0.008580 0.029960 -0.001933
# 6 -0.001570 -0.002247 -0.000031 0.006393 -0.001933 0.034892
#
#
# Mechanical properties :
#
#
# Convention : Reuss Voigt Hill
#
# Bulk Modulus (GPa) = 47.26986 56.81606 52.04296
# Shear Modulus (GPa) = 31.28330 37.22640 34.25485
#
# Velocity S-wave (km/s) = 3.69653 4.03240 3.86811
# Velocity P-wave (km/s) = 6.23429 6.81889 6.53313
#
# Compressibility (1/GPa) = 0.02115513
#
# Stress axis : x y z
#
# Youngs Moduli (GPa) = 94.88493 73.97786 65.65095
#
# Poissons Ratio (x) = 0.20741 0.07684
# Poissons Ratio (y) = 0.26603 0.33434
# Poissons Ratio (z) = 0.11106 0.37674
#
# Static dielectric constant tensor:
#      x y z
#    x 2.571120 0.177230 -0.921280 
#    y 0.177230 2.000420 -0.272790 
#    z -0.921280 -0.272790 2.979370 
# 
# From -- ./inp_files/553940.got.cif
#   From: 2010.05.17/outbox.cif.g08.bks.cpg/sg2_277_cif.got.tgz:553940.got - 2010.06.03 11:33:40.
