data_PCOD9054334
_publ_section_title
;
Structure prediction by ZEFSAII (Michael W. Deem and Ramdas Pophale) SiO2 
 PCOD9054334
Probable space group: P -1
;
_chemical_formula_sum "Si O2"
_cell_formula_units_Z 16
_cell_length_a 12.348331
_cell_length_b 11.347943
_cell_length_c 12.394215
_cell_angle_alpha 138.289566
_cell_angle_beta 119.861617
_cell_angle_gamma 93.284070
_cell_volume 670.254835
_symmetry_space_group_name_H-M "P -1"
_symmetry_group_IT_number 2
_symmetry_cell_setting 'triclinic'
loop_
_space_group_symop_operation_xyz
x,y,z
-x,-y,-z
loop_
_atom_site_type_symbol
_atom_site_label
_atom_site_fract_x
_atom_site_fract_y
_atom_site_fract_z
Si Si1 0.002373 0.321531 0.305813
Si Si2 0.429220 0.055678 0.732177
Si Si3 0.448450 0.435978 0.118864
Si Si4 0.811385 0.315117 0.014471
Si Si5 0.223551 0.997882 0.388649
Si Si6 0.387395 0.770806 0.702517
Si Si7 0.661687 0.769170 0.832576
Si Si8 0.150214 0.236249 0.657470
O O1 0.898079 0.276849 0.117668
O O2 0.000000 0.500000 0.500000
O O3 0.213255 0.498139 0.491472
O O4 0.879561 0.028352 0.089886
O O5 0.296606 0.998122 0.538005
O O6 0.322607 0.818834 0.602259
O O7 0.509293 0.307515 0.013474
O O8 0.592328 0.121077 0.797128
O O9 0.611106 0.749679 0.431455
O O10 0.354575 0.299548 0.095386
O O11 0.334523 0.401530 0.937463
O O12 0.887703 0.595652 0.259914
O O13 0.853263 0.255356 0.883590
O O14 0.134905 0.091885 0.447278
O O15 0.569453 0.857326 0.816861
O O16 0.500000 0.000000 0.000000
O O17 0.500000 0.500000 0.500000
O O18 0.000000 0.000000 0.500000
#
# Coordination Sequence:
#
# PCOD9054334 Si02
#       8
#     2   2   2   2   2   2   2   2
#     4  12  26  46  75 107 136 194 250 289 360 442
#     4  11  20  42  72  98 138 186 234 295 357 429
#     4  11  22  44  68 100 135 180 238 287 358 432
#     4  12  24  44  72 101 142 184 237 296 358 429
#     4  11  24  43  69 105 137 185 238 288 359 430
#     4  12  24  46  72 102 136 191 241 296 354 422
#     4  12  27  46  72 107 145 186 241 305 365 422
#     4  11  26  43  66 101 142 183 228 291 357 420
#
# _framework density 23.871517000000001
#
# number of rings (size 3 to 8) (size 9 to 14) (size 15 to 20)
#    0.000    0.500    6.250    1.875    5.250    1.000 
#    2.250    0.000    0.000    0.000    0.000    0.000 
#    0.000    0.000    0.000    0.000    0.000    0.000 
#
# Total GULP energy -89102.726145 kJ/mol
# GULP energy per Si atom -5568.920384 kJ/mol
# Density = 2.381718 g / cm^3
# Si number density = 23.871517 Si / 1000 Ang^3
#
#
#
# Elastic Constant Matrix: (Units=GPa)
#
#
# Indices 1 2 3 4 5 6 
#
# 1 50.5241 13.2292 34.1628 6.0395 -8.9550 9.6256
# 2 13.2292 122.3235 9.3455 1.1426 5.9889 16.5682
# 3 34.1628 9.3455 64.1392 0.9417 -7.8390 16.0050
# 4 6.0395 1.1426 0.9417 41.0588 11.0349 8.5829
# 5 -8.9550 5.9889 -7.8390 11.0349 44.8344 4.2185
# 6 9.6256 16.5682 16.0050 8.5829 4.2185 30.6674
#
#
#
# Elastic Compliance Matrix: (Units=1/GPa)
#
#
# Indices 1 2 3 4 5 6 
#
# 1 0.033442 -0.002633 -0.016826 -0.006080 0.005525 0.000649
# 2 -0.002633 0.009095 0.001094 0.001524 -0.001465 -0.004883
# 3 -0.016826 0.001094 0.027177 0.003700 0.001342 -0.010713
# 4 -0.006080 0.001524 0.003700 0.028678 -0.007086 -0.007897
# 5 0.005525 -0.001465 0.001342 -0.007086 0.025885 -0.003221
# 6 0.000649 -0.004883 -0.010713 -0.007897 -0.003221 0.043287
#
#
# Mechanical properties :
#
#
# Convention : Reuss Voigt Hill
#
# Bulk Modulus (GPa) = 30.31741 38.94020 34.62881
# Shear Modulus (GPa) = 23.22479 35.32873 29.27676
#
# Velocity S-wave (km/s) = 3.12253 3.85119 3.50584
# Velocity P-wave (km/s) = 5.07229 6.01027 5.56109
#
# Compressibility (1/GPa) = 0.03298434
#
# Stress axis : x y z
#
# Youngs Moduli (GPa) = 29.90293 109.94936 36.79594
#
# Poissons Ratio (x) = 0.28947 0.61913
# Poissons Ratio (y) = 0.07873 -0.04026
# Poissons Ratio (z) = 0.50315 -0.12031
#
# Static dielectric constant tensor:
#      x y z
#    x 2.591970 -0.192460 0.662640 
#    y -0.192460 1.989410 -0.238220 
#    z 0.662640 -0.238220 2.930940 
# 
# From -- ./inp_files/429121.got.cif
#   From: 2010.05.17/outbox.cif.g08.bks.cpg/sg2_215_cif.got.tgz:429121.got - 2010.06.03 11:33:40.
