data_PCOD9054198
_publ_section_title
;
Structure prediction by ZEFSAII (Michael W. Deem and Ramdas Pophale) SiO2 
 PCOD9054198
Probable space group: P -1
;
_chemical_formula_sum "Si O2"
_cell_formula_units_Z 16
_cell_length_a 6.294387
_cell_length_b 8.191406
_cell_length_c 18.927145
_cell_angle_alpha 90.944614
_cell_angle_beta 136.440229
_cell_angle_gamma 86.473237
_cell_volume 670.656839
_symmetry_space_group_name_H-M "P -1"
_symmetry_group_IT_number 2
_symmetry_cell_setting 'triclinic'
loop_
_space_group_symop_operation_xyz
x,y,z
-x,-y,-z
loop_
_atom_site_type_symbol
_atom_site_label
_atom_site_fract_x
_atom_site_fract_y
_atom_site_fract_z
Si Si1 0.852612 0.568010 0.345060
Si Si2 0.485827 0.712237 0.515677
Si Si3 0.869276 0.585475 0.189051
Si Si4 0.728613 0.952416 0.485298
Si Si5 0.383304 0.331259 0.288356
Si Si6 0.727743 0.936857 0.852809
Si Si7 0.576668 0.114950 0.953712
Si Si8 0.636043 0.172951 0.716109
O O1 0.765429 0.541761 0.242118
O O2 0.672882 0.438995 0.345049
O O3 0.680886 0.737127 0.331853
O O4 0.222681 0.582992 0.439544
O O5 0.744399 0.770255 0.522827
O O6 0.609924 0.695409 0.625432
O O7 0.298983 0.892810 0.468818
O O8 0.611571 0.707923 0.091066
O O9 0.047203 0.429365 0.193522
O O10 0.154329 0.699620 0.267934
O O11 0.441121 0.954123 0.362331
O O12 0.000000 0.000000 0.500000
O O13 0.415200 0.185685 0.237737
O O14 0.520143 0.010403 0.867785
O O15 0.799706 0.090848 0.822386
O O16 0.056762 0.861544 0.959385
O O17 0.500000 0.000000 0.000000
#
# Coordination Sequence:
#
# PCOD9054198 Si02
#       8
#     2   2   2   2   2   2   2   2
#     4  11  23  42  66  96 143 195 224 279 339 407
#     4  11  23  40  64 101 139 190 237 276 334 404
#     4  11  24  44  67  99 138 183 224 283 355 411
#     4  11  22  37  66 101 135 179 240 296 327 386
#     4  11  27  43  65 104 148 180 232 283 342 413
#     4  11  24  44  72 105 130 171 235 289 342 421
#     4  11  24  45  78 101 127 173 230 293 355 418
#     4  11  20  41  68  95 135 178 235 284 337 405
#
# _framework density 23.857209000000001
#
# number of rings (size 3 to 8) (size 9 to 14) (size 15 to 20)
#    0.000    1.000    6.250    0.375    0.000    3.000 
#    2.250    1.250    0.000    0.000    0.000    0.000 
#    0.000    0.000    0.000    0.000    0.000    0.000 
#
# Total GULP energy -89252.125078 kJ/mol
# GULP energy per Si atom -5578.257817 kJ/mol
# Density = 2.380291 g / cm^3
# Si number density = 23.857209 Si / 1000 Ang^3
#
#
#
# Elastic Constant Matrix: (Units=GPa)
#
#
# Indices 1 2 3 4 5 6 
#
# 1 95.0229 29.0335 29.3149 -25.0546 -17.6908 7.9007
# 2 29.0335 65.0566 21.8684 -8.3160 -12.5957 7.8840
# 3 29.3149 21.8684 74.6694 -14.2691 -12.5710 -0.1302
# 4 -25.0546 -8.3160 -14.2691 40.1664 -5.3652 0.2175
# 5 -17.6908 -12.5957 -12.5710 -5.3652 48.8354 -5.8686
# 6 7.9007 7.8840 -0.1302 0.2175 -5.8686 43.5986
#
#
#
# Elastic Compliance Matrix: (Units=1/GPa)
#
#
# Indices 1 2 3 4 5 6 
#
# 1 0.015894 -0.003969 -0.002575 0.008834 0.004854 -0.001561
# 2 -0.003969 0.019161 -0.003554 0.000556 0.002357 -0.002442
# 3 -0.002575 -0.003554 0.016732 0.004006 0.003084 0.001554
# 4 0.008834 0.000556 0.004006 0.033006 0.007906 -0.000790
# 5 0.004854 0.002357 0.003084 0.007906 0.024745 0.001995
# 6 -0.001561 -0.002442 0.001554 -0.000790 0.001995 0.023938
#
#
# Mechanical properties :
#
#
# Convention : Reuss Voigt Hill
#
# Bulk Modulus (GPa) = 31.65631 43.90918 37.78275
# Shear Modulus (GPa) = 30.45035 36.82222 33.63629
#
# Velocity S-wave (km/s) = 3.57649 3.93293 3.75894
# Velocity P-wave (km/s) = 5.50935 6.25051 5.89160
#
# Compressibility (1/GPa) = 0.03158928
#
# Stress axis : x y z
#
# Youngs Moduli (GPa) = 62.91805 52.18980 59.76723
#
# Poissons Ratio (x) = 0.20716 0.15388
# Poissons Ratio (y) = 0.24975 0.21244
# Poissons Ratio (z) = 0.16199 0.18550
#
# Static dielectric constant tensor:
#      x y z
#    x 2.066800 -0.027780 0.031120 
#    y -0.027780 2.016750 -0.035070 
#    z 0.031120 -0.035070 1.922680 
# 
# From -- ./inp_files/548133.got.cif
#   From: 2010.05.17/outbox.cif.g08.bks.cpg/sg2_275_cif.got.tgz:548133.got - 2010.06.03 11:33:40.
