data_PCOD9054289
_publ_section_title
;
Structure prediction by ZEFSAII (Michael W. Deem and Ramdas Pophale) SiO2 
 PCOD9054289
Probable space group: P -1
;
_chemical_formula_sum "Si O2"
_cell_formula_units_Z 12
_cell_length_a 21.215346
_cell_length_b 15.249645
_cell_length_c 8.860464
_cell_angle_alpha 146.132469
_cell_angle_beta 139.157862
_cell_angle_gamma 18.717475
_cell_volume 505.418452
_symmetry_space_group_name_H-M "P -1"
_symmetry_group_IT_number 2
_symmetry_cell_setting 'triclinic'
loop_
_space_group_symop_operation_xyz
x,y,z
-x,-y,-z
loop_
_atom_site_type_symbol
_atom_site_label
_atom_site_fract_x
_atom_site_fract_y
_atom_site_fract_z
Si Si1 0.303036 0.227794 0.543644
Si Si2 0.898582 0.157700 0.876197
Si Si3 0.629195 0.232824 0.510724
Si Si4 0.850275 0.780457 0.005750
Si Si5 0.806817 0.125531 0.214317
Si Si6 0.800223 0.870429 0.598808
O O1 0.359196 0.029425 0.495595
O O2 0.500000 0.000000 0.500000
O O3 0.189756 0.540154 0.848539
O O4 0.198881 0.279433 0.293575
O O5 0.732823 0.257072 0.713191
O O6 0.051285 0.943791 0.702948
O O7 0.000000 0.000000 0.000000
O O8 0.405806 0.536858 0.608145
O O9 0.658120 0.105586 0.221579
O O10 0.772188 0.945570 0.482398
O O11 0.913075 0.848187 0.123897
O O12 0.000000 0.500000 0.000000
O O13 0.759519 0.086669 0.925812
O O14 0.000000 0.500000 0.500000
#
# Coordination Sequence:
#
# PCOD9054289 Si02
#       6
#     2   2   2   2   2   2
#     4  11  25  44  73 102 138 184 248 288 343 434
#     4  12  23  41  72 106 135 181 244 293 340 425
#     4  12  25  44  72 102 145 184 234 299 360 416
#     4  11  25  47  71 102 149 191 224 297 373 417
#     4  11  24  41  71 101 140 186 240 286 357 426
#     4  11  20  42  68  98 139 189 232 285 355 422
#
# _framework density 23.742704
#
# number of rings (size 3 to 8) (size 9 to 14) (size 15 to 20)
#    0.000    0.667    3.333    6.000    2.333    0.667 
#    0.000    0.833    0.000    0.000    0.000    0.000 
#    0.000    0.000    0.000    0.000    0.000    0.000 
#
# Total GULP energy -66990.220970 kJ/mol
# GULP energy per Si atom -5582.518414 kJ/mol
# Density = 2.368866 g / cm^3
# Si number density = 23.742704 Si / 1000 Ang^3
#
#
#
# Elastic Constant Matrix: (Units=GPa)
#
#
# Indices 1 2 3 4 5 6 
#
# 1 208.9134 71.2106 40.8021 0.2495 -14.4346 -8.6244
# 2 71.2106 98.3488 29.8044 6.6062 -3.6350 0.7785
# 3 40.8021 29.8044 89.8225 0.9597 -20.9806 -17.9476
# 4 0.2495 6.6062 0.9597 18.8996 -7.0280 -15.1346
# 5 -14.4346 -3.6350 -20.9806 -7.0280 49.4186 0.9642
# 6 -8.6244 0.7785 -17.9476 -15.1346 0.9642 49.1694
#
#
#
# Elastic Compliance Matrix: (Units=1/GPa)
#
#
# Indices 1 2 3 4 5 6 
#
# 1 0.006832 -0.005014 -0.000556 0.004311 0.001958 0.002363
# 2 -0.005014 0.016108 -0.005241 -0.012213 -0.004110 -0.006726
# 3 -0.000556 -0.005241 0.016782 0.011606 0.008042 0.009526
# 4 0.004311 -0.012213 0.011606 0.088704 0.017276 0.032150
# 5 0.001958 -0.004110 0.008042 0.017276 0.026217 0.008147
# 6 0.002363 -0.006726 0.009526 0.032150 0.008147 0.034072
#
#
# Mechanical properties :
#
#
# Convention : Reuss Voigt Hill
#
# Bulk Modulus (GPa) = 55.24785 75.63546 65.44166
# Shear Modulus (GPa) = 23.10834 40.51537 31.81186
#
# Velocity S-wave (km/s) = 3.12313 4.13538 3.66438
# Velocity P-wave (km/s) = 6.02704 7.39779 6.74731
#
# Compressibility (1/GPa) = 0.01810025
#
# Stress axis : x y z
#
# Youngs Moduli (GPa) = 146.36647 62.07930 59.58588
#
# Poissons Ratio (x) = 0.31128 0.03315
# Poissons Ratio (y) = 0.73392 0.31228
# Poissons Ratio (z) = 0.08142 0.32535
#
# Static dielectric constant tensor:
#      x y z
#    x 1.719930 -0.200480 -0.140110 
#    y -0.200480 2.055420 -0.027470 
#    z -0.140110 -0.027470 1.858100 
# 
# From -- ./inp_files/199300.got.cif
#   From: 2010.05.17/outbox.cif.g08.bks.cpg/sg2_100_cif.got.tgz:199300.got - 2010.06.03 11:33:40.
