data_PCOD9054387
_publ_section_title
;
Structure prediction by ZEFSAII (Michael W. Deem and Ramdas Pophale) SiO2 
 PCOD9054387
Probable space group: P -1
;
_chemical_formula_sum "Si O2"
_cell_formula_units_Z 16
_cell_length_a 10.737809
_cell_length_b 13.938383
_cell_length_c 8.077906
_cell_angle_alpha 84.366580
_cell_angle_beta 92.307959
_cell_angle_gamma 31.882204
_cell_volume 617.653359
_symmetry_space_group_name_H-M "P -1"
_symmetry_group_IT_number 2
_symmetry_cell_setting 'triclinic'
loop_
_space_group_symop_operation_xyz
x,y,z
-x,-y,-z
loop_
_atom_site_type_symbol
_atom_site_label
_atom_site_fract_x
_atom_site_fract_y
_atom_site_fract_z
Si Si1 0.194643 0.870406 0.178870
Si Si2 0.364529 0.921211 0.394922
Si Si3 0.988632 0.306920 0.865084
Si Si4 0.474600 0.507664 0.299690
Si Si5 0.261494 0.852026 0.705180
Si Si6 0.179874 0.358140 0.721306
Si Si7 0.118332 0.274074 0.250159
Si Si8 0.491882 0.864260 0.897104
O O1 0.277335 0.921277 0.226530
O O2 0.424371 0.648373 0.205908
O O3 0.021753 0.945656 0.305341
O O4 0.000000 0.000000 0.000000
O O5 0.337617 0.860753 0.546072
O O6 0.636646 0.774701 0.396920
O O7 0.199503 0.124049 0.372583
O O8 0.983044 0.406358 0.735049
O O9 0.767436 0.387424 0.787598
O O10 0.241771 0.086423 0.874011
O O11 0.997230 0.326504 0.057221
O O12 0.500000 0.500000 0.500000
O O13 0.683510 0.298142 0.278574
O O14 0.422805 0.800773 0.858950
O O15 0.061297 0.540974 0.687304
O O16 0.341328 0.241197 0.915621
O O17 0.352896 0.182409 0.225748
#
# Coordination Sequence:
#
# PCOD9054387 Si02
#       8
#     2   2   2   2   2   2   2   2
#     4  12  27  48  76 102 137 186 242 294 345 418
#     4  12  25  42  66 105 145 182 232 289 356 420
#     4  11  20  43  74 102 141 188 239 296 347 414
#     4  12  26  47  74 104 142 191 235 290 354 416
#     4  12  27  46  73  98 143 187 228 289 363 416
#     4  11  22  42  71 107 141 182 239 292 347 426
#     4  11  22  41  73 106 142 185 235 292 349 417
#     4  11  20  43  73 102 142 187 234 292 354 415
#
# _framework density 25.904499000000001
#
# number of rings (size 3 to 8) (size 9 to 14) (size 15 to 20)
#    0.000    0.500    5.000    5.625    0.000    3.000 
#    0.000    1.250    0.000    0.000    0.000    0.000 
#    0.000    0.000    0.000    0.000    0.000    0.000 
#
# Total GULP energy -89779.119075 kJ/mol
# GULP energy per Si atom -5611.194942 kJ/mol
# Density = 2.584554 g / cm^3
# Si number density = 25.904499 Si / 1000 Ang^3
#
#
#
# Elastic Constant Matrix: (Units=GPa)
#
#
# Indices 1 2 3 4 5 6 
#
# 1 68.1457 13.5816 -8.7165 -10.2426 8.0299 15.3431
# 2 13.5816 122.6306 12.1706 -18.6936 -14.3118 44.0321
# 3 -8.7165 12.1706 79.5051 -12.2867 4.7294 4.6256
# 4 -10.2426 -18.6936 -12.2867 25.5913 2.4582 -2.3116
# 5 8.0299 -14.3118 4.7294 2.4582 43.1813 -6.7514
# 6 15.3431 44.0321 4.6256 -2.3116 -6.7514 49.4105
#
#
#
# Elastic Compliance Matrix: (Units=1/GPa)
#
#
# Indices 1 2 3 4 5 6 
#
# 1 0.018849 0.001121 0.004231 0.010231 -0.005352 -0.007501
# 2 0.001121 0.014076 0.000016 0.009445 0.002014 -0.012176
# 3 0.004231 0.000016 0.014768 0.008867 -0.003334 -0.002752
# 4 0.010231 0.009445 0.008867 0.053805 -0.004450 -0.010515
# 5 -0.005352 0.002014 -0.003334 -0.004450 0.025990 0.003523
# 6 -0.007501 -0.012176 -0.002752 -0.010515 0.003523 0.033665
#
#
# Mechanical properties :
#
#
# Convention : Reuss Voigt Hill
#
# Bulk Modulus (GPa) = 17.11494 33.81700 25.46597
# Shear Modulus (GPa) = 29.43020 40.51965 34.97493
#
# Velocity S-wave (km/s) = 3.37427 3.95928 3.67842
# Velocity P-wave (km/s) = 4.66928 5.82958 5.28139
#
# Compressibility (1/GPa) = 0.05842849
#
# Stress axis : x y z
#
# Youngs Moduli (GPa) = 53.05194 71.04539 67.71443
#
# Poissons Ratio (x) = -0.07961 -0.28649
# Poissons Ratio (y) = -0.05945 -0.00111
# Poissons Ratio (z) = -0.22445 -0.00117
#
# Static dielectric constant tensor:
#      x y z
#    x 2.014350 -0.002710 -0.001130 
#    y -0.002710 2.000460 0.044070 
#    z -0.001130 0.044070 2.103450 
# 
# From -- ./inp_files/273189.got.cif
#   From: 2010.05.17/outbox.cif.g08.bks.cpg/sg2_137_cif.got.tgz:273189.got - 2010.06.03 11:33:40.
