data_PCOD9054214
_publ_section_title
;
Structure prediction by ZEFSAII (Michael W. Deem and Ramdas Pophale) SiO2 
 PCOD9054214
Probable space group: P -1
;
_chemical_formula_sum "Si O2"
_cell_formula_units_Z 12
_cell_length_a 9.501029
_cell_length_b 17.245375
_cell_length_c 12.011729
_cell_angle_alpha 21.219476
_cell_angle_beta 68.812054
_cell_angle_gamma 58.079825
_cell_volume 546.469580
_symmetry_space_group_name_H-M "P -1"
_symmetry_group_IT_number 2
_symmetry_cell_setting 'triclinic'
loop_
_space_group_symop_operation_xyz
x,y,z
-x,-y,-z
loop_
_atom_site_type_symbol
_atom_site_label
_atom_site_fract_x
_atom_site_fract_y
_atom_site_fract_z
Si Si1 0.012678 0.160550 0.379905
Si Si2 0.080617 0.890367 0.291417
Si Si3 0.838373 0.483020 0.615600
Si Si4 0.393778 0.917657 0.718166
Si Si5 0.130282 0.345056 0.384847
Si Si6 0.473174 0.603893 0.493411
O O1 0.885654 0.207095 0.459618
O O2 0.216553 0.997866 0.588749
O O3 0.000000 0.000000 0.500000
O O4 0.959428 0.430702 0.982456
O O5 0.263281 0.843546 0.250723
O O6 0.009158 0.741754 0.442822
O O7 0.913666 0.189795 0.950474
O O8 0.836798 0.539854 0.670317
O O9 0.629763 0.653782 0.404545
O O10 0.000000 0.500000 0.500000
O O11 0.500000 0.000000 0.500000
O O12 0.314413 0.100421 0.605972
O O13 0.495734 0.622774 0.127556
O O14 0.500000 0.500000 0.500000
#
# Coordination Sequence:
#
# PCOD9054214 Si02
#       6
#     2   2   2   2   2   2
#     4  11  20  41  70 101 134 175 223 280 344 405
#     4  11  24  46  70  96 142 176 226 285 339 401
#     4  12  27  46  69 102 135 184 234 280 342 408
#     4  11  23  42  69 103 138 178 230 281 342 407
#     4  11  22  44  73  97 140 180 224 285 346 405
#     4  12  26  46  70 102 139 184 231 280 344 412
#
# _framework density 21.959136999999998
#
# number of rings (size 3 to 8) (size 9 to 14) (size 15 to 20)
#    0.000    0.667    5.000    5.000    2.333    3.333 
#    3.000    3.333    0.000    0.000    0.000    0.000 
#    0.000    0.000    0.000    0.000    0.000    0.000 
#
# Total GULP energy -67106.356646 kJ/mol
# GULP energy per Si atom -5592.196387 kJ/mol
# Density = 2.190916 g / cm^3
# Si number density = 21.959137 Si / 1000 Ang^3
#
#
#
# Elastic Constant Matrix: (Units=GPa)
#
#
# Indices 1 2 3 4 5 6 
#
# 1 109.6126 64.2180 -3.3860 6.1453 -0.1650 -8.9733
# 2 64.2180 113.7947 -13.5668 0.5438 15.6008 -4.4107
# 3 -3.3860 -13.5668 35.2382 -7.7281 -4.5183 0.5478
# 4 6.1453 0.5438 -7.7281 36.9522 -1.2062 -0.5701
# 5 -0.1650 15.6008 -4.5183 -1.2062 29.5813 5.4550
# 6 -8.9733 -4.4107 0.5478 -0.5701 5.4550 52.4374
#
#
#
# Elastic Compliance Matrix: (Units=1/GPa)
#
#
# Indices 1 2 3 4 5 6 
#
# 1 0.014580 -0.008986 -0.002112 -0.002579 0.004153 0.001301
# 2 -0.008986 0.015442 0.004544 0.001980 -0.007514 0.000517
# 3 -0.002112 0.004544 0.031838 0.007027 0.002839 -0.000531
# 4 -0.002579 0.001980 0.007027 0.028969 0.001225 -0.000161
# 5 0.004153 -0.007514 0.002839 0.001225 0.039012 -0.003996
# 6 0.001301 0.000517 -0.000531 -0.000161 -0.003996 0.019756
#
#
# Mechanical properties :
#
#
# Convention : Reuss Voigt Hill
#
# Bulk Modulus (GPa) = 20.51204 39.24178 29.87691
# Shear Modulus (GPa) = 27.94001 37.88620 32.91310
#
# Velocity S-wave (km/s) = 3.57089 4.15818 3.87568
# Velocity P-wave (km/s) = 5.13449 6.40025 5.80199
#
# Compressibility (1/GPa) = 0.04875185
#
# Stress axis : x y z
#
# Youngs Moduli (GPa) = 68.58780 64.76053 31.40862
#
# Poissons Ratio (x) = 0.58196 0.06633
# Poissons Ratio (y) = 0.61635 -0.14273
# Poissons Ratio (z) = 0.14486 -0.29429
#
# Static dielectric constant tensor:
#      x y z
#    x 1.795810 -0.035460 -0.033930 
#    y -0.035460 1.822360 0.014930 
#    z -0.033930 0.014930 1.883910 
# 
# From -- ./inp_files/221446.got.cif
#   From: 2010.05.17/outbox.cif.g08.bks.cpg/sg2_111_cif.got.tgz:221446.got - 2010.06.03 11:33:40.
