data_PCOD9054551
_publ_section_title
;
Structure prediction by ZEFSAII (Michael W. Deem and Ramdas Pophale) SiO2 
 PCOD9054551
Probable space group: P -1
;
_chemical_formula_sum "Si O2"
_cell_formula_units_Z 14
_cell_length_a 7.622623
_cell_length_b 9.005016
_cell_length_c 15.564627
_cell_angle_alpha 118.770976
_cell_angle_beta 95.072688
_cell_angle_gamma 130.133385
_cell_volume 575.532591
_symmetry_space_group_name_H-M "P -1"
_symmetry_group_IT_number 2
_symmetry_cell_setting 'triclinic'
loop_
_space_group_symop_operation_xyz
x,y,z
-x,-y,-z
loop_
_atom_site_type_symbol
_atom_site_label
_atom_site_fract_x
_atom_site_fract_y
_atom_site_fract_z
Si Si1 0.256749 0.194881 0.941486
Si Si2 0.266908 0.657659 0.448111
Si Si3 0.253635 0.794855 0.135787
Si Si4 0.213951 0.739346 0.297173
Si Si5 0.502694 0.370531 0.699416
Si Si6 0.689815 0.882394 0.902525
Si Si7 0.169281 0.944278 0.703510
O O1 0.083198 0.984258 0.795834
O O2 0.500000 0.500000 0.000000
O O3 0.369713 0.151292 0.007567
O O4 0.029539 0.129753 0.967935
O O5 0.103604 0.646942 0.364750
O O6 0.476881 0.685919 0.412311
O O7 0.049267 0.373602 0.408882
O O8 0.472580 0.939263 0.585667
O O9 0.114492 0.751674 0.209153
O O10 0.388507 0.027396 0.139381
O O11 0.525384 0.891837 0.203865
O O12 0.000000 0.500000 0.000000
O O13 0.240362 0.555985 0.232026
O O14 0.554330 0.604152 0.785683
O O15 0.227998 0.102067 0.666710
#
# Coordination Sequence:
#
# PCOD9054551 Si02
#       7
#     2   2   2   2   2   2   2
#     4  11  21  36  60  84 110 165 205 231 281 366
#     4   9  18  39  67  86 109 159 212 239 279 352
#     4  11  25  39  56  92 130 153 184 252 306 348
#     4   8  19  40  62  86 119 156 198 245 292 348
#     4   9  18  36  59  86 109 150 201 246 280 343
#     4  11  23  37  57  82 127 151 192 250 298 338
#     4  11  21  37  65  86 115 156 207 238 287 359
#
# _framework density 24.325296000000002
#
# number of rings (size 3 to 8) (size 9 to 14) (size 15 to 20)
#    0.857    1.143    2.857    0.857    8.000    2.857 
#    2.571    0.714    0.000    1.714    0.000    0.000 
#    0.000    0.000    0.000    0.000    0.000    0.000 
#
# Total GULP energy -77969.155278 kJ/mol
# GULP energy per Si atom -5569.225377 kJ/mol
# Density = 2.426993 g / cm^3
# Si number density = 24.325296 Si / 1000 Ang^3
#
#
#
# Elastic Constant Matrix: (Units=GPa)
#
#
# Indices 1 2 3 4 5 6 
#
# 1 19.3250 12.2295 11.9414 4.8244 -7.7873 -0.3643
# 2 12.2295 179.8154 46.7110 16.7340 -2.2450 -5.1165
# 3 11.9414 46.7110 106.8255 10.5129 -22.0758 -7.2379
# 4 4.8244 16.7340 10.5129 48.7624 -4.0372 -4.9926
# 5 -7.7873 -2.2450 -22.0758 -4.0372 25.0791 3.4864
# 6 -0.3643 -5.1165 -7.2379 -4.9926 3.4864 31.6006
#
#
#
# Elastic Compliance Matrix: (Units=1/GPa)
#
#
# Indices 1 2 3 4 5 6 
#
# 1 0.062822 -0.003338 -0.001797 -0.003516 0.017437 -0.002707
# 2 -0.003338 0.006705 -0.003092 -0.001543 -0.003473 0.000478
# 3 -0.001797 -0.003092 0.013239 -0.000614 0.010546 0.001250
# 4 -0.003516 -0.001543 -0.000614 0.021925 0.001358 0.002883
# 5 0.017437 -0.003473 0.010546 0.001358 0.055007 -0.003800
# 6 -0.002707 0.000478 0.001250 0.002883 -0.003800 0.032852
#
#
# Mechanical properties :
#
#
# Convention : Reuss Voigt Hill
#
# Bulk Modulus (GPa) = 15.08032 49.74774 32.41403
# Shear Modulus (GPa) = 21.63478 36.76069 29.19773
#
# Velocity S-wave (km/s) = 2.98551 3.89165 3.46830
# Velocity P-wave (km/s) = 4.25408 6.37877 5.42153
#
# Compressibility (1/GPa) = 0.06631158
#
# Stress axis : x y z
#
# Youngs Moduli (GPa) = 15.91792 149.13304 75.53669
#
# Poissons Ratio (x) = 0.49780 0.13574
# Poissons Ratio (y) = 0.05313 0.23359
# Poissons Ratio (z) = 0.02860 0.46118
#
# Static dielectric constant tensor:
#      x y z
#    x 2.131650 0.019430 0.001370 
#    y 0.019430 2.029680 -0.138480 
#    z 0.001370 -0.138480 2.000890 
# 
# From -- ./inp_files/493441.got.cif
#   From: 2010.05.17/outbox.cif.g08.bks.cpg/sg2_247_cif.got.tgz:493441.got - 2010.06.03 11:33:40.
