data_PCOD9054685
_publ_section_title
;
Structure prediction by ZEFSAII (Michael W. Deem and Ramdas Pophale) SiO2 
 PCOD9054685
Probable space group: P -1
;
_chemical_formula_sum "Si O2"
_cell_formula_units_Z 14
_cell_length_a 9.292429
_cell_length_b 11.549749
_cell_length_c 12.041604
_cell_angle_alpha 39.378961
_cell_angle_beta 130.218671
_cell_angle_gamma 121.863653
_cell_volume 624.986747
_symmetry_space_group_name_H-M "P -1"
_symmetry_group_IT_number 2
_symmetry_cell_setting 'triclinic'
loop_
_space_group_symop_operation_xyz
x,y,z
-x,-y,-z
loop_
_atom_site_type_symbol
_atom_site_label
_atom_site_fract_x
_atom_site_fract_y
_atom_site_fract_z
Si Si1 0.166990 0.495938 0.677452
Si Si2 0.951837 0.582785 0.081651
Si Si3 0.091576 0.985329 0.932093
Si Si4 0.451278 0.210418 0.960311
Si Si5 0.419420 0.038409 0.616584
Si Si6 0.695411 0.560479 0.761429
Si Si7 0.250821 0.880787 0.428113
O O1 0.092019 0.508442 0.754708
O O2 0.291479 0.321809 0.860801
O O3 0.307726 0.673840 0.602188
O O4 0.000000 0.500000 0.500000
O O5 0.114921 0.478142 0.181342
O O6 0.770053 0.584764 0.908448
O O7 0.032262 0.786365 0.002122
O O8 0.311042 0.039969 0.977095
O O9 0.969551 0.121566 0.700609
O O10 0.000000 0.000000 0.000000
O O11 0.558067 0.374951 0.822785
O O12 0.599400 0.108325 0.185679
O O13 0.382540 0.250034 0.463269
O O14 0.630758 0.022390 0.683995
O O15 0.295300 0.973845 0.497487
#
# Coordination Sequence:
#
# PCOD9054685 Si02
#       7
#     2   2   2   2   2   2   2
#     4  12  23  41  71 103 135 181 237 287 340 410
#     4  11  25  47  71  98 144 189 229 285 355 421
#     4  12  21  42  68 100 137 179 228 287 344 403
#     4  12  25  42  73 105 138 179 238 290 347 407
#     4  11  23  40  68 103 137 180 233 291 339 409
#     4  11  26  48  68 104 145 185 229 285 355 423
#     4  11  21  37  66 101 136 173 233 292 334 398
#
# _framework density 22.400473999999999
#
# number of rings (size 3 to 8) (size 9 to 14) (size 15 to 20)
#    0.000    0.571    7.143    0.857    2.000    1.714 
#    2.571    5.000    0.000    0.000    0.000    0.000 
#    0.000    0.000    0.000    0.000    0.000    0.000 
#
# Total GULP energy -78097.273304 kJ/mol
# GULP energy per Si atom -5578.376665 kJ/mol
# Density = 2.234949 g / cm^3
# Si number density = 22.400474 Si / 1000 Ang^3
#
#
#
# Elastic Constant Matrix: (Units=GPa)
#
#
# Indices 1 2 3 4 5 6 
#
# 1 34.2995 -9.6374 15.0798 13.7377 4.5939 3.8370
# 2 -9.6374 61.0798 5.2179 -12.0163 3.6301 8.1551
# 3 15.0798 5.2179 107.8070 -13.2902 7.9330 -5.1345
# 4 13.7377 -12.0163 -13.2902 37.1298 6.2811 -0.9464
# 5 4.5939 3.6301 7.9330 6.2811 23.0071 -1.0352
# 6 3.8370 8.1551 -5.1345 -0.9464 -1.0352 27.0695
#
#
#
# Elastic Compliance Matrix: (Units=1/GPa)
#
#
# Indices 1 2 3 4 5 6 
#
# 1 0.042778 0.005630 -0.008663 -0.016981 -0.002260 -0.010083
# 2 0.005630 0.019497 -0.001102 0.004566 -0.005378 -0.006927
# 3 -0.008663 -0.001102 0.012024 0.007971 -0.004240 0.003957
# 4 -0.016981 0.004566 0.007971 0.039444 -0.010688 0.003514
# 5 -0.002260 -0.005378 -0.004240 -0.010688 0.049264 0.002647
# 6 -0.010083 -0.006927 0.003957 0.003514 0.002647 0.041433
#
#
# Mechanical properties :
#
#
# Convention : Reuss Voigt Hill
#
# Bulk Modulus (GPa) = 15.14546 24.94520 20.04533
# Shear Modulus (GPa) = 21.30197 30.27636 25.78917
#
# Velocity S-wave (km/s) = 3.08711 3.68039 3.39673
# Velocity P-wave (km/s) = 4.41394 5.40561 4.93475
#
# Compressibility (1/GPa) = 0.06602639
#
# Stress axis : x y z
#
# Youngs Moduli (GPa) = 23.37674 51.28957 83.16640
#
# Poissons Ratio (x) = -0.28874 0.72050
# Poissons Ratio (y) = -0.13160 0.09168
# Poissons Ratio (z) = 0.20252 0.05654
#
# Static dielectric constant tensor:
#      x y z
#    x 1.857470 0.045000 -0.044230 
#    y 0.045000 1.938180 -0.024500 
#    z -0.044230 -0.024500 1.871520 
# 
# From -- ./inp_files/205379.got.cif
#   From: 2010.05.17/outbox.cif.g08.bks.cpg/sg2_103_cif.got.tgz:205379.got - 2010.06.03 11:33:40.
