data_PCOD9054988
_publ_section_title
;
Structure prediction by ZEFSAII (Michael W. Deem and Ramdas Pophale) SiO2 
 PCOD9054988
Probable space group: P -1
;
_chemical_formula_sum "Si O2"
_cell_formula_units_Z 14
_cell_length_a 15.579186
_cell_length_b 12.209841
_cell_length_c 18.144864
_cell_angle_alpha 138.574769
_cell_angle_beta 23.465370
_cell_angle_gamma 152.426005
_cell_volume 597.510482
_symmetry_space_group_name_H-M "P -1"
_symmetry_group_IT_number 2
_symmetry_cell_setting 'triclinic'
loop_
_space_group_symop_operation_xyz
x,y,z
-x,-y,-z
loop_
_atom_site_type_symbol
_atom_site_label
_atom_site_fract_x
_atom_site_fract_y
_atom_site_fract_z
Si Si1 0.240995 0.789265 0.721097
Si Si2 0.215629 0.008332 0.152997
Si Si3 0.234774 0.286777 0.041566
Si Si4 0.776892 0.660387 0.599159
Si Si5 0.306912 0.674078 0.399025
Si Si6 0.961921 0.819214 0.093083
Si Si7 0.052350 0.709624 0.269065
O O1 0.945703 0.673452 0.840657
O O2 0.230457 0.590056 0.646004
O O3 0.551641 0.059186 0.576167
O O4 0.179251 0.839446 0.874641
O O5 0.164748 0.169425 0.298109
O O6 0.031899 0.790964 0.249070
O O7 0.599182 0.182457 0.947313
O O8 0.099960 0.903477 0.109026
O O9 0.500000 0.500000 0.000000
O O10 0.417095 0.281049 0.833892
O O11 0.983436 0.018347 0.144783
O O12 0.799851 0.488851 0.527690
O O13 0.403484 0.463494 0.766368
O O14 0.020529 0.813855 0.415981
O O15 0.000000 0.500000 0.500000
#
# Coordination Sequence:
#
# PCOD9054988 Si02
#       7
#     2   2   2   2   2   2   2
#     4  11  22  44  66 105 140 180 226 276 352 418
#     4  11  26  50  68 100 137 185 233 282 347 396
#     4  11  21  39  69  97 138 186 213 275 355 409
#     4  12  24  47  69 101 139 178 232 286 339 412
#     4  11  24  39  63 103 140 171 225 283 342 411
#     4  11  22  43  71  95 139 186 220 282 347 406
#     4  11  26  45  73 100 136 180 236 288 330 414
#
# _framework density 23.430551000000001
#
# number of rings (size 3 to 8) (size 9 to 14) (size 15 to 20)
#    0.000    0.857    4.286    3.000    6.000    4.000 
#    0.000    0.000    0.000    0.000    0.000    0.000 
#    0.000    0.000    0.000    0.000    0.000    0.000 
#
# Total GULP energy -78404.797475 kJ/mol
# GULP energy per Si atom -5600.342677 kJ/mol
# Density = 2.337722 g / cm^3
# Si number density = 23.430551 Si / 1000 Ang^3
#
#
#
# Elastic Constant Matrix: (Units=GPa)
#
#
# Indices 1 2 3 4 5 6 
#
# 1 160.2272 51.8616 23.5542 -5.4231 34.5321 3.8409
# 2 51.8616 101.2366 11.7698 -4.2189 5.3755 1.7221
# 3 23.5542 11.7698 52.1427 18.1354 16.9156 -1.7991
# 4 -5.4231 -4.2189 18.1354 27.6540 10.6496 9.2252
# 5 34.5321 5.3755 16.9156 10.6496 33.5777 0.8381
# 6 3.8409 1.7221 -1.7991 9.2252 0.8381 44.1173
#
#
#
# Elastic Compliance Matrix: (Units=1/GPa)
#
#
# Indices 1 2 3 4 5 6 
#
# 1 0.011025 -0.004182 -0.003531 0.009252 -0.011758 -0.002652
# 2 -0.004182 0.012227 -0.002479 0.001698 0.003069 -0.000628
# 3 -0.003531 -0.002479 0.030493 -0.021314 -0.004728 0.006194
# 4 0.009252 0.001698 -0.021314 0.064549 -0.019151 -0.014875
# 5 -0.011758 0.003069 -0.004728 -0.019151 0.049744 0.003771
# 6 -0.002652 -0.000628 0.006194 -0.014875 0.003771 0.026214
#
#
# Mechanical properties :
#
#
# Convention : Reuss Voigt Hill
#
# Bulk Modulus (GPa) = 29.97542 54.21977 42.09759
# Shear Modulus (GPa) = 22.14772 36.16451 29.15612
#
# Velocity S-wave (km/s) = 3.07783 3.93297 3.53138
# Velocity P-wave (km/s) = 5.04497 6.61931 5.88502
#
# Compressibility (1/GPa) = 0.03336067
#
# Stress axis : x y z
#
# Youngs Moduli (GPa) = 90.70530 81.78665 32.79408
#
# Poissons Ratio (x) = 0.34205 0.11580
# Poissons Ratio (y) = 0.37935 0.08129
# Poissons Ratio (z) = 0.32030 0.20272
#
# Static dielectric constant tensor:
#      x y z
#    x 1.839550 0.005490 0.007400 
#    y 0.005490 1.909970 -0.007720 
#    z 0.007400 -0.007720 1.891490 
# 
# From -- ./inp_files/179753.got.cif
#   From: 2010.05.17/outbox.cif.g08.bks.cpg/sg2_90_cif.got.tgz:179753.got - 2010.06.03 11:33:40.
