data_PCOD9054993
_publ_section_title
;
Structure prediction by ZEFSAII (Michael W. Deem and Ramdas Pophale) SiO2 
 PCOD9054993
Probable space group: P -1
;
_chemical_formula_sum "Si O2"
_cell_formula_units_Z 16
_cell_length_a 17.783305
_cell_length_b 12.269075
_cell_length_c 20.885385
_cell_angle_alpha 29.763746
_cell_angle_beta 20.186634
_cell_angle_gamma 29.299849
_cell_volume 735.632480
_symmetry_space_group_name_H-M "P -1"
_symmetry_group_IT_number 2
_symmetry_cell_setting 'triclinic'
loop_
_space_group_symop_operation_xyz
x,y,z
-x,-y,-z
loop_
_atom_site_type_symbol
_atom_site_label
_atom_site_fract_x
_atom_site_fract_y
_atom_site_fract_z
Si Si1 0.756454 0.508674 0.282443
Si Si2 0.859673 0.734861 0.453175
Si Si3 0.991597 0.974611 0.337287
Si Si4 0.294374 0.734101 0.028280
Si Si5 0.666552 0.142601 0.210290
Si Si6 0.957832 0.657110 0.173574
Si Si7 0.096169 0.161783 0.385142
Si Si8 0.632823 0.955063 0.082175
O O1 0.500000 0.500000 0.500000
O O2 0.837691 0.602586 0.233998
O O3 0.749733 0.680791 0.140771
O O4 0.911928 0.243746 0.282417
O O5 0.609977 0.768028 0.605229
O O6 0.000000 0.500000 0.500000
O O7 0.044581 0.746774 0.246742
O O8 0.829924 0.927370 0.434869
O O9 0.236546 0.927665 0.130769
O O10 0.992669 0.831800 0.473824
O O11 0.500000 0.500000 0.000000
O O12 0.299560 0.764412 0.934116
O O13 0.356186 0.933941 0.914241
O O14 0.781762 0.864370 0.251050
O O15 0.831863 0.249843 0.063642
O O16 0.042836 0.417619 0.267881
O O17 0.369013 0.027665 0.237293
O O18 0.000000 0.000000 0.500000
#
# Coordination Sequence:
#
# PCOD9054993 Si02
#       8
#     2   2   2   2   2   2   2   2
#     4  12  21  45  73  98 136 181 237 283 340 412
#     4  11  24  40  70 105 127 176 236 278 343 407
#     4  11  25  42  69 101 133 174 233 288 334 406
#     4  11  21  39  70 100 130 172 226 289 335 403
#     4  11  23  45  66  98 147 178 224 283 353 419
#     4  11  25  42  71 100 142 190 218 285 359 405
#     4  12  24  45  66  99 138 181 230 278 346 405
#     4  11  24  42  71  97 131 180 232 283 340 402
#
# _framework density 21.749991000000001
#
# number of rings (size 3 to 8) (size 9 to 14) (size 15 to 20)
#    0.000    0.750    5.000    2.625    3.500    0.500 
#    0.000    3.750    5.500    0.000    0.000    0.000 
#    0.000    0.000    0.000    0.000    0.000    0.000 
#
# Total GULP energy -89473.785980 kJ/mol
# GULP energy per Si atom -5592.111624 kJ/mol
# Density = 2.170049 g / cm^3
# Si number density = 21.749991 Si / 1000 Ang^3
#
#
#
# Elastic Constant Matrix: (Units=GPa)
#
#
# Indices 1 2 3 4 5 6 
#
# 1 88.6196 27.2802 50.5821 3.4828 -18.1065 -3.9290
# 2 27.2802 115.9180 26.1758 -22.3408 -9.7908 -15.8469
# 3 50.5821 26.1758 108.9782 12.0361 -29.7724 -4.2796
# 4 3.4828 -22.3408 12.0361 34.9514 -3.9851 1.0326
# 5 -18.1065 -9.7908 -29.7724 -3.9851 49.7646 -8.6462
# 6 -3.9290 -15.8469 -4.2796 1.0326 -8.6462 37.1456
#
#
#
# Elastic Compliance Matrix: (Units=1/GPa)
#
#
# Indices 1 2 3 4 5 6 
#
# 1 0.015972 -0.002275 -0.006345 -0.000692 0.001577 0.000374
# 2 -0.002275 0.012167 -0.002146 0.008808 0.001836 0.004886
# 3 -0.006345 -0.002146 0.014945 -0.005242 0.006085 0.001697
# 4 -0.000692 0.008808 -0.005242 0.036233 0.001674 0.002463
# 5 0.001577 0.001836 0.006085 0.001674 0.026140 0.007689
# 6 0.000374 0.004886 0.001697 0.002463 0.007689 0.030962
#
#
# Mechanical properties :
#
#
# Convention : Reuss Voigt Hill
#
# Bulk Modulus (GPa) = 46.39828 57.95465 52.17647
# Shear Modulus (GPa) = 30.27816 38.33750 34.30783
#
# Velocity S-wave (km/s) = 3.73513 4.20294 3.97592
# Velocity P-wave (km/s) = 6.32301 7.08919 6.71703
#
# Compressibility (1/GPa) = 0.02155252
#
# Stress axis : x y z
#
# Youngs Moduli (GPa) = 62.60890 82.18752 66.91373
#
# Poissons Ratio (x) = 0.18699 0.42456
# Poissons Ratio (y) = 0.14244 0.14358
# Poissons Ratio (z) = 0.39725 0.17635
#
# Static dielectric constant tensor:
#      x y z
#    x 1.851310 -0.005520 -0.042710 
#    y -0.005520 1.860900 0.013250 
#    z -0.042710 0.013250 1.852630 
# 
# From -- ./inp_files/282963.got.cif
#   From: 2010.05.17/outbox.cif.g08.bks.cpg/sg2_142_cif.got.tgz:282963.got - 2010.06.03 11:33:40.
