data_PCOD9054090
_publ_section_title
;
Structure prediction by ZEFSAII (Michael W. Deem and Ramdas Pophale) SiO2 
 PCOD9054090
Probable space group: P -1
;
_chemical_formula_sum "Si O2"
_cell_formula_units_Z 14
_cell_length_a 5.576092
_cell_length_b 15.521395
_cell_length_c 15.009515
_cell_angle_alpha 151.787682
_cell_angle_beta 78.894060
_cell_angle_gamma 91.467161
_cell_volume 572.787145
_symmetry_space_group_name_H-M "P -1"
_symmetry_group_IT_number 2
_symmetry_cell_setting 'triclinic'
loop_
_space_group_symop_operation_xyz
x,y,z
-x,-y,-z
loop_
_atom_site_type_symbol
_atom_site_label
_atom_site_fract_x
_atom_site_fract_y
_atom_site_fract_z
Si Si1 0.280562 0.853402 0.856013
Si Si2 0.945875 0.454322 0.362151
Si Si3 0.474395 0.141628 0.530994
Si Si4 0.525025 0.726802 0.899582
Si Si5 0.515908 0.270037 0.890342
Si Si6 0.539788 0.694854 0.511134
Si Si7 0.140221 0.669021 0.225572
O O1 0.413676 0.876456 0.961749
O O2 0.394434 0.813655 0.713409
O O3 0.266201 0.645194 0.693688
O O4 0.000000 0.000000 0.000000
O O5 0.174339 0.302311 0.157452
O O6 0.000000 0.500000 0.500000
O O7 0.834331 0.630943 0.466286
O O8 0.499684 0.187975 0.468132
O O9 0.699445 0.209074 0.622722
O O10 0.169645 0.250012 0.673894
O O11 0.519261 0.914651 0.325022
O O12 0.522931 0.504079 0.686251
O O13 0.428912 0.779501 0.054461
O O14 0.750145 0.325648 0.877578
O O15 0.264666 0.454648 0.060963
#
# Coordination Sequence:
#
# PCOD9054090 Si02
#       7
#     2   2   2   2   2   2   2
#     4  11  25  39  61 101 139 185 240 292 354 439
#     4  11  20  40  68  83 134 190 235 289 357 418
#     4  12  27  49  78 110 153 196 250 308 380 445
#     4  11  22  46  64 100 138 187 243 296 363 433
#     4  11  26  47  80 109 147 198 250 308 380 452
#     4  11  23  42  66  99 139 190 239 300 363 429
#     4  11  27  53  76 113 151 194 248 318 375 445
#
# _framework density 24.441891999999999
#
# number of rings (size 3 to 8) (size 9 to 14) (size 15 to 20)
#    0.000    0.857    4.286    2.571    2.000    6.286 
#    7.714    0.000    0.000    0.000    0.000    0.000 
#    0.000    0.000    0.000    0.000    0.000    0.000 
#
# Total GULP energy -78122.882642 kJ/mol
# GULP energy per Si atom -5580.205903 kJ/mol
# Density = 2.438626 g / cm^3
# Si number density = 24.441892 Si / 1000 Ang^3
#
#
#
# Elastic Constant Matrix: (Units=GPa)
#
#
# Indices 1 2 3 4 5 6 
#
# 1 76.5396 14.4441 37.8560 -11.6553 -12.2364 -6.0826
# 2 14.4441 133.1752 14.8498 -30.2667 -13.5014 -13.2501
# 3 37.8560 14.8498 112.9228 8.3138 7.6027 -2.2246
# 4 -11.6553 -30.2667 8.3138 46.7304 3.0524 3.8948
# 5 -12.2364 -13.5014 7.6027 3.0524 40.2097 6.8547
# 6 -6.0826 -13.2501 -2.2246 3.8948 6.8547 30.0147
#
#
#
# Elastic Compliance Matrix: (Units=1/GPa)
#
#
# Indices 1 2 3 4 5 6 
#
# 1 0.018520 0.000958 -0.007195 0.005974 0.006634 0.001353
# 2 0.000958 0.009711 -0.002224 0.006496 0.003005 0.002787
# 3 -0.007195 -0.002224 0.012273 -0.005119 -0.004912 0.000256
# 4 0.005974 0.006496 -0.005119 0.027864 0.002953 -0.000591
# 5 0.006634 0.003005 -0.004912 0.002953 0.029419 -0.004795
# 6 0.001353 0.002787 0.000256 -0.000591 -0.004795 0.036012
#
#
# Mechanical properties :
#
#
# Convention : Reuss Voigt Hill
#
# Bulk Modulus (GPa) = 42.40196 50.77079 46.58638
# Shear Modulus (GPa) = 31.52955 40.42348 35.97651
#
# Velocity S-wave (km/s) = 3.59553 4.07118 3.84072
# Velocity P-wave (km/s) = 5.88411 6.55107 6.22653
#
# Compressibility (1/GPa) = 0.02358381
#
# Stress axis : x y z
#
# Youngs Moduli (GPa) = 53.99434 102.97369 81.48259
#
# Poissons Ratio (x) = -0.09869 0.58624
# Poissons Ratio (y) = -0.05175 0.18122
# Poissons Ratio (z) = 0.38847 0.22901
#
# Static dielectric constant tensor:
#      x y z
#    x 2.286180 -0.137460 0.156680 
#    y -0.137460 2.013400 -0.066310 
#    z 0.156680 -0.066310 2.039840 
# 
# From -- ./inp_files/98138.got.cif
#   From: 2010.05.17/outbox.cif.g08.bks.cpg/sg2_50_cif.got.tgz:98138.got - 2010.06.03 11:33:40.
