data_PCOD9054065
_publ_section_title
;
Structure prediction by ZEFSAII (Michael W. Deem and Ramdas Pophale) SiO2 
 PCOD9054065
Probable space group: P -1
;
_chemical_formula_sum "Si O2"
_cell_formula_units_Z 16
_cell_length_a 14.712468
_cell_length_b 12.212803
_cell_length_c 8.658697
_cell_angle_alpha 143.271614
_cell_angle_beta 99.907188
_cell_angle_gamma 63.657954
_cell_volume 783.342243
_symmetry_space_group_name_H-M "P -1"
_symmetry_group_IT_number 2
_symmetry_cell_setting 'triclinic'
loop_
_space_group_symop_operation_xyz
x,y,z
-x,-y,-z
loop_
_atom_site_type_symbol
_atom_site_label
_atom_site_fract_x
_atom_site_fract_y
_atom_site_fract_z
Si Si1 0.522995 0.647932 0.320865
Si Si2 0.883496 0.816394 0.937065
Si Si3 0.319038 0.252288 0.674785
Si Si4 0.129452 0.509545 0.671845
Si Si5 0.599673 0.205731 0.964377
Si Si6 0.588865 0.681082 0.725902
Si Si7 0.682819 0.916158 0.189878
Si Si8 0.219841 0.751148 0.769039
O O1 0.595612 0.675562 0.248088
O O2 0.546554 0.409020 0.065188
O O3 0.569837 0.672165 0.528733
O O4 0.399885 0.840233 0.508540
O O5 0.865386 0.677750 0.644892
O O6 0.005438 0.666162 0.860141
O O7 0.792941 0.877425 0.108544
O O8 0.862948 0.037615 0.109084
O O9 0.211399 0.404073 0.718188
O O10 0.298674 0.231219 0.823273
O O11 0.374978 0.013887 0.350870
O O12 0.165478 0.646580 0.734308
O O13 0.516693 0.264700 0.148044
O O14 0.710550 0.181515 0.029182
O O15 0.688888 0.444055 0.527919
O O16 0.624291 0.849120 0.969214
#
# Coordination Sequence:
#
# PCOD9054065 Si02
#       8
#     2   2   2   2   2   2   2   2
#     4  11  22  40  63  89 123 165 204 251 301 354
#     4  11  23  42  67  90 118 159 214 258 300 351
#     4  12  24  41  59  90 134 164 197 244 310 376
#     4  11  23  42  67  90 118 162 207 262 302 352
#     4  11  22  36  63  93 124 162 197 248 309 363
#     4  11  21  37  64  92 123 158 205 254 297 357
#     4  12  24  40  62  91 130 167 197 248 307 368
#     4  11  20  40  66  96 117 152 211 263 301 348
#
# _framework density 20.425298999999999
#
# number of rings (size 3 to 8) (size 9 to 14) (size 15 to 20)
#    0.000    0.750    6.250    4.125    0.000    1.000 
#    2.250    0.000    0.000    1.500    0.000    0.000 
#    0.000    0.000    0.000    0.000    0.000    0.000 
#
# Total GULP energy -89554.542305 kJ/mol
# GULP energy per Si atom -5597.158894 kJ/mol
# Density = 2.037881 g / cm^3
# Si number density = 20.425299 Si / 1000 Ang^3
#
#
#
# Elastic Constant Matrix: (Units=GPa)
#
#
# Indices 1 2 3 4 5 6 
#
# 1 106.5624 47.5927 35.6079 17.4782 -11.7705 -6.7255
# 2 47.5927 111.3628 44.1540 29.2371 -16.7922 3.4610
# 3 35.6079 44.1540 67.6397 21.5614 1.4646 -8.4921
# 4 17.4782 29.2371 21.5614 32.2350 -3.3157 0.8998
# 5 -11.7705 -16.7922 1.4646 -3.3157 37.9622 7.0643
# 6 -6.7255 3.4610 -8.4921 0.8998 7.0643 33.0159
#
#
#
# Elastic Compliance Matrix: (Units=1/GPa)
#
#
# Indices 1 2 3 4 5 6 
#
# 1 0.012718 -0.003218 -0.004153 -0.000998 0.002335 0.001387
# 2 -0.003218 0.016525 -0.007645 -0.007249 0.007027 -0.005660
# 3 -0.004153 -0.007645 0.026240 -0.009444 -0.008126 0.008701
# 4 -0.000998 -0.007249 -0.009444 0.044692 0.001382 -0.003386
# 5 0.002335 0.007027 -0.008126 0.001382 0.032341 -0.009309
# 6 0.001387 -0.005660 0.008701 -0.003386 -0.009309 0.035486
#
#
# Mechanical properties :
#
#
# Convention : Reuss Voigt Hill
#
# Bulk Modulus (GPa) = 39.29135 60.03046 49.66091
# Shear Modulus (GPa) = 24.21112 31.18997 27.70055
#
# Velocity S-wave (km/s) = 3.44663 3.91196 3.68664
# Velocity P-wave (km/s) = 5.92599 7.06106 6.51828
#
# Compressibility (1/GPa) = 0.02545089
#
# Stress axis : x y z
#
# Youngs Moduli (GPa) = 78.62760 60.51617 38.10977
#
# Poissons Ratio (x) = 0.19472 0.15827
# Poissons Ratio (y) = 0.25300 0.29136
# Poissons Ratio (z) = 0.32654 0.46266
#
# Static dielectric constant tensor:
#      x y z
#    x 1.692870 -0.008930 0.018240 
#    y -0.008930 1.765650 -0.003720 
#    z 0.018240 -0.003720 1.737250 
# 
# From -- ./inp_files/255831.got.cif
#   From: 2010.05.17/outbox.cif.g08.bks.cpg/sg2_128_cif.got.tgz:255831.got - 2010.06.03 11:33:40.
