data_PCOD9054894
_publ_section_title
;
Structure prediction by ZEFSAII (Michael W. Deem and Ramdas Pophale) SiO2 
 PCOD9054894
Probable space group: P -1
;
_chemical_formula_sum "Si O2"
_cell_formula_units_Z 16
_cell_length_a 9.523753
_cell_length_b 14.947553
_cell_length_c 14.052831
_cell_angle_alpha 139.436265
_cell_angle_beta 92.754574
_cell_angle_gamma 56.516559
_cell_volume 791.373205
_symmetry_space_group_name_H-M "P -1"
_symmetry_group_IT_number 2
_symmetry_cell_setting 'triclinic'
loop_
_space_group_symop_operation_xyz
x,y,z
-x,-y,-z
loop_
_atom_site_type_symbol
_atom_site_label
_atom_site_fract_x
_atom_site_fract_y
_atom_site_fract_z
Si Si1 0.732269 0.873584 0.453745
Si Si2 0.921356 0.368996 0.477011
Si Si3 0.234953 0.404969 0.153019
Si Si4 0.202673 0.908608 0.490987
Si Si5 0.561367 0.423793 0.172643
Si Si6 0.601514 0.914498 0.695576
Si Si7 0.066065 0.958448 0.741483
Si Si8 0.449426 0.357272 0.479626
O O1 0.989556 0.606357 0.252443
O O2 0.500000 0.000000 0.500000
O O3 0.764751 0.978620 0.473218
O O4 0.663934 0.934285 0.612020
O O5 0.827617 0.544327 0.696465
O O6 0.936932 0.205066 0.392070
O O7 0.746462 0.492199 0.484290
O O8 0.177992 0.220666 0.340452
O O9 0.404015 0.407831 0.149784
O O10 0.375716 0.162850 0.929481
O O11 0.429977 0.637988 0.277353
O O12 0.121017 0.974504 0.651297
O O13 0.000000 0.000000 0.500000
O O14 0.572242 0.493233 0.331278
O O15 0.819898 0.195128 0.962958
O O16 0.573157 0.771948 0.571270
O O17 0.290456 0.832621 0.706652
#
# Coordination Sequence:
#
# PCOD9054894 Si02
#       8
#     2   2   2   2   2   2   2   2
#     4  11  24  43  67  91 130 170 209 263 324 376
#     4  11  22  43  68  94 131 172 208 263 323 374
#     4  11  23  42  68  94 131 167 213 262 317 383
#     4  11  21  39  63  94 125 162 214 261 311 377
#     4  11  23  41  66  96 131 168 212 263 317 375
#     4  11  25  44  66  94 132 169 212 264 320 379
#     4  11  23  39  64  96 128 165 212 266 310 372
#     4  11  25  42  66  97 132 165 217 265 311 380
#
# _framework density 20.218022000000001
#
# number of rings (size 3 to 8) (size 9 to 14) (size 15 to 20)
#    0.000    1.000    5.000    3.000    0.000    7.000 
#    0.000    0.000    0.000    0.000    0.000    0.000 
#    0.000    0.000    0.000    0.000    0.000    0.000 
#
# Total GULP energy -89235.876313 kJ/mol
# GULP energy per Si atom -5577.242270 kJ/mol
# Density = 2.017201 g / cm^3
# Si number density = 20.218022 Si / 1000 Ang^3
#
#
#
# Elastic Constant Matrix: (Units=GPa)
#
#
# Indices 1 2 3 4 5 6 
#
# 1 120.8457 31.7600 32.6250 9.4825 -19.7725 -20.7232
# 2 31.7600 91.2565 35.6495 11.8973 -4.1236 -22.5974
# 3 32.6250 35.6495 130.1117 15.0733 -17.8064 -4.2760
# 4 9.4825 11.8973 15.0733 13.4021 -8.6300 -11.2959
# 5 -19.7725 -4.1236 -17.8064 -8.6300 23.3436 9.4318
# 6 -20.7232 -22.5974 -4.2760 -11.2959 9.4318 45.5499
#
#
#
# Elastic Compliance Matrix: (Units=1/GPa)
#
#
# Indices 1 2 3 4 5 6 
#
# 1 0.010801 -0.002732 -0.001186 0.003499 0.007979 0.002663
# 2 -0.002732 0.015332 -0.003436 -0.007830 -0.007396 0.005630
# 3 -0.001186 -0.003436 0.010430 -0.008264 0.005051 -0.004360
# 4 0.003499 -0.007830 -0.008264 0.128673 0.034042 0.021792
# 5 0.007979 -0.007396 0.005051 0.034042 0.066724 -0.004939
# 6 0.002663 0.005630 -0.004360 0.021792 -0.004939 0.031976
#
#
# Mechanical properties :
#
#
# Convention : Reuss Voigt Hill
#
# Bulk Modulus (GPa) = 45.75503 60.25366 53.00434
# Shear Modulus (GPa) = 17.48694 32.60441 25.04567
#
# Velocity S-wave (km/s) = 2.94414 4.02013 3.52345
# Velocity P-wave (km/s) = 5.85126 7.17044 6.54417
#
# Compressibility (1/GPa) = 0.02185552
#
# Stress axis : x y z
#
# Youngs Moduli (GPa) = 92.58657 65.22273 95.88021
#
# Poissons Ratio (x) = 0.17820 0.11367
# Poissons Ratio (y) = 0.25296 0.32943
# Poissons Ratio (z) = 0.10976 0.22409
#
# Static dielectric constant tensor:
#      x y z
#    x 1.726730 -0.011490 0.001950 
#    y -0.011490 1.692510 0.004480 
#    z 0.001950 0.004480 1.714340 
# 
# From -- ./inp_files/312762.got.cif
#   From: 2010.05.17/outbox.cif.g08.bks.cpg/sg2_157_cif.got.tgz:312762.got - 2010.06.03 11:33:40.
