data_PCOD9054979
_publ_section_title
;
Structure prediction by ZEFSAII (Michael W. Deem and Ramdas Pophale) SiO2 
 PCOD9054979
Probable space group: P -1
;
_chemical_formula_sum "Si O2"
_cell_formula_units_Z 14
_cell_length_a 20.416209
_cell_length_b 11.736912
_cell_length_c 6.241143
_cell_angle_alpha 58.599493
_cell_angle_beta 121.961845
_cell_angle_gamma 152.541973
_cell_volume 579.992087
_symmetry_space_group_name_H-M "P -1"
_symmetry_group_IT_number 2
_symmetry_cell_setting 'triclinic'
loop_
_space_group_symop_operation_xyz
x,y,z
-x,-y,-z
loop_
_atom_site_type_symbol
_atom_site_label
_atom_site_fract_x
_atom_site_fract_y
_atom_site_fract_z
Si Si1 0.266721 0.426360 0.363300
Si Si2 0.138499 0.102050 0.103293
Si Si3 0.650587 0.222004 0.158015
Si Si4 0.566024 0.449962 0.103083
Si Si5 0.302131 0.938501 0.887025
Si Si6 0.051361 0.713626 0.478667
Si Si7 0.798322 0.443867 0.601691
O O1 0.207492 0.211347 0.353861
O O2 0.278999 0.550865 0.067355
O O3 0.168102 0.368571 0.408097
O O4 0.405078 0.587329 0.586723
O O5 0.275038 0.317417 0.965711
O O6 0.083203 0.871036 0.200552
O O7 0.000000 0.000000 0.000000
O O8 0.696392 0.138347 0.261953
O O9 0.661401 0.263587 0.385318
O O10 0.500000 0.000000 0.000000
O O11 0.450377 0.210279 0.978161
O O12 0.500000 0.500000 0.000000
O O13 0.186818 0.884115 0.699402
O O14 0.239935 0.731996 0.135138
O O15 0.000000 0.500000 0.500000
O O16 0.924192 0.587925 0.522145
#
# Coordination Sequence:
#
# PCOD9054979 Si02
#       7
#     2   2   2   2   2   2   2
#     4  11  24  45  71 107 147 194 251 303 376 450
#     4  12  29  50  78 108 155 202 253 312 377 456
#     4  11  21  39  69 102 144 186 242 303 372 443
#     4  12  28  47  74 111 152 200 251 314 385 445
#     4  11  25  43  71 107 147 192 248 313 375 447
#     4  12  26  47  74 107 151 201 253 314 376 448
#     4  11  24  44  74 106 148 199 249 309 378 453
#
# _framework density 24.138259999999999
#
# number of rings (size 3 to 8) (size 9 to 14) (size 15 to 20)
#    0.000    0.571    1.429    6.429    4.000    9.143 
#    0.000    0.000    0.000    0.000    0.000    0.000 
#    0.000    0.000    0.000    0.000    0.000    0.000 
#
# Total GULP energy -78153.156449 kJ/mol
# GULP energy per Si atom -5582.368318 kJ/mol
# Density = 2.408332 g / cm^3
# Si number density = 24.138260 Si / 1000 Ang^3
#
#
#
# Elastic Constant Matrix: (Units=GPa)
#
#
# Indices 1 2 3 4 5 6 
#
# 1 96.1744 27.7755 26.7918 -10.1588 8.0193 -10.3243
# 2 27.7755 98.1294 26.5967 -7.4809 13.4778 2.8501
# 3 26.7918 26.5967 80.9383 7.1582 17.3849 -1.3484
# 4 -10.1588 -7.4809 7.1582 41.5074 1.2999 6.3237
# 5 8.0193 13.4778 17.3849 1.2999 38.5252 1.1379
# 6 -10.3243 2.8501 -1.3484 6.3237 1.1379 47.2016
#
#
#
# Elastic Compliance Matrix: (Units=1/GPa)
#
#
# Indices 1 2 3 4 5 6 
#
# 1 0.012686 -0.002430 -0.003540 0.002917 -0.000364 0.002438
# 2 -0.002430 0.012248 -0.002928 0.002443 -0.002492 -0.001622
# 3 -0.003540 -0.002928 0.016005 -0.004068 -0.005339 0.000533
# 4 0.002917 0.002443 -0.004068 0.026442 -0.000425 -0.003158
# 5 -0.000364 -0.002492 -0.005339 -0.000425 0.029350 -0.000732
# 6 0.002438 -0.001622 0.000533 -0.003158 -0.000732 0.022273
#
#
# Mechanical properties :
#
#
# Convention : Reuss Voigt Hill
#
# Bulk Modulus (GPa) = 43.21090 48.61890 45.91490
# Shear Modulus (GPa) = 34.59884 38.38538 36.49211
#
# Velocity S-wave (km/s) = 3.79008 3.99209 3.89240
# Velocity P-wave (km/s) = 6.09042 6.43698 6.26610
#
# Compressibility (1/GPa) = 0.02314231
#
# Stress axis : x y z
#
# Youngs Moduli (GPa) = 78.82767 81.64857 62.48173
#
# Poissons Ratio (x) = 0.19838 0.22119
# Poissons Ratio (y) = 0.19153 0.18295
# Poissons Ratio (z) = 0.27906 0.23908
#
# Static dielectric constant tensor:
#      x y z
#    x 2.125340 -0.040290 0.113160 
#    y -0.040290 1.844570 -0.048310 
#    z 0.113160 -0.048310 1.995620 
# 
# From -- ./inp_files/118566.got.cif
#   From: 2010.05.17/outbox.cif.g08.bks.cpg/sg2_60_cif.got.tgz:118566.got - 2010.06.03 11:33:40.
