data_PCOD9054623
_publ_section_title
;
Structure prediction by ZEFSAII (Michael W. Deem and Ramdas Pophale) SiO2 
 PCOD9054623
Probable space group: P -1
;
_chemical_formula_sum "Si O2"
_cell_formula_units_Z 16
_cell_length_a 9.683057
_cell_length_b 15.002591
_cell_length_c 10.953552
_cell_angle_alpha 119.602356
_cell_angle_beta 76.296329
_cell_angle_gamma 140.549254
_cell_volume 848.502326
_symmetry_space_group_name_H-M "P -1"
_symmetry_group_IT_number 2
_symmetry_cell_setting 'triclinic'
loop_
_space_group_symop_operation_xyz
x,y,z
-x,-y,-z
loop_
_atom_site_type_symbol
_atom_site_label
_atom_site_fract_x
_atom_site_fract_y
_atom_site_fract_z
Si Si1 0.549817 0.194979 0.684581
Si Si2 0.113187 0.470530 0.028998
Si Si3 0.954139 0.875489 0.347471
Si Si4 0.734083 0.098355 0.955028
Si Si5 0.110717 0.034981 0.802670
Si Si6 0.106439 0.196058 0.109648
Si Si7 0.366977 0.984544 0.352901
Si Si8 0.563957 0.516438 0.137861
O O1 0.731164 0.384774 0.804849
O O2 0.316671 0.105223 0.730922
O O3 0.519648 0.142056 0.514391
O O4 0.598238 0.114837 0.690247
O O5 0.272743 0.491555 0.919493
O O6 0.000000 0.500000 0.000000
O O7 0.916419 0.287484 0.001161
O O8 0.997775 0.939968 0.244561
O O9 0.708349 0.691826 0.273943
O O10 0.113967 0.876508 0.364596
O O11 0.000000 0.000000 0.500000
O O12 0.635909 0.998928 0.780140
O O13 0.887738 0.119861 0.034012
O O14 0.500000 0.000000 0.000000
O O15 0.180034 0.134669 0.977814
O O16 0.951368 0.860186 0.776199
O O17 0.334349 0.386058 0.173075
O O18 0.500000 0.500000 0.000000
#
# Coordination Sequence:
#
# PCOD9054623 Si02
#       8
#     2   2   2   2   2   2   2   2
#     4  11  22  38  64  92 123 165 210 253 310 375
#     4  12  22  38  65  94 120 160 218 260 298 364
#     4  12  22  39  65  91 122 162 209 258 309 369
#     4  12  24  41  61  93 130 163 203 262 321 368
#     4  11  21  37  61  94 120 160 206 254 311 365
#     4  11  23  36  63  92 130 158 208 263 312 362
#     4  11  22  39  60  91 128 162 204 256 314 371
#     4  12  20  40  62  92 123 161 211 259 301 363
#
# _framework density 18.856753999999999
#
# number of rings (size 3 to 8) (size 9 to 14) (size 15 to 20)
#    0.000    0.500    8.750    0.750    0.000    0.000 
#    0.000    1.250    0.000    1.500    0.000    0.000 
#    0.000    0.000    0.000    0.000    0.000    0.000 
#
# Total GULP energy -89084.647154 kJ/mol
# GULP energy per Si atom -5567.790447 kJ/mol
# Density = 1.881384 g / cm^3
# Si number density = 18.856754 Si / 1000 Ang^3
#
#
#
# Elastic Constant Matrix: (Units=GPa)
#
#
# Indices 1 2 3 4 5 6 
#
# 1 115.8671 27.4494 4.7883 1.0777 3.4362 11.9806
# 2 27.4494 98.6069 34.8617 9.5731 9.1758 13.3779
# 3 4.7883 34.8617 103.1676 20.5909 -2.3649 11.3090
# 4 1.0777 9.5731 20.5909 22.6476 0.4344 0.6757
# 5 3.4362 9.1758 -2.3649 0.4344 26.0269 -3.3041
# 6 11.9806 13.3779 11.3090 0.6757 -3.3041 25.9073
#
#
#
# Elastic Compliance Matrix: (Units=1/GPa)
#
#
# Indices 1 2 3 4 5 6 
#
# 1 0.009557 -0.002348 0.000729 -0.000001 -0.000828 -0.003631
# 2 -0.002348 0.013430 -0.003608 -0.002036 -0.005341 -0.004902
# 3 0.000729 -0.003608 0.013478 -0.010690 0.002095 -0.003811
# 4 -0.000001 -0.002036 -0.010690 0.054621 -0.000630 0.004213
# 5 -0.000828 -0.005341 0.002095 -0.000630 0.041573 0.007545
# 6 -0.003631 -0.004902 -0.003811 0.004213 0.007545 0.045326
#
#
# Mechanical properties :
#
#
# Convention : Reuss Voigt Hill
#
# Bulk Modulus (GPa) = 38.44610 50.20449 44.32530
# Shear Modulus (GPa) = 25.36671 31.61917 28.49294
#
# Velocity S-wave (km/s) = 3.67172 4.09933 3.89140
# Velocity P-wave (km/s) = 6.19743 7.00628 6.61423
#
# Compressibility (1/GPa) = 0.02601044
#
# Stress axis : x y z
#
# Youngs Moduli (GPa) = 104.63780 74.45835 74.19681
#
# Poissons Ratio (x) = 0.17486 -0.05410
# Poissons Ratio (y) = 0.24573 0.26770
# Poissons Ratio (z) = -0.07630 0.26864
#
# Static dielectric constant tensor:
#      x y z
#    x 1.737300 -0.014860 -0.005440 
#    y -0.014860 1.715050 0.007970 
#    z -0.005440 0.007970 1.691520 
# 
# From -- ./inp_files/399429.got.cif
#   From: 2010.05.17/outbox.cif.g08.bks.cpg/sg2_200_cif.got.tgz:399429.got - 2010.06.03 11:33:40.
