data_PCOD9054436
_publ_section_title
;
Structure prediction by ZEFSAII (Michael W. Deem and Ramdas Pophale) SiO2 
 PCOD9054436
Probable space group: P -1
;
_chemical_formula_sum "Si O2"
_cell_formula_units_Z 16
_cell_length_a 9.783792
_cell_length_b 12.015319
_cell_length_c 18.250094
_cell_angle_alpha 154.976407
_cell_angle_beta 123.309027
_cell_angle_gamma 57.487304
_cell_volume 753.562340
_symmetry_space_group_name_H-M "P -1"
_symmetry_group_IT_number 2
_symmetry_cell_setting 'triclinic'
loop_
_space_group_symop_operation_xyz
x,y,z
-x,-y,-z
loop_
_atom_site_type_symbol
_atom_site_label
_atom_site_fract_x
_atom_site_fract_y
_atom_site_fract_z
Si Si1 0.350824 0.204787 0.105681
Si Si2 0.001432 0.202474 0.553761
Si Si3 0.328781 0.965823 0.466613
Si Si4 0.295074 0.919345 0.706838
Si Si5 0.181539 0.436191 0.054084
Si Si6 0.881829 0.777353 0.833902
Si Si7 0.515356 0.255254 0.481019
Si Si8 0.828039 0.540844 0.517383
O O1 0.277195 0.100109 0.095694
O O2 0.421275 0.472517 0.311654
O O3 0.209925 0.277601 0.045676
O O4 0.500000 0.000000 0.000000
O O5 0.867487 0.101721 0.401112
O O6 0.947382 0.508950 0.737189
O O7 0.173742 0.186507 0.552013
O O8 0.000000 0.000000 0.500000
O O9 0.376496 0.946613 0.555287
O O10 0.500000 0.000000 0.500000
O O11 0.257603 0.707413 0.257030
O O12 0.441976 0.803568 0.626783
O O13 0.257303 0.726199 0.647742
O O14 0.292568 0.225174 0.909882
O O15 0.000000 0.500000 0.000000
O O16 0.855761 0.673270 0.682853
O O17 0.000000 0.000000 0.000000
O O18 0.321965 0.271937 0.451624
O O19 0.000000 0.500000 0.500000
#
# Coordination Sequence:
#
# PCOD9054436 Si02
#       8
#     2   2   2   2   2   2   2   2
#     4  11  24  42  68  98 136 184 232 289 352 426
#     4  11  20  45  71  93 132 187 234 277 354 428
#     4  11  25  43  66 100 139 181 228 296 364 420
#     4  11  22  41  71  96 129 178 240 291 340 421
#     4  11  24  40  71 103 134 178 250 292 344 428
#     4  11  27  44  67 102 141 178 231 294 355 417
#     4  11  23  44  68  93 135 183 234 284 356 424
#     4  11  26  43  68 101 139 183 230 292 361 419
#
# _framework density 21.232485
#
# number of rings (size 3 to 8) (size 9 to 14) (size 15 to 20)
#    0.000    1.000    5.000    1.875    8.750    1.000 
#    0.000    0.625    0.000    0.000    0.000    0.000 
#    0.000    0.000    0.000    0.000    0.000    0.000 
#
# Total GULP energy -89210.261403 kJ/mol
# GULP energy per Si atom -5575.641338 kJ/mol
# Density = 2.118416 g / cm^3
# Si number density = 21.232485 Si / 1000 Ang^3
#
#
#
# Elastic Constant Matrix: (Units=GPa)
#
#
# Indices 1 2 3 4 5 6 
#
# 1 158.7627 21.6171 26.4315 -12.8706 -27.6266 -19.5027
# 2 21.6171 86.7673 16.1372 -19.9315 0.4379 -14.3284
# 3 26.4315 16.1372 93.3834 -0.9399 -19.2557 -3.9926
# 4 -12.8706 -19.9315 -0.9399 24.8351 -6.0383 0.2213
# 5 -27.6266 0.4379 -19.2557 -6.0383 36.4338 -0.2257
# 6 -19.5027 -14.3284 -3.9926 0.2213 -0.2257 30.0945
#
#
#
# Elastic Compliance Matrix: (Units=1/GPa)
#
#
# Indices 1 2 3 4 5 6 
#
# 1 0.008946 0.000378 -0.000723 0.006693 0.007543 0.005889
# 2 0.000378 0.016129 -0.002195 0.013276 0.001180 0.007544
# 3 -0.000723 -0.002195 0.012554 -0.000183 0.006084 0.000199
# 4 0.006693 0.013276 -0.000183 0.057807 0.014463 0.010318
# 5 0.007543 0.001180 0.006084 0.014463 0.038805 0.006442
# 6 0.005889 0.007544 0.000199 0.010318 0.006442 0.040636
#
#
# Mechanical properties :
#
#
# Convention : Reuss Voigt Hill
#
# Bulk Modulus (GPa) = 30.72336 51.92056 41.32196
# Shear Modulus (GPa) = 26.20472 36.58785 31.39628
#
# Velocity S-wave (km/s) = 3.51690 4.15565 3.84955
# Velocity P-wave (km/s) = 5.56712 6.89437 6.26599
#
# Compressibility (1/GPa) = 0.03254853
#
# Stress axis : x y z
#
# Youngs Moduli (GPa) = 111.77917 62.00110 79.65890
#
# Poissons Ratio (x) = -0.02341 0.05759
# Poissons Ratio (y) = -0.04220 0.17482
# Poissons Ratio (z) = 0.08081 0.13607
#
# Static dielectric constant tensor:
#      x y z
#    x 1.765550 0.012740 -0.014900 
#    y 0.012740 1.877490 0.028710 
#    z -0.014900 0.028710 1.776750 
# 
# From -- ./inp_files/559431.got.cif
#   From: 2010.05.17/outbox.cif.g08.bks.cpg/sg2_280_cif.got.tgz:559431.got - 2010.06.03 11:33:40.
