data_PCOD9054909
_publ_section_title
;
Structure prediction by ZEFSAII (Michael W. Deem and Ramdas Pophale) SiO2 
 PCOD9054909
Probable space group: P -1
;
_chemical_formula_sum "Si O2"
_cell_formula_units_Z 12
_cell_length_a 8.933868
_cell_length_b 9.108890
_cell_length_c 14.176525
_cell_angle_alpha 149.256233
_cell_angle_beta 57.648594
_cell_angle_gamma 117.239709
_cell_volume 498.200734
_symmetry_space_group_name_H-M "P -1"
_symmetry_group_IT_number 2
_symmetry_cell_setting 'triclinic'
loop_
_space_group_symop_operation_xyz
x,y,z
-x,-y,-z
loop_
_atom_site_type_symbol
_atom_site_label
_atom_site_fract_x
_atom_site_fract_y
_atom_site_fract_z
Si Si1 0.520422 0.678966 0.854153
Si Si2 0.944099 0.077436 0.236588
Si Si3 0.756588 0.656894 0.606192
Si Si4 0.691236 0.843693 0.356858
Si Si5 0.650480 0.049642 0.686316
Si Si6 0.280222 0.309675 0.008781
O O1 0.601969 0.525890 0.649948
O O2 0.348138 0.492528 0.833415
O O3 0.650464 0.673668 0.897656
O O4 0.500000 0.000000 0.000000
O O5 0.881271 0.389318 0.392422
O O6 0.136988 0.132679 0.243412
O O7 0.831707 0.972184 0.307828
O O8 0.899029 0.852826 0.046080
O O9 0.685485 0.836171 0.642339
O O10 0.500000 0.000000 0.500000
O O11 0.734201 0.911690 0.488376
O O12 0.439970 0.132793 0.804891
O O13 0.732370 0.365927 0.844079
#
# Coordination Sequence:
#
# PCOD9054909 Si02
#       6
#     2   2   2   2   2   2
#     4  12  24  40  65  96 124 162 213 259 303 371
#     4  11  25  43  64  92 132 165 202 262 313 368
#     4  11  25  43  62  96 130 162 207 259 315 364
#     4  12  21  42  65  90 124 169 207 253 310 373
#     4  11  22  38  67  94 123 164 212 256 305 374
#     4  11  21  39  64  95 123 164 210 256 310 366
#
# _framework density 24.086677000000002
#
# number of rings (size 3 to 8) (size 9 to 14) (size 15 to 20)
#    0.000    0.667    6.667    1.000    2.333    3.333 
#    0.000    0.000    0.000    0.000    0.000    0.000 
#    0.000    0.000    0.000    0.000    0.000    0.000 
#
# Total GULP energy -67111.392197 kJ/mol
# GULP energy per Si atom -5592.616016 kJ/mol
# Density = 2.403185 g / cm^3
# Si number density = 24.086677 Si / 1000 Ang^3
#
#
#
# Elastic Constant Matrix: (Units=GPa)
#
#
# Indices 1 2 3 4 5 6 
#
# 1 40.5504 39.4369 23.0994 8.9632 20.1311 -2.6914
# 2 39.4369 149.1032 46.1867 13.1622 4.1532 -22.6253
# 3 23.0994 46.1867 80.5953 13.5501 20.4781 -16.2729
# 4 8.9632 13.1622 13.5501 40.3846 0.8874 9.5197
# 5 20.1311 4.1532 20.4781 0.8874 33.6404 -2.1693
# 6 -2.6914 -22.6253 -16.2729 9.5197 -2.1693 34.9081
#
#
#
# Elastic Compliance Matrix: (Units=1/GPa)
#
#
# Indices 1 2 3 4 5 6 
#
# 1 0.054410 -0.013844 0.000202 -0.005757 -0.031147 -0.005049
# 2 -0.013844 0.012408 -0.004224 -0.001166 0.009737 0.005929
# 3 0.000202 -0.004224 0.020505 -0.007207 -0.011369 0.008096
# 4 -0.005757 -0.001166 -0.007207 0.031720 0.006313 -0.012817
# 5 -0.031147 0.009737 -0.011369 0.006313 0.053933 0.000239
# 6 -0.005049 0.005929 0.008096 -0.012817 0.000239 0.039384
#
#
# Mechanical properties :
#
#
# Convention : Reuss Voigt Hill
#
# Bulk Modulus (GPa) = 19.38318 54.18833 36.78576
# Shear Modulus (GPa) = 18.84725 32.55501 25.70113
#
# Velocity S-wave (km/s) = 2.80031 3.68037 3.27008
# Velocity P-wave (km/s) = 4.30353 6.37230 5.43722
#
# Compressibility (1/GPa) = 0.05159111
#
# Stress axis : x y z
#
# Youngs Moduli (GPa) = 18.37895 80.59205 48.76751
#
# Poissons Ratio (x) = 1.11572 -0.00983
# Poissons Ratio (y) = 0.25444 0.20599
# Poissons Ratio (z) = -0.00370 0.34041
#
# Static dielectric constant tensor:
#      x y z
#    x 1.923650 0.009750 0.028440 
#    y 0.009750 1.898660 -0.046040 
#    z 0.028440 -0.046040 1.981710 
# 
# From -- ./inp_files/148030.got.cif
#   From: 2010.05.17/outbox.cif.g08.bks.cpg/sg2_75_cif.got.tgz:148030.got - 2010.06.03 11:33:40.
