data_PCOD9054739
_publ_section_title
;
Structure prediction by ZEFSAII (Michael W. Deem and Ramdas Pophale) SiO2 
 PCOD9054739
Probable space group: P -1
;
_chemical_formula_sum "Si O2"
_cell_formula_units_Z 12
_cell_length_a 8.700405
_cell_length_b 17.539117
_cell_length_c 4.880796
_cell_angle_alpha 67.668791
_cell_angle_beta 94.606345
_cell_angle_gamma 47.143724
_cell_volume 437.501794
_symmetry_space_group_name_H-M "P -1"
_symmetry_group_IT_number 2
_symmetry_cell_setting 'triclinic'
loop_
_space_group_symop_operation_xyz
x,y,z
-x,-y,-z
loop_
_atom_site_type_symbol
_atom_site_label
_atom_site_fract_x
_atom_site_fract_y
_atom_site_fract_z
Si Si1 0.857481 0.140429 0.364002
Si Si2 0.659326 0.800502 0.258557
Si Si3 0.719076 0.934477 0.421852
Si Si4 0.311872 0.321367 0.045906
Si Si5 0.324526 0.486461 0.676162
Si Si6 0.334929 0.659352 0.569731
O O1 0.817280 0.194496 0.595545
O O2 0.041131 0.135727 0.291452
O O3 0.585530 0.230704 0.112956
O O4 0.000000 0.000000 0.500000
O O5 0.765946 0.837460 0.368523
O O6 0.777147 0.713253 0.122366
O O7 0.500000 0.000000 0.500000
O O8 0.393268 0.943959 0.936835
O O9 0.336919 0.272056 0.414259
O O10 0.188807 0.461524 0.806967
O O11 0.220961 0.621122 0.499178
O O12 0.430896 0.425378 0.474834
O O13 0.558623 0.398756 0.030848
#
# Coordination Sequence:
#
# PCOD9054739 Si02
#       6
#     2   2   2   2   2   2
#     4  11  21  39  62  97 123 154 206 257 297 359
#     4  11  22  40  57  83 120 163 195 239 308 357
#     4  11  23  42  56  83 127 170 196 237 307 373
#     4  11  21  38  61  92 113 153 203 255 291 350
#     4   9  18  36  60  86 123 152 198 245 311 353
#     4   9  19  36  57  90 122 157 188 253 308 354
#
# _framework density 27.428457999999999
#
# number of rings (size 3 to 8) (size 9 to 14) (size 15 to 20)
#    0.000    1.667    3.333    2.000    0.000    0.667 
#   24.000    0.000    0.000    2.000    0.000    0.000 
#    0.000    0.000    0.000    0.000    0.000    0.000 
#
# Total GULP energy -67016.678325 kJ/mol
# GULP energy per Si atom -5584.723194 kJ/mol
# Density = 2.736603 g / cm^3
# Si number density = 27.428458 Si / 1000 Ang^3
#
#
#
# Elastic Constant Matrix: (Units=GPa)
#
#
# Indices 1 2 3 4 5 6 
#
# 1 90.4615 44.2050 39.8131 0.1345 11.6896 10.4568
# 2 44.2050 206.3804 37.5303 22.7539 -7.8561 27.0119
# 3 39.8131 37.5303 101.2636 10.6063 -14.6670 5.7867
# 4 0.1345 22.7539 10.6063 49.0989 10.2526 12.3901
# 5 11.6896 -7.8561 -14.6670 10.2526 51.3365 4.9724
# 6 10.4568 27.0119 5.7867 12.3901 4.9724 66.7169
#
#
#
# Elastic Compliance Matrix: (Units=1/GPa)
#
#
# Indices 1 2 3 4 5 6 
#
# 1 0.016499 -0.002906 -0.006823 0.004512 -0.006942 -0.001138
# 2 -0.002906 0.006153 -0.000433 -0.002794 0.002197 -0.001643
# 3 -0.006823 -0.000433 0.014055 -0.004221 0.006313 0.000339
# 4 0.004512 -0.002794 -0.004221 0.024921 -0.007319 -0.003292
# 5 -0.006942 0.002197 0.006313 -0.007319 0.024742 -0.000834
# 6 -0.001138 -0.001643 0.000339 -0.003292 -0.000834 0.016477
#
#
# Mechanical properties :
#
#
# Convention : Reuss Voigt Hill
#
# Bulk Modulus (GPa) = 61.03660 71.24467 66.14063
# Shear Modulus (GPa) = 38.87028 51.86758 45.36893
#
# Velocity S-wave (km/s) = 3.76859 4.35330 4.07145
# Velocity P-wave (km/s) = 6.42166 7.16236 6.80210
#
# Compressibility (1/GPa) = 0.01638361
#
# Stress axis : x y z
#
# Youngs Moduli (GPa) = 60.60895 162.51160 71.14716
#
# Poissons Ratio (x) = 0.47226 0.48543
# Poissons Ratio (y) = 0.17613 0.03083
# Poissons Ratio (z) = 0.41353 0.07042
#
# Static dielectric constant tensor:
#      x y z
#    x 2.184420 -0.012870 0.015850 
#    y -0.012870 2.273530 -0.122080 
#    z 0.015850 -0.122080 2.142780 
# 
# From -- ./inp_files/73399.got.cif
#   From: 2010.05.17/outbox.cif.g08.bks.cpg/sg2_37_cif.got.tgz:73399.got - 2010.06.03 11:33:40.
