data_PCOD9054148
_publ_section_title
;
Structure prediction by ZEFSAII (Michael W. Deem and Ramdas Pophale) SiO2 
 PCOD9054148
Probable space group: P -1
;
_chemical_formula_sum "Si O2"
_cell_formula_units_Z 16
_cell_length_a 9.022318
_cell_length_b 20.165038
_cell_length_c 14.499935
_cell_angle_alpha 161.517416
_cell_angle_beta 68.396560
_cell_angle_gamma 120.752544
_cell_volume 649.336465
_symmetry_space_group_name_H-M "P -1"
_symmetry_group_IT_number 2
_symmetry_cell_setting 'triclinic'
loop_
_space_group_symop_operation_xyz
x,y,z
-x,-y,-z
loop_
_atom_site_type_symbol
_atom_site_label
_atom_site_fract_x
_atom_site_fract_y
_atom_site_fract_z
Si Si1 0.084416 0.136902 0.064038
Si Si2 0.389191 0.056371 0.830766
Si Si3 0.277012 0.280687 0.763910
Si Si4 0.054215 0.529404 0.182827
Si Si5 0.009998 0.529841 0.668972
Si Si6 0.571357 0.192457 0.322101
Si Si7 0.796249 0.894900 0.653235
Si Si8 0.663464 0.135315 0.717605
O O1 0.068839 0.374615 0.389764
O O2 0.945867 0.946936 0.766103
O O3 0.294094 0.201655 0.079027
O O4 0.000000 0.000000 0.000000
O O5 0.223259 0.809034 0.488168
O O6 0.427431 0.946163 0.767851
O O7 0.567276 0.185331 0.892300
O O8 0.200136 0.211624 0.586242
O O9 0.274508 0.052228 0.510764
O O10 0.500000 0.500000 0.000000
O O11 0.154804 0.374079 0.962079
O O12 0.987536 0.530951 0.304295
O O13 0.863246 0.388263 0.979753
O O14 0.787207 0.421857 0.560529
O O15 0.146656 0.822761 0.007835
O O16 0.418169 0.263445 0.467537
O O17 0.500000 0.000000 0.000000
O O18 0.500000 0.000000 0.500000
#
# Coordination Sequence:
#
# PCOD9054148 Si02
#       8
#     2   2   2   2   2   2   2   2
#     4  12  24  44  72 105 140 186 229 290 361 422
#     4  11  24  47  66  99 150 178 231 296 354 413
#     4  12  24  47  75 104 135 189 240 290 354 425
#     4  11  23  45  75  96 141 189 233 291 353 423
#     4  11  23  44  72 100 140 184 232 284 349 428
#     4  11  20  40  72  96 135 180 228 284 345 419
#     4  12  25  44  72 100 139 182 239 285 351 422
#     4  12  27  45  70 104 142 182 241 298 352 417
#
# _framework density 24.640539
#
# number of rings (size 3 to 8) (size 9 to 14) (size 15 to 20)
#    0.000    0.500    7.500    1.500    1.750    1.500 
#    0.000    5.000    0.000    0.000    0.000    0.000 
#    0.000    0.000    0.000    0.000    0.000    0.000 
#
# Total GULP energy -89669.667233 kJ/mol
# GULP energy per Si atom -5604.354202 kJ/mol
# Density = 2.458446 g / cm^3
# Si number density = 24.640539 Si / 1000 Ang^3
#
#
#
# Elastic Constant Matrix: (Units=GPa)
#
#
# Indices 1 2 3 4 5 6 
#
# 1 120.5829 35.2755 34.8116 -6.5195 9.9278 20.4936
# 2 35.2755 92.2753 27.1987 -13.8760 3.2385 11.4462
# 3 34.8116 27.1987 91.5025 -6.9504 19.3039 8.7423
# 4 -6.5195 -13.8760 -6.9504 46.9041 4.2861 9.6285
# 5 9.9278 3.2385 19.3039 4.2861 54.5620 -8.1250
# 6 20.4936 11.4462 8.7423 9.6285 -8.1250 52.6338
#
#
#
# Elastic Compliance Matrix: (Units=1/GPa)
#
#
# Indices 1 2 3 4 5 6 
#
# 1 0.010581 -0.002633 -0.002489 0.001198 -0.001517 -0.003587
# 2 -0.002633 0.013398 -0.002486 0.003676 -0.000046 -0.002155
# 3 -0.002489 -0.002486 0.013931 0.001800 -0.004748 -0.001866
# 4 0.001198 0.003676 0.001800 0.024577 -0.003998 -0.006678
# 5 -0.001517 -0.000046 -0.004748 -0.003998 0.021408 0.005425
# 6 -0.003587 -0.002155 -0.001866 -0.006678 0.005425 0.023234
#
#
# Mechanical properties :
#
#
# Convention : Reuss Voigt Hill
#
# Bulk Modulus (GPa) = 44.06399 55.43691 49.75045
# Shear Modulus (GPa) = 38.48805 44.62499 41.55652
#
# Velocity S-wave (km/s) = 3.95648 4.26025 4.11117
# Velocity P-wave (km/s) = 6.22842 6.83716 6.53987
#
# Compressibility (1/GPa) = 0.02269427
#
# Stress axis : x y z
#
# Youngs Moduli (GPa) = 94.50708 74.63704 71.78117
#
# Poissons Ratio (x) = 0.19652 0.17868
# Poissons Ratio (y) = 0.24884 0.17844
# Poissons Ratio (z) = 0.23525 0.18554
#
# Static dielectric constant tensor:
#      x y z
#    x 1.959560 -0.039990 0.018180 
#    y -0.039990 1.927940 0.006230 
#    z 0.018180 0.006230 1.928400 
# 
# From -- ./inp_files/508190.got.cif
#   From: 2010.05.17/outbox.cif.g08.bks.cpg/sg2_255_cif.got.tgz:508190.got - 2010.06.03 11:33:40.
