data_PCOD9054213
_publ_section_title
;
Structure prediction by ZEFSAII (Michael W. Deem and Ramdas Pophale) SiO2 
 PCOD9054213
Probable space group: P -1
;
_chemical_formula_sum "Si O2"
_cell_formula_units_Z 14
_cell_length_a 14.578537
_cell_length_b 8.119048
_cell_length_c 11.552277
_cell_angle_alpha 125.319505
_cell_angle_beta 146.359325
_cell_angle_gamma 54.983414
_cell_volume 604.995708
_symmetry_space_group_name_H-M "P -1"
_symmetry_group_IT_number 2
_symmetry_cell_setting 'triclinic'
loop_
_space_group_symop_operation_xyz
x,y,z
-x,-y,-z
loop_
_atom_site_type_symbol
_atom_site_label
_atom_site_fract_x
_atom_site_fract_y
_atom_site_fract_z
Si Si1 0.472520 0.464445 0.589762
Si Si2 0.609009 0.056419 0.531239
Si Si3 0.769423 0.429365 0.215476
Si Si4 0.699923 0.982845 0.960627
Si Si5 0.111280 0.341508 0.138307
Si Si6 0.382565 0.220739 0.991589
Si Si7 0.095566 0.312043 0.361868
O O1 0.500000 0.500000 0.500000
O O2 0.630523 0.273591 0.693443
O O3 0.290527 0.404954 0.383351
O O4 0.495672 0.646510 0.767772
O O5 0.500000 0.000000 0.500000
O O6 0.480101 0.059617 0.290236
O O7 0.777698 0.905321 0.610806
O O8 0.796655 0.526008 0.408362
O O9 0.949699 0.324176 0.307051
O O10 0.680925 0.230915 0.051260
O O11 0.698081 0.628288 0.137599
O O12 0.833694 0.876813 0.959692
O O13 0.740012 0.847995 0.066238
O O14 0.021816 0.353620 0.172979
O O15 0.000000 0.500000 0.000000
O O16 0.500000 0.000000 0.000000
#
# Coordination Sequence:
#
# PCOD9054213 Si02
#       7
#     2   2   2   2   2   2   2
#     4  11  23  42  70 104 138 174 240 297 347 415
#     4  11  20  41  70 100 133 176 242 289 348 414
#     4  11  28  47  69 105 150 190 235 290 364 429
#     4  11  24  46  70 106 139 184 244 290 349 426
#     4  11  24  45  70 104 138 184 240 295 355 417
#     4  12  26  46  73 108 146 189 241 292 354 433
#     4  11  25  47  69 103 144 188 237 296 359 426
#
# _framework density 23.14066
#
# number of rings (size 3 to 8) (size 9 to 14) (size 15 to 20)
#    0.000    0.857    5.714    2.571    2.000    2.857 
#    2.571    3.571    0.000    0.000    0.000    0.000 
#    0.000    0.000    0.000    0.000    0.000    0.000 
#
# Total GULP energy -78069.757143 kJ/mol
# GULP energy per Si atom -5576.411225 kJ/mol
# Density = 2.308799 g / cm^3
# Si number density = 23.140660 Si / 1000 Ang^3
#
#
#
# Elastic Constant Matrix: (Units=GPa)
#
#
# Indices 1 2 3 4 5 6 
#
# 1 74.7737 25.0467 13.7209 2.9172 -14.9799 -5.4326
# 2 25.0467 177.2375 60.7134 18.3027 -9.6577 -11.3005
# 3 13.7209 60.7134 86.7340 17.6254 -9.5403 -1.9953
# 4 2.9172 18.3027 17.6254 47.7878 2.9845 -5.9255
# 5 -14.9799 -9.6577 -9.5403 2.9845 33.1451 -1.3417
# 6 -5.4326 -11.3005 -1.9953 -5.9255 -1.3417 44.4359
#
#
#
# Elastic Compliance Matrix: (Units=1/GPa)
#
#
# Indices 1 2 3 4 5 6 
#
# 1 0.015404 -0.001487 -0.000574 -0.000361 0.006461 0.001626
# 2 -0.001487 0.007745 -0.004938 -0.000893 0.000303 0.001456
# 3 -0.000574 -0.004938 0.016323 -0.004438 0.003356 -0.001084
# 4 -0.000361 -0.000893 -0.004438 0.023474 -0.003711 0.002548
# 5 0.006461 0.000303 0.003356 -0.003711 0.034542 0.001566
# 6 0.001626 0.001456 -0.001084 0.002548 0.001566 0.023412
#
#
# Mechanical properties :
#
#
# Convention : Reuss Voigt Hill
#
# Bulk Modulus (GPa) = 39.25739 59.74527 49.50133
# Shear Modulus (GPa) = 34.86954 41.02469 37.94712
#
# Velocity S-wave (km/s) = 3.88603 4.21508 4.05389
# Velocity P-wave (km/s) = 6.09397 7.04014 6.58407
#
# Compressibility (1/GPa) = 0.02547291
#
# Stress axis : x y z
#
# Youngs Moduli (GPa) = 64.91858 129.10771 61.26246
#
# Poissons Ratio (x) = 0.19199 0.03519
# Poissons Ratio (y) = 0.09654 0.30254
# Poissons Ratio (z) = 0.03729 0.63758
#
# Static dielectric constant tensor:
#      x y z
#    x 1.980260 0.101320 0.014220 
#    y 0.101320 1.969840 -0.003590 
#    z 0.014220 -0.003590 1.898650 
# 
# From -- ./inp_files/298533.got.cif
#   From: 2010.05.17/outbox.cif.g08.bks.cpg/sg2_150_cif.got.tgz:298533.got - 2010.06.03 11:33:40.
