data_PCOD9054698
_publ_section_title
;
Structure prediction by ZEFSAII (Michael W. Deem and Ramdas Pophale) SiO2 
 PCOD9054698
Probable space group: P -1
;
_chemical_formula_sum "Si O2"
_cell_formula_units_Z 14
_cell_length_a 11.378111
_cell_length_b 25.309869
_cell_length_c 6.213564
_cell_angle_alpha 75.251278
_cell_angle_beta 104.466779
_cell_angle_gamma 159.169561
_cell_volume 614.974834
_symmetry_space_group_name_H-M "P -1"
_symmetry_group_IT_number 2
_symmetry_cell_setting 'triclinic'
loop_
_space_group_symop_operation_xyz
x,y,z
-x,-y,-z
loop_
_atom_site_type_symbol
_atom_site_label
_atom_site_fract_x
_atom_site_fract_y
_atom_site_fract_z
Si Si1 0.639536 0.091225 0.268059
Si Si2 0.620499 0.231361 0.748397
Si Si3 0.659892 0.796085 0.583957
Si Si4 0.631849 0.572464 0.733763
Si Si5 0.698347 0.456762 0.494651
Si Si6 0.139532 0.617772 0.878338
Si Si7 0.743399 0.023556 0.139405
O O1 0.744072 0.084457 0.169482
O O2 0.970346 0.265508 0.263112
O O3 0.500000 0.000000 0.500000
O O4 0.341469 0.001976 0.123083
O O5 0.311073 0.139256 0.626316
O O6 0.960672 0.394508 0.632344
O O7 0.557565 0.142129 0.752941
O O8 0.688764 0.272320 0.983615
O O9 0.456590 0.667099 0.483260
O O10 0.427103 0.722877 0.736455
O O11 0.944275 0.880156 0.740718
O O12 0.500000 0.500000 0.500000
O O13 0.541563 0.598470 0.650009
O O14 0.500000 0.500000 0.000000
O O15 0.822491 0.515193 0.735027
O O16 0.000000 0.500000 0.000000
#
# Coordination Sequence:
#
# PCOD9054698 Si02
#       7
#     2   2   2   2   2   2   2
#     4  11  28  49  72 104 147 201 247 310 384 445
#     4  11  23  41  68  99 139 183 241 301 376 445
#     4  11  22  42  65 100 134 186 237 299 372 451
#     4  12  30  50  82 116 148 197 265 315 374 446
#     4  11  23  41  69 101 141 185 240 314 371 436
#     4  11  21  37  66  99 135 178 239 303 370 437
#     4  11  26  45  67  96 149 186 243 306 377 449
#
# _framework density 22.765156999999999
#
# number of rings (size 3 to 8) (size 9 to 14) (size 15 to 20)
#    0.000    0.857    4.286    2.143   10.000    4.000 
#    0.000    0.000    0.000    0.000    0.000    0.000 
#    0.000    0.000    0.000    0.000    0.000    0.000 
#
# Total GULP energy -77936.345171 kJ/mol
# GULP energy per Si atom -5566.881798 kJ/mol
# Density = 2.271334 g / cm^3
# Si number density = 22.765157 Si / 1000 Ang^3
#
#
#
# Elastic Constant Matrix: (Units=GPa)
#
#
# Indices 1 2 3 4 5 6 
#
# 1 26.9843 7.6806 -4.0402 8.3709 15.7396 -17.9193
# 2 7.6806 85.9786 44.4004 28.4259 0.4703 -5.9212
# 3 -4.0402 44.4004 109.2161 20.8335 14.4679 2.1517
# 4 8.3709 28.4259 20.8335 35.0713 4.5339 8.0389
# 5 15.7396 0.4703 14.4679 4.5339 42.9137 5.1874
# 6 -17.9193 -5.9212 2.1517 8.0389 5.1874 37.9439
#
#
#
# Elastic Compliance Matrix: (Units=1/GPa)
#
#
# Indices 1 2 3 4 5 6 
#
# 1 0.213070 0.003167 0.034165 -0.091498 -0.095953 0.131684
# 2 0.003167 0.019778 -0.005236 -0.015659 0.001068 0.008051
# 3 0.034165 -0.005236 0.017884 -0.016744 -0.019209 0.020477
# 4 -0.091498 -0.015659 -0.016744 0.083499 0.038736 -0.067691
# 5 -0.095953 0.001068 -0.019209 0.038736 0.068314 -0.061605
# 6 0.131684 0.008051 0.020477 -0.067691 -0.061605 0.111402
#
#
# Mechanical properties :
#
#
# Convention : Reuss Voigt Hill
#
# Bulk Modulus (GPa) = 3.17537 35.36231 19.26884
# Shear Modulus (GPa) = 9.01339 34.79498 21.90418
#
# Velocity S-wave (km/s) = 1.99196 3.91376 3.10527
# Velocity P-wave (km/s) = 2.58619 5.99921 4.61947
#
# Compressibility (1/GPa) = 0.31492351
#
# Stress axis : x y z
#
# Youngs Moduli (GPa) = 4.69328 50.56221 55.91586
#
# Poissons Ratio (x) = -0.16015 -1.91034
# Poissons Ratio (y) = -0.01487 0.29279
# Poissons Ratio (z) = -0.16034 0.26476
#
# Static dielectric constant tensor:
#      x y z
#    x 1.755580 0.214360 -0.055700 
#    y 0.214360 1.196190 0.277440 
#    z -0.055700 0.277440 1.974250 
# 
# From -- ./inp_files/28276.got.cif
#   From: 2010.05.17/outbox.cif.g08.bks.cpg/sg2_15_cif.got.tgz:28276.got - 2010.06.03 11:33:40.
