data_PCOD9054824
_publ_section_title
;
Structure prediction by ZEFSAII (Michael W. Deem and Ramdas Pophale) SiO2 
 PCOD9054824
Probable space group: P -1
;
_chemical_formula_sum "Si O2"
_cell_formula_units_Z 16
_cell_length_a 28.582950
_cell_length_b 9.318489
_cell_length_c 28.201633
_cell_angle_alpha 144.910327
_cell_angle_beta 170.001315
_cell_angle_gamma 34.974899
_cell_volume 742.753637
_symmetry_space_group_name_H-M "P -1"
_symmetry_group_IT_number 2
_symmetry_cell_setting 'triclinic'
loop_
_space_group_symop_operation_xyz
x,y,z
-x,-y,-z
loop_
_atom_site_type_symbol
_atom_site_label
_atom_site_fract_x
_atom_site_fract_y
_atom_site_fract_z
Si Si1 0.751801 0.479978 0.281607
Si Si2 0.146681 0.669435 0.482412
Si Si3 0.242456 0.533620 0.217298
Si Si4 0.435203 0.734888 0.265882
Si Si5 0.363408 0.002679 0.165486
Si Si6 0.893653 0.930855 0.824342
Si Si7 0.417090 0.019957 0.978310
Si Si8 0.887904 0.734068 0.580217
O O1 0.702013 0.229086 0.192435
O O2 0.802924 0.677298 0.427023
O O3 0.000000 0.500000 0.500000
O O4 0.500000 0.500000 0.000000
O O5 0.344853 0.490133 0.596397
O O6 0.161147 0.505740 0.501204
O O7 0.821461 0.760803 0.182152
O O8 0.297658 0.917894 0.699479
O O9 0.500000 0.500000 0.500000
O O10 0.173705 0.805611 0.199389
O O11 0.262054 0.296426 0.137358
O O12 0.000000 0.500000 0.000000
O O13 0.374326 0.920377 0.209555
O O14 0.607192 0.826973 0.505930
O O15 0.131213 0.736633 0.983299
O O16 0.672021 0.957941 0.444553
O O17 0.182704 0.817912 0.907498
O O18 0.000000 0.000000 0.000000
O O19 0.500000 0.000000 0.000000
#
# Coordination Sequence:
#
# PCOD9054824 Si02
#       8
#     2   2   2   2   2   2   2   2
#     4  12  27  46  67  97 142 185 219 276 357 427
#     4  11  23  40  71 101 132 168 235 295 336 395
#     4  12  22  40  65  98 129 171 232 280 328 403
#     4  11  22  42  65  98 134 175 221 282 351 400
#     4  11  21  38  67  96 129 168 227 289 334 393
#     4  12  24  42  65  97 138 181 221 277 350 420
#     4  12  24  43  70 104 131 175 237 286 333 407
#     4  11  23  40  66  98 132 172 223 281 348 397
#
# _framework density 21.541461000000002
#
# number of rings (size 3 to 8) (size 9 to 14) (size 15 to 20)
#    0.000    0.500    3.750    6.750    1.750    0.000 
#    0.000    7.500    0.000    0.000    0.000    0.000 
#    0.000    0.000    0.000    0.000    0.000    0.000 
#
# Total GULP energy -89141.189401 kJ/mol
# GULP energy per Si atom -5571.324338 kJ/mol
# Density = 2.149243 g / cm^3
# Si number density = 21.541461 Si / 1000 Ang^3
#
#
#
# Elastic Constant Matrix: (Units=GPa)
#
#
# Indices 1 2 3 4 5 6 
#
# 1 66.1656 6.8289 24.6086 -8.2471 -4.5448 -2.4730
# 2 6.8289 48.9796 15.3522 -3.9612 4.8255 2.7314
# 3 24.6086 15.3522 161.6271 -4.8992 -2.2643 6.3083
# 4 -8.2471 -3.9612 -4.8992 34.8793 -5.9172 1.9718
# 5 -4.5448 4.8255 -2.2643 -5.9172 44.8571 4.0810
# 6 -2.4730 2.7314 6.3083 1.9718 4.0810 14.8167
#
#
#
# Elastic Compliance Matrix: (Units=1/GPa)
#
#
# Indices 1 2 3 4 5 6 
#
# 1 0.016881 -0.001677 -0.002395 0.003621 0.001963 0.003124
# 2 -0.001677 0.021689 -0.001658 0.001664 -0.002074 -0.003223
# 3 -0.002395 -0.001658 0.006861 0.000503 0.000645 -0.003260
# 4 0.003621 0.001664 0.000503 0.030898 0.004775 -0.005344
# 5 0.001963 -0.002074 0.000645 0.004775 0.023997 -0.006809
# 6 0.003124 -0.003223 -0.003260 -0.005344 -0.006809 0.072582
#
#
# Mechanical properties :
#
#
# Convention : Reuss Voigt Hill
#
# Bulk Modulus (GPa) = 29.43861 41.15019 35.29440
# Shear Modulus (GPa) = 25.55050 34.24280 29.89665
#
# Velocity S-wave (km/s) = 3.44773 3.99133 3.72945
# Velocity P-wave (km/s) = 5.43551 6.35494 5.91312
#
# Compressibility (1/GPa) = 0.03396900
#
# Stress axis : x y z
#
# Youngs Moduli (GPa) = 59.23963 46.10693 145.75672
#
# Poissons Ratio (x) = 0.07734 0.34916
# Poissons Ratio (y) = 0.09937 0.24160
# Poissons Ratio (z) = 0.14191 0.07642
#
# Static dielectric constant tensor:
#      x y z
#    x 1.799970 -0.008640 -0.023900 
#    y -0.008640 1.791200 -0.014020 
#    z -0.023900 -0.014020 1.692820 
# 
# From -- ./inp_files/621186.got.cif
#   From: 2010.05.17/outbox.cif.g08.bks.cpg/sg2_311_cif.got.tgz:621186.got - 2010.06.03 11:33:40.
