data_PCOD9054661
_publ_section_title
;
Structure prediction by ZEFSAII (Michael W. Deem and Ramdas Pophale) SiO2 
 PCOD9054661
Probable space group: P -1
;
_chemical_formula_sum "Si O2"
_cell_formula_units_Z 16
_cell_length_a 9.423065
_cell_length_b 16.004837
_cell_length_c 9.464341
_cell_angle_alpha 30.017371
_cell_angle_beta 105.942168
_cell_angle_gamma 116.003395
_cell_volume 624.040787
_symmetry_space_group_name_H-M "P -1"
_symmetry_group_IT_number 2
_symmetry_cell_setting 'triclinic'
loop_
_space_group_symop_operation_xyz
x,y,z
-x,-y,-z
loop_
_atom_site_type_symbol
_atom_site_label
_atom_site_fract_x
_atom_site_fract_y
_atom_site_fract_z
Si Si1 0.283181 0.053934 0.485617
Si Si2 0.551782 0.125107 0.690396
Si Si3 0.564093 0.680183 0.442758
Si Si4 0.431490 0.284260 0.920808
Si Si5 0.886787 0.639641 0.304200
Si Si6 0.886454 0.398392 0.386938
Si Si7 0.953747 0.758501 0.746326
Si Si8 0.922183 0.961473 0.187396
O O1 0.420278 0.060016 0.625068
O O2 0.184618 0.180207 0.316132
O O3 0.375104 0.129218 0.251266
O O4 0.131631 0.857092 0.720897
O O5 0.548706 0.315772 0.466188
O O6 0.744206 0.198297 0.608960
O O7 0.500000 0.000000 0.000000
O O8 0.559815 0.479074 0.727516
O O9 0.517047 0.737090 0.193247
O O10 0.734846 0.837500 0.300098
O O11 0.272835 0.323927 0.790047
O O12 0.866043 0.490230 0.397446
O O13 0.939048 0.598396 0.532425
O O14 0.031046 0.840647 0.017011
O O15 0.893119 0.542772 0.059521
O O16 0.985859 0.845126 0.473851
O O17 0.000000 0.000000 0.000000
#
# Coordination Sequence:
#
# PCOD9054661 Si02
#       8
#     2   2   2   2   2   2   2   2
#     4  11  22  38  64  93 128 161 222 267 310 372
#     4  12  26  41  63  97 131 169 213 264 323 378
#     4  11  23  38  66  93 128 166 210 259 325 380
#     4  11  22  42  64  96 126 168 212 264 318 382
#     4  11  21  41  62  91 129 165 204 264 317 377
#     4  11  25  38  64  94 133 162 211 265 320 374
#     4  11  21  37  63  96 123 167 216 266 314 370
#     4  12  22  39  65  91 126 166 216 260 311 385
#
# _framework density 25.639348999999999
#
# number of rings (size 3 to 8) (size 9 to 14) (size 15 to 20)
#    0.000    0.750    6.250    1.500    5.250    1.000 
#    0.000    1.250    0.000    1.500    0.000    0.000 
#    0.000    0.000    0.000    0.000    0.000    0.000 
#
# Total GULP energy -89480.190330 kJ/mol
# GULP energy per Si atom -5592.511896 kJ/mol
# Density = 2.558099 g / cm^3
# Si number density = 25.639349 Si / 1000 Ang^3
#
#
#
# Elastic Constant Matrix: (Units=GPa)
#
#
# Indices 1 2 3 4 5 6 
#
# 1 60.4069 33.7363 6.7354 2.9055 -1.6198 14.2209
# 2 33.7363 110.6005 29.4015 1.8005 -3.6378 34.7328
# 3 6.7354 29.4015 126.6926 6.7264 -7.4180 18.7820
# 4 2.9055 1.8005 6.7264 47.4971 4.4185 -12.3892
# 5 -1.6198 -3.6378 -7.4180 4.4185 35.9440 6.1701
# 6 14.2209 34.7328 18.7820 -12.3892 6.1701 49.1995
#
#
#
# Elastic Compliance Matrix: (Units=1/GPa)
#
#
# Indices 1 2 3 4 5 6 
#
# 1 0.020324 -0.005369 0.000811 -0.002082 0.001325 -0.003085
# 2 -0.005369 0.013910 -0.001357 -0.002534 0.002695 -0.008726
# 3 0.000811 -0.001357 0.008999 -0.002481 0.002692 -0.003674
# 4 -0.002082 -0.002534 -0.002481 0.024846 -0.005686 0.010308
# 5 0.001325 0.002695 0.002692 -0.005686 0.030888 -0.008619
# 6 -0.003085 -0.008726 -0.003674 0.010308 -0.008619 0.032457
#
#
# Mechanical properties :
#
#
# Convention : Reuss Voigt Hill
#
# Bulk Modulus (GPa) = 31.84306 48.60516 40.22411
# Shear Modulus (GPa) = 32.52640 41.71658 37.12149
#
# Velocity S-wave (km/s) = 3.56562 4.03805 3.80917
# Velocity P-wave (km/s) = 5.42200 6.38275 5.92189
#
# Compressibility (1/GPa) = 0.03140402
#
# Stress axis : x y z
#
# Youngs Moduli (GPa) = 49.20219 71.89010 111.12371
#
# Poissons Ratio (x) = 0.38597 -0.09011
# Poissons Ratio (y) = 0.26416 0.15076
# Poissons Ratio (z) = -0.03990 0.09754
#
# Static dielectric constant tensor:
#      x y z
#    x 2.182170 -0.053770 0.041480 
#    y -0.053770 2.072830 -0.041860 
#    z 0.041480 -0.041860 2.028430 
# 
# From -- ./inp_files/216513.got.cif
#   From: 2010.05.17/outbox.cif.g08.bks.cpg/sg2_109_cif.got.tgz:216513.got - 2010.06.03 11:33:40.
