data_PCOD9054276
_publ_section_title
;
Structure prediction by ZEFSAII (Michael W. Deem and Ramdas Pophale) SiO2 
 PCOD9054276
Probable space group: P -1
;
_chemical_formula_sum "Si O2"
_cell_formula_units_Z 16
_cell_length_a 10.306501
_cell_length_b 30.775555
_cell_length_c 5.500680
_cell_angle_alpha 104.671268
_cell_angle_beta 122.812350
_cell_angle_gamma 33.703948
_cell_volume 737.100644
_symmetry_space_group_name_H-M "P -1"
_symmetry_group_IT_number 2
_symmetry_cell_setting 'triclinic'
loop_
_space_group_symop_operation_xyz
x,y,z
-x,-y,-z
loop_
_atom_site_type_symbol
_atom_site_label
_atom_site_fract_x
_atom_site_fract_y
_atom_site_fract_z
Si Si1 0.901238 0.664905 0.694514
Si Si2 0.809412 0.333621 0.300647
Si Si3 0.375720 0.840705 0.671287
Si Si4 0.344939 0.903567 0.227461
Si Si5 0.124396 0.161763 0.331128
Si Si6 0.150363 0.099538 0.772601
Si Si7 0.848072 0.490750 0.354396
Si Si8 0.432352 0.562445 0.386510
O O1 0.648010 0.739825 0.735534
O O2 0.933163 0.694322 0.554828
O O3 0.919535 0.607328 0.590619
O O4 0.232273 0.592256 0.016566
O O5 0.774821 0.349545 0.573937
O O6 0.909264 0.258807 0.234764
O O7 0.466100 0.428789 0.000885
O O8 0.381542 0.871446 0.483835
O O9 0.069239 0.888762 0.438305
O O10 0.412393 0.857742 0.986800
O O11 0.548453 0.897251 0.418184
O O12 0.000000 0.000000 0.000000
O O13 0.090904 0.142518 0.523067
O O14 0.084559 0.142529 0.018794
O O15 0.500000 0.000000 0.000000
O O16 0.732203 0.510511 0.535689
O O17 0.000000 0.500000 0.500000
O O18 0.500000 0.500000 0.500000
#
# Coordination Sequence:
#
# PCOD9054276 Si02
#       8
#     2   2   2   2   2   2   2   2
#     4  11  23  42  66  96 137 178 231 286 345 405
#     4  11  23  43  66  97 133 180 234 283 342 409
#     4  12  26  44  72 107 142 186 234 295 356 420
#     4  12  24  46  74 107 137 181 240 295 346 427
#     4  12  26  44  74 105 139 185 236 293 346 426
#     4  12  27  50  71 103 147 189 224 287 375 433
#     4  11  25  40  64  98 138 178 225 282 341 414
#     4  11  20  42  67  89 127 190 229 274 344 405
#
# _framework density 21.706669000000002
#
# number of rings (size 3 to 8) (size 9 to 14) (size 15 to 20)
#    0.000    0.500    3.750    5.250    5.250    0.500 
#    2.250    0.000    0.000    0.000    0.000    0.000 
#    0.000    0.000    0.000    0.000    0.000    0.000 
#
# Total GULP energy -89178.962108 kJ/mol
# GULP energy per Si atom -5573.685132 kJ/mol
# Density = 2.165726 g / cm^3
# Si number density = 21.706669 Si / 1000 Ang^3
#
#
#
# Elastic Constant Matrix: (Units=GPa)
#
#
# Indices 1 2 3 4 5 6 
#
# 1 113.1891 -10.8979 15.9841 9.9020 -9.0346 -6.9294
# 2 -10.8979 85.0475 -7.5680 3.6011 -29.4806 -7.0131
# 3 15.9841 -7.5680 64.3306 10.0742 -14.3634 1.5244
# 4 9.9020 3.6011 10.0742 39.7998 -4.0021 6.2668
# 5 -9.0346 -29.4806 -14.3634 -4.0021 39.4953 -1.5824
# 6 -6.9294 -7.0131 1.5244 6.2668 -1.5824 26.7343
#
#
#
# Elastic Compliance Matrix: (Units=1/GPa)
#
#
# Indices 1 2 3 4 5 6 
#
# 1 0.010125 0.003194 -0.000841 -0.002863 0.004282 0.004434
# 2 0.003194 0.019407 0.005700 -0.003428 0.017239 0.007418
# 3 -0.000841 0.005700 0.019481 -0.004445 0.010771 0.001846
# 4 -0.002863 -0.003428 -0.004445 0.028329 -0.002287 -0.008164
# 5 0.004282 0.017239 0.010771 -0.002287 0.043177 0.008110
# 6 0.004434 0.007418 0.001846 -0.008164 0.008110 0.042789
#
#
# Mechanical properties :
#
#
# Convention : Reuss Voigt Hill
#
# Bulk Modulus (GPa) = 15.35662 28.62263 21.98962
# Shear Modulus (GPa) = 29.60176 38.87582 34.23879
#
# Velocity S-wave (km/s) = 3.69686 4.23657 3.97588
# Velocity P-wave (km/s) = 5.03114 6.09476 5.58831
#
# Compressibility (1/GPa) = 0.06511850
#
# Stress axis : x y z
#
# Youngs Moduli (GPa) = 98.76872 51.52725 51.33127
#
# Poissons Ratio (x) = -0.16456 0.04316
# Poissons Ratio (y) = -0.31543 -0.29257
# Poissons Ratio (z) = 0.08304 -0.29369
#
# Static dielectric constant tensor:
#      x y z
#    x 1.508170 -0.205390 -0.034980 
#    y -0.205390 1.711060 0.060720 
#    z -0.034980 0.060720 1.872080 
# 
# From -- ./inp_files/48415.got.cif
#   From: 2010.05.17/outbox.cif.g08.bks.cpg/sg2_25_cif.got.tgz:48415.got - 2010.06.03 11:33:40.
