data_PCOD9054702
_publ_section_title
;
Structure prediction by ZEFSAII (Michael W. Deem and Ramdas Pophale) SiO2 
 PCOD9054702
Probable space group: P -1
;
_chemical_formula_sum "Si O2"
_cell_formula_units_Z 16
_cell_length_a 20.816273
_cell_length_b 12.371577
_cell_length_c 18.511366
_cell_angle_alpha 148.553184
_cell_angle_beta 19.642376
_cell_angle_gamma 154.599434
_cell_volume 687.289694
_symmetry_space_group_name_H-M "P -1"
_symmetry_group_IT_number 2
_symmetry_cell_setting 'triclinic'
loop_
_space_group_symop_operation_xyz
x,y,z
-x,-y,-z
loop_
_atom_site_type_symbol
_atom_site_label
_atom_site_fract_x
_atom_site_fract_y
_atom_site_fract_z
Si Si1 0.400375 0.262382 0.415829
Si Si2 0.211883 0.972331 0.587428
Si Si3 0.026641 0.431244 0.657828
Si Si4 0.330674 0.310247 0.353537
Si Si5 0.589251 0.275661 0.702755
Si Si6 0.716294 0.552168 0.874036
Si Si7 0.846260 0.755487 0.073354
Si Si8 0.471988 0.893678 0.073228
O O1 0.500000 0.500000 0.500000
O O2 0.306797 0.289483 0.454033
O O3 0.224834 0.032058 0.523764
O O4 0.561829 0.169647 0.164815
O O5 0.423687 0.963485 0.387532
O O6 0.986062 0.697564 0.688949
O O7 0.187332 0.165417 0.768095
O O8 0.125193 0.309366 0.533589
O O9 0.240899 0.613642 0.481590
O O10 0.791899 0.237596 0.751354
O O11 0.961911 0.602338 0.865128
O O12 0.582226 0.570895 0.219235
O O13 0.374080 0.115826 0.157547
O O14 0.691577 0.480250 0.775602
O O15 0.354175 0.255294 0.924344
O O16 0.557239 0.295543 0.940761
O O17 0.000000 0.000000 0.000000
#
# Coordination Sequence:
#
# PCOD9054702 Si02
#       8
#     2   2   2   2   2   2   2   2
#     4  12  26  47  71  94 140 193 221 268 343 411
#     4  12  22  43  67  95 140 175 219 278 340 393
#     4  11  23  40  70 101 133 175 226 282 341 393
#     4  11  25  46  67 100 136 179 235 273 330 407
#     4  11  21  37  67 106 134 163 222 283 347 398
#     4  11  22  38  68 110 128 166 228 285 342 392
#     4  11  23  40  66 100 134 173 219 282 338 396
#     4  11  22  44  75 100 135 173 229 289 330 399
#
# _framework density 23.279847
#
# number of rings (size 3 to 8) (size 9 to 14) (size 15 to 20)
#    0.000    0.750    6.250    2.250    0.000    2.000 
#    0.000    3.125    0.000    0.000    0.000    0.000 
#    0.000    0.000    0.000    0.000    0.000    0.000 
#
# Total GULP energy -89437.916336 kJ/mol
# GULP energy per Si atom -5589.869771 kJ/mol
# Density = 2.322686 g / cm^3
# Si number density = 23.279847 Si / 1000 Ang^3
#
#
#
# Elastic Constant Matrix: (Units=GPa)
#
#
# Indices 1 2 3 4 5 6 
#
# 1 124.7062 20.9925 73.8595 9.9471 8.9905 -23.7599
# 2 20.9925 67.5711 40.2672 7.3828 4.8278 -11.6418
# 3 73.8595 40.2672 171.6670 29.0507 4.8189 2.5907
# 4 9.9471 7.3828 29.0507 42.8647 4.8985 10.0875
# 5 8.9905 4.8278 4.8189 4.8985 48.6868 1.7632
# 6 -23.7599 -11.6418 2.5907 10.0875 1.7632 33.2809
#
#
#
# Elastic Compliance Matrix: (Units=1/GPa)
#
#
# Indices 1 2 3 4 5 6 
#
# 1 0.013963 0.001764 -0.006224 -0.001818 -0.002380 0.011747
# 2 0.001764 0.019158 -0.004951 -0.002295 -0.001835 0.009139
# 3 -0.006224 -0.004951 0.010298 -0.003403 0.001181 -0.006008
# 4 -0.001818 -0.002295 -0.003403 0.029130 -0.001648 -0.010578
# 5 -0.002380 -0.001835 0.001181 -0.001648 0.021321 -0.003063
# 6 0.011747 0.009139 -0.006008 -0.010578 -0.003063 0.045467
#
#
# Mechanical properties :
#
#
# Convention : Reuss Voigt Hill
#
# Bulk Modulus (GPa) = 40.65595 70.46477 55.56036
# Shear Modulus (GPa) = 30.05574 40.22150 35.13862
#
# Velocity S-wave (km/s) = 3.59703 4.16112 3.88932
# Velocity P-wave (km/s) = 5.89521 7.30895 6.63981
#
# Compressibility (1/GPa) = 0.02459665
#
# Stress axis : x y z
#
# Youngs Moduli (GPa) = 71.61784 52.19782 97.10794
#
# Poissons Ratio (x) = -0.09206 0.60440
# Poissons Ratio (y) = -0.12631 0.48075
# Poissons Ratio (z) = 0.44575 0.25842
#
# Static dielectric constant tensor:
#      x y z
#    x 1.887960 -0.013810 0.005540 
#    y -0.013810 1.943430 0.028280 
#    z 0.005540 0.028280 1.881630 
# 
# From -- ./inp_files/578027.got.cif
#   From: 2010.05.17/outbox.cif.g08.bks.cpg/sg2_290_cif.got.tgz:578027.got - 2010.06.03 11:33:40.
