data_PCOD9054122
_publ_section_title
;
Structure prediction by ZEFSAII (Michael W. Deem and Ramdas Pophale) SiO2 
 PCOD9054122
Probable space group: P -1
;
_chemical_formula_sum "Si O2"
_cell_formula_units_Z 16
_cell_length_a 13.293937
_cell_length_b 8.541224
_cell_length_c 14.688265
_cell_angle_alpha 83.541274
_cell_angle_beta 138.607270
_cell_angle_gamma 66.438061
_cell_volume 740.803458
_symmetry_space_group_name_H-M "P -1"
_symmetry_group_IT_number 2
_symmetry_cell_setting 'triclinic'
loop_
_space_group_symop_operation_xyz
x,y,z
-x,-y,-z
loop_
_atom_site_type_symbol
_atom_site_label
_atom_site_fract_x
_atom_site_fract_y
_atom_site_fract_z
Si Si1 0.047954 0.107628 0.095314
Si Si2 0.666647 0.387888 0.473754
Si Si3 0.429278 0.336583 0.784104
Si Si4 0.581801 0.748099 0.496890
Si Si5 0.684544 0.629839 0.767699
Si Si6 0.413988 0.041130 0.683426
Si Si7 0.026336 0.808559 0.578084
Si Si8 0.123663 0.872417 0.825102
O O1 0.951055 0.141186 0.127339
O O2 0.312969 0.935473 0.293366
O O3 0.914977 0.361096 0.952692
O O4 0.000000 0.000000 0.000000
O O5 0.562108 0.566423 0.308511
O O6 0.667465 0.504525 0.552175
O O7 0.514922 0.348377 0.380650
O O8 0.922136 0.144988 0.645189
O O9 0.458937 0.135095 0.785202
O O10 0.191853 0.565631 0.652091
O O11 0.636432 0.229871 0.993732
O O12 0.666911 0.735854 0.653936
O O13 0.664798 0.799510 0.469737
O O14 0.621444 0.782197 0.802134
O O15 0.220239 0.074562 0.584175
O O16 0.128268 0.750230 0.752176
O O17 0.000000 0.000000 0.500000
#
# Coordination Sequence:
#
# PCOD9054122 Si02
#       8
#     2   2   2   2   2   2   2   2
#     4  12  22  37  68 103 137 178 224 269 323 396
#     4  11  20  40  69  99 134 177 234 272 314 403
#     4  11  24  45  68 101 136 171 220 289 343 385
#     4  11  23  39  64  99 139 181 218 273 333 390
#     4  12  21  40  66  97 138 182 226 265 322 406
#     4  11  25  44  67  98 142 176 216 282 350 394
#     4  12  24  47  78  94 126 179 233 284 336 396
#     4  12  23  41  73 105 129 179 233 272 325 401
#
# _framework density 21.598172000000002
#
# number of rings (size 3 to 8) (size 9 to 14) (size 15 to 20)
#    0.000    0.500    6.250    3.000    0.000    0.500 
#    0.000    5.625    0.000    0.000    0.000    0.000 
#    0.000    0.000    0.000    0.000    0.000    0.000 
#
# Total GULP energy -89540.844808 kJ/mol
# GULP energy per Si atom -5596.302800 kJ/mol
# Density = 2.154901 g / cm^3
# Si number density = 21.598172 Si / 1000 Ang^3
#
#
#
# Elastic Constant Matrix: (Units=GPa)
#
#
# Indices 1 2 3 4 5 6 
#
# 1 71.0330 9.6225 -8.4932 2.8004 0.0329 -1.5515
# 2 9.6225 108.2698 0.8921 -11.4889 -5.8723 -18.2384
# 3 -8.4932 0.8921 67.0761 -10.9897 -2.3655 -2.2702
# 4 2.8004 -11.4889 -10.9897 33.4540 -10.3183 -0.1192
# 5 0.0329 -5.8723 -2.3655 -10.3183 21.9314 -1.1109
# 6 -1.5515 -18.2384 -2.2702 -0.1192 -1.1109 37.1143
#
#
#
# Elastic Compliance Matrix: (Units=1/GPa)
#
#
# Indices 1 2 3 4 5 6 
#
# 1 0.014533 -0.001535 0.001572 -0.001533 -0.000989 -0.000085
# 2 -0.001535 0.011376 0.001133 0.006430 0.006490 0.005811
# 3 0.001572 0.001133 0.016579 0.007467 0.005695 0.001831
# 4 -0.001533 0.006430 0.007467 0.041579 0.022312 0.004354
# 5 -0.000989 0.006490 0.005695 0.022312 0.058717 0.005326
# 6 -0.000085 0.005811 0.001831 0.004354 0.005326 0.030081
#
#
# Mechanical properties :
#
#
# Convention : Reuss Voigt Hill
#
# Bulk Modulus (GPa) = 22.30764 27.82463 25.06613
# Shear Modulus (GPa) = 26.95891 34.79046 30.87468
#
# Velocity S-wave (km/s) = 3.53682 4.01784 3.78498
# Velocity P-wave (km/s) = 5.19901 5.86812 5.54367
#
# Compressibility (1/GPa) = 0.04482770
#
# Stress axis : x y z
#
# Youngs Moduli (GPa) = 68.80956 87.90081 60.31890
#
# Poissons Ratio (x) = 0.13494 -0.09480
# Poissons Ratio (y) = 0.10564 -0.06837
# Poissons Ratio (z) = -0.10815 -0.09963
#
# Static dielectric constant tensor:
#      x y z
#    x 1.795710 0.004020 -0.022970 
#    y 0.004020 1.828590 0.002200 
#    z -0.022970 0.002200 1.741980 
# 
# From -- ./inp_files/503840.got.cif
#   From: 2010.05.17/outbox.cif.g08.bks.cpg/sg2_252_cif.got.tgz:503840.got - 2010.06.03 11:33:40.
