data_PCOD9054566
_publ_section_title
;
Structure prediction by ZEFSAII (Michael W. Deem and Ramdas Pophale) SiO2 
 PCOD9054566
Probable space group: P -1
;
_chemical_formula_sum "Si O2"
_cell_formula_units_Z 12
_cell_length_a 15.300702
_cell_length_b 9.623453
_cell_length_c 5.109528
_cell_angle_alpha 77.257917
_cell_angle_beta 116.140458
_cell_angle_gamma 119.037808
_cell_volume 590.482136
_symmetry_space_group_name_H-M "P -1"
_symmetry_group_IT_number 2
_symmetry_cell_setting 'triclinic'
loop_
_space_group_symop_operation_xyz
x,y,z
-x,-y,-z
loop_
_atom_site_type_symbol
_atom_site_label
_atom_site_fract_x
_atom_site_fract_y
_atom_site_fract_z
Si Si1 0.371838 0.875676 0.368596
Si Si2 0.758036 0.670869 0.262881
Si Si3 0.922099 0.936580 0.673610
Si Si4 0.263082 0.080123 0.255460
Si Si5 0.554384 0.647979 0.315998
Si Si6 0.344988 0.670912 0.911763
O O1 0.350200 0.743874 0.173595
O O2 0.500000 0.000000 0.500000
O O3 0.293515 0.960306 0.183931
O O4 0.337885 0.788016 0.637955
O O5 0.827439 0.988197 0.607208
O O6 0.642614 0.627920 0.263000
O O7 0.771982 0.808745 0.016865
O O8 0.745132 0.509994 0.175709
O O9 0.849603 0.751020 0.573469
O O10 0.000000 0.000000 0.500000
O O11 0.000000 0.000000 0.000000
O O12 0.376123 0.195823 0.490397
O O13 0.500000 0.500000 0.500000
O O14 0.461942 0.670814 0.030363
#
# Coordination Sequence:
#
# PCOD9054566 Si02
#       6
#     2   2   2   2   2   2
#     4  12  26  40  60  95 144 182 212 248 321 395
#     4  11  24  40  69  97 127 172 229 269 330 379
#     4  11  24  44  72  99 123 159 226 297 332 371
#     4  11  24  40  68  98 129 173 225 266 322 394
#     4  11  21  36  61  97 136 175 219 262 312 383
#     4  12  25  40  61  93 142 179 208 261 315 393
#
# _framework density 20.322376999999999
#
# number of rings (size 3 to 8) (size 9 to 14) (size 15 to 20)
#    0.000    0.667    5.000    3.000    7.000    0.000 
#    0.000    0.000    0.000    6.000    0.000    0.000 
#    0.000    0.000    0.000    0.000    0.000    0.000 
#
# Total GULP energy -66987.656624 kJ/mol
# GULP energy per Si atom -5582.304719 kJ/mol
# Density = 2.027612 g / cm^3
# Si number density = 20.322377 Si / 1000 Ang^3
#
#
#
# Elastic Constant Matrix: (Units=GPa)
#
#
# Indices 1 2 3 4 5 6 
#
# 1 97.0675 45.2326 10.4459 6.7198 -18.5997 14.3491
# 2 45.2326 78.3182 20.1050 28.7582 14.8147 -6.9311
# 3 10.4459 20.1050 80.9059 17.1438 1.8129 7.4832
# 4 6.7198 28.7582 17.1438 53.6717 3.9985 -2.9178
# 5 -18.5997 14.8147 1.8129 3.9985 33.4810 3.5744
# 6 14.3491 -6.9311 7.4832 -2.9178 3.5744 21.5341
#
#
#
# Elastic Compliance Matrix: (Units=1/GPa)
#
#
# Indices 1 2 3 4 5 6 
#
# 1 0.059759 -0.060576 0.009740 0.013075 0.065580 -0.071816
# 2 -0.060576 0.080149 -0.013366 -0.021181 -0.074435 0.080292
# 3 0.009740 -0.013366 0.016110 -0.001154 0.012580 -0.018635
# 4 0.013075 -0.021181 -0.001154 0.026836 0.014986 -0.013980
# 5 0.065580 -0.074435 0.012580 0.014986 0.106118 -0.087612
# 6 -0.071816 0.080292 -0.018635 -0.013980 -0.087612 0.139260
#
#
# Mechanical properties :
#
#
# Convention : Reuss Voigt Hill
#
# Bulk Modulus (GPa) = 36.21373 45.31761 40.76567
# Shear Modulus (GPa) = 8.83642 33.77125 21.30383
#
# Velocity S-wave (km/s) = 2.08748 4.08091 3.24125
# Velocity P-wave (km/s) = 4.86502 6.67480 5.84043
#
# Compressibility (1/GPa) = 0.02761384
#
# Stress axis : x y z
#
# Youngs Moduli (GPa) = 16.73387 12.47682 62.07259
#
# Poissons Ratio (x) = 0.75579 -0.60458
# Poissons Ratio (y) = 1.01367 0.82967
# Poissons Ratio (z) = -0.16299 0.16677
#
# Static dielectric constant tensor:
#      x y z
#    x 1.758660 0.002730 -0.059820 
#    y 0.002730 1.779930 -0.037260 
#    z -0.059820 -0.037260 1.884990 
# 
# From -- ./inp_files/87437.got.cif
#   From: 2010.05.17/outbox.cif.g08.bks.cpg/sg2_44_cif.got.tgz:87437.got - 2010.06.03 11:33:40.
