data_PCOD9054975
_publ_section_title
;
Structure prediction by ZEFSAII (Michael W. Deem and Ramdas Pophale) SiO2 
 PCOD9054975
Probable space group: P -1
;
_chemical_formula_sum "Si O2"
_cell_formula_units_Z 14
_cell_length_a 13.517487
_cell_length_b 9.090774
_cell_length_c 11.406152
_cell_angle_alpha 122.080419
_cell_angle_beta 150.940457
_cell_angle_gamma 56.151962
_cell_volume 562.008153
_symmetry_space_group_name_H-M "P -1"
_symmetry_group_IT_number 2
_symmetry_cell_setting 'triclinic'
loop_
_space_group_symop_operation_xyz
x,y,z
-x,-y,-z
loop_
_atom_site_type_symbol
_atom_site_label
_atom_site_fract_x
_atom_site_fract_y
_atom_site_fract_z
Si Si1 0.052786 0.296793 0.190538
Si Si2 0.405355 0.200208 0.033624
Si Si3 0.311811 0.657909 0.333567
Si Si4 0.647998 0.870440 0.784159
Si Si5 0.143548 0.803732 0.436147
Si Si6 0.007268 0.362682 0.582403
Si Si7 0.916083 0.138695 0.199882
O O1 0.024695 0.148744 0.192472
O O2 0.211967 0.225709 0.220186
O O3 0.100091 0.457214 0.385300
O O4 0.819513 0.365937 0.925537
O O5 0.258884 0.320253 0.836616
O O6 0.307930 0.195454 0.062311
O O7 0.617318 0.260172 0.304159
O O8 0.500000 0.000000 0.000000
O O9 0.500000 0.500000 0.500000
O O10 0.420177 0.828009 0.508428
O O11 0.140907 0.677314 0.268701
O O12 0.705481 0.065263 0.932976
O O13 0.023146 0.789482 0.422370
O O14 0.068017 0.994250 0.377654
O O15 0.909070 0.322624 0.340880
#
# Coordination Sequence:
#
# PCOD9054975 Si02
#       7
#     2   2   2   2   2   2   2
#     4  12  26  45  66  99 143 173 220 278 341 399
#     4  11  21  39  69 101 129 169 226 280 321 390
#     4  11  24  42  69 102 131 170 225 279 336 393
#     4  11  24  43  70  99 130 179 219 276 334 392
#     4  11  22  40  70  97 127 172 233 271 323 401
#     4  12  24  44  70  97 135 181 221 279 333 391
#     4  12  24  44  66 101 134 180 223 272 336 401
#
# _framework density 24.910671000000001
#
# number of rings (size 3 to 8) (size 9 to 14) (size 15 to 20)
#    0.000    0.571    4.286    4.714    0.000    2.286 
#    2.571    0.000    0.000    5.143    0.000    0.000 
#    0.000    0.000    0.000    0.000    0.000    0.000 
#
# Total GULP energy -78119.302377 kJ/mol
# GULP energy per Si atom -5579.950170 kJ/mol
# Density = 2.485397 g / cm^3
# Si number density = 24.910671 Si / 1000 Ang^3
#
#
#
# Elastic Constant Matrix: (Units=GPa)
#
#
# Indices 1 2 3 4 5 6 
#
# 1 108.6950 20.8248 40.6593 -0.6673 -26.3323 -2.4331
# 2 20.8248 50.2458 26.5163 3.4788 -14.1410 -4.2257
# 3 40.6593 26.5163 75.1446 25.4471 -12.2971 -7.1189
# 4 -0.6673 3.4788 25.4471 39.5499 -7.7357 -12.1161
# 5 -26.3323 -14.1410 -12.2971 -7.7357 31.7429 9.2424
# 6 -2.4331 -4.2257 -7.1189 -12.1161 9.2424 38.6974
#
#
#
# Elastic Compliance Matrix: (Units=1/GPa)
#
#
# Indices 1 2 3 4 5 6 
#
# 1 0.015640 0.001571 -0.010060 0.008708 0.012153 -0.000872
# 2 0.001571 0.027807 -0.011239 0.007156 0.010873 0.000711
# 3 -0.010060 -0.011239 0.027849 -0.018735 -0.006847 -0.000967
# 4 0.008708 0.007156 -0.018735 0.041520 0.010859 0.008289
# 5 0.012153 0.010873 -0.006847 0.010859 0.048612 -0.007518
# 6 -0.000872 0.000711 -0.000967 0.008289 -0.007518 0.030077
#
#
# Mechanical properties :
#
#
# Convention : Reuss Voigt Hill
#
# Bulk Modulus (GPa) = 31.40658 45.56515 38.48586
# Shear Modulus (GPa) = 20.69766 31.73704 26.21735
#
# Velocity S-wave (km/s) = 2.88562 3.57323 3.24768
# Velocity P-wave (km/s) = 4.87211 5.94602 5.43565
#
# Compressibility (1/GPa) = 0.03184046
#
# Stress axis : x y z
#
# Youngs Moduli (GPa) = 63.93766 35.96249 35.90804
#
# Poissons Ratio (x) = -0.05648 0.36122
# Poissons Ratio (y) = -0.10042 0.40356
# Poissons Ratio (z) = 0.64319 0.40417
#
# Static dielectric constant tensor:
#      x y z
#    x 2.049920 -0.016810 0.033410 
#    y -0.016810 2.100000 0.084130 
#    z 0.033410 0.084130 2.065070 
# 
# From -- ./inp_files/305773.got.cif
#   From: 2010.05.17/outbox.cif.g08.bks.cpg/sg2_153_cif.got.tgz:305773.got - 2010.06.03 11:33:40.
