data_PCOD9054788
_publ_section_title
;
Structure prediction by ZEFSAII (Michael W. Deem and Ramdas Pophale) SiO2 
 PCOD9054788
Probable space group: P -1
;
_chemical_formula_sum "Si O2"
_cell_formula_units_Z 16
_cell_length_a 12.768584
_cell_length_b 11.617968
_cell_length_c 16.225110
_cell_angle_alpha 123.862576
_cell_angle_beta 153.946447
_cell_angle_gamma 46.537801
_cell_volume 753.232472
_symmetry_space_group_name_H-M "P -1"
_symmetry_group_IT_number 2
_symmetry_cell_setting 'triclinic'
loop_
_space_group_symop_operation_xyz
x,y,z
-x,-y,-z
loop_
_atom_site_type_symbol
_atom_site_label
_atom_site_fract_x
_atom_site_fract_y
_atom_site_fract_z
Si Si1 0.062661 0.763088 0.478590
Si Si2 0.224788 0.675887 0.886908
Si Si3 0.355339 0.326723 0.069984
Si Si4 0.179547 0.897486 0.464822
Si Si5 0.262022 0.189883 0.102835
Si Si6 0.877108 0.538963 0.521022
Si Si7 0.244336 0.661593 0.082201
Si Si8 0.290317 0.921276 0.916282
O O1 0.381551 0.688521 0.701641
O O2 0.059938 0.807066 0.399104
O O3 0.991311 0.629436 0.402066
O O4 0.915125 0.929113 0.491331
O O5 0.250685 0.795399 0.891069
O O6 0.967968 0.654707 0.672672
O O7 0.500000 0.500000 0.000000
O O8 0.207305 0.726056 0.989207
O O9 0.184744 0.307392 0.015595
O O10 0.225943 0.497953 0.001902
O O11 0.494213 0.178926 0.044625
O O12 0.511772 0.804071 0.674928
O O13 0.011399 0.946507 0.280883
O O14 0.997727 0.223436 0.981422
O O15 0.394167 0.015107 0.083528
O O16 0.547223 0.616888 0.310224
O O17 0.000000 0.500000 0.500000
#
# Coordination Sequence:
#
# PCOD9054788 Si02
#       8
#     2   2   2   2   2   2   2   2
#     4   8  17  33  60  91 118 158 204 250 304 356
#     4  12  24  41  64  92 115 159 214 256 299 362
#     4   9  18  40  65  92 123 160 207 255 297 364
#     4   9  19  37  57  88 128 156 194 252 309 361
#     4  11  24  38  64  93 129 165 194 250 321 367
#     4  11  21  38  65  89 120 162 210 261 297 352
#     4  11  24  42  61  95 128 159 205 252 311 367
#     4  11  23  40  64  93 120 160 218 252 297 368
#
# _framework density 21.241781
#
# number of rings (size 3 to 8) (size 9 to 14) (size 15 to 20)
#    0.000    1.750    2.500    3.000    1.750    3.500 
#    0.000    1.250    0.000    6.000    0.000    0.000 
#    0.000    0.000    0.000    0.000    0.000    0.000 
#
# Total GULP energy -89349.917921 kJ/mol
# GULP energy per Si atom -5584.369870 kJ/mol
# Density = 2.119343 g / cm^3
# Si number density = 21.241781 Si / 1000 Ang^3
#
#
#
# Elastic Constant Matrix: (Units=GPa)
#
#
# Indices 1 2 3 4 5 6 
#
# 1 100.7169 5.8996 34.4904 -9.9720 -12.8624 12.9336
# 2 5.8996 30.2568 5.8179 4.9869 -14.6528 19.1248
# 3 34.4904 5.8179 106.6420 5.0588 -3.3213 7.7721
# 4 -9.9720 4.9869 5.0588 23.2823 3.8869 -0.6931
# 5 -12.8624 -14.6528 -3.3213 3.8869 22.2038 -2.6905
# 6 12.9336 19.1248 7.7721 -0.6931 -2.6905 35.5762
#
#
#
# Elastic Compliance Matrix: (Units=1/GPa)
#
#
# Indices 1 2 3 4 5 6 
#
# 1 0.013448 0.007133 -0.004052 0.003153 0.010493 -0.006983
# 2 0.007133 0.109997 -0.000164 -0.034833 0.075933 -0.056625
# 3 -0.004052 -0.000164 0.010951 -0.004071 -0.000217 -0.000927
# 4 0.003153 -0.034833 -0.004071 0.058146 -0.029847 0.017344
# 5 0.010493 0.075933 -0.000217 -0.029847 0.101879 -0.037464
# 6 -0.006983 -0.056625 -0.000927 0.017344 -0.037464 0.058794
#
#
# Mechanical properties :
#
#
# Convention : Reuss Voigt Hill
#
# Bulk Modulus (GPa) = 7.13120 36.67018 21.90069
# Shear Modulus (GPa) = 12.68637 28.97297 20.82967
#
# Velocity S-wave (km/s) = 2.44649 3.69719 3.13485
# Velocity P-wave (km/s) = 3.36822 5.96040 4.84103
#
# Compressibility (1/GPa) = 0.14022890
#
# Stress axis : x y z
#
# Youngs Moduli (GPa) = 74.36257 9.09117 91.31916
#
# Poissons Ratio (x) = -0.06485 0.37005
# Poissons Ratio (y) = -0.53042 0.01496
# Poissons Ratio (z) = 0.30133 0.00149
#
# Static dielectric constant tensor:
#      x y z
#    x 1.760660 0.020410 -0.002680 
#    y 0.020410 1.785830 -0.019070 
#    z -0.002680 -0.019070 1.798340 
# 
# From -- ./inp_files/436915.got.cif
#   From: 2010.05.17/outbox.cif.g08.bks.cpg/sg2_219_cif.got.tgz:436915.got - 2010.06.03 11:33:40.
