data_PCOD9054170
_publ_section_title
;
Structure prediction by ZEFSAII (Michael W. Deem and Ramdas Pophale) SiO2 
 PCOD9054170
Probable space group: P -1
;
_chemical_formula_sum "Si O2"
_cell_formula_units_Z 16
_cell_length_a 20.612961
_cell_length_b 10.937513
_cell_length_c 5.852241
_cell_angle_alpha 66.480761
_cell_angle_beta 55.350416
_cell_angle_gamma 45.102234
_cell_volume 768.862593
_symmetry_space_group_name_H-M "P -1"
_symmetry_group_IT_number 2
_symmetry_cell_setting 'triclinic'
loop_
_space_group_symop_operation_xyz
x,y,z
-x,-y,-z
loop_
_atom_site_type_symbol
_atom_site_label
_atom_site_fract_x
_atom_site_fract_y
_atom_site_fract_z
Si Si1 0.322380 0.594196 0.014974
Si Si2 0.165716 0.888875 0.793478
Si Si3 0.474643 0.237922 0.719810
Si Si4 0.316596 0.966225 0.306808
Si Si5 0.443784 0.690292 0.875619
Si Si6 0.030628 0.863653 0.733697
Si Si7 0.724422 0.698470 0.923030
Si Si8 0.785620 0.504456 0.443605
O O1 0.279641 0.562553 0.343434
O O2 0.229004 0.709810 0.941072
O O3 0.417151 0.407499 0.868768
O O4 0.358234 0.707078 0.886640
O O5 0.243078 0.920435 0.535708
O O6 0.104709 0.870136 0.742800
O O7 0.075858 0.055917 0.992433
O O8 0.594131 0.093593 0.644315
O O9 0.476999 0.305772 0.420796
O O10 0.398571 0.195571 0.907722
O O11 0.256030 0.165297 0.223763
O O12 0.385807 0.844966 0.049720
O O13 0.500000 0.500000 0.000000
O O14 0.096470 0.667367 0.667405
O O15 0.000000 0.000000 0.500000
O O16 0.761504 0.601997 0.668511
O O17 0.761359 0.597656 0.172555
#
# Coordination Sequence:
#
# PCOD9054170 Si02
#       8
#     2   2   2   2   2   2   2   2
#     4  11  20  41  65 105 134 176 220 287 353 406
#     4  11  24  41  70 104 139 166 223 292 363 409
#     4  11  23  40  64  93 142 184 232 269 328 404
#     4  12  26  43  63  99 140 187 230 277 328 411
#     4  12  22  36  63  96 138 176 231 284 343 389
#     4  11  23  44  74 104 128 166 222 297 370 416
#     4  11  28  45  69  97 142 195 235 268 327 412
#     4  11  24  47  71  98 137 179 233 286 345 411
#
# _framework density 20.80996
#
# number of rings (size 3 to 8) (size 9 to 14) (size 15 to 20)
#    0.000    0.750    3.750    4.500    5.250    0.500 
#    0.000    1.250    0.000    0.000    0.000    0.000 
#    0.000    0.000    0.000    0.000    0.000    0.000 
#
# Total GULP energy -89182.285391 kJ/mol
# GULP energy per Si atom -5573.892837 kJ/mol
# Density = 2.076260 g / cm^3
# Si number density = 20.809960 Si / 1000 Ang^3
#
#
#
# Elastic Constant Matrix: (Units=GPa)
#
#
# Indices 1 2 3 4 5 6 
#
# 1 23.3511 2.5874 -27.7002 -13.9140 27.1504 -7.8115
# 2 2.5874 74.3978 25.6265 -3.5586 10.9999 -9.2248
# 3 -27.7002 25.6265 48.1719 7.9002 34.4662 13.3441
# 4 -13.9140 -3.5586 7.9002 40.9493 -1.1802 3.3326
# 5 27.1504 10.9999 34.4662 -1.1802 6.3829 -15.0443
# 6 -7.8115 -9.2248 13.3441 3.3326 -15.0443 37.2951
#
#
#
# Elastic Compliance Matrix: (Units=1/GPa)
#
#
# Indices 1 2 3 4 5 6 
#
# 1 0.016844 0.002512 -0.010785 0.007347 0.019212 0.015102
# 2 0.002512 0.016327 -0.004460 0.002675 -0.005875 0.003552
# 3 -0.010785 -0.004460 0.007216 -0.005056 0.014584 0.000391
# 4 0.007347 0.002675 -0.005056 0.027988 0.003445 0.002898
# 5 0.019212 -0.005875 0.014584 0.003445 -0.000191 -0.003032
# 6 0.015102 0.003552 0.000391 0.002898 -0.003032 0.029233
#
#
# Mechanical properties :
#
#
# Convention : Reuss Voigt Hill
#
# Bulk Modulus (GPa) = 67.01764 16.32757 41.67261
# Shear Modulus (GPa) = 39.10646 26.61928 32.86287
#
# Velocity S-wave (km/s) = 4.33970 3.58042 3.97821
# Velocity P-wave (km/s) = 7.57530 4.99556 6.41641
#
# Compressibility (1/GPa) = 0.01492144
#
# Stress axis : x y z
#
# Youngs Moduli (GPa) = 59.36851 61.24786 138.58273
#
# Poissons Ratio (x) = -0.15388 1.49463
# Poissons Ratio (y) = -0.14916 0.61810
# Poissons Ratio (z) = 0.64029 0.27318
#
# Static dielectric constant tensor:
#      x y z
#    x 2.013660 -0.064370 0.151580 
#    y -0.064370 1.757130 0.001180 
#    z 0.151580 0.001180 1.841970 
# 
# From -- ./inp_files/68428.got.cif
#   From: 2010.05.17/outbox.cif.g08.bks.cpg/sg2_35_cif.got.tgz:68428.got - 2010.06.03 11:33:40.
