data_PCOD9054741
_publ_section_title
;
Structure prediction by ZEFSAII (Michael W. Deem and Ramdas Pophale) SiO2 
 PCOD9054741
Probable space group: P -1
;
_chemical_formula_sum "Si O2"
_cell_formula_units_Z 16
_cell_length_a 14.269217
_cell_length_b 6.129683
_cell_length_c 17.472435
_cell_angle_alpha 106.207259
_cell_angle_beta 151.200857
_cell_angle_gamma 86.297697
_cell_volume 651.231195
_symmetry_space_group_name_H-M "P -1"
_symmetry_group_IT_number 2
_symmetry_cell_setting 'triclinic'
loop_
_space_group_symop_operation_xyz
x,y,z
-x,-y,-z
loop_
_atom_site_type_symbol
_atom_site_label
_atom_site_fract_x
_atom_site_fract_y
_atom_site_fract_z
Si Si1 0.970195 0.876859 0.226998
Si Si2 0.434791 0.162596 0.546732
Si Si3 0.476996 0.192775 0.745862
Si Si4 0.192758 0.047499 0.041133
Si Si5 0.628821 0.436687 0.020823
Si Si6 0.145144 0.743620 0.728261
Si Si7 0.300100 0.170688 0.294483
Si Si8 0.130277 0.829078 0.558660
O O1 0.847164 0.644559 0.168943
O O2 0.984451 0.108862 0.312729
O O3 0.826780 0.845217 0.045113
O O4 0.206530 0.933075 0.372017
O O5 0.463098 0.289445 0.661775
O O6 0.416117 0.302298 0.469909
O O7 0.618550 0.056317 0.664516
O O8 0.689172 0.139461 0.899109
O O9 0.288508 0.941471 0.612651
O O10 0.481940 0.370473 0.835369
O O11 0.306503 0.221084 0.212383
O O12 0.946733 0.902432 0.872350
O O13 0.686968 0.228858 0.082762
O O14 0.500000 0.500000 0.000000
O O15 0.235117 0.837431 0.717912
O O16 0.009904 0.454028 0.588894
O O17 0.000000 0.000000 0.500000
#
# Coordination Sequence:
#
# PCOD9054741 Si02
#       8
#     2   2   2   2   2   2   2   2
#     4  11  22  40  63  94 128 174 216 257 319 379
#     4   9  18  35  65  95 121 165 214 263 321 395
#     4  11  21  38  61  94 125 170 215 266 317 380
#     4   9  18  35  63  96 124 161 212 268 322 393
#     4  12  26  39  60  90 136 175 217 264 319 374
#     4  11  23  41  62  89 127 174 214 273 312 375
#     4   8  16  34  65  96 120 164 204 265 342 372
#     4  11  24  42  63  91 130 168 224 268 322 368
#
# _framework density 24.568850000000001
#
# number of rings (size 3 to 8) (size 9 to 14) (size 15 to 20)
#    0.000    1.750    1.250    3.750    1.750    2.000 
#    0.000    0.000    0.000   28.500    0.000    0.000 
#    0.000    0.000    0.000    0.000    0.000    0.000 
#
# Total GULP energy -89255.815615 kJ/mol
# GULP energy per Si atom -5578.488476 kJ/mol
# Density = 2.451293 g / cm^3
# Si number density = 24.568850 Si / 1000 Ang^3
#
#
#
# Elastic Constant Matrix: (Units=GPa)
#
#
# Indices 1 2 3 4 5 6 
#
# 1 163.9513 39.4009 56.7664 -15.7077 -41.9632 25.3416
# 2 39.4009 52.2443 40.9471 -5.6021 -3.3412 27.4483
# 3 56.7664 40.9471 97.5962 -13.2173 -25.8907 4.7760
# 4 -15.7077 -5.6021 -13.2173 35.4184 3.5932 -13.5014
# 5 -41.9632 -3.3412 -25.8907 3.5932 72.3339 -10.3981
# 6 25.3416 27.4483 4.7760 -13.5014 -10.3981 40.5412
#
#
#
# Elastic Compliance Matrix: (Units=1/GPa)
#
#
# Indices 1 2 3 4 5 6 
#
# 1 0.009287 -0.004371 -0.002161 0.001853 0.004191 -0.000899
# 2 -0.004371 0.075190 -0.034124 -0.022387 -0.018257 -0.056293
# 3 -0.002161 -0.034124 0.029299 0.014367 0.011058 0.028624
# 4 0.001853 -0.022387 0.014367 0.040709 0.007142 0.027695
# 5 0.004191 -0.018257 0.011058 0.007142 0.021359 0.016295
# 6 -0.000899 -0.056293 0.028624 0.027695 0.016295 0.073372
#
#
# Mechanical properties :
#
#
# Convention : Reuss Voigt Hill
#
# Bulk Modulus (GPa) = 30.80436 65.33563 48.06999
# Shear Modulus (GPa) = 14.64772 41.43719 28.04246
#
# Velocity S-wave (km/s) = 2.44435 4.11125 3.38210
# Velocity P-wave (km/s) = 4.53119 7.01335 5.90418
#
# Compressibility (1/GPa) = 0.03246294
#
# Stress axis : x y z
#
# Youngs Moduli (GPa) = 107.67287 13.29967 34.13096
#
# Poissons Ratio (x) = 0.05813 0.07377
# Poissons Ratio (y) = 0.47065 1.16469
# Poissons Ratio (z) = 0.23271 0.45384
#
# Static dielectric constant tensor:
#      x y z
#    x 2.033460 0.011470 -0.015650 
#    y 0.011470 1.984680 0.044870 
#    z -0.015650 0.044870 2.098230 
# 
# From -- ./inp_files/571741.got.cif
#   From: 2010.05.17/outbox.cif.g08.bks.cpg/sg2_286_cif.got.tgz:571741.got - 2010.06.03 11:33:40.
