data_PCOD9054404
_publ_section_title
;
Structure prediction by ZEFSAII (Michael W. Deem and Ramdas Pophale) SiO2 
 PCOD9054404
Probable space group: P -1
;
_chemical_formula_sum "Si O2"
_cell_formula_units_Z 16
_cell_length_a 9.686408
_cell_length_b 26.827737
_cell_length_c 9.775783
_cell_angle_alpha 134.934789
_cell_angle_beta 127.748500
_cell_angle_gamma 23.520641
_cell_volume 712.025314
_symmetry_space_group_name_H-M "P -1"
_symmetry_group_IT_number 2
_symmetry_cell_setting 'triclinic'
loop_
_space_group_symop_operation_xyz
x,y,z
-x,-y,-z
loop_
_atom_site_type_symbol
_atom_site_label
_atom_site_fract_x
_atom_site_fract_y
_atom_site_fract_z
Si Si1 0.563644 0.680868 0.908250
Si Si2 0.786865 0.779701 0.783469
Si Si3 0.242727 0.749726 0.117547
Si Si4 0.451254 0.935963 0.606548
Si Si5 0.205676 0.031833 0.123629
Si Si6 0.181115 0.498316 0.520909
Si Si7 0.415018 0.169799 0.807342
Si Si8 0.678399 0.365357 0.797739
O O1 0.745495 0.556181 0.691391
O O2 0.178238 0.822819 0.883542
O O3 0.517560 0.681910 0.042804
O O4 0.719531 0.703383 0.018240
O O5 0.682347 0.821148 0.642942
O O6 0.949382 0.648791 0.666963
O O7 0.051784 0.749783 0.928317
O O8 0.439655 0.915976 0.922573
O O9 0.386123 0.670717 0.195008
O O10 0.938124 0.912098 0.280934
O O11 0.625241 0.951060 0.710866
O O12 0.464833 0.886481 0.382200
O O13 0.265356 0.962212 0.156384
O O14 0.526750 0.396697 0.619857
O O15 0.000000 0.500000 0.500000
O O16 0.090961 0.234382 0.780672
O O17 0.500000 0.500000 0.000000
#
# Coordination Sequence:
#
# PCOD9054404 Si02
#       8
#     2   2   2   2   2   2   2   2
#     4  12  26  44  68 105 143 182 232 282 347 406
#     4  11  21  45  72  98 142 180 230 280 351 411
#     4  11  23  44  72 102 139 181 230 286 342 415
#     4  11  22  41  73 100 135 181 238 279 348 405
#     4  11  20  44  69 101 136 186 225 284 340 416
#     4  12  28  47  72 103 138 185 233 281 348 415
#     4  12  26  41  68 106 140 179 233 290 338 407
#     4  12  24  46  72  98 140 184 227 283 346 409
#
# _framework density 22.471112000000002
#
# number of rings (size 3 to 8) (size 9 to 14) (size 15 to 20)
#    0.000    0.500    6.250    3.750    1.750    3.000 
#    0.000    1.875    0.000    0.000    0.000    0.000 
#    0.000    0.000    0.000    0.000    0.000    0.000 
#
# Total GULP energy -89639.805596 kJ/mol
# GULP energy per Si atom -5602.487850 kJ/mol
# Density = 2.241997 g / cm^3
# Si number density = 22.471112 Si / 1000 Ang^3
#
#
#
# Elastic Constant Matrix: (Units=GPa)
#
#
# Indices 1 2 3 4 5 6 
#
# 1 44.5101 -0.1095 7.7402 -1.9393 -0.8616 5.0884
# 2 -0.1095 49.8883 2.0370 7.3896 9.2832 10.0618
# 3 7.7402 2.0370 71.6084 -6.6076 -9.4190 1.7642
# 4 -1.9393 7.3896 -6.6076 27.2443 7.4033 -6.9686
# 5 -0.8616 9.2832 -9.4190 7.4033 22.5012 -1.1885
# 6 5.0884 10.0618 1.7642 -6.9686 -1.1885 31.8358
#
#
#
# Elastic Compliance Matrix: (Units=1/GPa)
#
#
# Indices 1 2 3 4 5 6 
#
# 1 0.023355 0.001126 -0.002574 -0.000060 -0.000839 -0.003991
# 2 0.001126 0.024973 -0.002500 -0.007261 -0.009439 -0.009876
# 3 -0.002574 -0.002500 0.015399 0.002760 0.006534 0.001196
# 4 -0.000060 -0.007261 0.002760 0.045049 -0.010059 0.011637
# 5 -0.000839 -0.009439 0.006534 -0.010059 0.054486 0.002588
# 6 -0.003991 -0.009876 0.001196 0.011637 0.002588 0.037748
#
#
# Mechanical properties :
#
#
# Convention : Reuss Voigt Hill
#
# Bulk Modulus (GPa) = 17.91148 20.59358 19.25253
# Shear Modulus (GPa) = 21.97648 26.73886 24.35767
#
# Velocity S-wave (km/s) = 3.13067 3.45327 3.29592
# Velocity P-wave (km/s) = 4.58872 5.00844 4.80316
#
# Compressibility (1/GPa) = 0.05583013
#
# Stress axis : x y z
#
# Youngs Moduli (GPa) = 42.81827 40.04296 64.93992
#
# Poissons Ratio (x) = -0.04510 0.16715
# Poissons Ratio (y) = -0.04822 0.16238
# Poissons Ratio (z) = 0.11021 0.10012
#
# Static dielectric constant tensor:
#      x y z
#    x 1.844960 -0.012000 0.011150 
#    y -0.012000 1.811560 -0.023750 
#    z 0.011150 -0.023750 1.793740 
# 
# From -- ./inp_files/206245.got.cif
#   From: 2010.05.17/outbox.cif.g08.bks.cpg/sg2_104_cif.got.tgz:206245.got - 2010.06.03 11:33:40.
