data_PCOD9054960
_publ_section_title
;
Structure prediction by ZEFSAII (Michael W. Deem and Ramdas Pophale) SiO2 
 PCOD9054960
Probable space group: P -1
;
_chemical_formula_sum "Si O2"
_cell_formula_units_Z 16
_cell_length_a 8.922553
_cell_length_b 8.722365
_cell_length_c 17.715564
_cell_angle_alpha 78.522437
_cell_angle_beta 42.088321
_cell_angle_gamma 55.613879
_cell_volume 699.640263
_symmetry_space_group_name_H-M "P -1"
_symmetry_group_IT_number 2
_symmetry_cell_setting 'triclinic'
loop_
_space_group_symop_operation_xyz
x,y,z
-x,-y,-z
loop_
_atom_site_type_symbol
_atom_site_label
_atom_site_fract_x
_atom_site_fract_y
_atom_site_fract_z
Si Si1 0.406108 0.243811 0.878954
Si Si2 0.539979 0.265278 0.608483
Si Si3 0.363053 0.710817 0.070416
Si Si4 0.722305 0.676765 0.633785
Si Si5 0.699188 0.925749 0.353858
Si Si6 0.863987 0.956054 0.989750
Si Si7 0.131852 0.090699 0.350595
Si Si8 0.661400 0.426599 0.226813
O O1 0.414445 0.312234 0.951295
O O2 0.306302 0.429327 0.845946
O O3 0.730210 0.036737 0.763776
O O4 0.239733 0.161116 0.926559
O O5 0.323719 0.240204 0.654336
O O6 0.412754 0.477653 0.672619
O O7 0.794635 0.206145 0.464516
O O8 0.708887 0.089788 0.627821
O O9 0.043353 0.818954 0.220054
O O10 0.350939 0.839795 0.994189
O O11 0.500000 0.500000 0.000000
O O12 0.802989 0.761532 0.661788
O O13 0.586057 0.571392 0.718223
O O14 0.000000 0.500000 0.500000
O O15 0.494723 0.871088 0.646026
O O16 0.500000 0.000000 0.500000
O O17 0.068115 0.803588 0.861350
O O18 0.000000 0.000000 0.000000
#
# Coordination Sequence:
#
# PCOD9054960 Si02
#       8
#     2   2   2   2   2   2   2   2
#     4  11  25  43  71  97 138 185 233 290 355 414
#     4   9  19  35  63  94 128 173 222 280 339 408
#     4  12  28  48  69 103 149 190 234 290 356 420
#     4  11  21  39  68 104 138 175 232 294 349 418
#     4  11  25  45  69  98 144 186 232 288 356 420
#     4  12  26  47  71 101 136 184 242 291 347 423
#     4   9  18  36  62  95 131 170 223 278 341 406
#     4  11  22  40  70 100 133 176 238 289 346 417
#
# _framework density 22.868894000000001
#
# number of rings (size 3 to 8) (size 9 to 14) (size 15 to 20)
#    0.000    1.250    2.500    3.000    8.750    0.000 
#    0.000    0.625    0.000    0.000    0.000    0.000 
#    0.000    0.000    0.000    0.000    0.000    0.000 
#
# Total GULP energy -89178.779591 kJ/mol
# GULP energy per Si atom -5573.673724 kJ/mol
# Density = 2.281684 g / cm^3
# Si number density = 22.868894 Si / 1000 Ang^3
#
#
#
# Elastic Constant Matrix: (Units=GPa)
#
#
# Indices 1 2 3 4 5 6 
#
# 1 80.9530 29.6177 6.3296 -4.3521 -6.8954 39.8932
# 2 29.6177 114.5507 32.9314 8.3030 -6.9249 41.9438
# 3 6.3296 32.9314 49.0256 6.3577 -3.1840 17.0396
# 4 -4.3521 8.3030 6.3577 46.7712 17.7543 1.7386
# 5 -6.8954 -6.9249 -3.1840 17.7543 29.9441 0.6633
# 6 39.8932 41.9438 17.0396 1.7386 0.6633 44.2639
#
#
#
# Elastic Compliance Matrix: (Units=1/GPa)
#
#
# Indices 1 2 3 4 5 6 
#
# 1 0.024899 0.002459 0.005073 -0.000819 0.007921 -0.026809
# 2 0.002459 0.015641 -0.004658 -0.003714 0.006226 -0.015192
# 3 0.005073 -0.004658 0.027500 -0.004229 0.005759 -0.010665
# 4 -0.000819 -0.003714 -0.004229 0.029632 -0.019177 0.005009
# 5 0.007921 0.006226 0.005759 -0.019177 0.048980 -0.015237
# 6 -0.026809 -0.015192 -0.010665 0.005009 -0.015237 0.065286
#
#
# Mechanical properties :
#
#
# Convention : Reuss Voigt Hill
#
# Bulk Modulus (GPa) = 13.55249 42.47630 28.01439
# Shear Modulus (GPa) = 21.66496 35.90588 28.78542
#
# Velocity S-wave (km/s) = 3.08125 3.96672 3.55169
# Velocity P-wave (km/s) = 4.31252 6.29237 5.39406
#
# Compressibility (1/GPa) = 0.07378718
#
# Stress axis : x y z
#
# Youngs Moduli (GPa) = 40.16258 63.93351 36.36312
#
# Poissons Ratio (x) = -0.15720 -0.18445
# Poissons Ratio (y) = -0.09875 0.16937
# Poissons Ratio (z) = -0.20372 0.29779
#
# Static dielectric constant tensor:
#      x y z
#    x 1.759110 -0.018630 -0.094700 
#    y -0.018630 1.818390 -0.015480 
#    z -0.094700 -0.015480 1.845060 
# 
# From -- ./inp_files/557154.got.cif
#   From: 2010.05.17/outbox.cif.g08.bks.cpg/sg2_279_cif.got.tgz:557154.got - 2010.06.03 11:33:40.
