data_PCOD9054842
_publ_section_title
;
Structure prediction by ZEFSAII (Michael W. Deem and Ramdas Pophale) SiO2 
 PCOD9054842
Probable space group: P -1
;
_chemical_formula_sum "Si O2"
_cell_formula_units_Z 15
_cell_length_a 10.357758
_cell_length_b 9.341097
_cell_length_c 9.183299
_cell_angle_alpha 127.512629
_cell_angle_beta 114.802454
_cell_angle_gamma 92.524692
_cell_volume 581.807254
_symmetry_space_group_name_H-M "P -1"
_symmetry_group_IT_number 2
_symmetry_cell_setting 'triclinic'
loop_
_space_group_symop_operation_xyz
x,y,z
-x,-y,-z
loop_
_atom_site_type_symbol
_atom_site_label
_atom_site_fract_x
_atom_site_fract_y
_atom_site_fract_z
Si Si1 0.906376 0.927461 0.085962
Si Si2 0.404826 0.216290 0.337632
Si Si3 0.238552 0.976214 0.369431
Si Si4 0.810916 0.746136 0.240195
Si Si5 0.561187 0.400674 0.262376
Si Si6 0.500000 0.500000 0.000000
Si Si7 0.083685 0.389294 0.383707
Si Si8 0.912384 0.370183 0.741084
O O1 0.066750 0.897345 0.163762
O O2 0.977787 0.157582 0.214779
O O3 0.832196 0.865072 0.172949
O O4 0.764103 0.816790 0.836746
O O5 0.361555 0.056282 0.346945
O O6 0.507884 0.229127 0.251730
O O7 0.487291 0.428220 0.589509
O O8 0.242509 0.153290 0.588409
O O9 0.238954 0.806969 0.372485
O O10 0.673738 0.527293 0.040262
O O11 0.975139 0.729377 0.330928
O O12 0.500645 0.351099 0.041066
O O13 0.744880 0.529372 0.418282
O O14 0.110274 0.485801 0.296079
O O15 0.000000 0.500000 0.500000
O O16 0.000000 0.500000 0.000000
#
# Coordination Sequence:
#
# PCOD9054842 Si02
#       8
#     2   2   2   2   2   1   2   2
#     4  11  21  38  69  95 126 167 230 272 314 386
#     4  11  22  39  64 102 127 163 223 278 329 376
#     4  11  21  41  67  98 129 174 229 269 315 394
#     4  11  23  41  69 100 122 179 225 275 318 392
#     4  11  25  39  66 100 131 169 214 282 332 386
#     4  12  20  44  66  98 128 166 228 280 332 374
#     4  12  24  44  66  98 135 173 217 270 333 397
#     4  11  25  40  66  99 138 171 214 271 340 392
#
# _framework density 25.781735000000001
#
# number of rings (size 3 to 8) (size 9 to 14) (size 15 to 20)
#    0.000    0.800    4.000    5.200    3.733    0.000 
#    0.000    1.333    5.867    0.000    0.000    0.000 
#    0.000    0.000    0.000    0.000    0.000    0.000 
#
# Total GULP energy -83573.421187 kJ/mol
# GULP energy per Si atom -5571.561412 kJ/mol
# Density = 2.572306 g / cm^3
# Si number density = 25.781735 Si / 1000 Ang^3
#
#
#
# Elastic Constant Matrix: (Units=GPa)
#
#
# Indices 1 2 3 4 5 6 
#
# 1 65.8733 48.5513 13.5932 2.9431 0.7808 49.7594
# 2 48.5513 222.1506 22.9302 -20.6516 -5.4456 58.5257
# 3 13.5932 22.9302 69.9481 -17.8865 -0.8540 7.3099
# 4 2.9431 -20.6516 -17.8865 34.9349 6.4007 -5.3402
# 5 0.7808 -5.4456 -0.8540 6.4007 22.3100 5.6438
# 6 49.7594 58.5257 7.3099 -5.3402 5.6438 57.3814
#
#
#
# Elastic Compliance Matrix: (Units=1/GPa)
#
#
# Indices 1 2 3 4 5 6 
#
# 1 0.058044 0.001062 -0.011291 -0.021465 0.017539 -0.053701
# 2 0.001062 0.006631 -0.001154 0.001504 0.003053 -0.007697
# 3 -0.011291 -0.001154 0.018931 0.012506 -0.005342 0.010246
# 4 -0.021465 0.001504 0.012506 0.043965 -0.016377 0.021190
# 5 0.017539 0.003053 -0.005342 -0.016377 0.055683 -0.024644
# 6 -0.053701 -0.007697 0.010246 0.021190 -0.024644 0.074937
#
#
# Mechanical properties :
#
#
# Convention : Reuss Voigt Hill
#
# Bulk Modulus (GPa) = 16.43645 58.68015 37.55830
# Shear Modulus (GPa) = 16.59831 41.11841 28.85836
#
# Velocity S-wave (km/s) = 2.54008 3.99791 3.34927
# Velocity P-wave (km/s) = 3.87191 6.64235 5.43657
#
# Compressibility (1/GPa) = 0.06084038
#
# Stress axis : x y z
#
# Youngs Moduli (GPa) = 17.22833 150.80720 52.82382
#
# Poissons Ratio (x) = -0.16015 0.59642
# Poissons Ratio (y) = -0.01830 0.06096
# Poissons Ratio (z) = 0.19452 0.17403
#
# Static dielectric constant tensor:
#      x y z
#    x 2.346000 -0.043340 0.114620 
#    y -0.043340 2.052120 0.041350 
#    z 0.114620 0.041350 2.439120 
# 
# From -- ./inp_files/240712.got.cif
#   From: 2010.05.17/outbox.cif.g08.bks.cpg/sg2_121_cif.got.tgz:240712.got - 2010.06.03 11:33:40.
