data_PCOD9054962
_publ_section_title
;
Structure prediction by ZEFSAII (Michael W. Deem and Ramdas Pophale) SiO2 
 PCOD9054962
Probable space group: P -1
;
_chemical_formula_sum "Si O2"
_cell_formula_units_Z 16
_cell_length_a 10.821975
_cell_length_b 15.760549
_cell_length_c 14.107582
_cell_angle_alpha 35.703547
_cell_angle_beta 31.605686
_cell_angle_gamma 56.204830
_cell_volume 659.900839
_symmetry_space_group_name_H-M "P -1"
_symmetry_group_IT_number 2
_symmetry_cell_setting 'triclinic'
loop_
_space_group_symop_operation_xyz
x,y,z
-x,-y,-z
loop_
_atom_site_type_symbol
_atom_site_label
_atom_site_fract_x
_atom_site_fract_y
_atom_site_fract_z
Si Si1 0.610195 0.969871 0.214934
Si Si2 0.629425 0.649129 0.417176
Si Si3 0.085373 0.222922 0.579919
Si Si4 0.341495 0.805984 0.259580
Si Si5 0.888064 0.138334 0.469828
Si Si6 0.709216 0.484132 0.699607
Si Si7 0.692048 0.877635 0.650197
Si Si8 0.772964 0.673593 0.099576
O O1 0.601934 0.798279 0.349769
O O2 0.408266 0.986348 0.254625
O O3 0.470087 0.015387 0.351401
O O4 0.909041 0.101383 0.887181
O O5 0.679114 0.547765 0.559253
O O6 0.834734 0.702943 0.145375
O O7 0.365094 0.516224 0.661323
O O8 0.865975 0.249898 0.638880
O O9 0.299712 0.387375 0.334832
O O10 0.194214 0.136826 0.512517
O O11 0.160193 0.748398 0.524100
O O12 0.554874 0.740171 0.169899
O O13 0.500000 0.000000 0.000000
O O14 0.065131 0.074668 0.474935
O O15 0.017035 0.239373 0.198879
O O16 0.000000 0.500000 0.500000
O O17 0.505515 0.302146 0.022103
#
# Coordination Sequence:
#
# PCOD9054962 Si02
#       8
#     2   2   2   2   2   2   2   2
#     4  12  24  44  67 108 142 180 228 294 354 403
#     4  11  26  45  69 101 145 185 230 292 354 417
#     4  11  24  42  75 102 143 183 238 282 347 419
#     4  11  21  39  68 107 138 178 228 291 346 407
#     4  11  23  37  72 104 142 177 231 284 349 424
#     4  12  24  51  74  98 140 190 240 288 345 419
#     4  11  25  44  73 105 135 191 235 284 346 421
#     4  11  23  44  63 101 146 181 230 280 364 409
#
# _framework density 24.246065999999999
#
# number of rings (size 3 to 8) (size 9 to 14) (size 15 to 20)
#    0.000    0.750    5.000    2.250    5.250    1.000 
#    0.000    1.875    0.000    0.000    0.000    0.000 
#    0.000    0.000    0.000    0.000    0.000    0.000 
#
# Total GULP energy -89342.389535 kJ/mol
# GULP energy per Si atom -5583.899346 kJ/mol
# Density = 2.419088 g / cm^3
# Si number density = 24.246066 Si / 1000 Ang^3
#
#
#
# Elastic Constant Matrix: (Units=GPa)
#
#
# Indices 1 2 3 4 5 6 
#
# 1 63.3437 16.1019 13.3308 2.3630 7.2048 9.8074
# 2 16.1019 120.7686 50.0242 -2.4143 12.7215 -1.4798
# 3 13.3308 50.0242 101.4033 0.4969 3.0921 8.8817
# 4 2.3630 -2.4143 0.4969 50.9399 12.7624 6.1393
# 5 7.2048 12.7215 3.0921 12.7624 23.8091 0.5449
# 6 9.8074 -1.4798 8.8817 6.1393 0.5449 36.0132
#
#
#
# Elastic Compliance Matrix: (Units=1/GPa)
#
#
# Indices 1 2 3 4 5 6 
#
# 1 0.017611 -0.001449 -0.001049 0.000888 -0.004788 -0.004676
# 2 -0.001449 0.011429 -0.005445 0.001939 -0.006046 0.001968
# 3 -0.001049 -0.005445 0.012901 -0.000429 0.001852 -0.003074
# 4 0.000888 0.001939 -0.000429 0.023615 -0.013819 -0.003873
# 5 -0.004788 -0.006046 0.001852 -0.013819 0.053798 0.002141
# 6 -0.004676 0.001968 -0.003074 -0.003873 0.002141 0.030508
#
#
# Mechanical properties :
#
#
# Convention : Reuss Voigt Hill
#
# Bulk Modulus (GPa) = 38.38117 49.38105 43.88111
# Shear Modulus (GPa) = 28.66448 35.88969 32.27709
#
# Velocity S-wave (km/s) = 3.44209 3.85155 3.65256
# Velocity P-wave (km/s) = 5.62686 6.33956 5.99381
#
# Compressibility (1/GPa) = 0.02605444
#
# Stress axis : x y z
#
# Youngs Moduli (GPa) = 56.78152 87.50017 77.51570
#
# Poissons Ratio (x) = 0.12675 0.08135
# Poissons Ratio (y) = 0.08225 0.42207
# Poissons Ratio (z) = 0.05959 0.47644
#
# Static dielectric constant tensor:
#      x y z
#    x 1.997400 0.075270 0.053160 
#    y 0.075270 2.132340 0.006920 
#    z 0.053160 0.006920 1.988440 
# 
# From -- ./inp_files/522247.got.cif
#   From: 2010.05.17/outbox.cif.g08.bks.cpg/sg2_262_cif.got.tgz:522247.got - 2010.06.03 11:33:40.
