data_PCOD9054547
_publ_section_title
;
Structure prediction by ZEFSAII (Michael W. Deem and Ramdas Pophale) SiO2 
 PCOD9054547
Probable space group: P -1
;
_chemical_formula_sum "Si O2"
_cell_formula_units_Z 16
_cell_length_a 16.957608
_cell_length_b 9.945358
_cell_length_c 15.578792
_cell_angle_alpha 37.173272
_cell_angle_beta 151.828326
_cell_angle_gamma 138.403989
_cell_volume 739.928679
_symmetry_space_group_name_H-M "P -1"
_symmetry_group_IT_number 2
_symmetry_cell_setting 'triclinic'
loop_
_space_group_symop_operation_xyz
x,y,z
-x,-y,-z
loop_
_atom_site_type_symbol
_atom_site_label
_atom_site_fract_x
_atom_site_fract_y
_atom_site_fract_z
Si Si1 0.792447 0.763004 0.437409
Si Si2 0.878898 0.624168 0.762443
Si Si3 0.271811 0.173503 0.836496
Si Si4 0.573002 0.500222 0.757805
Si Si5 0.353412 0.777643 0.198755
Si Si6 0.340009 0.781529 0.863903
Si Si7 0.688518 0.926207 0.544959
Si Si8 0.802886 0.401483 0.362496
O O1 0.917638 0.700889 0.663016
O O2 0.847424 0.798590 0.373268
O O3 0.624942 0.570024 0.372750
O O4 0.732410 0.995693 0.290766
O O5 0.720420 0.420919 0.707276
O O6 0.815743 0.817888 0.659835
O O7 0.000000 0.500000 0.000000
O O8 0.287955 0.394793 0.796579
O O9 0.457465 0.149978 0.990479
O O10 0.225816 0.947221 0.962911
O O11 0.601354 0.353635 0.775433
O O12 0.640833 0.757845 0.664949
O O13 0.675665 0.406369 0.981224
O O14 0.516679 0.913815 0.331344
O O15 0.257960 0.683824 0.746578
O O16 0.762165 0.186677 0.495965
O O17 0.000000 0.500000 0.500000
#
# Coordination Sequence:
#
# PCOD9054547 Si02
#       8
#     2   2   2   2   2   2   2   2
#     4  11  18  39  66 101 126 148 203 271 305 354
#     4  11  22  35  61  96 128 158 201 253 313 367
#     4  11  22  38  67  95 121 157 217 249 305 371
#     4  10  17  35  65  99 115 153 201 263 306 353
#     4  11  18  36  66  96 123 155 201 259 308 360
#     4  11  20  39  69  93 122 159 208 257 310 362
#     4  11  21  40  62  87 128 167 203 246 315 365
#     4  12  27  44  58  84 133 175 201 252 312 372
#
# _framework density 21.623705999999999
#
# number of rings (size 3 to 8) (size 9 to 14) (size 15 to 20)
#    0.000    1.000    7.500    1.875    1.750    0.000 
#    4.500    5.625    0.000    0.000    0.000    0.000 
#    0.000    0.000    0.000    0.000    0.000    0.000 
#
# Total GULP energy -89406.120511 kJ/mol
# GULP energy per Si atom -5587.882532 kJ/mol
# Density = 2.157449 g / cm^3
# Si number density = 21.623706 Si / 1000 Ang^3
#
#
#
# Elastic Constant Matrix: (Units=GPa)
#
#
# Indices 1 2 3 4 5 6 
#
# 1 35.2110 16.2124 17.8201 -5.9256 -19.3169 3.9927
# 2 16.2124 76.6521 5.0896 -20.1669 0.2276 6.1385
# 3 17.8201 5.0896 101.9996 -8.8662 -26.4987 1.0741
# 4 -5.9256 -20.1669 -8.8662 41.5140 5.0634 -4.9410
# 5 -19.3169 0.2276 -26.4987 5.0634 35.7848 -2.6494
# 6 3.9927 6.1385 1.0741 -4.9410 -2.6494 30.6278
#
#
#
# Elastic Compliance Matrix: (Units=1/GPa)
#
#
# Indices 1 2 3 4 5 6 
#
# 1 0.047338 -0.010288 -0.001501 -0.001827 0.024601 -0.002223
# 2 -0.010288 0.017379 -0.000214 0.007603 -0.007011 -0.001514
# 3 -0.001501 -0.000214 0.012312 0.001403 0.008164 0.000739
# 4 -0.001827 0.007603 0.001403 0.028639 -0.003829 0.002954
# 5 0.024601 -0.007011 0.008164 -0.003829 0.047964 0.001443
# 6 -0.002223 -0.001514 0.000739 0.002954 0.001443 0.033819
#
#
# Mechanical properties :
#
#
# Convention : Reuss Voigt Hill
#
# Bulk Modulus (GPa) = 18.86026 32.45632 25.65829
# Shear Modulus (GPa) = 21.82150 33.23467 27.52809
#
# Velocity S-wave (km/s) = 3.18015 3.92466 3.57186
# Velocity P-wave (km/s) = 4.71439 5.96485 5.37610
#
# Compressibility (1/GPa) = 0.05302154
#
# Stress axis : x y z
#
# Youngs Moduli (GPa) = 21.12466 57.54205 81.22051
#
# Poissons Ratio (x) = 0.59201 0.12192
# Poissons Ratio (y) = 0.21734 0.01740
# Poissons Ratio (z) = 0.03171 0.01233
#
# Static dielectric constant tensor:
#      x y z
#    x 1.834810 0.081450 0.011720 
#    y 0.081450 1.792420 0.014620 
#    z 0.011720 0.014620 1.864120 
# 
# From -- ./inp_files/274680.got.cif
#   From: 2010.05.17/outbox.cif.g08.bks.cpg/sg2_138_cif.got.tgz:274680.got - 2010.06.03 11:33:40.
