data_PCOD9054215
_publ_section_title
;
Structure prediction by ZEFSAII (Michael W. Deem and Ramdas Pophale) SiO2 
 PCOD9054215
Probable space group: P -1
;
_chemical_formula_sum "Si O2"
_cell_formula_units_Z 16
_cell_length_a 12.250769
_cell_length_b 26.249403
_cell_length_c 19.149552
_cell_angle_alpha 161.349397
_cell_angle_beta 152.838243
_cell_angle_gamma 29.253672
_cell_volume 880.497299
_symmetry_space_group_name_H-M "P -1"
_symmetry_group_IT_number 2
_symmetry_cell_setting 'triclinic'
loop_
_space_group_symop_operation_xyz
x,y,z
-x,-y,-z
loop_
_atom_site_type_symbol
_atom_site_label
_atom_site_fract_x
_atom_site_fract_y
_atom_site_fract_z
Si Si1 0.754440 0.650165 0.775766
Si Si2 0.097173 0.126438 0.307359
Si Si3 0.928845 0.188050 0.726499
Si Si4 0.425985 0.356480 0.725097
Si Si5 0.216730 0.653271 0.501109
Si Si6 0.962929 0.495174 0.555322
Si Si7 0.690226 0.209074 0.065255
Si Si8 0.862503 0.601697 0.989625
O O1 0.469900 0.709937 0.708042
O O2 0.794742 0.466510 0.593929
O O3 0.830856 0.633090 0.715460
O O4 0.903596 0.757075 0.045406
O O5 0.275556 0.241442 0.531238
O O6 0.000613 0.193883 0.414798
O O7 0.846279 0.147803 0.145326
O O8 0.239331 0.943529 0.144084
O O9 0.657075 0.243965 0.674077
O O10 0.000000 0.000000 0.500000
O O11 0.967166 0.296801 0.822636
O O12 0.234609 0.444335 0.673853
O O13 0.500000 0.500000 0.000000
O O14 0.192740 0.536675 0.272847
O O15 0.808737 0.355767 0.297474
O O16 0.000000 0.500000 0.500000
O O17 0.400162 0.275692 0.991145
O O18 0.000000 0.500000 0.000000
#
# Coordination Sequence:
#
# PCOD9054215 Si02
#       8
#     2   2   2   2   2   2   2   2
#     4  10  18  36  60  87 114 156 206 251 287 364
#     4  10  19  35  62  90 111 146 196 263 292 338
#     4  11  23  37  60  92 121 157 201 255 308 356
#     4  11  20  36  59  87 120 155 203 243 298 365
#     4  10  17  35  64  83 112 150 209 247 290 352
#     4  11  22  37  60  86 119 160 197 250 301 360
#     4  10  20  38  59  86 116 146 204 246 296 351
#     4  11  23  38  59  85 121 164 200 246 300 366
#
# _framework density 18.17155
#
# number of rings (size 3 to 8) (size 9 to 14) (size 15 to 20)
#    0.000    1.500    5.000    3.000    1.750    2.000 
#    0.000    1.875    0.000    2.250    0.000    0.000 
#    0.000    0.000    0.000    0.000    0.000    0.000 
#
# Total GULP energy -89116.766258 kJ/mol
# GULP energy per Si atom -5569.797891 kJ/mol
# Density = 1.813019 g / cm^3
# Si number density = 18.171550 Si / 1000 Ang^3
#
#
#
# Elastic Constant Matrix: (Units=GPa)
#
#
# Indices 1 2 3 4 5 6 
#
# 1 118.5242 56.8556 40.2706 0.3323 -13.4541 -30.2078
# 2 56.8556 70.2706 35.8417 -0.6153 -4.7269 -33.4912
# 3 40.2706 35.8417 83.0833 4.8226 -14.1733 -22.7430
# 4 0.3323 -0.6153 4.8226 22.8205 -15.2832 -5.2121
# 5 -13.4541 -4.7269 -14.1733 -15.2832 25.8639 6.2727
# 6 -30.2078 -33.4912 -22.7430 -5.2121 6.2727 44.5446
#
#
#
# Elastic Compliance Matrix: (Units=1/GPa)
#
#
# Indices 1 2 3 4 5 6 
#
# 1 0.015091 -0.010253 -0.001476 0.005561 0.008144 0.001276
# 2 -0.010253 0.032614 -0.005803 0.002604 -0.004793 0.015586
# 3 -0.001476 -0.005803 0.017252 0.002472 0.008470 0.002541
# 4 0.005561 0.002604 0.002472 0.077884 0.048497 0.009276
# 5 0.008144 -0.004793 0.008470 0.048497 0.074994 0.001358
# 6 0.001276 0.015586 0.002541 0.009276 0.001358 0.037224
#
#
# Mechanical properties :
#
#
# Convention : Reuss Voigt Hill
#
# Bulk Modulus (GPa) = 33.45109 59.75708 46.60408
# Shear Modulus (GPa) = 16.66187 27.90649 22.28418
#
# Velocity S-wave (km/s) = 3.03136 3.92308 3.50569
# Velocity P-wave (km/s) = 5.54081 7.31281 6.48759
#
# Compressibility (1/GPa) = 0.02989440
#
# Stress axis : x y z
#
# Youngs Moduli (GPa) = 66.26628 30.66148 57.96514
#
# Poissons Ratio (x) = 0.31436 0.08555
# Poissons Ratio (y) = 0.67940 0.33636
# Poissons Ratio (z) = 0.09780 0.17792
#
# Static dielectric constant tensor:
#      x y z
#    x 1.655220 -0.006660 -0.019730 
#    y -0.006660 1.645100 -0.018670 
#    z -0.019730 -0.018670 1.646050 
# 
# From -- ./inp_files/570996.got.cif
#   From: 2010.05.17/outbox.cif.g08.bks.cpg/sg2_286_cif.got.tgz:570996.got - 2010.06.03 11:33:40.
