data_PCOD9054225
_publ_section_title
;
Structure prediction by ZEFSAII (Michael W. Deem and Ramdas Pophale) SiO2 
 PCOD9054225
Probable space group: P -1
;
_chemical_formula_sum "Si O2"
_cell_formula_units_Z 16
_cell_length_a 11.248911
_cell_length_b 11.639276
_cell_length_c 14.866963
_cell_angle_alpha 152.095812
_cell_angle_beta 60.351264
_cell_angle_gamma 126.630991
_cell_volume 728.280661
_symmetry_space_group_name_H-M "P -1"
_symmetry_group_IT_number 2
_symmetry_cell_setting 'triclinic'
loop_
_space_group_symop_operation_xyz
x,y,z
-x,-y,-z
loop_
_atom_site_type_symbol
_atom_site_label
_atom_site_fract_x
_atom_site_fract_y
_atom_site_fract_z
Si Si1 0.355007 0.290733 0.103966
Si Si2 0.116786 0.065487 0.192544
Si Si3 0.456946 0.846957 0.816545
Si Si4 0.158947 0.828498 0.341454
Si Si5 0.887640 0.477470 0.110189
Si Si6 0.731475 0.738458 0.555966
Si Si7 0.780536 0.705434 0.036672
Si Si8 0.331003 0.285888 0.724695
O O1 0.290465 0.305727 0.041175
O O2 0.496819 0.563007 0.261139
O O3 0.228257 0.222419 0.180498
O O4 0.411825 0.048286 0.912660
O O5 0.149606 0.226795 0.385498
O O6 0.150997 0.806937 0.027343
O O7 0.944298 0.943452 0.145357
O O8 0.593858 0.781430 0.684991
O O9 0.325457 0.555068 0.667848
O O10 0.500000 0.000000 0.000000
O O11 0.200906 0.572457 0.146115
O O12 0.981515 0.699065 0.301496
O O13 0.219031 0.031300 0.376959
O O14 0.235317 0.001183 0.519185
O O15 0.753143 0.531810 0.155483
O O16 0.000000 0.500000 0.000000
O O17 0.684376 0.734951 0.176627
#
# Coordination Sequence:
#
# PCOD9054225 Si02
#       8
#     2   2   2   2   2   2   2   2
#     4  12  26  43  70  97 134 179 222 273 332 392
#     4  11  22  43  69  97 134 178 218 272 339 388
#     4  11  23  40  62  98 137 169 209 271 343 389
#     4  11  23  40  70 100 128 177 223 271 331 392
#     4  11  20  41  70  96 136 172 212 280 335 390
#     4  11  22  38  67 101 135 163 215 284 333 384
#     4  11  25  50  64  90 141 182 220 272 324 400
#     4  12  24  42  70 100 129 175 231 272 326 399
#
# _framework density 21.969553000000001
#
# number of rings (size 3 to 8) (size 9 to 14) (size 15 to 20)
#    0.000    0.750    5.000    3.375    3.500    0.500 
#    4.500    0.625    0.000    0.000    0.000    0.000 
#    0.000    0.000    0.000    0.000    0.000    0.000 
#
# Total GULP energy -89562.376944 kJ/mol
# GULP energy per Si atom -5597.648559 kJ/mol
# Density = 2.191955 g / cm^3
# Si number density = 21.969553 Si / 1000 Ang^3
#
#
#
# Elastic Constant Matrix: (Units=GPa)
#
#
# Indices 1 2 3 4 5 6 
#
# 1 95.4338 37.7670 40.4921 11.6469 34.4479 -11.9921
# 2 37.7670 125.6815 43.7497 5.3171 27.6286 -0.2054
# 3 40.4921 43.7497 105.2422 5.9793 30.0732 -4.7195
# 4 11.6469 5.3171 5.9793 28.9962 6.1137 10.8052
# 5 34.4479 27.6286 30.0732 6.1137 29.4869 -6.5245
# 6 -11.9921 -0.2054 -4.7195 10.8052 -6.5245 39.8708
#
#
#
# Elastic Compliance Matrix: (Units=1/GPa)
#
#
# Indices 1 2 3 4 5 6 
#
# 1 0.019059 -0.001105 -0.001258 -0.004849 -0.018071 0.003935
# 2 -0.001105 0.010528 -0.002062 0.001203 -0.007166 -0.002021
# 3 -0.001258 -0.002062 0.013952 0.000620 -0.011117 -0.000725
# 4 -0.004849 0.001203 0.000620 0.043205 -0.008247 -0.014437
# 5 -0.018071 -0.007166 -0.011117 -0.008247 0.076551 0.007974
# 6 0.003935 -0.002021 -0.000725 -0.014437 0.007974 0.031386
#
#
# Mechanical properties :
#
#
# Convention : Reuss Voigt Hill
#
# Bulk Modulus (GPa) = 28.82843 63.37502 46.10173
# Shear Modulus (GPa) = 23.24565 33.29403 28.26984
#
# Velocity S-wave (km/s) = 3.25635 3.89712 3.59105
# Velocity P-wave (km/s) = 5.22388 7.01138 6.18257
#
# Compressibility (1/GPa) = 0.03468798
#
# Stress axis : x y z
#
# Youngs Moduli (GPa) = 52.46976 94.98624 71.67416
#
# Poissons Ratio (x) = 0.10498 0.09014
# Poissons Ratio (y) = 0.05799 0.14782
# Poissons Ratio (z) = 0.06599 0.19590
#
# Static dielectric constant tensor:
#      x y z
#    x 1.805920 0.044100 0.019050 
#    y 0.044100 1.832970 -0.018420 
#    z 0.019050 -0.018420 1.837560 
# 
# From -- ./inp_files/519374.got.cif
#   From: 2010.05.17/outbox.cif.g08.bks.cpg/sg2_260_cif.got.tgz:519374.got - 2010.06.03 11:33:40.
