data_PCOD9054221
_publ_section_title
;
Structure prediction by ZEFSAII (Michael W. Deem and Ramdas Pophale) SiO2 
 PCOD9054221
Probable space group: P -1
;
_chemical_formula_sum "Si O2"
_cell_formula_units_Z 16
_cell_length_a 17.213657
_cell_length_b 9.314500
_cell_length_c 17.854264
_cell_angle_alpha 141.037038
_cell_angle_beta 150.844587
_cell_angle_gamma 30.000643
_cell_volume 694.677047
_symmetry_space_group_name_H-M "P -1"
_symmetry_group_IT_number 2
_symmetry_cell_setting 'triclinic'
loop_
_space_group_symop_operation_xyz
x,y,z
-x,-y,-z
loop_
_atom_site_type_symbol
_atom_site_label
_atom_site_fract_x
_atom_site_fract_y
_atom_site_fract_z
Si Si1 0.487861 0.042149 0.738678
Si Si2 0.647017 0.623111 0.561731
Si Si3 0.173830 0.356579 0.024306
Si Si4 0.837245 0.039024 0.563630
Si Si5 0.778134 0.166881 0.737523
Si Si6 0.061259 0.427732 0.328936
Si Si7 0.286104 0.059147 0.844006
Si Si8 0.735957 0.419243 0.318662
O O1 0.442657 0.324744 0.778036
O O2 0.591763 0.795413 0.662456
O O3 0.627779 0.909205 0.874468
O O4 0.276322 0.101082 0.600169
O O5 0.755149 0.289852 0.535871
O O6 0.440789 0.747465 0.394906
O O7 0.792484 0.656906 0.652039
O O8 0.194973 0.602289 0.117737
O O9 0.164542 0.227543 0.886670
O O10 0.000000 0.500000 0.000000
O O11 0.779663 0.182555 0.654961
O O12 0.074248 0.805842 0.664527
O O13 0.943774 0.836547 0.766170
O O14 0.176963 0.455604 0.504697
O O15 0.851845 0.730976 0.255026
O O16 0.313625 0.762176 0.748831
O O17 0.500000 0.000000 0.000000
#
# Coordination Sequence:
#
# PCOD9054221 Si02
#       8
#     2   2   2   2   2   2   2   2
#     4  11  23  40  75 105 129 175 240 299 341 400
#     4  11  20  41  70 108 132 170 233 302 347 392
#     4  12  26  47  70  97 144 195 235 283 349 427
#     4  11  20  41  70 108 132 170 233 302 347 392
#     4  11  23  40  75 105 129 175 240 299 341 400
#     4  12  26  44  72 104 139 182 233 292 349 413
#     4  12  31  46  64  99 151 199 225 274 361 441
#     4  12  26  44  72 104 139 182 233 292 349 413
#
# _framework density 23.032285999999999
#
# number of rings (size 3 to 8) (size 9 to 14) (size 15 to 20)
#    0.000    0.500    6.250    3.375    3.500    2.000 
#    0.000    0.000    0.000    0.000    0.000    0.000 
#    0.000    0.000    0.000    0.000    0.000    0.000 
#
# Total GULP energy -89577.072220 kJ/mol
# GULP energy per Si atom -5598.567014 kJ/mol
# Density = 2.297986 g / cm^3
# Si number density = 23.032286 Si / 1000 Ang^3
#
#
#
# Elastic Constant Matrix: (Units=GPa)
#
#
# Indices 1 2 3 4 5 6 
#
# 1 46.9154 12.3089 9.2347 -4.2012 5.3872 -5.9740
# 2 12.3089 155.8907 29.3860 3.0977 5.5242 46.4116
# 3 9.2347 29.3860 49.5562 -1.5268 2.2735 12.2398
# 4 -4.2012 3.0977 -1.5268 11.6582 -12.0506 -0.5625
# 5 5.3872 5.5242 2.2735 -12.0506 24.3719 2.5884
# 6 -5.9740 46.4116 12.2398 -0.5625 2.5884 38.8217
#
#
#
# Elastic Compliance Matrix: (Units=1/GPa)
#
#
# Indices 1 2 3 4 5 6 
#
# 1 0.025800 -0.004712 -0.004445 0.010058 -0.000435 0.011180
# 2 -0.004712 0.011878 -0.002855 -0.011882 -0.005793 -0.013812
# 3 -0.004445 -0.002855 0.023944 0.004027 0.001907 -0.004889
# 4 0.010058 -0.011882 0.004027 0.189203 0.092470 0.011060
# 5 -0.000435 -0.005793 0.001907 0.092470 0.087799 0.001743
# 6 0.011180 -0.013812 -0.004889 0.011060 0.001743 0.045577
#
#
# Mechanical properties :
#
#
# Convention : Reuss Voigt Hill
#
# Bulk Modulus (GPa) = 26.59611 39.35794 32.97702
# Shear Modulus (GPa) = 11.88332 28.39918 20.14125
#
# Velocity S-wave (km/s) = 2.27390 3.51524 2.96037
# Velocity P-wave (km/s) = 4.29727 5.79665 5.10234
#
# Compressibility (1/GPa) = 0.03759949
#
# Stress axis : x y z
#
# Youngs Moduli (GPa) = 38.75914 84.18711 41.76340
#
# Poissons Ratio (x) = 0.39670 0.18564
# Poissons Ratio (y) = 0.18264 0.11921
# Poissons Ratio (z) = 0.17229 0.24031
#
# Static dielectric constant tensor:
#      x y z
#    x 1.878380 -0.021520 0.004890 
#    y -0.021520 1.863430 0.004200 
#    z 0.004890 0.004200 1.841020 
# 
# From -- ./inp_files/188561.got.cif
#   From: 2010.05.17/outbox.cif.g08.bks.cpg/sg2_95_cif.got.tgz:188561.got - 2010.06.03 11:33:40.
