data_PCOD9054083
_publ_section_title
;
Structure prediction by ZEFSAII (Michael W. Deem and Ramdas Pophale) SiO2 
 PCOD9054083
Probable space group: P -1
;
_chemical_formula_sum "Si O2"
_cell_formula_units_Z 14
_cell_length_a 8.883787
_cell_length_b 12.927989
_cell_length_c 9.083334
_cell_angle_alpha 56.606560
_cell_angle_beta 45.997820
_cell_angle_gamma 47.487357
_cell_volume 546.656369
_symmetry_space_group_name_H-M "P -1"
_symmetry_group_IT_number 2
_symmetry_cell_setting 'triclinic'
loop_
_space_group_symop_operation_xyz
x,y,z
-x,-y,-z
loop_
_atom_site_type_symbol
_atom_site_label
_atom_site_fract_x
_atom_site_fract_y
_atom_site_fract_z
Si Si1 0.056982 0.258541 0.553831
Si Si2 0.016462 0.180468 0.963577
Si Si3 0.696962 0.534216 0.409708
Si Si4 0.268099 0.873218 0.125747
Si Si5 0.750646 0.998157 0.661071
Si Si6 0.710741 0.748414 0.016176
Si Si7 0.524985 0.216340 0.393253
O O1 0.908412 0.397627 0.450279
O O2 0.948468 0.154481 0.667954
O O3 0.332761 0.215624 0.413557
O O4 0.994720 0.267914 0.764480
O O5 0.758133 0.206373 0.167545
O O6 0.178374 0.007738 0.977682
O O7 0.150643 0.212072 0.976342
O O8 0.500000 0.500000 0.500000
O O9 0.775373 0.599725 0.172434
O O10 0.580865 0.651139 0.526429
O O11 0.386571 0.901842 0.176582
O O12 0.515583 0.736132 0.038757
O O13 0.606384 0.083439 0.552169
O O14 0.000000 0.000000 0.500000
O O15 0.772357 0.846146 0.781568
#
# Coordination Sequence:
#
# PCOD9054083 Si02
#       7
#     2   2   2   2   2   2   2
#     4  12  25  45  65  96 147 177 218 275 337 409
#     4  11  24  42  69 104 130 176 222 277 346 395
#     4  12  25  47  69  94 131 186 232 271 327 404
#     4  11  21  41  69 100 133 174 221 277 340 389
#     4  11  20  40  68 101 129 166 223 282 326 391
#     4  11  21  40  72  96 132 176 226 273 334 391
#     4  12  24  43  72  99 137 175 221 281 343 393
#
# _framework density 25.610239
#
# number of rings (size 3 to 8) (size 9 to 14) (size 15 to 20)
#    0.000    0.571    7.143    3.429    0.000    1.143 
#    2.571    0.714    0.000    0.000    0.000    0.000 
#    0.000    0.000    0.000    0.000    0.000    0.000 
#
# Total GULP energy -78074.831287 kJ/mol
# GULP energy per Si atom -5576.773663 kJ/mol
# Density = 2.555195 g / cm^3
# Si number density = 25.610239 Si / 1000 Ang^3
#
#
#
# Elastic Constant Matrix: (Units=GPa)
#
#
# Indices 1 2 3 4 5 6 
#
# 1 191.0780 64.3034 54.8977 0.7417 -26.9043 -46.3712
# 2 64.3034 98.6220 57.3737 -29.4170 -5.0273 -40.7619
# 3 54.8977 57.3737 137.2403 -14.1946 -31.7514 -28.7547
# 4 0.7417 -29.4170 -14.1946 56.6356 -13.3717 5.4903
# 5 -26.9043 -5.0273 -31.7514 -13.3717 45.3703 0.3516
# 6 -46.3712 -40.7619 -28.7547 5.4903 0.3516 55.1502
#
#
#
# Elastic Compliance Matrix: (Units=1/GPa)
#
#
# Indices 1 2 3 4 5 6 
#
# 1 0.008068 -0.003835 -0.000058 -0.001605 0.003814 0.004054
# 2 -0.003835 0.022273 -0.004901 0.009311 -0.000568 0.009759
# 3 -0.000058 -0.004901 0.012047 0.002255 0.008500 0.002331
# 4 -0.001605 0.009311 0.002255 0.024782 0.008930 0.004184
# 5 0.003814 -0.000568 0.008500 0.008930 0.032773 0.006122
# 6 0.004054 0.009759 0.002331 0.004184 0.006122 0.029514
#
#
# Mechanical properties :
#
#
# Convention : Reuss Voigt Hill
#
# Bulk Modulus (GPa) = 40.32289 86.67667 63.49978
# Shear Modulus (GPa) = 32.19334 48.12226 40.15780
#
# Velocity S-wave (km/s) = 3.54934 4.33947 3.96414
# Velocity P-wave (km/s) = 5.70754 7.68284 6.76765
#
# Compressibility (1/GPa) = 0.02479981
#
# Stress axis : x y z
#
# Youngs Moduli (GPa) = 123.94634 44.89657 83.01028
#
# Poissons Ratio (x) = 0.17219 0.00481
# Poissons Ratio (y) = 0.47537 0.40682
# Poissons Ratio (z) = 0.00719 0.22003
#
# Static dielectric constant tensor:
#      x y z
#    x 2.104040 0.145360 0.078020 
#    y 0.145360 2.425860 0.278450 
#    z 0.078020 0.278450 2.125570 
# 
# From -- ./inp_files/401761.got.cif
#   From: 2010.05.17/outbox.cif.g08.bks.cpg/sg2_201_cif.got.tgz:401761.got - 2010.06.03 11:33:40.
