data_PCOD9054332
_publ_section_title
;
Structure prediction by ZEFSAII (Michael W. Deem and Ramdas Pophale) SiO2 
 PCOD9054332
Probable space group: P -1
;
_chemical_formula_sum "Si O2"
_cell_formula_units_Z 16
_cell_length_a 8.232846
_cell_length_b 11.814274
_cell_length_c 18.992603
_cell_angle_alpha 45.401342
_cell_angle_beta 31.069021
_cell_angle_gamma 53.225523
_cell_volume 678.803639
_symmetry_space_group_name_H-M "P -1"
_symmetry_group_IT_number 2
_symmetry_cell_setting 'triclinic'
loop_
_space_group_symop_operation_xyz
x,y,z
-x,-y,-z
loop_
_atom_site_type_symbol
_atom_site_label
_atom_site_fract_x
_atom_site_fract_y
_atom_site_fract_z
Si Si1 0.225563 0.868176 0.650364
Si Si2 0.995875 0.357737 0.674650
Si Si3 0.300446 0.821839 0.378363
Si Si4 0.943702 0.698388 0.158095
Si Si5 0.373910 0.874358 0.810510
Si Si6 0.850113 0.021281 0.833927
Si Si7 0.714809 0.357557 0.394013
Si Si8 0.660767 0.687396 0.661572
O O1 0.196615 0.798955 0.613819
O O2 0.366497 0.720616 0.706391
O O3 0.915977 0.928723 0.777585
O O4 0.500000 0.000000 0.500000
O O5 0.773408 0.508444 0.689461
O O6 0.999893 0.294585 0.781676
O O7 0.348914 0.400090 0.500696
O O8 0.901125 0.209099 0.727442
O O9 0.599288 0.775076 0.240895
O O10 0.274301 0.688300 0.508112
O O11 0.955416 0.803638 0.482449
O O12 0.395169 0.987153 0.307805
O O13 0.921279 0.510883 0.232027
O O14 0.195391 0.791896 0.977635
O O15 0.554445 0.743985 0.753867
O O16 0.114082 0.954452 0.819832
O O17 0.500000 0.000000 0.000000
#
# Coordination Sequence:
#
# PCOD9054332 Si02
#       8
#     2   2   2   2   2   2   2   2
#     4  11  24  45  66  98 133 173 223 276 319 395
#     4  11  21  44  67  95 134 173 221 274 325 398
#     4  11  20  43  68  97 131 180 216 270 329 394
#     4  11  22  39  69  99 132 171 224 274 332 381
#     4  11  24  41  64 100 139 166 219 283 324 390
#     4  11  25  45  66  91 136 180 216 268 340 393
#     4  11  20  42  72  94 137 173 222 269 329 391
#     4  11  24  41  69  98 133 175 221 271 334 388
#
# _framework density 23.570879000000001
#
# number of rings (size 3 to 8) (size 9 to 14) (size 15 to 20)
#    0.000    1.000    6.250    2.250    0.000    4.000 
#    2.250    2.500    0.000    0.000    0.000    0.000 
#    0.000    0.000    0.000    0.000    0.000    0.000 
#
# Total GULP energy -89613.804516 kJ/mol
# GULP energy per Si atom -5600.862782 kJ/mol
# Density = 2.351723 g / cm^3
# Si number density = 23.570879 Si / 1000 Ang^3
#
#
#
# Elastic Constant Matrix: (Units=GPa)
#
#
# Indices 1 2 3 4 5 6 
#
# 1 41.2110 30.8982 16.6443 6.8489 0.7290 6.3140
# 2 30.8982 172.0289 44.9315 14.4988 -2.3144 5.8893
# 3 16.6443 44.9315 95.8758 11.9702 11.5756 5.3769
# 4 6.8489 14.4988 11.9702 42.3805 2.5907 -3.9566
# 5 0.7290 -2.3144 11.5756 2.5907 27.2640 5.0905
# 6 6.3140 5.8893 5.3769 -3.9566 5.0905 37.9399
#
#
#
# Elastic Compliance Matrix: (Units=1/GPa)
#
#
# Indices 1 2 3 4 5 6 
#
# 1 0.029661 -0.004203 -0.002683 -0.003073 0.001097 -0.004371
# 2 -0.004203 0.007462 -0.002846 -0.001246 0.002161 -0.000475
# 3 -0.002683 -0.002846 0.013169 -0.002019 -0.005485 -0.000453
# 4 -0.003073 -0.001246 -0.002019 0.025603 -0.002341 0.003975
# 5 0.001097 0.002161 -0.005485 -0.002341 0.040393 -0.005405
# 6 -0.004371 -0.000475 -0.000453 0.003975 -0.005405 0.028363
#
#
# Mechanical properties :
#
#
# Convention : Reuss Voigt Hill
#
# Bulk Modulus (GPa) = 32.43823 54.89597 43.66710
# Shear Modulus (GPa) = 28.67111 35.95966 32.31538
#
# Velocity S-wave (km/s) = 3.49145 3.91013 3.70670
# Velocity P-wave (km/s) = 5.48137 6.61255 6.07335
#
# Compressibility (1/GPa) = 0.03082782
#
# Stress axis : x y z
#
# Youngs Moduli (GPa) = 33.71380 134.01960 75.93378
#
# Poissons Ratio (x) = 0.56333 0.20374
# Poissons Ratio (y) = 0.14171 0.21609
# Poissons Ratio (z) = 0.09046 0.38140
#
# Static dielectric constant tensor:
#      x y z
#    x 2.015650 -0.055270 -0.017220 
#    y -0.055270 1.908980 0.000960 
#    z -0.017220 0.000960 1.851490 
# 
# From -- ./inp_files/589424.got.cif
#   From: 2010.05.17/outbox.cif.g08.bks.cpg/sg2_295_cif.got.tgz:589424.got - 2010.06.03 11:33:40.
