data_PCOD9054526
_publ_section_title
;
Structure prediction by ZEFSAII (Michael W. Deem and Ramdas Pophale) SiO2 
 PCOD9054526
Probable space group: P -1
;
_chemical_formula_sum "Si O2"
_cell_formula_units_Z 16
_cell_length_a 11.479995
_cell_length_b 6.874980
_cell_length_c 13.887530
_cell_angle_alpha 46.316756
_cell_angle_beta 52.250390
_cell_angle_gamma 71.449838
_cell_volume 616.142059
_symmetry_space_group_name_H-M "P -1"
_symmetry_group_IT_number 2
_symmetry_cell_setting 'triclinic'
loop_
_space_group_symop_operation_xyz
x,y,z
-x,-y,-z
loop_
_atom_site_type_symbol
_atom_site_label
_atom_site_fract_x
_atom_site_fract_y
_atom_site_fract_z
Si Si1 0.597753 0.747094 0.798566
Si Si2 0.400339 0.118532 0.665386
Si Si3 0.350069 0.581884 0.671804
Si Si4 0.211781 0.110426 0.523300
Si Si5 0.918554 0.773211 0.710650
Si Si6 0.835586 0.895591 0.988611
Si Si7 0.133916 0.721052 0.967412
Si Si8 0.994902 0.631679 0.355076
O O1 0.757167 0.838549 0.740335
O O2 0.506109 0.988984 0.733862
O O3 0.665936 0.700185 0.672103
O O4 0.500000 0.500000 0.000000
O O5 0.339752 0.369996 0.658803
O O6 0.484932 0.244494 0.483705
O O7 0.280260 0.852602 0.790628
O O8 0.252330 0.811946 0.621556
O O9 0.301316 0.355808 0.855729
O O10 0.055142 0.018124 0.575364
O O11 0.159589 0.251938 0.597023
O O12 0.883469 0.588580 0.887034
O O13 0.983807 0.567302 0.674643
O O14 0.834704 0.093227 0.014983
O O15 0.868929 0.111566 0.813124
O O16 0.983158 0.768826 0.978273
O O17 0.000000 0.500000 0.500000
#
# Coordination Sequence:
#
# PCOD9054526 Si02
#       8
#     2   2   2   2   2   2   2   2
#     4  11  21  35  61  95 124 169 206 247 311 377
#     4   9  18  31  54  89 124 156 203 250 301 370
#     4   9  18  34  55  88 118 154 204 252 302 358
#     4  11  23  40  65  94 122 159 215 256 306 371
#     4  11  21  40  65  94 124 159 213 253 308 368
#     4   9  18  33  59  84 119 154 203 255 299 354
#     4   9  16  32  57  92 113 155 206 248 301 358
#     4  11  24  39  61  96 129 160 197 265 316 360
#
# _framework density 25.968036999999999
#
# number of rings (size 3 to 8) (size 9 to 14) (size 15 to 20)
#    0.000    2.000    3.750    0.375    1.750    0.500 
#    0.000    0.000    0.000    7.500    3.250    0.000 
#    0.000    0.000    0.000    0.000    0.000    0.000 
#
# Total GULP energy -89310.237428 kJ/mol
# GULP energy per Si atom -5581.889839 kJ/mol
# Density = 2.590893 g / cm^3
# Si number density = 25.968037 Si / 1000 Ang^3
#
#
#
# Elastic Constant Matrix: (Units=GPa)
#
#
# Indices 1 2 3 4 5 6 
#
# 1 69.1894 35.3489 22.3801 7.0649 6.4464 -15.0797
# 2 35.3489 145.3938 28.6093 -6.6467 -1.1229 4.8154
# 3 22.3801 28.6093 257.8835 -10.3205 11.3576 1.9245
# 4 7.0649 -6.6467 -10.3205 35.2109 -7.6037 1.9281
# 5 6.4464 -1.1229 11.3576 -7.6037 40.8280 0.9030
# 6 -15.0797 4.8154 1.9245 1.9281 0.9030 37.7402
#
#
#
# Elastic Compliance Matrix: (Units=1/GPa)
#
#
# Indices 1 2 3 4 5 6 
#
# 1 0.020975 -0.005514 -0.001364 -0.007177 -0.004634 0.009632
# 2 -0.005514 0.008574 -0.000402 0.003207 0.001893 -0.003486
# 3 -0.001364 -0.000402 0.004128 0.001301 -0.000685 -0.000754
# 4 -0.007177 0.003207 0.001301 0.032633 0.007052 -0.005179
# 5 -0.004634 0.001893 -0.000685 0.007052 0.026848 -0.003061
# 6 0.009632 -0.003486 -0.000754 -0.005179 -0.003061 0.031167
#
#
# Mechanical properties :
#
#
# Convention : Reuss Voigt Hill
#
# Bulk Modulus (GPa) = 52.30400 71.68259 61.99330
# Shear Modulus (GPa) = 34.42153 48.49771 41.45962
#
# Velocity S-wave (km/s) = 3.64474 4.32625 4.00004
# Velocity P-wave (km/s) = 6.15610 7.25392 6.72744
#
# Compressibility (1/GPa) = 0.01911899
#
# Stress axis : x y z
#
# Youngs Moduli (GPa) = 47.67545 116.62883 242.21880
#
# Poissons Ratio (x) = 0.64311 0.33029
# Poissons Ratio (y) = 0.26289 0.09729
# Poissons Ratio (z) = 0.06501 0.04685
#
# Static dielectric constant tensor:
#      x y z
#    x 2.200440 -0.002400 0.046800 
#    y -0.002400 2.140570 0.132160 
#    z 0.046800 0.132160 2.178730 
# 
# From -- ./inp_files/572516.got.cif
#   From: 2010.05.17/outbox.cif.g08.bks.cpg/sg2_287_cif.got.tgz:572516.got - 2010.06.03 11:33:40.
