data_PCOD9054553
_publ_section_title
;
Structure prediction by ZEFSAII (Michael W. Deem and Ramdas Pophale) SiO2 
 PCOD9054553
Probable space group: P -1
;
_chemical_formula_sum "Si O2"
_cell_formula_units_Z 16
_cell_length_a 12.741904
_cell_length_b 12.958086
_cell_length_c 5.874155
_cell_angle_alpha 68.106866
_cell_angle_beta 46.721017
_cell_angle_gamma 87.075992
_cell_volume 624.398514
_symmetry_space_group_name_H-M "P -1"
_symmetry_group_IT_number 2
_symmetry_cell_setting 'triclinic'
loop_
_space_group_symop_operation_xyz
x,y,z
-x,-y,-z
loop_
_atom_site_type_symbol
_atom_site_label
_atom_site_fract_x
_atom_site_fract_y
_atom_site_fract_z
Si Si1 0.181926 0.071742 0.433737
Si Si2 0.428303 0.198233 0.297173
Si Si3 0.432256 0.571095 0.371815
Si Si4 0.012956 0.167986 0.218289
Si Si5 0.842732 0.587960 0.218626
Si Si6 0.940039 0.399792 0.487809
Si Si7 0.322495 0.897490 0.215276
Si Si8 0.349488 0.737972 0.698204
O O1 0.117706 0.145469 0.285438
O O2 0.310453 0.027166 0.148873
O O3 0.263915 0.125619 0.502670
O O4 0.046214 0.949065 0.750905
O O5 0.464808 0.319486 0.006221
O O6 0.546308 0.127553 0.105027
O O7 0.491783 0.235793 0.424762
O O8 0.500000 0.500000 0.500000
O O9 0.334724 0.464559 0.451006
O O10 0.337486 0.634916 0.619214
O O11 0.849024 0.173350 0.547192
O O12 0.088419 0.286970 0.869640
O O13 0.878746 0.471492 0.333861
O O14 0.915534 0.622732 0.829979
O O15 0.796698 0.305429 0.887992
O O16 0.000000 0.500000 0.500000
O O17 0.339689 0.848883 0.479874
#
# Coordination Sequence:
#
# PCOD9054553 Si02
#       8
#     2   2   2   2   2   2   2   2
#     4   9  20  38  62  87 118 166 207 252 313 358
#     4  11  21  39  63  89 122 163 206 255 307 365
#     4  11  24  40  59  90 125 166 199 244 310 378
#     4   9  19  37  62  87 118 161 207 253 301 366
#     4  11  21  36  62  89 120 158 198 248 304 357
#     4  11  21  36  60  92 122 154 200 253 304 359
#     4   9  20  38  63  90 119 159 209 257 305 358
#     4  11  22  38  61  97 126 157 209 256 306 369
#
# _framework density 25.624659000000001
#
# number of rings (size 3 to 8) (size 9 to 14) (size 15 to 20)
#    0.750    1.000    2.500    2.625    3.500    1.000 
#    0.000    0.000    0.000   12.750    0.000    0.000 
#    0.000    0.000    0.000    0.000    0.000    0.000 
#
# Total GULP energy -89205.642164 kJ/mol
# GULP energy per Si atom -5575.352635 kJ/mol
# Density = 2.556634 g / cm^3
# Si number density = 25.624659 Si / 1000 Ang^3
#
#
#
# Elastic Constant Matrix: (Units=GPa)
#
#
# Indices 1 2 3 4 5 6 
#
# 1 143.1497 33.0439 14.4721 -8.7316 -10.0883 9.8320
# 2 33.0439 99.7062 36.5788 -7.3864 -9.4355 -1.2015
# 3 14.4721 36.5788 71.8934 -11.2789 -13.3979 5.6607
# 4 -8.7316 -7.3864 -11.2789 33.7081 8.7332 -1.2518
# 5 -10.0883 -9.4355 -13.3979 8.7332 30.7906 -10.0357
# 6 9.8320 -1.2015 5.6607 -1.2518 -10.0357 55.3676
#
#
#
# Elastic Compliance Matrix: (Units=1/GPa)
#
#
# Indices 1 2 3 4 5 6 
#
# 1 0.007772 -0.002462 0.000183 0.001196 0.001135 -0.001220
# 2 -0.002462 0.013223 -0.006157 -0.000022 0.001077 0.001548
# 3 0.000183 -0.006157 0.018565 0.003608 0.004870 -0.001100
# 4 0.001196 -0.000022 0.003608 0.033169 -0.007863 -0.001257
# 5 0.001135 0.001077 0.004870 -0.007863 0.039589 0.006322
# 6 -0.001220 0.001548 -0.001100 -0.001257 0.006322 0.019541
#
#
# Mechanical properties :
#
#
# Convention : Reuss Voigt Hill
#
# Bulk Modulus (GPa) = 44.07278 53.65988 48.86633
# Shear Modulus (GPa) = 31.99106 39.35023 35.67064
#
# Velocity S-wave (km/s) = 3.53717 3.92297 3.73506
# Velocity P-wave (km/s) = 5.82399 6.44250 6.14104
#
# Compressibility (1/GPa) = 0.02268974
#
# Stress axis : x y z
#
# Youngs Moduli (GPa) = 128.66523 75.62581 53.86393
#
# Poissons Ratio (x) = 0.18616 -0.00986
# Poissons Ratio (y) = 0.31673 0.33163
# Poissons Ratio (z) = -0.02356 0.46561
#
# Static dielectric constant tensor:
#      x y z
#    x 1.990700 0.271840 -0.170100 
#    y 0.271840 1.779210 0.137870 
#    z -0.170100 0.137870 1.917610 
# 
# From -- ./inp_files/77320.got.cif
#   From: 2010.05.17/outbox.cif.g08.bks.cpg/sg2_39_cif.got.tgz:77320.got - 2010.06.03 11:33:40.
