data_PCOD9054166
_publ_section_title
;
Structure prediction by ZEFSAII (Michael W. Deem and Ramdas Pophale) SiO2 
 PCOD9054166
Probable space group: P -1
;
_chemical_formula_sum "Si O2"
_cell_formula_units_Z 12
_cell_length_a 12.951712
_cell_length_b 15.577153
_cell_length_c 18.998145
_cell_angle_alpha 160.726612
_cell_angle_beta 27.374638
_cell_angle_gamma 152.032584
_cell_volume 555.605728
_symmetry_space_group_name_H-M "P -1"
_symmetry_group_IT_number 2
_symmetry_cell_setting 'triclinic'
loop_
_space_group_symop_operation_xyz
x,y,z
-x,-y,-z
loop_
_atom_site_type_symbol
_atom_site_label
_atom_site_fract_x
_atom_site_fract_y
_atom_site_fract_z
Si Si1 0.924094 0.071909 0.025662
Si Si2 0.156410 0.368127 0.465861
Si Si3 0.747703 0.738076 0.524136
Si Si4 0.250387 0.880355 0.592464
Si Si5 0.573887 0.548477 0.764842
Si Si6 0.892222 0.363726 0.885772
O O1 0.841372 0.335202 0.281333
O O2 0.718749 0.818514 0.926074
O O3 0.000000 0.000000 0.000000
O O4 0.146059 0.098024 0.861183
O O5 0.144831 0.204220 0.417509
O O6 0.383521 0.395005 0.300417
O O7 0.936482 0.260239 0.463075
O O8 0.500000 0.500000 0.500000
O O9 0.911259 0.629197 0.286941
O O10 0.752696 0.039034 0.727462
O O11 0.295898 0.672205 0.461984
O O12 0.500000 0.000000 0.500000
O O13 0.302599 0.487152 0.901198
O O14 0.000000 0.500000 0.000000
#
# Coordination Sequence:
#
# PCOD9054166 Si02
#       6
#     2   2   2   2   2   2
#     4  11  20  41  64  91 129 172 212 257 325 388
#     4  11  23  42  68  93 129 174 216 265 325 392
#     4  11  26  48  69 100 131 175 229 272 335 396
#     4  11  25  38  60 101 134 166 213 263 326 390
#     4  11  23  42  65  95 131 170 216 270 322 389
#     4  11  27  46  70  99 133 174 224 282 330 391
#
# _framework density 21.598049
#
# number of rings (size 3 to 8) (size 9 to 14) (size 15 to 20)
#    0.000    1.000    3.333    3.000    4.667    7.333 
#    0.000    0.000    0.000    0.000    0.000    0.000 
#    0.000    0.000    0.000    0.000    0.000    0.000 
#
# Total GULP energy -67064.999061 kJ/mol
# GULP energy per Si atom -5588.749922 kJ/mol
# Density = 2.154889 g / cm^3
# Si number density = 21.598049 Si / 1000 Ang^3
#
#
#
# Elastic Constant Matrix: (Units=GPa)
#
#
# Indices 1 2 3 4 5 6 
#
# 1 88.2794 20.8513 22.8924 -24.9432 7.3900 -14.1331
# 2 20.8513 110.7905 25.2932 -25.5749 12.6368 1.1881
# 3 22.8924 25.2932 88.8463 -18.0799 19.5245 8.0277
# 4 -24.9432 -25.5749 -18.0799 32.6633 -5.3746 -5.7209
# 5 7.3900 12.6368 19.5245 -5.3746 35.3662 -5.0920
# 6 -14.1331 1.1881 8.0277 -5.7209 -5.0920 26.2966
#
#
#
# Elastic Compliance Matrix: (Units=1/GPa)
#
#
# Indices 1 2 3 4 5 6 
#
# 1 0.018856 0.000497 -0.003706 0.015807 0.002515 0.015169
# 2 0.000497 0.011414 -0.001376 0.008536 -0.001886 0.001663
# 3 -0.003706 -0.001376 0.015489 0.001965 -0.008109 -0.007801
# 4 0.015807 0.008536 0.001965 0.054599 0.003756 0.020115
# 5 0.002515 -0.001886 -0.008109 0.003756 0.035132 0.011532
# 6 0.015169 0.001663 -0.007801 0.020115 0.011532 0.055096
#
#
# Mechanical properties :
#
#
# Convention : Reuss Voigt Hill
#
# Bulk Modulus (GPa) = 27.33202 47.33223 37.33212
# Shear Modulus (GPa) = 23.59015 33.45718 28.52366
#
# Velocity S-wave (km/s) = 3.30848 3.94011 3.63803
# Velocity P-wave (km/s) = 5.22275 6.53161 5.91350
#
# Compressibility (1/GPa) = 0.03658713
#
# Stress axis : x y z
#
# Youngs Moduli (GPa) = 53.03455 87.60823 64.56216
#
# Poissons Ratio (x) = -0.04352 0.23929
# Poissons Ratio (y) = -0.02635 0.08886
# Poissons Ratio (z) = 0.19657 0.12058
#
# Static dielectric constant tensor:
#      x y z
#    x 1.819730 -0.031020 -0.036160 
#    y -0.031020 1.811450 0.006700 
#    z -0.036160 0.006700 1.774340 
# 
# From -- ./inp_files/26623.got.cif
#   From: 2010.05.17/outbox.cif.g08.bks.cpg/sg2_14_cif.got.tgz:26623.got - 2010.06.03 11:33:40.
