data_PCOD9054953
_publ_section_title
;
Structure prediction by ZEFSAII (Michael W. Deem and Ramdas Pophale) SiO2 
 PCOD9054953
Probable space group: P -1
;
_chemical_formula_sum "Si O2"
_cell_formula_units_Z 16
_cell_length_a 15.073256
_cell_length_b 17.597726
_cell_length_c 9.056574
_cell_angle_alpha 31.642988
_cell_angle_beta 40.226420
_cell_angle_gamma 43.867809
_cell_volume 795.872892
_symmetry_space_group_name_H-M "P -1"
_symmetry_group_IT_number 2
_symmetry_cell_setting 'triclinic'
loop_
_space_group_symop_operation_xyz
x,y,z
-x,-y,-z
loop_
_atom_site_type_symbol
_atom_site_label
_atom_site_fract_x
_atom_site_fract_y
_atom_site_fract_z
Si Si1 0.814486 0.139937 0.613891
Si Si2 0.128874 0.375799 0.214463
Si Si3 0.895558 0.801853 0.728506
Si Si4 0.873389 0.593482 0.333168
Si Si5 0.112767 0.175685 0.814188
Si Si6 0.650416 0.435128 0.488177
Si Si7 0.802216 0.128159 0.294594
Si Si8 0.357436 0.586516 0.111020
O O1 0.713477 0.274324 0.602967
O O2 0.791116 0.144196 0.460463
O O3 0.972869 0.162316 0.407805
O O4 0.811038 0.979111 0.953177
O O5 0.053097 0.307054 0.291772
O O6 0.183244 0.236868 0.483105
O O7 0.015557 0.495584 0.248344
O O8 0.246139 0.456317 0.868885
O O9 0.805427 0.958055 0.534194
O O10 0.811899 0.713443 0.087644
O O11 0.901865 0.690768 0.272275
O O12 0.765894 0.489146 0.670265
O O13 0.955522 0.156465 0.006594
O O14 0.500000 0.500000 0.500000
O O15 0.641664 0.424114 0.694966
O O16 0.683647 0.244607 0.170447
O O17 0.500000 0.500000 0.000000
#
# Coordination Sequence:
#
# PCOD9054953 Si02
#       8
#     2   2   2   2   2   2   2   2
#     4  11  22  41  65  97 137 169 209 264 327 377
#     4  12  24  39  68 101 128 168 220 269 318 376
#     4  11  21  39  67  98 135 165 212 267 324 375
#     4  12  21  42  66  99 131 168 220 265 311 385
#     4  11  23  37  67 103 131 170 210 266 323 380
#     4  12  27  46  66  92 133 172 213 269 325 383
#     4  11  22  41  65  98 135 170 210 263 327 379
#     4  12  28  44  67  95 128 174 218 263 324 385
#
# _framework density 20.103712999999999
#
# number of rings (size 3 to 8) (size 9 to 14) (size 15 to 20)
#    0.000    0.500    6.250    3.000    5.250    1.000 
#    0.000    2.500    0.000    0.000    0.000    0.000 
#    0.000    0.000    0.000    0.000    0.000    0.000 
#
# Total GULP energy -89458.029674 kJ/mol
# GULP energy per Si atom -5591.126855 kJ/mol
# Density = 2.005796 g / cm^3
# Si number density = 20.103713 Si / 1000 Ang^3
#
#
#
# Elastic Constant Matrix: (Units=GPa)
#
#
# Indices 1 2 3 4 5 6 
#
# 1 61.0190 26.3597 37.6462 -2.1322 16.8288 4.3668
# 2 26.3597 106.1115 55.6198 -6.8942 11.8775 -5.2338
# 3 37.6462 55.6198 123.5583 -13.4239 27.7219 -3.6565
# 4 -2.1322 -6.8942 -13.4239 34.0941 -0.5836 2.8170
# 5 16.8288 11.8775 27.7219 -0.5836 31.6152 -4.0851
# 6 4.3668 -5.2338 -3.6565 2.8170 -4.0851 39.7853
#
#
#
# Elastic Compliance Matrix: (Units=1/GPa)
#
#
# Indices 1 2 3 4 5 6 
#
# 1 0.022536 -0.002858 -0.003969 -0.000537 -0.007968 -0.003994
# 2 -0.002858 0.012753 -0.005112 0.000275 0.001431 0.001649
# 3 -0.003969 -0.005112 0.013844 0.004038 -0.008042 -0.000076
# 4 -0.000537 0.000275 0.004038 0.031059 -0.003049 -0.002046
# 5 -0.007968 0.001431 -0.008042 -0.003049 0.042969 0.004952
# 6 -0.003994 0.001649 -0.000076 -0.002046 0.004952 0.026437
#
#
# Mechanical properties :
#
#
# Convention : Reuss Voigt Hill
#
# Bulk Modulus (GPa) = 39.59520 58.88226 49.23873
# Shear Modulus (GPa) = 27.48838 32.50311 29.99574
#
# Velocity S-wave (km/s) = 3.70175 4.02527 3.86690
# Velocity P-wave (km/s) = 6.16513 7.13839 6.66954
#
# Compressibility (1/GPa) = 0.02525559
#
# Stress axis : x y z
#
# Youngs Moduli (GPa) = 44.37299 78.41477 72.23104
#
# Poissons Ratio (x) = 0.22412 0.28666
# Poissons Ratio (y) = 0.12682 0.36926
# Poissons Ratio (z) = 0.17610 0.40087
#
# Static dielectric constant tensor:
#      x y z
#    x 1.725640 0.005150 0.051360 
#    y 0.005150 1.694450 -0.017820 
#    z 0.051360 -0.017820 1.745460 
# 
# From -- ./inp_files/185055.got.cif
#   From: 2010.05.17/outbox.cif.g08.bks.cpg/sg2_93_cif.got.tgz:185055.got - 2010.06.03 11:33:40.
