data_PCOD9054010
_publ_section_title
;
Structure prediction by ZEFSAII (Michael W. Deem and Ramdas Pophale) SiO2 
 PCOD9054010
Probable space group: P -1
;
_chemical_formula_sum "Si O2"
_cell_formula_units_Z 16
_cell_length_a 9.577925
_cell_length_b 8.868985
_cell_length_c 22.201240
_cell_angle_alpha 135.079578
_cell_angle_beta 131.109921
_cell_angle_gamma 83.229711
_cell_volume 759.467931
_symmetry_space_group_name_H-M "P -1"
_symmetry_group_IT_number 2
_symmetry_cell_setting 'triclinic'
loop_
_space_group_symop_operation_xyz
x,y,z
-x,-y,-z
loop_
_atom_site_type_symbol
_atom_site_label
_atom_site_fract_x
_atom_site_fract_y
_atom_site_fract_z
Si Si1 0.912743 0.332888 0.365976
Si Si2 0.582409 0.866684 0.882504
Si Si3 0.214815 0.231708 0.844405
Si Si4 0.261299 0.297505 0.228374
Si Si5 0.782153 0.778332 0.015122
Si Si6 0.433724 0.639775 0.566275
Si Si7 0.249711 0.691365 0.163510
Si Si8 0.019132 0.516460 0.179095
O O1 0.691179 0.288382 0.258739
O O2 0.000000 0.500000 0.500000
O O3 0.152368 0.490536 0.437391
O O4 0.824436 0.027738 0.268065
O O5 0.692559 0.759091 0.841442
O O6 0.615015 0.834074 0.952810
O O7 0.759417 0.198489 0.011625
O O8 0.156668 0.170520 0.882463
O O9 0.053027 0.289836 0.781643
O O10 0.500000 0.500000 0.000000
O O11 0.502859 0.419798 0.368402
O O12 0.180064 0.484698 0.259225
O O13 0.037342 0.002847 0.114198
O O14 0.641829 0.451865 0.868166
O O15 0.500000 0.500000 0.500000
O O16 0.589503 0.975865 0.703222
O O17 0.165320 0.613101 0.185793
O O18 0.000000 0.500000 0.000000
#
# Coordination Sequence:
#
# PCOD9054010 Si02
#       8
#     2   2   2   2   2   2   2   2
#     4  12  27  46  68  94 147 189 217 275 362 424
#     4  11  21  42  68 107 135 177 219 282 360 403
#     4  12  26  44  67 103 131 181 239 285 333 401
#     4  11  20  40  69 104 133 174 223 288 346 399
#     4  11  22  38  71 102 134 166 237 292 331 397
#     4  12  26  45  65  96 139 189 232 272 342 418
#     4  12  20  37  71  98 123 169 229 283 325 387
#     4  11  20  39  71 102 130 163 233 293 326 388
#
# _framework density 21.06738
#
# number of rings (size 3 to 8) (size 9 to 14) (size 15 to 20)
#    0.000    0.500    7.500    2.250    1.750    0.500 
#    2.250    4.375    0.000    0.000    0.000    0.000 
#    0.000    0.000    0.000    0.000    0.000    0.000 
#
# Total GULP energy -89321.692069 kJ/mol
# GULP energy per Si atom -5582.605754 kJ/mol
# Density = 2.101943 g / cm^3
# Si number density = 21.067380 Si / 1000 Ang^3
#
#
#
# Elastic Constant Matrix: (Units=GPa)
#
#
# Indices 1 2 3 4 5 6 
#
# 1 61.6704 24.0202 21.8818 6.4882 5.2133 -19.1930
# 2 24.0202 122.2286 35.5010 3.9632 8.3948 -25.5329
# 3 21.8818 35.5010 87.5362 12.2082 7.6666 -20.3852
# 4 6.4882 3.9632 12.2082 32.2129 -16.2203 0.4808
# 5 5.2133 8.3948 7.6666 -16.2203 38.5582 0.3695
# 6 -19.1930 -25.5329 -20.3852 0.4808 0.3695 33.5754
#
#
#
# Elastic Compliance Matrix: (Units=1/GPa)
#
#
# Indices 1 2 3 4 5 6 
#
# 1 0.021600 -0.001047 -0.000962 -0.006770 -0.005456 0.011124
# 2 -0.001047 0.010512 -0.002130 -0.001604 -0.002457 0.006152
# 3 -0.000962 -0.002130 0.016199 -0.009086 -0.006525 0.007868
# 4 -0.006770 -0.001604 -0.009086 0.047988 0.023369 -0.011551
# 5 -0.005456 -0.002457 -0.006525 0.023369 0.038429 -0.009707
# 6 0.011124 0.006152 0.007868 -0.011551 -0.009707 0.045870
#
#
# Mechanical properties :
#
#
# Convention : Reuss Voigt Hill
#
# Bulk Modulus (GPa) = 24.97990 48.24902 36.61446
# Shear Modulus (GPa) = 24.72568 33.53812 29.13190
#
# Velocity S-wave (km/s) = 3.42957 3.99425 3.72263
# Velocity P-wave (km/s) = 5.25028 6.65011 5.99122
#
# Compressibility (1/GPa) = 0.04003218
#
# Stress axis : x y z
#
# Youngs Moduli (GPa) = 46.29631 95.13203 61.73271
#
# Poissons Ratio (x) = 0.09965 0.05940
# Poissons Ratio (y) = 0.04849 0.13147
# Poissons Ratio (z) = 0.04454 0.20259
#
# Static dielectric constant tensor:
#      x y z
#    x 1.838930 -0.036240 -0.003830 
#    y -0.036240 1.821110 -0.010660 
#    z -0.003830 -0.010660 1.759790 
# 
# From -- ./inp_files/389476.got.cif
#   From: 2010.05.17/outbox.cif.g08.bks.cpg/sg2_195_cif.got.tgz:389476.got - 2010.06.03 11:33:40.
