data_PCOD9054941
_publ_section_title
;
Structure prediction by ZEFSAII (Michael W. Deem and Ramdas Pophale) SiO2 
 PCOD9054941
Probable space group: P -1
;
_chemical_formula_sum "Si O2"
_cell_formula_units_Z 16
_cell_length_a 15.991742
_cell_length_b 16.032822
_cell_length_c 9.431541
_cell_angle_alpha 145.255827
_cell_angle_beta 39.733941
_cell_angle_gamma 141.539649
_cell_volume 801.565072
_symmetry_space_group_name_H-M "P -1"
_symmetry_group_IT_number 2
_symmetry_cell_setting 'triclinic'
loop_
_space_group_symop_operation_xyz
x,y,z
-x,-y,-z
loop_
_atom_site_type_symbol
_atom_site_label
_atom_site_fract_x
_atom_site_fract_y
_atom_site_fract_z
Si Si1 0.192710 0.635934 0.820740
Si Si2 0.859355 0.429638 0.684267
Si Si3 0.090708 0.381240 0.829034
Si Si4 0.368029 0.266375 0.970092
Si Si5 0.687768 0.469549 0.738412
Si Si6 0.460822 0.854537 0.955228
Si Si7 0.626497 0.673926 0.617652
Si Si8 0.645710 0.068061 0.500211
O O1 0.116580 0.463334 0.755509
O O2 0.239655 0.619107 0.578225
O O3 0.332256 0.714588 0.846149
O O4 0.082014 0.720723 0.084183
O O5 0.755633 0.502059 0.850172
O O6 0.769851 0.236886 0.523338
O O7 0.000000 0.500000 0.500000
O O8 0.887861 0.489624 0.892206
O O9 0.213529 0.316848 0.601896
O O10 0.289120 0.367584 0.144796
O O11 0.385718 0.298100 0.159470
O O12 0.522886 0.348595 0.806118
O O13 0.304120 0.076654 0.762762
O O14 0.586734 0.800322 0.757015
O O15 0.402284 0.895996 0.234271
O O16 0.500000 0.000000 0.000000
O O17 0.500000 0.500000 0.500000
O O18 0.500000 0.000000 0.500000
#
# Coordination Sequence:
#
# PCOD9054941 Si02
#       8
#     2   2   2   2   2   2   2   2
#     4  11  22  41  66  97 129 174 222 271 332 403
#     4  12  24  42  69  96 129 179 230 265 331 410
#     4  11  23  41  70  92 131 176 221 276 332 398
#     4  11  23  38  67  99 133 169 221 282 335 390
#     4  11  21  39  67 100 128 169 225 274 327 402
#     4  12  25  40  69 101 133 171 225 280 340 399
#     4  12  21  42  66  99 130 174 225 277 333 396
#     4  12  23  43  64  96 136 177 215 280 341 393
#
# _framework density 19.96095
#
# number of rings (size 3 to 8) (size 9 to 14) (size 15 to 20)
#    0.000    0.500    7.500    1.500    0.000    3.000 
#    0.000    1.250    0.000    0.000    0.000    0.000 
#    0.000    0.000    0.000    0.000    0.000    0.000 
#
# Total GULP energy -89277.426852 kJ/mol
# GULP energy per Si atom -5579.839178 kJ/mol
# Density = 1.991552 g / cm^3
# Si number density = 19.960950 Si / 1000 Ang^3
#
#
#
# Elastic Constant Matrix: (Units=GPa)
#
#
# Indices 1 2 3 4 5 6 
#
# 1 110.9097 27.2156 31.8780 4.5975 -14.1626 -13.8504
# 2 27.2156 90.8522 38.4174 -2.6193 -12.9481 -19.5901
# 3 31.8780 38.4174 98.7266 -11.5966 -15.5648 -5.2840
# 4 4.5975 -2.6193 -11.5966 29.1767 -2.0406 -5.3036
# 5 -14.1626 -12.9481 -15.5648 -2.0406 42.5974 0.9915
# 6 -13.8504 -19.5901 -5.2840 -5.3036 0.9915 27.7012
#
#
#
# Elastic Compliance Matrix: (Units=1/GPa)
#
#
# Indices 1 2 3 4 5 6 
#
# 1 0.010902 -0.001031 -0.002842 -0.002122 0.002085 0.003699
# 2 -0.001031 0.015897 -0.004697 0.001736 0.002622 0.010069
# 3 -0.002842 -0.004697 0.013944 0.005575 0.003016 -0.001123
# 4 -0.002122 0.001736 0.005575 0.038777 0.003519 0.008529
# 5 0.002085 0.002622 0.003016 0.003519 0.026162 0.003209
# 6 0.003699 0.010069 -0.001123 0.008529 0.003209 0.046374
#
#
# Mechanical properties :
#
#
# Convention : Reuss Voigt Hill
#
# Bulk Modulus (GPa) = 42.36337 55.05672 48.71005
# Shear Modulus (GPa) = 28.23867 33.42688 30.83278
#
# Velocity S-wave (km/s) = 3.76532 4.09664 3.93447
# Velocity P-wave (km/s) = 6.33820 7.07239 6.71534
#
# Compressibility (1/GPa) = 0.02360530
#
# Stress axis : x y z
#
# Youngs Moduli (GPa) = 91.72467 62.90633 71.71305
#
# Poissons Ratio (x) = 0.06483 0.20378
# Poissons Ratio (y) = 0.09452 0.33682
# Poissons Ratio (z) = 0.26065 0.29546
#
# Static dielectric constant tensor:
#      x y z
#    x 1.757970 0.042080 -0.057060 
#    y 0.042080 1.759510 -0.000440 
#    z -0.057060 -0.000440 1.717320 
# 
# From -- ./inp_files/271611.got.cif
#   From: 2010.05.17/outbox.cif.g08.bks.cpg/sg2_136_cif.got.tgz:271611.got - 2010.06.03 11:33:40.
