data_PCOD9054999
_publ_section_title
;
Structure prediction by ZEFSAII (Michael W. Deem and Ramdas Pophale) SiO2 
 PCOD9054999
Probable space group: P -1
;
_chemical_formula_sum "Si O2"
_cell_formula_units_Z 16
_cell_length_a 9.130929
_cell_length_b 8.548553
_cell_length_c 12.715026
_cell_angle_alpha 57.518261
_cell_angle_beta 122.586917
_cell_angle_gamma 109.740441
_cell_volume 703.779141
_symmetry_space_group_name_H-M "P -1"
_symmetry_group_IT_number 2
_symmetry_cell_setting 'triclinic'
loop_
_space_group_symop_operation_xyz
x,y,z
-x,-y,-z
loop_
_atom_site_type_symbol
_atom_site_label
_atom_site_fract_x
_atom_site_fract_y
_atom_site_fract_z
Si Si1 0.441774 0.783786 0.540404
Si Si2 0.698165 0.495881 0.035514
Si Si3 0.860655 0.867154 0.433822
Si Si4 0.517033 0.162264 0.702353
Si Si5 0.835400 0.920199 0.897772
Si Si6 0.336768 0.539566 0.198156
Si Si7 0.927421 0.185839 0.661661
Si Si8 0.957341 0.516241 0.721598
O O1 0.452604 0.744467 0.433848
O O2 0.567684 0.653193 0.696052
O O3 0.236122 0.757354 0.492481
O O4 0.500000 0.000000 0.500000
O O5 0.785132 0.704618 0.972527
O O6 0.694166 0.400431 0.954293
O O7 0.500000 0.500000 0.000000
O O8 0.844253 0.416902 0.195907
O O9 0.671088 0.941443 0.337686
O O10 0.861333 0.671652 0.565073
O O11 0.914466 0.834308 0.347143
O O12 0.000000 0.000000 0.500000
O O13 0.531739 0.316598 0.741600
O O14 0.668061 0.026593 0.828006
O O15 0.875077 0.989704 0.769115
O O16 0.000000 0.000000 0.000000
O O17 0.160422 0.525043 0.204863
O O18 0.959937 0.337083 0.711472
#
# Coordination Sequence:
#
# PCOD9054999 Si02
#       8
#     2   2   2   2   2   2   2   2
#     4  11  21  39  70 103 137 179 234 288 356 430
#     4  12  30  46  72 107 146 193 240 299 364 437
#     4  12  28  43  70 109 150 180 242 312 361 420
#     4  11  23  43  72 108 136 185 240 297 360 422
#     4  11  23  49  76 103 147 190 245 289 363 445
#     4  12  23  45  73 102 141 186 244 294 360 438
#     4  11  24  44  74 102 140 192 234 294 363 428
#     4  12  25  49  70 103 145 190 242 291 370 434
#
# _framework density 22.734404999999999
#
# number of rings (size 3 to 8) (size 9 to 14) (size 15 to 20)
#    0.000    0.500    5.000    4.125    7.000    0.000 
#    0.000    1.250    0.000    0.000    0.000    0.000 
#    0.000    0.000    0.000    0.000    0.000    0.000 
#
# Total GULP energy -89565.925580 kJ/mol
# GULP energy per Si atom -5597.870349 kJ/mol
# Density = 2.268266 g / cm^3
# Si number density = 22.734405 Si / 1000 Ang^3
#
#
#
# Elastic Constant Matrix: (Units=GPa)
#
#
# Indices 1 2 3 4 5 6 
#
# 1 124.0169 -4.8162 32.2039 14.1132 12.5578 14.2244
# 2 -4.8162 56.0718 16.6832 13.1771 -6.6238 12.0124
# 3 32.2039 16.6832 74.8629 16.8621 18.0135 -0.1969
# 4 14.1132 13.1771 16.8621 33.8999 1.9838 8.4391
# 5 12.5578 -6.6238 18.0135 1.9838 46.5176 11.8775
# 6 14.2244 12.0124 -0.1969 8.4391 11.8775 26.3840
#
#
#
# Elastic Compliance Matrix: (Units=1/GPa)
#
#
# Indices 1 2 3 4 5 6 
#
# 1 0.010803 0.005330 -0.006164 -0.001411 0.002591 -0.009012
# 2 0.005330 0.027960 -0.010643 -0.003533 0.011898 -0.019909
# 3 -0.006164 -0.010643 0.023402 -0.008368 -0.012847 0.016804
# 4 -0.001411 -0.003533 -0.008368 0.038345 0.004548 -0.012005
# 5 0.002591 0.011898 -0.012847 0.004548 0.033228 -0.023323
# 6 -0.009012 -0.019909 0.016804 -0.012005 -0.023323 0.066290
#
#
# Mechanical properties :
#
#
# Convention : Reuss Voigt Hill
#
# Bulk Modulus (GPa) = 25.50342 38.12149 31.81246
# Shear Modulus (GPa) = 21.18183 35.41901 28.30042
#
# Velocity S-wave (km/s) = 3.05570 3.95137 3.53204
# Velocity P-wave (km/s) = 4.86745 6.13370 5.53690
#
# Compressibility (1/GPa) = 0.03921042
#
# Stress axis : x y z
#
# Youngs Moduli (GPa) = 92.56649 35.76549 42.73205
#
# Poissons Ratio (x) = -0.19065 0.26341
# Poissons Ratio (y) = -0.49342 0.45481
# Poissons Ratio (z) = 0.57061 0.38066
#
# Static dielectric constant tensor:
#      x y z
#    x 1.846110 0.017710 0.018980 
#    y 0.017710 1.855970 -0.013730 
#    z 0.018980 -0.013730 1.870120 
# 
# From -- ./inp_files/381482.got.cif
#   From: 2010.05.17/outbox.cif.g08.bks.cpg/sg2_191_cif.got.tgz:381482.got - 2010.06.03 11:33:40.
