data_PCOD9054365
_publ_section_title
;
Structure prediction by ZEFSAII (Michael W. Deem and Ramdas Pophale) SiO2 
 PCOD9054365
Probable space group: P -1
;
_chemical_formula_sum "Si O2"
_cell_formula_units_Z 14
_cell_length_a 10.374899
_cell_length_b 9.267423
_cell_length_c 11.364739
_cell_angle_alpha 111.814276
_cell_angle_beta 113.276609
_cell_angle_gamma 118.569598
_cell_volume 633.960244
_symmetry_space_group_name_H-M "P -1"
_symmetry_group_IT_number 2
_symmetry_cell_setting 'triclinic'
loop_
_space_group_symop_operation_xyz
x,y,z
-x,-y,-z
loop_
_atom_site_type_symbol
_atom_site_label
_atom_site_fract_x
_atom_site_fract_y
_atom_site_fract_z
Si Si1 0.008075 0.820161 0.465350
Si Si2 0.076072 0.420841 0.173255
Si Si3 0.446548 0.559889 0.882114
Si Si4 0.280720 0.903221 0.402822
Si Si5 0.887744 0.021687 0.822300
Si Si6 0.590332 0.556168 0.681583
Si Si7 0.856652 0.067339 0.191221
O O1 0.794659 0.589861 0.258269
O O2 0.209723 0.913345 0.504620
O O3 0.000000 0.000000 0.500000
O O4 0.038617 0.805458 0.608327
O O5 0.115371 0.632644 0.235811
O O6 0.294984 0.514326 0.300072
O O7 0.931156 0.252813 0.178688
O O8 0.992119 0.258429 0.983246
O O9 0.477517 0.495706 0.746871
O O10 0.500000 0.500000 0.000000
O O11 0.612044 0.834958 0.032446
O O12 0.258098 0.030829 0.347265
O O13 0.500000 0.000000 0.500000
O O14 0.042562 0.020061 0.826617
O O15 0.763639 0.832939 0.822186
O O16 0.500000 0.500000 0.500000
#
# Coordination Sequence:
#
# PCOD9054365 Si02
#       7
#     2   2   2   2   2   2   2
#     4  12  26  44  69 102 141 181 239 290 342 430
#     4  11  23  42  67 101 144 175 230 291 347 420
#     4  12  22  39  72 104 135 182 237 284 351 408
#     4  12  28  45  67 101 140 184 228 292 362 409
#     4  11  20  43  69  99 137 182 233 279 342 427
#     4  11  22  38  72 105 135 180 238 286 342 420
#     4  11  22  45  74 103 138 183 235 289 350 418
#
# _framework density 22.083404000000002
#
# number of rings (size 3 to 8) (size 9 to 14) (size 15 to 20)
#    0.000    0.571    5.714    3.857    2.000    0.571 
#    2.571    0.714    0.000    0.000    0.000    0.000 
#    0.000    0.000    0.000    0.000    0.000    0.000 
#
# Total GULP energy -78180.055333 kJ/mol
# GULP energy per Si atom -5584.289667 kJ/mol
# Density = 2.203314 g / cm^3
# Si number density = 22.083404 Si / 1000 Ang^3
#
#
#
# Elastic Constant Matrix: (Units=GPa)
#
#
# Indices 1 2 3 4 5 6 
#
# 1 83.8068 31.7584 24.0681 -6.3640 -0.4128 20.2772
# 2 31.7584 107.8729 28.7143 0.4619 -1.3830 2.2095
# 3 24.0681 28.7143 114.4761 -16.5841 10.2719 15.6128
# 4 -6.3640 0.4619 -16.5841 50.0071 4.4154 -7.6909
# 5 -0.4128 -1.3830 10.2719 4.4154 34.5977 4.1199
# 6 20.2772 2.2095 15.6128 -7.6909 4.1199 26.1896
#
#
#
# Elastic Compliance Matrix: (Units=1/GPa)
#
#
# Indices 1 2 3 4 5 6 
#
# 1 0.016903 -0.004450 -0.000923 -0.000197 0.001812 -0.012504
# 2 -0.004450 0.011214 -0.002600 -0.001055 0.000873 0.003602
# 3 -0.000923 -0.002600 0.010896 0.003175 -0.003265 -0.004115
# 4 -0.000197 -0.001055 0.003175 0.022294 -0.004500 0.005603
# 5 0.001812 0.000873 -0.003265 -0.004500 0.031189 -0.005758
# 6 -0.012504 0.003602 -0.004115 0.005603 -0.005758 0.052565
#
#
# Mechanical properties :
#
#
# Convention : Reuss Voigt Hill
#
# Bulk Modulus (GPa) = 43.35263 52.80415 48.07839
# Shear Modulus (GPa) = 29.63878 36.93320 33.28599
#
# Velocity S-wave (km/s) = 3.66748 4.09399 3.88659
# Velocity P-wave (km/s) = 6.13252 6.80520 6.47760
#
# Compressibility (1/GPa) = 0.02306665
#
# Stress axis : x y z
#
# Youngs Moduli (GPa) = 59.16021 89.17153 91.77772
#
# Poissons Ratio (x) = 0.39685 0.08473
# Poissons Ratio (y) = 0.26329 0.23859
# Poissons Ratio (z) = 0.05462 0.23182
#
# Static dielectric constant tensor:
#      x y z
#    x 1.811040 0.057720 0.034920 
#    y 0.057720 1.830540 -0.030890 
#    z 0.034920 -0.030890 2.047830 
# 
# From -- ./inp_files/383322.got.cif
#   From: 2010.05.17/outbox.cif.g08.bks.cpg/sg2_192_cif.got.tgz:383322.got - 2010.06.03 11:33:40.
