data_PCOD9054070
_publ_section_title
;
Structure prediction by ZEFSAII (Michael W. Deem and Ramdas Pophale) SiO2 
 PCOD9054070
Probable space group: P -1
;
_chemical_formula_sum "Si O2"
_cell_formula_units_Z 16
_cell_length_a 8.239598
_cell_length_b 9.762855
_cell_length_c 16.989929
_cell_angle_alpha 56.723846
_cell_angle_beta 88.161996
_cell_angle_gamma 132.727652
_cell_volume 631.743170
_symmetry_space_group_name_H-M "P -1"
_symmetry_group_IT_number 2
_symmetry_cell_setting 'triclinic'
loop_
_space_group_symop_operation_xyz
x,y,z
-x,-y,-z
loop_
_atom_site_type_symbol
_atom_site_label
_atom_site_fract_x
_atom_site_fract_y
_atom_site_fract_z
Si Si1 0.198495 0.253409 0.218135
Si Si2 0.803008 0.114373 0.715748
Si Si3 0.652174 0.150152 0.315741
Si Si4 0.811376 0.199350 0.961872
Si Si5 0.578092 0.286601 0.432063
Si Si6 0.233384 0.019667 0.814768
Si Si7 0.222594 0.108441 0.060999
Si Si8 0.713175 0.647132 0.633098
O O1 0.276195 0.365399 0.269932
O O2 0.137392 0.006911 0.293435
O O3 0.493313 0.545895 0.073401
O O4 0.931491 0.123751 0.220790
O O5 0.097226 0.462691 0.618001
O O6 0.575463 0.025429 0.696480
O O7 0.698636 0.957042 0.851332
O O8 0.547762 0.181018 0.380029
O O9 0.950419 0.473966 0.176122
O O10 0.646249 0.976903 0.418869
O O11 0.873020 0.080112 0.952744
O O12 0.500000 0.000000 0.000000
O O13 0.803954 0.161609 0.067218
O O14 0.528913 0.435037 0.373407
O O15 0.576343 0.360176 0.695660
O O16 0.034675 0.993074 0.869937
O O17 0.000000 0.000000 0.500000
#
# Coordination Sequence:
#
# PCOD9054070 Si02
#       8
#     2   2   2   2   2   2   2   2
#     4  11  22  39  69 100 125 163 224 279 322 375
#     4  11  20  40  67 104 121 163 229 280 318 380
#     4  11  23  41  66  88 135 175 211 265 325 389
#     4  12  25  42  67  98 138 175 211 266 340 395
#     4  11  23  41  64  95 125 174 223 265 316 386
#     4  11  23  44  71  98 126 172 224 274 323 384
#     4  11  21  40  72  98 128 165 226 275 320 379
#     4  12  25  41  65  92 136 171 216 268 328 385
#
# _framework density 25.326747000000001
#
# number of rings (size 3 to 8) (size 9 to 14) (size 15 to 20)
#    0.000    0.750    6.250    3.750    1.750    0.500 
#    0.000    3.750    0.000    0.000    0.000    0.000 
#    0.000    0.000    0.000    0.000    0.000    0.000 
#
# Total GULP energy -89562.942466 kJ/mol
# GULP energy per Si atom -5597.683904 kJ/mol
# Density = 2.526910 g / cm^3
# Si number density = 25.326747 Si / 1000 Ang^3
#
#
#
# Elastic Constant Matrix: (Units=GPa)
#
#
# Indices 1 2 3 4 5 6 
#
# 1 54.4877 15.3697 20.0213 9.7466 9.6105 7.1831
# 2 15.3697 123.4626 55.0146 -9.1285 9.0374 13.9638
# 3 20.0213 55.0146 188.6767 -10.1191 20.6888 21.8042
# 4 9.7466 -9.1285 -10.1191 34.7060 15.0792 4.0465
# 5 9.6105 9.0374 20.6888 15.0792 32.3530 3.0905
# 6 7.1831 13.9638 21.8042 4.0465 3.0905 44.5391
#
#
#
# Elastic Compliance Matrix: (Units=1/GPa)
#
#
# Indices 1 2 3 4 5 6 
#
# 1 0.021088 -0.002080 -0.001620 -0.006051 -0.001704 -0.001288
# 2 -0.002080 0.009937 -0.001948 0.003984 -0.002577 -0.002009
# 3 -0.001620 -0.001948 0.007219 0.004779 -0.005559 -0.002710
# 4 -0.006051 0.003984 0.004779 0.043085 -0.021975 -0.005002
# 5 -0.001704 -0.002577 -0.005559 -0.021975 0.045681 0.002631
# 6 -0.001288 -0.002009 -0.002710 -0.005002 0.002631 0.024889
#
#
# Mechanical properties :
#
#
# Convention : Reuss Voigt Hill
#
# Bulk Modulus (GPa) = 37.11063 60.82647 48.96855
# Shear Modulus (GPa) = 29.03977 40.73439 34.88708
#
# Velocity S-wave (km/s) = 3.38983 4.01478 3.71547
# Velocity P-wave (km/s) = 5.47776 6.74982 6.14678
#
# Compressibility (1/GPa) = 0.02694646
#
# Stress axis : x y z
#
# Youngs Moduli (GPa) = 47.42137 100.63206 138.51909
#
# Poissons Ratio (x) = 0.20935 0.22441
# Poissons Ratio (y) = 0.09865 0.26988
# Poissons Ratio (z) = 0.07682 0.19606
#
# Static dielectric constant tensor:
#      x y z
#    x 2.047680 -0.024450 -0.045310 
#    y -0.024450 1.982740 -0.027550 
#    z -0.045310 -0.027550 1.995720 
# 
# From -- ./inp_files/307089.got.cif
#   From: 2010.05.17/outbox.cif.g08.bks.cpg/sg2_154_cif.got.tgz:307089.got - 2010.06.03 11:33:40.
