data_PCOD9054548
_publ_section_title
;
Structure prediction by ZEFSAII (Michael W. Deem and Ramdas Pophale) SiO2 
 PCOD9054548
Probable space group: P -1
;
_chemical_formula_sum "Si O2"
_cell_formula_units_Z 15
_cell_length_a 18.710152
_cell_length_b 22.080644
_cell_length_c 12.077147
_cell_angle_alpha 38.066545
_cell_angle_beta 152.632188
_cell_angle_gamma 161.407832
_cell_volume 678.985726
_symmetry_space_group_name_H-M "P -1"
_symmetry_group_IT_number 2
_symmetry_cell_setting 'triclinic'
loop_
_space_group_symop_operation_xyz
x,y,z
-x,-y,-z
loop_
_atom_site_type_symbol
_atom_site_label
_atom_site_fract_x
_atom_site_fract_y
_atom_site_fract_z
Si Si1 0.668567 0.662104 0.409084
Si Si2 0.265303 0.623756 0.845937
Si Si3 0.450175 0.822343 0.431184
Si Si4 0.500000 0.500000 0.000000
Si Si5 0.621062 0.767659 0.918945
Si Si6 0.209444 0.059081 0.480358
Si Si7 0.652518 0.648361 0.755116
Si Si8 0.618135 0.023084 0.747735
O O1 0.500000 0.500000 0.500000
O O2 0.609366 0.565342 0.356565
O O3 0.042967 0.902909 0.573022
O O4 0.466586 0.650723 0.145757
O O5 0.316794 0.625872 0.783967
O O6 0.416705 0.814128 0.796271
O O7 0.903143 0.417614 0.687362
O O8 0.672836 0.882350 0.735411
O O9 0.554393 0.867946 0.382321
O O10 0.445470 0.930059 0.315046
O O11 0.449633 0.373228 0.035491
O O12 0.408475 0.385505 0.149909
O O13 0.913675 0.924739 0.183307
O O14 0.351741 0.241866 0.451739
O O15 0.004485 0.796287 0.001231
O O16 0.500000 0.000000 0.500000
#
# Coordination Sequence:
#
# PCOD9054548 Si02
#       8
#     2   2   2   1   2   2   2   2
#     4  11  25  48  70  89 123 174 232 283 317 373
#     4  11  23  41  58  92 132 168 225 257 317 392
#     4  12  23  36  60  95 137 168 197 268 326 390
#     4  12  22  32  64  94 136 168 206 258 326 382
#     4  11  21  36  57  94 139 176 206 250 317 406
#     4  11  24  41  62  99 126 166 228 266 318 387
#     4  12  23  41  65  98 131 174 218 260 323 399
#     4  12  24  34  63  94 138 178 202 246 332 403
#
# _framework density 22.091774999999998
#
# number of rings (size 3 to 8) (size 9 to 14) (size 15 to 20)
#    0.000    0.533    9.333    0.800    3.733    1.600 
#    0.000    0.667    0.000    1.600    0.000    0.000 
#    0.000    0.000    0.000    0.000    0.000    0.000 
#
# Total GULP energy -83654.661445 kJ/mol
# GULP energy per Si atom -5576.977430 kJ/mol
# Density = 2.204149 g / cm^3
# Si number density = 22.091775 Si / 1000 Ang^3
#
#
#
# Elastic Constant Matrix: (Units=GPa)
#
#
# Indices 1 2 3 4 5 6 
#
# 1 34.5963 2.2425 1.0537 -14.7781 0.6726 18.7023
# 2 2.2425 135.4302 11.4052 -35.8510 -2.4059 2.7764
# 3 1.0537 11.4052 10.1043 -14.8834 2.7290 4.6166
# 4 -14.7781 -35.8510 -14.8834 38.9914 5.0427 1.3484
# 5 0.6726 -2.4059 2.7290 5.0427 8.7823 -4.5540
# 6 18.7023 2.7764 4.6166 1.3484 -4.5540 45.9288
#
#
#
# Elastic Compliance Matrix: (Units=1/GPa)
#
#
# Indices 1 2 3 4 5 6 
#
# 1 -0.001233 -0.004525 -0.097283 -0.051242 0.068270 0.018828
# 2 -0.004525 0.008302 -0.020723 -0.003957 0.013882 0.004916
# 3 -0.097283 -0.020723 -0.149553 -0.137211 0.166676 0.076454
# 4 -0.051242 -0.003957 -0.137211 -0.065349 0.107624 0.047487
# 5 0.068270 0.013882 0.166676 0.107624 -0.027753 -0.051304
# 6 0.018828 0.004916 0.076454 0.047487 -0.051304 -0.000357
#
#
# Mechanical properties :
#
#
# Convention : Reuss Voigt Hill
#
# Bulk Modulus (GPa) = -2.58033 23.28152 10.35059
# Shear Modulus (GPa) = -41.64532 29.76912 -5.93810
#
# Velocity S-wave (km/s) = -4.34649 3.67484 -1.64127
# Velocity P-wave (km/s) = 5.13418 5.34484 1.05060
#
# Compressibility (1/GPa) = -0.38754677
#
# Stress axis : x y z
#
# Youngs Moduli (GPa) = -811.20738 120.44736 -6.68658
#
# Poissons Ratio (x) = 0.54500 -0.65049
# Poissons Ratio (y) = -3.67054 -0.13857
# Poissons Ratio (z) = -78.91702 2.49608
#
# Static dielectric constant tensor:
#      x y z
#    x 1.818000 0.048160 -0.013480 
#    y 0.048160 1.849250 0.005330 
#    z -0.013480 0.005330 1.883440 
# 
# From -- ./inp_files/296777.got.cif
#   From: 2010.05.17/outbox.cif.g08.bks.cpg/sg2_149_cif.got.tgz:296777.got - 2010.06.03 11:33:40.
