data_PCOD9054284
_publ_section_title
;
Structure prediction by ZEFSAII (Michael W. Deem and Ramdas Pophale) SiO2 
 PCOD9054284
Probable space group: P -1
;
_chemical_formula_sum "Si O2"
_cell_formula_units_Z 12
_cell_length_a 9.038147
_cell_length_b 16.005665
_cell_length_c 11.744140
_cell_angle_alpha 157.882547
_cell_angle_beta 127.408501
_cell_angle_gamma 45.347117
_cell_volume 448.968065
_symmetry_space_group_name_H-M "P -1"
_symmetry_group_IT_number 2
_symmetry_cell_setting 'triclinic'
loop_
_space_group_symop_operation_xyz
x,y,z
-x,-y,-z
loop_
_atom_site_type_symbol
_atom_site_label
_atom_site_fract_x
_atom_site_fract_y
_atom_site_fract_z
Si Si1 0.848422 0.512129 0.302191
Si Si2 0.763065 0.212692 0.688654
Si Si3 0.069351 0.957721 0.110561
Si Si4 0.470563 0.978426 0.263608
Si Si5 0.302015 0.317009 0.201424
Si Si6 0.670805 0.226230 0.415787
O O1 0.679689 0.795160 0.607433
O O2 0.896726 0.314557 0.175383
O O3 0.060310 0.504573 0.344705
O O4 0.766536 0.406001 0.025385
O O5 0.632715 0.075490 0.503332
O O6 0.668982 0.337772 0.680177
O O7 0.000000 0.000000 0.500000
O O8 0.292388 0.960686 0.232627
O O9 0.881306 0.154304 0.350532
O O10 0.000000 0.000000 0.000000
O O11 0.609210 0.726884 0.940515
O O12 0.462498 0.355354 0.405519
O O13 0.307696 0.050271 0.895538
#
# Coordination Sequence:
#
# PCOD9054284 Si02
#       6
#     2   2   2   2   2   2
#     4  11  24  43  69  95 128 176 214 257 329 384
#     4  11  20  42  68  89 131 180 205 263 327 379
#     4  11  22  40  63 101 135 157 216 280 312 374
#     4  11  23  40  70  98 125 170 222 261 321 386
#     4   9  18  39  65  89 129 169 206 266 316 371
#     4   9  18  37  64  87 129 169 205 261 323 369
#
# _framework density 26.727959999999999
#
# number of rings (size 3 to 8) (size 9 to 14) (size 15 to 20)
#    0.000    1.667    6.667    0.500    2.333    1.333 
#    0.000    6.667    0.000    0.000    0.000    0.000 
#    0.000    0.000    0.000    0.000    0.000    0.000 
#
# Total GULP energy -67290.507033 kJ/mol
# GULP energy per Si atom -5607.542253 kJ/mol
# Density = 2.666713 g / cm^3
# Si number density = 26.727960 Si / 1000 Ang^3
#
#
#
# Elastic Constant Matrix: (Units=GPa)
#
#
# Indices 1 2 3 4 5 6 
#
# 1 240.8635 42.9101 56.7830 -13.3504 3.7237 -29.5549
# 2 42.9101 98.1985 28.5920 -27.6463 -3.9724 7.1382
# 3 56.7830 28.5920 104.3583 -13.3213 -7.2570 -3.1170
# 4 -13.3504 -27.6463 -13.3213 56.3859 0.4758 -6.2854
# 5 3.7237 -3.9724 -7.2570 0.4758 57.2767 3.2014
# 6 -29.5549 7.1382 -3.1170 -6.2854 3.2014 63.6098
#
#
#
# Elastic Compliance Matrix: (Units=1/GPa)
#
#
# Indices 1 2 3 4 5 6 
#
# 1 0.005394 -0.001861 -0.002398 0.000102 -0.000933 0.002655
# 2 -0.001861 0.013249 -0.001930 0.005374 0.000860 -0.001958
# 3 -0.002398 -0.001930 0.011665 0.001198 0.001506 -0.000283
# 4 0.000102 0.005374 0.001198 0.020847 0.000258 0.001550
# 5 -0.000933 0.000860 0.001506 0.000258 0.017842 -0.001329
# 6 0.002655 -0.001958 -0.000283 0.001550 -0.001329 0.017380
#
#
# Mechanical properties :
#
#
# Convention : Reuss Voigt Hill
#
# Bulk Modulus (GPa) = 55.77128 77.77673 66.77401
# Shear Modulus (GPa) = 47.74073 56.46350 52.10212
#
# Velocity S-wave (km/s) = 4.23090 4.60121 4.41993
# Velocity P-wave (km/s) = 6.69170 7.57567 7.14736
#
# Compressibility (1/GPa) = 0.01793038
#
# Stress axis : x y z
#
# Youngs Moduli (GPa) = 185.37808 75.47936 85.72680
#
# Poissons Ratio (x) = 0.14047 0.20556
# Poissons Ratio (y) = 0.34499 0.16545
# Poissons Ratio (z) = 0.44451 0.14567
#
# Static dielectric constant tensor:
#      x y z
#    x 2.117750 0.022410 0.053230 
#    y 0.022410 2.131880 0.048060 
#    z 0.053230 0.048060 2.053650 
# 
# From -- ./inp_files/400160.got.cif
#   From: 2010.05.17/outbox.cif.g08.bks.cpg/sg2_201_cif.got.tgz:400160.got - 2010.06.03 11:33:40.
