data_PCOD9054343
_publ_section_title
;
Structure prediction by ZEFSAII (Michael W. Deem and Ramdas Pophale) SiO2 
 PCOD9054343
Probable space group: P -1
;
_chemical_formula_sum "Si O2"
_cell_formula_units_Z 12
_cell_length_a 10.247671
_cell_length_b 5.449228
_cell_length_c 9.777441
_cell_angle_alpha 78.275335
_cell_angle_beta 106.862307
_cell_angle_gamma 117.321269
_cell_volume 462.648334
_symmetry_space_group_name_H-M "P -1"
_symmetry_group_IT_number 2
_symmetry_cell_setting 'triclinic'
loop_
_space_group_symop_operation_xyz
x,y,z
-x,-y,-z
loop_
_atom_site_type_symbol
_atom_site_label
_atom_site_fract_x
_atom_site_fract_y
_atom_site_fract_z
Si Si1 0.142892 0.333035 0.859041
Si Si2 0.928200 0.279602 0.379694
Si Si3 0.607387 0.532951 0.291129
Si Si4 0.459468 0.946951 0.152835
Si Si5 0.207614 0.062103 0.157847
Si Si6 0.764671 0.763537 0.560064
O O1 0.133560 0.614188 0.779488
O O2 0.236973 0.292139 0.766437
O O3 0.220745 0.294028 0.024234
O O4 0.968411 0.119305 0.844059
O O5 0.000000 0.500000 0.500000
O O6 0.071096 0.233047 0.379500
O O7 0.797274 0.028974 0.445165
O O8 0.512099 0.713238 0.237929
O O9 0.539076 0.242115 0.222911
O O10 0.653499 0.509430 0.464022
O O11 0.284924 0.875637 0.139786
O O12 0.500000 0.000000 0.000000
O O13 0.282036 0.188390 0.310576
#
# Coordination Sequence:
#
# PCOD9054343 Si02
#       6
#     2   2   2   2   2   2
#     4  11  23  46  77 113 147 203 257 313 381 450
#     4  11  20  42  74 108 160 203 242 316 392 453
#     4  12  26  49  81 106 152 213 253 304 394 477
#     4  12  28  52  77 109 157 207 255 314 394 464
#     4  11  26  46  74 120 153 191 261 332 370 448
#     4  11  24  43  72 115 156 195 261 312 385 457
#
# _framework density 25.937629999999999
#
# number of rings (size 3 to 8) (size 9 to 14) (size 15 to 20)
#    0.000    0.667    5.000    2.500    0.000    3.333 
#    0.000    0.000    0.000    0.000    0.000    0.000 
#    0.000    0.000    0.000    0.000    0.000    0.000 
#
# Total GULP energy -67252.915023 kJ/mol
# GULP energy per Si atom -5604.409585 kJ/mol
# Density = 2.587859 g / cm^3
# Si number density = 25.937630 Si / 1000 Ang^3
#
#
#
# Elastic Constant Matrix: (Units=GPa)
#
#
# Indices 1 2 3 4 5 6 
#
# 1 159.3113 43.9872 51.7927 2.4186 -6.4545 -25.2525
# 2 43.9872 108.6966 45.0991 8.7355 4.0362 -20.5939
# 3 51.7927 45.0991 147.7591 -4.9950 -1.3842 -24.5611
# 4 2.4186 8.7355 -4.9950 53.7031 -12.1985 0.8028
# 5 -6.4545 4.0362 -1.3842 -12.1985 45.4441 1.8804
# 6 -25.2525 -20.5939 -24.5611 0.8028 1.8804 35.9576
#
#
#
# Elastic Compliance Matrix: (Units=1/GPa)
#
#
# Indices 1 2 3 4 5 6 
#
# 1 0.007906 -0.001950 -0.001622 0.000015 0.001115 0.003269
# 2 -0.001950 0.012072 -0.002439 -0.002689 -0.002313 0.004060
# 3 -0.001622 -0.002439 0.008686 0.001335 0.000471 0.003343
# 4 0.000015 -0.002689 0.001335 0.020531 0.005850 -0.001382
# 5 0.001115 -0.002313 0.000471 0.005850 0.024020 -0.001607
# 6 0.003269 0.004060 0.003343 -0.001382 -0.001607 0.034830
#
#
# Mechanical properties :
#
#
# Convention : Reuss Voigt Hill
#
# Bulk Modulus (GPa) = 60.08564 77.50275 68.79419
# Shear Modulus (GPa) = 39.80490 45.34682 42.57586
#
# Velocity S-wave (km/s) = 3.92170 4.18581 4.05590
# Velocity P-wave (km/s) = 6.61226 7.30114 6.96522
#
# Compressibility (1/GPa) = 0.01664291
#
# Stress axis : x y z
#
# Youngs Moduli (GPa) = 126.49104 82.83626 115.13041
#
# Poissons Ratio (x) = 0.16150 0.18671
# Poissons Ratio (y) = 0.24661 0.28080
# Poissons Ratio (z) = 0.20513 0.20203
#
# Static dielectric constant tensor:
#      x y z
#    x 2.042920 0.079140 0.053350 
#    y 0.079140 2.106670 0.025990 
#    z 0.053350 0.025990 1.995520 
# 
# From -- ./inp_files/60517.got.cif
#   From: 2010.05.17/outbox.cif.g08.bks.cpg/sg2_31_cif.got.tgz:60517.got - 2010.06.03 11:33:40.
