data_PCOD9054177
_publ_section_title
;
Structure prediction by ZEFSAII (Michael W. Deem and Ramdas Pophale) SiO2 
 PCOD9054177
Probable space group: P -1
;
_chemical_formula_sum "Si O2"
_cell_formula_units_Z 16
_cell_length_a 23.146467
_cell_length_b 9.698218
_cell_length_c 9.010616
_cell_angle_alpha 53.721167
_cell_angle_beta 150.752318
_cell_angle_gamma 125.605562
_cell_volume 785.447000
_symmetry_space_group_name_H-M "P -1"
_symmetry_group_IT_number 2
_symmetry_cell_setting 'triclinic'
loop_
_space_group_symop_operation_xyz
x,y,z
-x,-y,-z
loop_
_atom_site_type_symbol
_atom_site_label
_atom_site_fract_x
_atom_site_fract_y
_atom_site_fract_z
Si Si1 0.254099 0.134382 0.640846
Si Si2 0.824210 0.056083 0.852061
Si Si3 0.363243 0.536749 0.156688
Si Si4 0.060582 0.696887 0.817592
Si Si5 0.791517 0.735781 0.218519
Si Si6 0.378425 0.935324 0.852340
Si Si7 0.029106 0.886121 0.338885
Si Si8 0.834035 0.593002 0.946644
O O1 0.247337 0.194113 0.756454
O O2 0.224444 0.285717 0.373021
O O3 0.370743 0.066217 0.888481
O O4 0.152601 0.964921 0.491111
O O5 0.722608 0.050726 0.506726
O O6 0.853184 0.230871 0.900830
O O7 0.800034 0.890124 0.015594
O O8 0.947886 0.034685 0.062528
O O9 0.500000 0.500000 0.500000
O O10 0.269447 0.482835 0.118255
O O11 0.302123 0.422152 0.955899
O O12 0.368759 0.739695 0.010828
O O13 0.064020 0.850830 0.607700
O O14 0.920507 0.670796 0.566118
O O15 0.108968 0.546190 0.932730
O O16 0.500000 0.000000 0.000000
O O17 0.946027 0.714146 0.201819
#
# Coordination Sequence:
#
# PCOD9054177 Si02
#       8
#     2   2   2   2   2   2   2   2
#     4  12  24  42  70 104 138 180 225 276 340 403
#     4  11  21  44  68  96 144 177 222 276 341 403
#     4  12  27  50  71  96 134 184 229 281 338 397
#     4  11  22  38  67 104 145 175 224 273 348 391
#     4  11  23  43  69 103 142 178 220 285 333 403
#     4  12  28  49  72  96 130 183 235 276 339 408
#     4  11  20  41  66 102 139 187 213 276 340 408
#     4  12  25  40  67 101 146 178 227 279 332 404
#
# _framework density 20.370566
#
# number of rings (size 3 to 8) (size 9 to 14) (size 15 to 20)
#    0.000    0.500    6.250    3.750    3.500    0.500 
#    2.250    2.500    0.000    0.000    0.000    0.000 
#    0.000    0.000    0.000    0.000    0.000    0.000 
#
# Total GULP energy -89409.623703 kJ/mol
# GULP energy per Si atom -5588.101481 kJ/mol
# Density = 2.032420 g / cm^3
# Si number density = 20.370566 Si / 1000 Ang^3
#
#
#
# Elastic Constant Matrix: (Units=GPa)
#
#
# Indices 1 2 3 4 5 6 
#
# 1 110.5320 36.0915 31.0910 7.1164 28.7884 -22.1513
# 2 36.0915 75.6766 29.4750 3.1310 17.2839 -21.9229
# 3 31.0910 29.4750 66.8554 -5.6013 13.7925 -13.3880
# 4 7.1164 3.1310 -5.6013 29.1233 -3.0715 -1.8029
# 5 28.7884 17.2839 13.7925 -3.0715 34.2873 -3.1520
# 6 -22.1513 -21.9229 -13.3880 -1.8029 -3.1520 44.8471
#
#
#
# Elastic Compliance Matrix: (Units=1/GPa)
#
#
# Indices 1 2 3 4 5 6 
#
# 1 0.014295 -0.001849 -0.003359 -0.004703 -0.009747 0.004280
# 2 -0.001849 0.019558 -0.005524 -0.002919 -0.005751 0.006477
# 3 -0.003359 -0.005524 0.020120 0.005195 -0.001865 0.001725
# 4 -0.004703 -0.002919 0.005195 0.037488 0.006669 -0.000224
# 5 -0.009747 -0.005751 -0.001865 0.006669 0.041134 -0.005023
# 6 0.004280 0.006477 0.001725 -0.000224 -0.005023 0.027731
#
#
# Mechanical properties :
#
#
# Convention : Reuss Voigt Hill
#
# Bulk Modulus (GPa) = 30.75964 49.59765 40.17864
# Shear Modulus (GPa) = 25.95705 32.07865 29.01785
#
# Velocity S-wave (km/s) = 3.57353 3.97262 3.77835
# Velocity P-wave (km/s) = 5.67094 6.74113 6.22906
#
# Compressibility (1/GPa) = 0.03251014
#
# Stress axis : x y z
#
# Youngs Moduli (GPa) = 69.95562 51.13064 49.70059
#
# Poissons Ratio (x) = 0.09452 0.16694
# Poissons Ratio (y) = 0.12931 0.27455
# Poissons Ratio (z) = 0.23497 0.28245
#
# Static dielectric constant tensor:
#      x y z
#    x 1.763420 0.003650 0.018680 
#    y 0.003650 1.734760 -0.005920 
#    z 0.018680 -0.005920 1.718540 
# 
# From -- ./inp_files/343473.got.cif
#   From: 2010.05.17/outbox.cif.g08.bks.cpg/sg2_172_cif.got.tgz:343473.got - 2010.06.03 11:33:40.
