data_PCOD9054353
_publ_section_title
;
Structure prediction by ZEFSAII (Michael W. Deem and Ramdas Pophale) SiO2 
 PCOD9054353
Probable space group: P -1
;
_chemical_formula_sum "Si O2"
_cell_formula_units_Z 16
_cell_length_a 17.510781
_cell_length_b 7.713052
_cell_length_c 7.486200
_cell_angle_alpha 102.936407
_cell_angle_beta 71.929482
_cell_angle_gamma 141.880384
_cell_volume 593.019536
_symmetry_space_group_name_H-M "P -1"
_symmetry_group_IT_number 2
_symmetry_cell_setting 'triclinic'
loop_
_space_group_symop_operation_xyz
x,y,z
-x,-y,-z
loop_
_atom_site_type_symbol
_atom_site_label
_atom_site_fract_x
_atom_site_fract_y
_atom_site_fract_z
Si Si1 0.398864 0.392260 0.396130
Si Si2 0.799726 0.944781 0.086572
Si Si3 0.145487 0.865181 0.310580
Si Si4 0.245635 0.715856 0.721760
Si Si5 0.916268 0.628763 0.911604
Si Si6 0.085591 0.305639 0.441252
Si Si7 0.537318 0.326038 0.149867
Si Si8 0.532505 0.139194 0.727370
O O1 0.500000 0.500000 0.500000
O O2 0.455935 0.365176 0.191522
O O3 0.399176 0.600736 0.393356
O O4 0.253384 0.079805 0.430530
O O5 0.779215 0.116121 0.199005
O O6 0.934100 0.113980 0.106032
O O7 0.679737 0.627231 0.169394
O O8 0.812622 0.965060 0.865215
O O9 0.127688 0.636427 0.197428
O O10 0.013089 0.703511 0.450498
O O11 0.207586 0.569235 0.526106
O O12 0.387902 0.920099 0.718883
O O13 0.153842 0.464828 0.874477
O O14 0.534740 0.930454 0.719376
O O15 0.119705 0.314357 0.216590
O O16 0.000000 0.000000 0.500000
O O17 0.550534 0.250611 0.935921
#
# Coordination Sequence:
#
# PCOD9054353 Si02
#       8
#     2   2   2   2   2   2   2   2
#     4  12  27  44  71 100 141 190 230 289 349 414
#     4  11  20  42  76  95 134 183 234 288 344 422
#     4  11  23  46  68  99 134 179 237 280 350 419
#     4  11  23  45  70 102 138 182 233 286 354 415
#     4  11  24  42  72  99 131 187 232 285 345 422
#     4  12  28  43  65 103 145 177 229 291 349 421
#     4  11  24  45  71 104 134 187 237 286 349 412
#     4  11  25  45  72 102 142 178 237 294 340 424
#
# _framework density 26.980561999999999
#
# number of rings (size 3 to 8) (size 9 to 14) (size 15 to 20)
#    0.000    0.750    5.000    3.000    5.250    2.000 
#    2.250    0.000    0.000    0.000    0.000    0.000 
#    0.000    0.000    0.000    0.000    0.000    0.000 
#
# Total GULP energy -89658.360512 kJ/mol
# GULP energy per Si atom -5603.647532 kJ/mol
# Density = 2.691915 g / cm^3
# Si number density = 26.980562 Si / 1000 Ang^3
#
#
#
# Elastic Constant Matrix: (Units=GPa)
#
#
# Indices 1 2 3 4 5 6 
#
# 1 97.8444 44.2682 34.4735 8.4090 3.9925 -17.4582
# 2 44.2682 172.7878 25.3756 15.8895 16.4731 6.8794
# 3 34.4735 25.3756 83.6302 13.8111 30.3882 -12.5374
# 4 8.4090 15.8895 13.8111 49.9355 2.2652 11.8090
# 5 3.9925 16.4731 30.3882 2.2652 37.9548 1.4183
# 6 -17.4582 6.8794 -12.5374 11.8090 1.4183 54.9094
#
#
#
# Elastic Compliance Matrix: (Units=1/GPa)
#
#
# Indices 1 2 3 4 5 6 
#
# 1 0.014328 -0.003314 -0.005860 -0.000816 0.004534 0.003691
# 2 -0.003314 0.007045 0.000194 -0.001246 -0.002732 -0.001554
# 3 -0.005860 0.000194 0.022148 -0.005564 -0.017048 0.004807
# 4 -0.000816 -0.001246 -0.005564 0.023463 0.003925 -0.006521
# 5 0.004534 -0.002732 -0.017048 0.003925 0.040621 -0.004002
# 6 0.003691 -0.001554 0.004807 -0.006521 -0.004002 0.022183
#
#
# Mechanical properties :
#
#
# Convention : Reuss Voigt Hill
#
# Bulk Modulus (GPa) = 39.12179 62.49968 50.81073
# Shear Modulus (GPa) = 31.99611 45.23627 38.61619
#
# Velocity S-wave (km/s) = 3.44742 4.09910 3.78730
# Velocity P-wave (km/s) = 5.51160 6.75415 6.16426
#
# Compressibility (1/GPa) = 0.02556120
#
# Stress axis : x y z
#
# Youngs Moduli (GPa) = 69.79210 141.94481 45.15056
#
# Poissons Ratio (x) = 0.47047 0.26458
# Poissons Ratio (y) = 0.23132 -0.00877
# Poissons Ratio (z) = 0.40897 -0.02757
#
# Static dielectric constant tensor:
#      x y z
#    x 2.064920 0.046710 0.122180 
#    y 0.046710 1.920060 -0.135460 
#    z 0.122180 -0.135460 2.134930 
# 
# From -- ./inp_files/299148.got.cif
#   From: 2010.05.17/outbox.cif.g08.bks.cpg/sg2_150_cif.got.tgz:299148.got - 2010.06.03 11:33:40.
