data_PCOD9054575
_publ_section_title
;
Structure prediction by ZEFSAII (Michael W. Deem and Ramdas Pophale) SiO2 
 PCOD9054575
Probable space group: P -1
;
_chemical_formula_sum "Si O2"
_cell_formula_units_Z 16
_cell_length_a 11.908342
_cell_length_b 8.372272
_cell_length_c 24.348766
_cell_angle_alpha 134.736705
_cell_angle_beta 27.453145
_cell_angle_gamma 142.697894
_cell_volume 678.216145
_symmetry_space_group_name_H-M "P -1"
_symmetry_group_IT_number 2
_symmetry_cell_setting 'triclinic'
loop_
_space_group_symop_operation_xyz
x,y,z
-x,-y,-z
loop_
_atom_site_type_symbol
_atom_site_label
_atom_site_fract_x
_atom_site_fract_y
_atom_site_fract_z
Si Si1 0.928736 0.405892 0.730458
Si Si2 0.138525 0.397390 0.872359
Si Si3 0.282198 0.203920 0.064233
Si Si4 0.923516 0.109952 0.347669
Si Si5 0.541659 0.109692 0.418662
Si Si6 0.344748 0.171563 0.899525
Si Si7 0.129900 0.733968 0.153933
Si Si8 0.584427 0.348313 0.718556
O O1 0.818207 0.610678 0.822463
O O2 0.632030 0.143463 0.775704
O O3 0.974735 0.382819 0.768825
O O4 0.241161 0.577492 0.609635
O O5 0.460316 0.483741 0.765593
O O6 0.071948 0.440719 0.850129
O O7 0.966229 0.088724 0.886303
O O8 0.000000 0.500000 0.000000
O O9 0.331440 0.247734 0.988024
O O10 0.564381 0.236198 0.976939
O O11 0.698725 0.027516 0.375874
O O12 0.088149 0.424045 0.359753
O O13 0.751536 0.966200 0.442665
O O14 0.134491 0.006632 0.216872
O O15 0.475297 0.922088 0.348971
O O16 0.428606 0.298039 0.832610
O O17 0.000000 0.000000 0.000000
#
# Coordination Sequence:
#
# PCOD9054575 Si02
#       8
#     2   2   2   2   2   2   2   2
#     4  11  23  42  70  94 132 180 224 267 328 401
#     4  12  25  36  61  98 138 174 210 269 333 393
#     4  11  23  40  63  91 134 181 216 259 332 403
#     4  11  24  45  69  96 135 172 230 281 323 391
#     4  11  23  45  72  96 126 184 227 273 332 386
#     4  11  21  36  62  98 132 170 216 263 322 397
#     4  11  24  42  63  97 138 173 220 274 332 395
#     4  12  23  41  68 100 134 169 229 269 332 396
#
# _framework density 23.591297999999998
#
# number of rings (size 3 to 8) (size 9 to 14) (size 15 to 20)
#    0.000    0.750    5.000    3.000    3.500    1.500 
#    0.000    0.000    0.000    3.750    0.000    0.000 
#    0.000    0.000    0.000    0.000    0.000    0.000 
#
# Total GULP energy -89187.302159 kJ/mol
# GULP energy per Si atom -5574.206385 kJ/mol
# Density = 2.353760 g / cm^3
# Si number density = 23.591298 Si / 1000 Ang^3
#
#
#
# Elastic Constant Matrix: (Units=GPa)
#
#
# Indices 1 2 3 4 5 6 
#
# 1 144.9580 18.1512 22.5456 3.7096 11.1905 26.2853
# 2 18.1512 50.4124 23.9599 -14.0024 7.4413 16.2676
# 3 22.5456 23.9599 82.0273 -23.4496 9.8601 8.2778
# 4 3.7096 -14.0024 -23.4496 43.6146 -9.9570 -3.8466
# 5 11.1905 7.4413 9.8601 -9.9570 28.0825 -0.4562
# 6 26.2853 16.2676 8.2778 -3.8466 -0.4562 33.2436
#
#
#
# Elastic Compliance Matrix: (Units=1/GPa)
#
#
# Indices 1 2 3 4 5 6 
#
# 1 0.008925 -0.000372 -0.002195 -0.003587 -0.004070 -0.006800
# 2 -0.000372 0.027995 -0.005182 0.004260 -0.004129 -0.011678
# 3 -0.002195 -0.005182 0.016377 0.007205 -0.000931 0.001014
# 4 -0.003587 0.004260 0.007205 0.030692 0.008696 0.002628
# 5 -0.004070 -0.004129 -0.000931 0.008696 0.041850 0.007051
# 6 -0.006800 -0.011678 0.001014 0.002628 0.007051 0.041321
#
#
# Mechanical properties :
#
#
# Convention : Reuss Voigt Hill
#
# Bulk Modulus (GPa) = 26.45506 45.19013 35.82259
# Shear Modulus (GPa) = 25.60720 35.17085 30.38903
#
# Velocity S-wave (km/s) = 3.29819 3.86533 3.59297
# Velocity P-wave (km/s) = 5.07369 6.25444 5.69475
#
# Compressibility (1/GPa) = 0.03779995
#
# Stress axis : x y z
#
# Youngs Moduli (GPa) = 112.03895 35.72106 61.05997
#
# Poissons Ratio (x) = 0.01329 0.13401
# Poissons Ratio (y) = 0.04169 0.31642
# Poissons Ratio (z) = 0.24589 0.18511
#
# Static dielectric constant tensor:
#      x y z
#    x 1.962570 0.094360 -0.046220 
#    y 0.094360 2.117590 -0.076680 
#    z -0.046220 -0.076680 1.937210 
# 
# From -- ./inp_files/609879.got.cif
#   From: 2010.05.17/outbox.cif.g08.bks.cpg/sg2_305_cif.got.tgz:609879.got - 2010.06.03 11:33:40.
