data_PCOD9054754
_publ_section_title
;
Structure prediction by ZEFSAII (Michael W. Deem and Ramdas Pophale) SiO2 
 PCOD9054754
Probable space group: P -1
;
_chemical_formula_sum "Si O2"
_cell_formula_units_Z 14
_cell_length_a 13.390877
_cell_length_b 10.824429
_cell_length_c 12.706882
_cell_angle_alpha 80.320315
_cell_angle_beta 157.967468
_cell_angle_gamma 101.230962
_cell_volume 677.320279
_symmetry_space_group_name_H-M "P -1"
_symmetry_group_IT_number 2
_symmetry_cell_setting 'triclinic'
loop_
_space_group_symop_operation_xyz
x,y,z
-x,-y,-z
loop_
_atom_site_type_symbol
_atom_site_label
_atom_site_fract_x
_atom_site_fract_y
_atom_site_fract_z
Si Si1 0.167575 0.592011 0.571575
Si Si2 0.455286 0.414976 0.721724
Si Si3 0.682888 0.748521 0.017539
Si Si4 0.087649 0.736249 0.827892
Si Si5 0.526354 0.667380 0.642621
Si Si6 0.036714 0.652913 0.023420
Si Si7 0.236644 0.994896 0.815466
O O1 0.312529 0.498916 0.652104
O O2 0.428203 0.685466 0.846223
O O3 0.000000 0.500000 0.500000
O O4 0.945040 0.673460 0.293299
O O5 0.730263 0.364371 0.031681
O O6 0.518328 0.516278 0.676079
O O7 0.228411 0.302469 0.490304
O O8 0.588937 0.735755 0.805679
O O9 0.749167 0.886858 0.108687
O O10 0.135499 0.716857 0.001488
O O11 0.182375 0.868849 0.849792
O O12 0.244371 0.688290 0.314779
O O13 0.757511 0.699090 0.779313
O O14 0.000000 0.500000 0.000000
O O15 0.000000 0.000000 0.500000
O O16 0.500000 0.000000 0.000000
#
# Coordination Sequence:
#
# PCOD9054754 Si02
#       7
#     2   2   2   2   2   2   2
#     4  11  24  39  67  96 130 171 223 283 345 395
#     4  11  21  38  63 100 137 165 210 279 338 403
#     4  11  25  46  64  95 135 178 228 268 338 407
#     4  12  25  40  67  99 135 172 233 267 326 406
#     4  11  21  40  64  98 138 173 200 279 348 397
#     4  12  21  38  66 104 138 170 213 271 350 401
#     4  12  29  50  70  91 133 191 232 280 323 388
#
# _framework density 20.669689000000002
#
# number of rings (size 3 to 8) (size 9 to 14) (size 15 to 20)
#    0.000    0.571    2.857    6.857    6.000    0.000 
#    0.000    1.429    0.000    0.000    0.000    0.000 
#    0.000    0.000    0.000    0.000    0.000    0.000 
#
# Total GULP energy -78250.271675 kJ/mol
# GULP energy per Si atom -5589.305120 kJ/mol
# Density = 2.062264 g / cm^3
# Si number density = 20.669689 Si / 1000 Ang^3
#
#
#
# Elastic Constant Matrix: (Units=GPa)
#
#
# Indices 1 2 3 4 5 6 
#
# 1 113.1822 61.2833 26.3053 0.2364 11.6242 12.7315
# 2 61.2833 108.0338 30.1240 11.3989 -11.7950 15.0651
# 3 26.3053 30.1240 107.2608 7.5410 12.5204 0.5309
# 4 0.2364 11.3989 7.5410 25.2594 -2.6655 -1.8078
# 5 11.6242 -11.7950 12.5204 -2.6655 32.4853 2.0678
# 6 12.7315 15.0651 0.5309 -1.8078 2.0678 34.6277
#
#
#
# Elastic Compliance Matrix: (Units=1/GPa)
#
#
# Indices 1 2 3 4 5 6 
#
# 1 0.015064 -0.009677 -0.000216 0.003347 -0.008505 -0.000642
# 2 -0.009677 0.018433 -0.003662 -0.006320 0.011393 -0.005416
# 3 -0.000216 -0.003662 0.011236 -0.002195 -0.005874 0.001737
# 4 0.003347 -0.006320 -0.002195 0.043407 0.000675 0.003778
# 5 -0.008505 0.011393 -0.005874 0.000675 0.040545 -0.004125
# 6 -0.000642 -0.005416 0.001737 0.003778 -0.004125 0.031888
#
#
# Mechanical properties :
#
#
# Convention : Reuss Voigt Hill
#
# Bulk Modulus (GPa) = 56.74716 62.65576 59.70146
# Shear Modulus (GPa) = 25.83204 32.52542 29.17873
#
# Velocity S-wave (km/s) = 3.53902 3.97114 3.76129
# Velocity P-wave (km/s) = 6.64932 7.16975 6.91443
#
# Compressibility (1/GPa) = 0.01762203
#
# Stress axis : x y z
#
# Youngs Moduli (GPa) = 66.38297 54.25057 88.99992
#
# Poissons Ratio (x) = 0.52500 0.01921
# Poissons Ratio (y) = 0.64240 0.32595
# Poissons Ratio (z) = 0.01433 0.19869
#
# Static dielectric constant tensor:
#      x y z
#    x 1.799190 0.003450 0.006890 
#    y 0.003450 1.727350 0.028270 
#    z 0.006890 0.028270 1.739140 
# 
# From -- ./inp_files/527491.got.cif
#   From: 2010.05.17/outbox.cif.g08.bks.cpg/sg2_264_cif.got.tgz:527491.got - 2010.06.03 11:33:40.
