data_PCOD9054348
_publ_section_title
;
Structure prediction by ZEFSAII (Michael W. Deem and Ramdas Pophale) SiO2 
 PCOD9054348
Probable space group: P -1
;
_chemical_formula_sum "Si O2"
_cell_formula_units_Z 14
_cell_length_a 14.614343
_cell_length_b 19.981277
_cell_length_c 11.651831
_cell_angle_alpha 34.371318
_cell_angle_beta 147.504943
_cell_angle_gamma 160.494796
_cell_volume 601.518066
_symmetry_space_group_name_H-M "P -1"
_symmetry_group_IT_number 2
_symmetry_cell_setting 'triclinic'
loop_
_space_group_symop_operation_xyz
x,y,z
-x,-y,-z
loop_
_atom_site_type_symbol
_atom_site_label
_atom_site_fract_x
_atom_site_fract_y
_atom_site_fract_z
Si Si1 0.739815 0.898551 0.789534
Si Si2 0.260455 0.454537 0.264521
Si Si3 0.577437 0.864449 0.115747
Si Si4 0.210815 0.816283 0.662027
Si Si5 0.219616 0.231569 0.213037
Si Si6 0.166712 0.459010 0.894623
Si Si7 0.257726 0.613863 0.350537
O O1 0.772602 0.841797 0.788677
O O2 0.434597 0.695307 0.813662
O O3 0.763040 0.050059 0.571408
O O4 0.000000 0.000000 0.000000
O O5 0.500000 0.500000 0.500000
O O6 0.393193 0.654898 0.159677
O O7 0.972156 0.264241 0.301229
O O8 0.205024 0.427763 0.108497
O O9 0.429769 0.790367 0.188922
O O10 0.513980 0.936141 0.860372
O O11 0.919577 0.032001 0.245052
O O12 0.017347 0.609623 0.681402
O O13 0.511645 0.355818 0.411487
O O14 0.199584 0.361478 0.988501
O O15 0.874859 0.373994 0.710638
#
# Coordination Sequence:
#
# PCOD9054348 Si02
#       7
#     2   2   2   2   2   2   2
#     4  12  28  50  73 104 140 193 248 293 357 432
#     4  11  20  42  75 104 140 189 238 294 350 419
#     4  11  22  45  72 112 143 185 245 290 348 429
#     4  11  23  45  76 106 141 189 244 291 348 428
#     4  12  28  45  70 107 148 188 236 299 362 425
#     4  12  25  47  72 103 151 186 234 300 359 425
#     4  11  24  47  75 110 145 186 235 297 364 417
#
# _framework density 23.274445
#
# number of rings (size 3 to 8) (size 9 to 14) (size 15 to 20)
#    0.000    0.571    2.857    6.857    2.000    2.857 
#    2.571    0.000    0.000    0.000    0.000    0.000 
#    0.000    0.000    0.000    0.000    0.000    0.000 
#
# Total GULP energy -78379.892720 kJ/mol
# GULP energy per Si atom -5598.563766 kJ/mol
# Density = 2.322147 g / cm^3
# Si number density = 23.274445 Si / 1000 Ang^3
#
#
#
# Elastic Constant Matrix: (Units=GPa)
#
#
# Indices 1 2 3 4 5 6 
#
# 1 44.2343 23.1788 20.3348 4.5788 18.8351 13.7121
# 2 23.1788 101.2832 39.4246 -3.3856 13.2719 30.0359
# 3 20.3348 39.4246 135.4522 1.9113 21.2421 17.3185
# 4 4.5788 -3.3856 1.9113 48.0881 6.7750 0.9355
# 5 18.8351 13.2719 21.2421 6.7750 35.3812 7.8768
# 6 13.7121 30.0359 17.3185 0.9355 7.8768 34.2049
#
#
#
# Elastic Compliance Matrix: (Units=1/GPa)
#
#
# Indices 1 2 3 4 5 6 
#
# 1 0.032936 -0.003490 -0.000891 -0.001246 -0.014020 -0.006425
# 2 -0.003490 0.014774 -0.002441 0.001705 -0.000246 -0.010329
# 3 -0.000891 -0.002441 0.008964 0.000108 -0.003750 -0.001177
# 4 -0.001246 0.001705 0.000108 0.021610 -0.004019 -0.000718
# 5 -0.014020 -0.000246 -0.003750 -0.004019 0.039099 -0.001159
# 6 -0.006425 -0.010329 -0.001177 -0.000718 -0.001159 0.041764
#
#
# Mechanical properties :
#
#
# Convention : Reuss Voigt Hill
#
# Bulk Modulus (GPa) = 23.23940 49.64958 36.44449
# Shear Modulus (GPa) = 26.71893 36.73694 31.72793
#
# Velocity S-wave (km/s) = 3.39188 3.97725 3.69617
# Velocity P-wave (km/s) = 5.03452 6.51689 5.82307
#
# Compressibility (1/GPa) = 0.04303038
#
# Stress axis : x y z
#
# Youngs Moduli (GPa) = 30.36229 67.68471 111.55587
#
# Poissons Ratio (x) = 0.23619 0.09939
# Poissons Ratio (y) = 0.10595 0.27234
# Poissons Ratio (z) = 0.02705 0.16524
#
# Static dielectric constant tensor:
#      x y z
#    x 1.871790 0.000550 0.048370 
#    y 0.000550 1.835410 -0.043130 
#    z 0.048370 -0.043130 1.804640 
# 
# From -- ./inp_files/457668.got.cif
#   From: 2010.05.17/outbox.cif.g08.bks.cpg/sg2_229_cif.got.tgz:457668.got - 2010.06.03 11:33:40.
