data_PCOD9054028
_publ_section_title
;
Structure prediction by ZEFSAII (Michael W. Deem and Ramdas Pophale) SiO2 
 PCOD9054028
Probable space group: P -1
;
_chemical_formula_sum "Si O2"
_cell_formula_units_Z 14
_cell_length_a 9.147943
_cell_length_b 9.748362
_cell_length_c 8.522909
_cell_angle_alpha 102.425317
_cell_angle_beta 79.852982
_cell_angle_gamma 134.780444
_cell_volume 526.524379
_symmetry_space_group_name_H-M "P -1"
_symmetry_group_IT_number 2
_symmetry_cell_setting 'triclinic'
loop_
_space_group_symop_operation_xyz
x,y,z
-x,-y,-z
loop_
_atom_site_type_symbol
_atom_site_label
_atom_site_fract_x
_atom_site_fract_y
_atom_site_fract_z
Si Si1 0.796879 0.768299 0.636061
Si Si2 0.768284 0.236974 0.160761
Si Si3 0.191285 0.493563 0.987983
Si Si4 0.770048 0.296310 0.528678
Si Si5 0.050112 0.823189 0.321090
Si Si6 0.858816 0.000427 0.137002
Si Si7 0.533283 0.396707 0.763681
O O1 0.865641 0.753601 0.452957
O O2 0.587214 0.568461 0.693914
O O3 0.820823 0.951202 0.682877
O O4 0.980649 0.830089 0.727621
O O5 0.689513 0.300662 0.069020
O O6 0.694586 0.209891 0.345728
O O7 0.746552 0.057171 0.089820
O O8 0.014165 0.426086 0.128195
O O9 0.062175 0.322538 0.840981
O O10 0.350907 0.515188 0.069636
O O11 0.632800 0.329218 0.636245
O O12 0.000000 0.500000 0.500000
O O13 0.803918 0.189462 0.615391
O O14 0.698043 0.798483 0.206911
O O15 0.000000 0.000000 0.000000
#
# Coordination Sequence:
#
# PCOD9054028 Si02
#       7
#     2   2   2   2   2   2   2
#     4  11  24  48  70 107 145 200 236 296 361 435
#     4  11  21  40  73 106 147 183 237 301 365 416
#     4  11  20  39  74 111 138 189 236 298 366 430
#     4  12  18  43  76 109 144 190 239 301 355 437
#     4  11  22  40  79 104 156 188 235 302 359 428
#     4  12  27  49  73 103 147 193 246 306 360 433
#     4  12  26  44  79 106 143 197 245 290 375 428
#
# _framework density 26.589462000000001
#
# number of rings (size 3 to 8) (size 9 to 14) (size 15 to 20)
#    0.000    0.571    7.143    1.714    0.000    1.714 
#    0.000    2.857    9.429    0.000    0.000    0.000 
#    0.000    0.000    0.000    0.000    0.000    0.000 
#
# Total GULP energy -78513.356422 kJ/mol
# GULP energy per Si atom -5608.096887 kJ/mol
# Density = 2.652894 g / cm^3
# Si number density = 26.589462 Si / 1000 Ang^3
#
#
#
# Elastic Constant Matrix: (Units=GPa)
#
#
# Indices 1 2 3 4 5 6 
#
# 1 100.0053 74.3955 61.9457 -16.3034 -11.8373 -26.5042
# 2 74.3955 178.4828 62.7154 -40.9911 -5.1110 -21.1052
# 3 61.9457 62.7154 175.8607 -3.6219 -13.4041 -13.1453
# 4 -16.3034 -40.9911 -3.6219 40.7569 -11.3103 9.7710
# 5 -11.8373 -5.1110 -13.4041 -11.3103 42.9501 -10.2381
# 6 -26.5042 -21.1052 -13.1453 9.7710 -10.2381 58.4728
#
#
#
# Elastic Compliance Matrix: (Units=1/GPa)
#
#
# Indices 1 2 3 4 5 6 
#
# 1 0.018919 -0.005131 -0.003893 0.002027 0.005464 0.006466
# 2 -0.005131 0.010312 -0.001583 0.008643 0.001564 -0.000130
# 3 -0.003893 -0.001583 0.007598 -0.002306 0.000464 -0.000161
# 4 0.002027 0.008643 -0.002306 0.036917 0.010391 -0.000829
# 5 0.005464 0.001564 0.000464 0.010391 0.029420 0.006560
# 6 0.006466 -0.000130 -0.000161 -0.000829 0.006560 0.021237
#
#
# Mechanical properties :
#
#
# Convention : Reuss Voigt Hill
#
# Bulk Modulus (GPa) = 64.03768 94.71801 79.37784
# Shear Modulus (GPa) = 33.15181 45.45544 39.30363
#
# Velocity S-wave (km/s) = 3.53484 4.13913 3.84886
# Velocity P-wave (km/s) = 6.38720 7.65133 7.04767
#
# Compressibility (1/GPa) = 0.01561581
#
# Stress axis : x y z
#
# Youngs Moduli (GPa) = 52.85737 96.97213 131.61924
#
# Poissons Ratio (x) = 0.49760 0.51233
# Poissons Ratio (y) = 0.27123 0.20829
# Poissons Ratio (z) = 0.20575 0.15346
#
# Static dielectric constant tensor:
#      x y z
#    x 2.135290 -0.042100 0.026060 
#    y -0.042100 2.046770 0.003950 
#    z 0.026060 0.003950 2.134850 
# 
# From -- ./inp_files/258567.got.cif
#   From: 2010.05.17/outbox.cif.g08.bks.cpg/sg2_130_cif.got.tgz:258567.got - 2010.06.03 11:33:40.
