data_PCOD9054300
_publ_section_title
;
Structure prediction by ZEFSAII (Michael W. Deem and Ramdas Pophale) SiO2 
 PCOD9054300
Probable space group: P -1
;
_chemical_formula_sum "Si O2"
_cell_formula_units_Z 14
_cell_length_a 11.010572
_cell_length_b 9.777863
_cell_length_c 7.978377
_cell_angle_alpha 50.495158
_cell_angle_beta 93.922355
_cell_angle_gamma 82.087720
_cell_volume 642.615127
_symmetry_space_group_name_H-M "P -1"
_symmetry_group_IT_number 2
_symmetry_cell_setting 'triclinic'
loop_
_space_group_symop_operation_xyz
x,y,z
-x,-y,-z
loop_
_atom_site_type_symbol
_atom_site_label
_atom_site_fract_x
_atom_site_fract_y
_atom_site_fract_z
Si Si1 0.552677 0.355710 0.969154
Si Si2 0.793354 0.726544 0.526557
Si Si3 0.212633 0.722389 0.564902
Si Si4 0.378694 0.427158 0.603823
Si Si5 0.035986 0.026750 0.791293
Si Si6 0.181335 0.622508 0.017999
Si Si7 0.633918 0.036032 0.457430
O O1 0.676071 0.412672 0.868144
O O2 0.616827 0.155654 0.195244
O O3 0.500000 0.500000 0.000000
O O4 0.438670 0.341597 0.851381
O O5 0.675299 0.703178 0.421440
O O6 0.874943 0.833866 0.340641
O O7 0.738013 0.853974 0.579291
O O8 0.866635 0.535513 0.766323
O O9 0.258192 0.584203 0.525465
O O10 0.196614 0.620085 0.818389
O O11 0.088645 0.875188 0.396413
O O12 0.322819 0.829852 0.513293
O O13 0.500000 0.500000 0.500000
O O14 0.102113 0.825301 0.889801
O O15 0.000000 0.000000 0.000000
O O16 0.500000 0.000000 0.500000
#
# Coordination Sequence:
#
# PCOD9054300 Si02
#       7
#     2   2   2   2   2   2   2
#     4  11  20  42  69  99 142 184 225 290 350 417
#     4  12  26  45  73 108 142 190 238 297 363 420
#     4  11  25  47  75  98 145 197 234 297 355 417
#     4  12  24  40  73 109 146 183 232 294 371 421
#     4  12  28  50  70 103 149 188 245 298 354 423
#     4  11  23  47  73  99 142 184 242 297 344 424
#     4  11  23  41  70 108 138 180 243 285 352 435
#
# _framework density 21.785979000000001
#
# number of rings (size 3 to 8) (size 9 to 14) (size 15 to 20)
#    0.000    0.571    7.143    3.000    0.000    4.571 
#    0.000    0.000    0.000    0.000    0.000    0.000 
#    0.000    0.000    0.000    0.000    0.000    0.000 
#
# Total GULP energy -78120.691890 kJ/mol
# GULP energy per Si atom -5580.049421 kJ/mol
# Density = 2.173639 g / cm^3
# Si number density = 21.785979 Si / 1000 Ang^3
#
#
#
# Elastic Constant Matrix: (Units=GPa)
#
#
# Indices 1 2 3 4 5 6 
#
# 1 74.4236 -9.0399 33.8496 -8.5449 -11.5907 -10.7983
# 2 -9.0399 50.0896 14.8716 -9.3657 -9.2053 -16.5779
# 3 33.8496 14.8716 108.5435 -18.3217 -8.8843 -0.8366
# 4 -8.5449 -9.3657 -18.3217 30.4068 -5.7008 3.4974
# 5 -11.5907 -9.2053 -8.8843 -5.7008 48.3050 -2.4904
# 6 -10.7983 -16.5779 -0.8366 3.4974 -2.4904 35.9618
#
#
#
# Elastic Compliance Matrix: (Units=1/GPa)
#
#
# Indices 1 2 3 4 5 6 
#
# 1 0.021589 0.012351 -0.006719 0.005872 0.007609 0.011976
# 2 0.012351 0.034068 -0.005770 0.010286 0.010589 0.019012
# 3 -0.006719 -0.005770 0.012836 0.004614 -0.000055 -0.004831
# 4 0.005872 0.010286 0.004614 0.041867 0.009323 0.003186
# 5 0.007609 0.010589 -0.000055 0.009323 0.026051 0.008062
# 6 0.011976 0.019012 -0.004831 0.003186 0.008062 0.040304
#
#
# Mechanical properties :
#
#
# Convention : Reuss Voigt Hill
#
# Bulk Modulus (GPa) = 14.65900 34.71326 24.68613
# Shear Modulus (GPa) = 25.03388 35.82643 30.43016
#
# Velocity S-wave (km/s) = 3.39349 4.05961 3.74140
# Velocity P-wave (km/s) = 4.70081 6.15973 5.47904
#
# Compressibility (1/GPa) = 0.06821750
#
# Stress axis : x y z
#
# Youngs Moduli (GPa) = 46.31914 29.35327 77.90732
#
# Poissons Ratio (x) = -0.36254 0.52343
# Poissons Ratio (y) = -0.57208 0.44951
# Poissons Ratio (z) = 0.31120 0.16936
#
# Static dielectric constant tensor:
#      x y z
#    x 1.829880 0.027210 -0.034370 
#    y 0.027210 1.799890 0.021940 
#    z -0.034370 0.021940 1.908700 
# 
# From -- ./inp_files/236687.got.cif
#   From: 2010.05.17/outbox.cif.g08.bks.cpg/sg2_119_cif.got.tgz:236687.got - 2010.06.03 11:33:40.
