data_PCOD9054984
_publ_section_title
;
Structure prediction by ZEFSAII (Michael W. Deem and Ramdas Pophale) SiO2 
 PCOD9054984
Probable space group: P -1
;
_chemical_formula_sum "Si O2"
_cell_formula_units_Z 16
_cell_length_a 15.698568
_cell_length_b 8.702556
_cell_length_c 12.926834
_cell_angle_alpha 74.824617
_cell_angle_beta 28.292494
_cell_angle_gamma 86.477819
_cell_volume 750.661980
_symmetry_space_group_name_H-M "P -1"
_symmetry_group_IT_number 2
_symmetry_cell_setting 'triclinic'
loop_
_space_group_symop_operation_xyz
x,y,z
-x,-y,-z
loop_
_atom_site_type_symbol
_atom_site_label
_atom_site_fract_x
_atom_site_fract_y
_atom_site_fract_z
Si Si1 0.044303 0.850275 0.533923
Si Si2 0.321886 0.940069 0.553027
Si Si3 0.101144 0.079894 0.625255
Si Si4 0.577844 0.601757 0.505018
Si Si5 0.083782 0.689486 0.330121
Si Si6 0.880854 0.438242 0.243811
Si Si7 0.796224 0.488695 0.938737
Si Si8 0.264044 0.016088 0.817380
O O1 0.861002 0.673777 0.779786
O O2 0.172618 0.803083 0.317282
O O3 0.000000 0.000000 0.500000
O O4 0.111342 0.938764 0.556737
O O5 0.244712 0.762474 0.604139
O O6 0.547632 0.994125 0.326608
O O7 0.269915 0.086490 0.523227
O O8 0.216622 0.899421 0.785756
O O9 0.072128 0.237373 0.566629
O O10 0.908060 0.011756 0.914206
O O11 0.500000 0.500000 0.500000
O O12 0.737354 0.538432 0.393139
O O13 0.669289 0.796487 0.336928
O O14 0.398714 0.560495 0.780469
O O15 0.210882 0.661977 0.105791
O O16 0.000000 0.500000 0.500000
O O17 0.027537 0.477790 0.175266
O O18 0.000000 0.500000 0.000000
#
# Coordination Sequence:
#
# PCOD9054984 Si02
#       8
#     2   2   2   2   2   2   2   2
#     4   9  19  40  66  91 114 159 218 268 317 367
#     4  11  24  38  57  95 135 163 208 243 305 387
#     4  11  21  39  69  88 123 171 203 255 324 364
#     4  12  23  38  60  92 134 168 204 245 304 381
#     4   9  22  40  66  93 115 161 221 269 318 364
#     4  12  23  37  62  92 132 168 209 245 303 386
#     4  11  22  40  65  90 126 168 202 259 319 363
#     4  11  25  39  57  96 141 162 202 249 304 391
#
# _framework density 21.314520999999999
#
# number of rings (size 3 to 8) (size 9 to 14) (size 15 to 20)
#    0.000    1.250    3.750    1.875    7.000    0.000 
#    0.000    0.000    0.000   30.000    0.000    0.000 
#    0.000    0.000    0.000    0.000    0.000    0.000 
#
# Total GULP energy -89295.838857 kJ/mol
# GULP energy per Si atom -5580.989929 kJ/mol
# Density = 2.126601 g / cm^3
# Si number density = 21.314521 Si / 1000 Ang^3
#
#
#
# Elastic Constant Matrix: (Units=GPa)
#
#
# Indices 1 2 3 4 5 6 
#
# 1 114.7011 60.7362 67.8481 19.0722 5.6075 -19.2127
# 2 60.7362 127.5472 55.2569 12.3103 9.4790 -13.5095
# 3 67.8481 55.2569 88.3330 21.8236 7.3550 -3.6440
# 4 19.0722 12.3103 21.8236 39.8782 -1.1987 17.2882
# 5 5.6075 9.4790 7.3550 -1.1987 29.3207 11.2421
# 6 -19.2127 -13.5095 -3.6440 17.2882 11.2421 50.5484
#
#
#
# Elastic Compliance Matrix: (Units=1/GPa)
#
#
# Indices 1 2 3 4 5 6 
#
# 1 0.019307 -0.002621 -0.010926 -0.006408 -0.003771 0.008881
# 2 -0.002621 0.011788 -0.004657 -0.001230 -0.003335 0.002981
# 3 -0.010926 -0.004657 0.024351 -0.006328 -0.002411 -0.000942
# 4 -0.006408 -0.001230 -0.006328 0.041059 0.012581 -0.020061
# 5 -0.003771 -0.003335 -0.002411 0.012581 0.043326 -0.016437
# 6 0.008881 0.002981 -0.000942 -0.020061 -0.016437 0.034404
#
#
# Mechanical properties :
#
#
# Convention : Reuss Voigt Hill
#
# Bulk Modulus (GPa) = 52.52429 77.58485 65.05457
# Shear Modulus (GPa) = 23.04273 33.73215 28.38744
#
# Velocity S-wave (km/s) = 3.29155 3.98249 3.65339
# Velocity P-wave (km/s) = 6.25633 7.59118 6.95585
#
# Compressibility (1/GPa) = 0.01903881
#
# Stress axis : x y z
#
# Youngs Moduli (GPa) = 51.79575 84.83434 41.06540
#
# Poissons Ratio (x) = 0.22231 0.44870
# Poissons Ratio (y) = 0.13573 0.19122
# Poissons Ratio (z) = 0.56594 0.39503
#
# Static dielectric constant tensor:
#      x y z
#    x 1.823670 0.042220 0.056260 
#    y 0.042220 1.857140 0.033270 
#    z 0.056260 0.033270 1.773180 
# 
# From -- ./inp_files/447318.got.cif
#   From: 2010.05.17/outbox.cif.g08.bks.cpg/sg2_224_cif.got.tgz:447318.got - 2010.06.03 11:33:40.
