data_PCOD9054019
_publ_section_title
;
Structure prediction by ZEFSAII (Michael W. Deem and Ramdas Pophale) SiO2 
 PCOD9054019
Probable space group: P -1
;
_chemical_formula_sum "Si O2"
_cell_formula_units_Z 14
_cell_length_a 8.591539
_cell_length_b 10.001772
_cell_length_c 11.811931
_cell_angle_alpha 60.780862
_cell_angle_beta 114.892297
_cell_angle_gamma 75.978840
_cell_volume 662.697236
_symmetry_space_group_name_H-M "P -1"
_symmetry_group_IT_number 2
_symmetry_cell_setting 'triclinic'
loop_
_space_group_symop_operation_xyz
x,y,z
-x,-y,-z
loop_
_atom_site_type_symbol
_atom_site_label
_atom_site_fract_x
_atom_site_fract_y
_atom_site_fract_z
Si Si1 0.590878 0.733615 0.480025
Si Si2 0.838929 0.653181 0.799893
Si Si3 0.783816 0.519553 0.407449
Si Si4 0.549858 0.625552 0.074292
Si Si5 0.811344 0.142778 0.543568
Si Si6 0.160566 0.745207 0.828817
Si Si7 0.422211 0.902252 0.709005
O O1 0.764358 0.609074 0.680853
O O2 0.638079 0.611770 0.434285
O O3 0.364435 0.823531 0.432257
O O4 0.627527 0.892445 0.387101
O O5 0.631050 0.791499 0.745511
O O6 0.953006 0.750734 0.763200
O O7 0.000000 0.500000 0.000000
O O8 0.663379 0.640037 0.209484
O O9 0.815113 0.323939 0.474771
O O10 0.000000 0.500000 0.500000
O O11 0.700014 0.420095 0.151316
O O12 0.326466 0.659706 0.018613
O O13 0.482776 0.781642 0.892475
O O14 0.737756 0.112222 0.412276
O O15 0.047987 0.966548 0.704740
#
# Coordination Sequence:
#
# PCOD9054019 Si02
#       7
#     2   2   2   2   2   2   2
#     4  11  24  45  68 103 135 175 219 272 334 398
#     4  11  20  39  72 101 130 166 226 281 325 377
#     4  12  29  47  62  93 144 183 217 264 344 406
#     4  11  26  40  65 101 136 174 216 277 332 397
#     4  11  23  45  73  96 128 180 223 280 327 383
#     4  11  21  42  67 104 126 168 230 274 330 378
#     4  11  22  41  74 102 131 166 230 278 320 391
#
# _framework density 21.125786000000002
#
# number of rings (size 3 to 8) (size 9 to 14) (size 15 to 20)
#    0.000    0.857    4.286    3.857    4.000    1.714 
#    0.000    0.714    0.000    0.000    0.000    0.000 
#    0.000    0.000    0.000    0.000    0.000    0.000 
#
# Total GULP energy -78066.337416 kJ/mol
# GULP energy per Si atom -5576.166958 kJ/mol
# Density = 2.107770 g / cm^3
# Si number density = 21.125786 Si / 1000 Ang^3
#
#
#
# Elastic Constant Matrix: (Units=GPa)
#
#
# Indices 1 2 3 4 5 6 
#
# 1 83.6047 28.1418 36.7184 4.7997 13.3338 0.8748
# 2 28.1418 98.8246 67.5093 4.4256 -1.1950 -0.0777
# 3 36.7184 67.5093 150.8825 13.2971 7.5378 -6.1108
# 4 4.7997 4.4256 13.2971 39.3221 7.1237 -2.7488
# 5 13.3338 -1.1950 7.5378 7.1237 42.1062 -2.7663
# 6 0.8748 -0.0777 -6.1108 -2.7488 -2.7663 33.4466
#
#
#
# Elastic Compliance Matrix: (Units=1/GPa)
#
#
# Indices 1 2 3 4 5 6 
#
# 1 0.014529 -0.002727 -0.002141 -0.000032 -0.004365 -0.001141
# 2 -0.002727 0.015232 -0.006326 0.000278 0.002327 -0.000834
# 3 -0.002141 -0.006326 0.010286 -0.002234 -0.000856 0.001666
# 4 -0.000032 0.000278 -0.002234 0.026996 -0.004053 0.001477
# 5 -0.004365 0.002327 -0.000856 -0.004053 0.026154 0.001793
# 6 -0.001141 -0.000834 0.001666 0.001477 0.001793 0.030500
#
#
# Mechanical properties :
#
#
# Convention : Reuss Voigt Hill
#
# Bulk Modulus (GPa) = 56.62805 66.45010 61.53907
# Shear Modulus (GPa) = 32.90050 36.37112 34.63581
#
# Velocity S-wave (km/s) = 3.95062 4.15377 4.05347
# Velocity P-wave (km/s) = 6.90458 7.38430 7.14847
#
# Compressibility (1/GPa) = 0.01765909
#
# Stress axis : x y z
#
# Youngs Moduli (GPa) = 68.82701 65.65093 97.21704
#
# Poissons Ratio (x) = 0.17904 0.20814
# Poissons Ratio (y) = 0.18770 0.61501
# Poissons Ratio (z) = 0.14736 0.41532
#
# Static dielectric constant tensor:
#      x y z
#    x 1.879720 0.054260 -0.068850 
#    y 0.054260 1.757730 -0.045590 
#    z -0.068850 -0.045590 1.814250 
# 
# From -- ./inp_files/259925.got.cif
#   From: 2010.05.17/outbox.cif.g08.bks.cpg/sg2_130_cif.got.tgz:259925.got - 2010.06.03 11:33:40.
