data_PCOD9054942
_publ_section_title
;
Structure prediction by ZEFSAII (Michael W. Deem and Ramdas Pophale) SiO2 
 PCOD9054942
Probable space group: P -1
;
_chemical_formula_sum "Si O2"
_cell_formula_units_Z 14
_cell_length_a 16.196689
_cell_length_b 8.894754
_cell_length_c 9.762020
_cell_angle_alpha 149.956227
_cell_angle_beta 114.349277
_cell_angle_gamma 71.216924
_cell_volume 639.601642
_symmetry_space_group_name_H-M "P -1"
_symmetry_group_IT_number 2
_symmetry_cell_setting 'triclinic'
loop_
_space_group_symop_operation_xyz
x,y,z
-x,-y,-z
loop_
_atom_site_type_symbol
_atom_site_label
_atom_site_fract_x
_atom_site_fract_y
_atom_site_fract_z
Si Si1 0.973372 0.588066 0.898849
Si Si2 0.873467 0.145442 0.276704
Si Si3 0.560480 0.797568 0.733360
Si Si4 0.729783 0.678122 0.352593
Si Si5 0.677210 0.340853 0.314299
Si Si6 0.146400 0.788246 0.007721
Si Si7 0.459637 0.161593 0.728105
O O1 0.946719 0.318359 0.562536
O O2 0.058160 0.773984 0.030942
O O3 0.000000 0.500000 0.000000
O O4 0.889542 0.795779 0.017690
O O5 0.776678 0.243474 0.338342
O O6 0.880696 0.222647 0.180226
O O7 0.500000 0.500000 0.500000
O O8 0.644584 0.643697 0.597105
O O9 0.499008 0.990988 0.747741
O O10 0.607050 0.051576 0.065410
O O11 0.682467 0.423147 0.220622
O O12 0.649298 0.837327 0.349646
O O13 0.790152 0.914994 0.674331
O O14 0.795282 0.501648 0.160853
O O15 0.500000 0.000000 0.500000
O O16 0.500000 0.500000 0.000000
#
# Coordination Sequence:
#
# PCOD9054942 Si02
#       7
#     2   2   2   2   2   2   2
#     4  12  25  45  66  98 138 172 213 273 349 409
#     4  11  23  43  72  94 125 179 225 273 330 404
#     4  12  24  42  63  97 135 179 223 274 328 405
#     4  11  21  39  67 100 129 171 227 287 322 383
#     4  11  22  42  67  93 130 170 230 274 329 388
#     4  11  23  41  69 100 131 168 230 276 326 401
#     4  12  22  40  67  95 135 177 223 274 342 389
#
# _framework density 21.888625000000001
#
# number of rings (size 3 to 8) (size 9 to 14) (size 15 to 20)
#    0.000    0.571    2.857    7.714    0.000    0.000 
#    7.714    0.000    0.000    0.000    0.000    0.000 
#    0.000    0.000    0.000    0.000    0.000    0.000 
#
# Total GULP energy -78243.190166 kJ/mol
# GULP energy per Si atom -5588.799298 kJ/mol
# Density = 2.183881 g / cm^3
# Si number density = 21.888625 Si / 1000 Ang^3
#
#
#
# Elastic Constant Matrix: (Units=GPa)
#
#
# Indices 1 2 3 4 5 6 
#
# 1 67.5990 41.8764 27.6050 -6.3478 2.1414 -7.4104
# 2 41.8764 109.6097 41.6000 1.3790 -5.7537 -12.6361
# 3 27.6050 41.6000 133.2990 14.9565 9.3385 2.1521
# 4 -6.3478 1.3790 14.9565 32.1680 -12.4066 -3.7900
# 5 2.1414 -5.7537 9.3385 -12.4066 39.5189 16.5471
# 6 -7.4104 -12.6361 2.1521 -3.7900 16.5471 32.1402
#
#
#
# Elastic Compliance Matrix: (Units=1/GPa)
#
#
# Indices 1 2 3 4 5 6 
#
# 1 0.021099 -0.006657 -0.002921 0.005798 -0.001162 0.003725
# 2 -0.006657 0.013242 -0.003009 0.000622 0.001967 0.002934
# 3 -0.002921 -0.003009 0.010160 -0.007006 -0.004426 -0.001084
# 4 0.005798 0.000622 -0.007006 0.041006 0.014561 -0.000611
# 5 -0.001162 0.001967 -0.004426 0.014561 0.038520 -0.017313
# 6 0.003725 0.002934 -0.001084 -0.000611 -0.017313 0.042040
#
#
# Mechanical properties :
#
#
# Convention : Reuss Voigt Hill
#
# Bulk Modulus (GPa) = 51.74120 59.18559 55.46339
# Shear Modulus (GPa) = 25.29301 34.06052 29.67676
#
# Velocity S-wave (km/s) = 3.40300 3.94900 3.68612
# Velocity P-wave (km/s) = 6.25542 6.92033 6.59626
#
# Compressibility (1/GPa) = 0.01932696
#
# Stress axis : x y z
#
# Youngs Moduli (GPa) = 47.39451 75.51676 98.42894
#
# Poissons Ratio (x) = 0.50270 0.28755
# Poissons Ratio (y) = 0.31550 0.29617
# Poissons Ratio (z) = 0.13846 0.22722
#
# Static dielectric constant tensor:
#      x y z
#    x 1.854480 -0.021870 0.020270 
#    y -0.021870 1.513720 0.070310 
#    z 0.020270 0.070310 1.752340 
# 
# From -- ./inp_files/329749.got.cif
#   From: 2010.05.17/outbox.cif.g08.bks.cpg/sg2_165_cif.got.tgz:329749.got - 2010.06.03 11:33:40.
