data_PCOD9054782
_publ_section_title
;
Structure prediction by ZEFSAII (Michael W. Deem and Ramdas Pophale) SiO2 
 PCOD9054782
Probable space group: P -1
;
_chemical_formula_sum "Si O2"
_cell_formula_units_Z 14
_cell_length_a 8.857490
_cell_length_b 9.595356
_cell_length_c 11.622278
_cell_angle_alpha 51.027619
_cell_angle_beta 100.532047
_cell_angle_gamma 113.517648
_cell_volume 700.937021
_symmetry_space_group_name_H-M "P -1"
_symmetry_group_IT_number 2
_symmetry_cell_setting 'triclinic'
loop_
_space_group_symop_operation_xyz
x,y,z
-x,-y,-z
loop_
_atom_site_type_symbol
_atom_site_label
_atom_site_fract_x
_atom_site_fract_y
_atom_site_fract_z
Si Si1 0.884252 0.434779 0.173988
Si Si2 0.227248 0.944615 0.783833
Si Si3 0.854285 0.374366 0.459170
Si Si4 0.358154 0.787982 0.081311
Si Si5 0.442500 0.680501 0.390631
Si Si6 0.081601 0.011274 0.379939
Si Si7 0.228445 0.428041 0.130651
O O1 0.781832 0.215905 0.230049
O O2 0.868543 0.471034 0.285957
O O3 0.070896 0.448470 0.165406
O O4 0.820446 0.561570 0.013884
O O5 0.391510 0.129335 0.689600
O O6 0.226842 0.846593 0.958480
O O7 0.065898 0.995230 0.722359
O O8 0.678987 0.336052 0.512587
O O9 0.869723 0.169589 0.542622
O O10 0.000000 0.500000 0.500000
O O11 0.341340 0.696021 0.253307
O O12 0.379859 0.619634 0.091530
O O13 0.500000 0.000000 0.000000
O O14 0.500000 0.500000 0.500000
O O15 0.226549 0.220545 0.273790
O O16 0.000000 0.000000 0.500000
#
# Coordination Sequence:
#
# PCOD9054782 Si02
#       7
#     2   2   2   2   2   2   2
#     4   9  18  35  56  88 114 163 196 249 297 365
#     4   9  19  39  61  84 124 162 207 246 307 369
#     4  12  24  38  59  94 130 156 209 260 305 368
#     4   9  19  37  61  89 120 168 207 244 304 373
#     4  11  24  38  60  89 123 170 202 254 318 355
#     4  11  21  38  64  96 119 158 208 257 307 365
#     4   9  17  34  63  82 121 160 205 242 307 360
#
# _framework density 19.973264
#
# number of rings (size 3 to 8) (size 9 to 14) (size 15 to 20)
#    0.000    2.000    2.857    2.571    2.000    0.571 
#    0.000    7.143    0.000    6.000    0.000    0.000 
#    0.000    0.000    0.000    0.000    0.000    0.000 
#
# Total GULP energy -78015.095328 kJ/mol
# GULP energy per Si atom -5572.506809 kJ/mol
# Density = 1.992780 g / cm^3
# Si number density = 19.973264 Si / 1000 Ang^3
#
#
#
# Elastic Constant Matrix: (Units=GPa)
#
#
# Indices 1 2 3 4 5 6 
#
# 1 54.1113 29.2666 31.1846 -3.0910 -0.7978 -13.3220
# 2 29.2666 107.2558 55.2479 -10.7608 -4.9739 2.7470
# 3 31.1846 55.2479 141.6814 9.4671 -3.8093 -14.1342
# 4 -3.0910 -10.7608 9.4671 52.0000 0.7227 -2.7874
# 5 -0.7978 -4.9739 -3.8093 0.7227 18.9711 -2.4639
# 6 -13.3220 2.7470 -14.1342 -2.7874 -2.4639 32.6052
#
#
#
# Elastic Compliance Matrix: (Units=1/GPa)
#
#
# Indices 1 2 3 4 5 6 
#
# 1 0.025589 -0.005843 -0.002431 0.001288 0.000309 0.010027
# 2 -0.005843 0.013932 -0.004836 0.003111 0.001633 -0.005268
# 3 -0.002431 -0.004836 0.010061 -0.002800 0.001228 0.003629
# 4 0.001288 0.003111 -0.002800 0.020508 -0.000373 0.000775
# 5 0.000309 0.001633 0.001228 -0.000373 0.054007 0.004570
# 6 0.010027 -0.005268 0.003629 0.000775 0.004570 0.037196
#
#
# Mechanical properties :
#
#
# Convention : Reuss Voigt Hill
#
# Bulk Modulus (GPa) = 42.80690 59.38296 51.09493
# Shear Modulus (GPa) = 25.60168 33.20521 29.40344
#
# Velocity S-wave (km/s) = 3.58410 4.08178 3.84101
# Velocity P-wave (km/s) = 6.21340 7.21182 6.73115
#
# Compressibility (1/GPa) = 0.02336072
#
# Stress axis : x y z
#
# Youngs Moduli (GPa) = 39.07993 71.77811 99.39314
#
# Poissons Ratio (x) = 0.41943 0.24162
# Poissons Ratio (y) = 0.22836 0.48067
# Poissons Ratio (z) = 0.09500 0.34712
#
# Static dielectric constant tensor:
#      x y z
#    x 1.694870 0.065420 -0.001130 
#    y 0.065420 1.768160 -0.011110 
#    z -0.001130 -0.011110 1.755720 
# 
# From -- ./inp_files/204750.got.cif
#   From: 2010.05.17/outbox.cif.g08.bks.cpg/sg2_103_cif.got.tgz:204750.got - 2010.06.03 11:33:40.
