data_PCOD9054687
_publ_section_title
;
Structure prediction by ZEFSAII (Michael W. Deem and Ramdas Pophale) SiO2 
 PCOD9054687
Probable space group: P -1
;
_chemical_formula_sum "Si O2"
_cell_formula_units_Z 15
_cell_length_a 8.599944
_cell_length_b 13.248722
_cell_length_c 11.007285
_cell_angle_alpha 122.379126
_cell_angle_beta 117.902911
_cell_angle_gamma 108.117241
_cell_volume 616.528466
_symmetry_space_group_name_H-M "P -1"
_symmetry_group_IT_number 2
_symmetry_cell_setting 'triclinic'
loop_
_space_group_symop_operation_xyz
x,y,z
-x,-y,-z
loop_
_atom_site_type_symbol
_atom_site_label
_atom_site_fract_x
_atom_site_fract_y
_atom_site_fract_z
Si Si1 0.065277 0.395667 0.945974
Si Si2 0.398080 0.823039 0.798712
Si Si3 0.000000 0.000000 0.500000
Si Si4 0.790168 0.652978 0.816087
Si Si5 0.949921 0.688024 0.372390
Si Si6 0.468154 0.309420 0.057981
Si Si7 0.354290 0.234111 0.329833
Si Si8 0.672397 0.778971 0.410354
O O1 0.950836 0.286738 0.709624
O O2 0.995725 0.288534 0.973610
O O3 0.389789 0.568606 0.168040
O O4 0.000000 0.500000 0.000000
O O5 0.391979 0.732429 0.854336
O O6 0.578625 0.843736 0.779874
O O7 0.131792 0.723411 0.564959
O O8 0.500000 0.000000 0.000000
O O9 0.722030 0.906038 0.413643
O O10 0.803364 0.854526 0.217797
O O11 0.596085 0.634347 0.817526
O O12 0.625638 0.454365 0.579196
O O13 0.854507 0.778744 0.814157
O O14 0.669400 0.478700 0.151477
O O15 0.896163 0.803061 0.444564
O O16 0.274149 0.165770 0.394675
#
# Coordination Sequence:
#
# PCOD9054687 Si02
#       8
#     2   2   1   2   2   2   2   2
#     4  11  21  37  66 104 135 171 228 295 341 407
#     4  11  25  43  65 102 144 177 221 293 362 413
#     4  12  24  40  66 100 148 178 224 282 344 414
#     4   9  18  37  66 101 127 169 235 281 337 403
#     4  12  21  41  70  97 131 184 241 283 335 416
#     4  11  22  42  69  98 133 187 235 280 337 412
#     4   9  19  40  69  92 136 174 230 284 341 414
#     4  11  22  41  68 102 135 184 234 283 349 410
#
# _framework density 24.329778000000001
#
# number of rings (size 3 to 8) (size 9 to 14) (size 15 to 20)
#    0.000    1.333    4.000    4.000    0.000    0.000 
#    2.400    6.000    2.933    4.800    0.000    0.000 
#    0.000    0.000    0.000    0.000    0.000    0.000 
#
# Total GULP energy -83641.677528 kJ/mol
# GULP energy per Si atom -5576.111835 kJ/mol
# Density = 2.427440 g / cm^3
# Si number density = 24.329778 Si / 1000 Ang^3
#
#
#
# Elastic Constant Matrix: (Units=GPa)
#
#
# Indices 1 2 3 4 5 6 
#
# 1 78.8248 37.5822 24.3498 -1.5938 -35.3653 -18.3979
# 2 37.5822 74.0804 20.9752 -13.2318 -18.4861 -4.9550
# 3 24.3498 20.9752 117.5387 -2.5451 -17.0149 -4.5234
# 4 -1.5938 -13.2318 -2.5451 45.7300 0.6425 -3.9377
# 5 -35.3653 -18.4861 -17.0149 0.6425 44.4881 -6.5207
# 6 -18.3979 -4.9550 -4.5234 -3.9377 -6.5207 48.0264
#
#
#
# Elastic Compliance Matrix: (Units=1/GPa)
#
#
# Indices 1 2 3 4 5 6 
#
# 1 0.030131 -0.008756 -0.001004 -0.000688 0.021914 0.013464
# 2 -0.008756 0.019269 -0.001521 0.005091 0.000236 -0.001060
# 3 -0.001004 -0.001521 0.009337 0.000069 0.002235 0.000647
# 4 -0.000688 0.005091 0.000069 0.023506 0.001609 0.002414
# 5 0.021914 0.000236 0.002235 0.001609 0.042966 0.014595
# 6 0.013464 -0.001060 0.000647 0.002414 0.014595 0.028111
#
#
# Mechanical properties :
#
#
# Convention : Reuss Voigt Hill
#
# Bulk Modulus (GPa) = 27.64332 48.47314 38.05823
# Shear Modulus (GPa) = 26.60415 40.15135 33.37775
#
# Velocity S-wave (km/s) = 3.31037 4.06679 3.70792
# Velocity P-wave (km/s) = 5.09882 6.48216 5.83165
#
# Compressibility (1/GPa) = 0.03617511
#
# Stress axis : x y z
#
# Youngs Moduli (GPa) = 33.18796 51.89749 107.09874
#
# Poissons Ratio (x) = 0.45440 0.10755
# Poissons Ratio (y) = 0.29059 0.16291
# Poissons Ratio (z) = 0.03333 0.07894
#
# Static dielectric constant tensor:
#      x y z
#    x 1.932420 -0.072120 0.004000 
#    y -0.072120 0.931640 -0.461750 
#    z 0.004000 -0.461750 1.888280 
# 
# From -- ./inp_files/397845.got.cif
#   From: 2010.05.17/outbox.cif.g08.bks.cpg/sg2_199_cif.got.tgz:397845.got - 2010.06.03 11:33:40.
