data_PCOD9054280
_publ_section_title
;
Structure prediction by ZEFSAII (Michael W. Deem and Ramdas Pophale) SiO2 
 PCOD9054280
Probable space group: P -1
;
_chemical_formula_sum "Si O2"
_cell_formula_units_Z 12
_cell_length_a 10.257485
_cell_length_b 14.788851
_cell_length_c 5.600630
_cell_angle_alpha 119.630780
_cell_angle_beta 57.059216
_cell_angle_gamma 127.065868
_cell_volume 551.039378
_symmetry_space_group_name_H-M "P -1"
_symmetry_group_IT_number 2
_symmetry_cell_setting 'triclinic'
loop_
_space_group_symop_operation_xyz
x,y,z
-x,-y,-z
loop_
_atom_site_type_symbol
_atom_site_label
_atom_site_fract_x
_atom_site_fract_y
_atom_site_fract_z
Si Si1 0.819366 0.416096 0.195702
Si Si2 0.830212 0.016809 0.752451
Si Si3 0.309897 0.704748 0.257462
Si Si4 0.952618 0.268663 0.177852
Si Si5 0.303416 0.474477 0.181328
Si Si6 0.620765 0.936650 0.353263
O O1 0.883132 0.354333 0.247233
O O2 0.740025 0.498132 0.475948
O O3 0.675506 0.307173 0.054310
O O4 0.000000 0.500000 0.000000
O O5 0.262585 0.044490 0.980850
O O6 0.716187 0.979239 0.571022
O O7 0.893338 0.152416 0.935231
O O8 0.000000 0.000000 0.500000
O O9 0.157851 0.747068 0.489527
O O10 0.276469 0.573252 0.188848
O O11 0.483695 0.799636 0.329221
O O12 0.159521 0.344101 0.092719
O O13 0.500000 0.500000 0.000000
O O14 0.500000 0.000000 0.500000
#
# Coordination Sequence:
#
# PCOD9054280 Si02
#       6
#     2   2   2   2   2   2
#     4  11  20  42  67  97 128 179 233 272 349 424
#     4  12  29  49  72 108 148 190 236 302 366 417
#     4  11  23  42  71  98 135 181 232 288 339 429
#     4  11  23  43  70  94 138 183 230 286 351 422
#     4  11  25  40  64 105 137 172 223 290 357 412
#     4  12  26  48  75 107 139 192 250 290 346 432
#
# _framework density 21.777027
#
# number of rings (size 3 to 8) (size 9 to 14) (size 15 to 20)
#    0.000    0.667    5.000    3.000    7.000    0.667 
#    3.000    0.000    0.000    0.000    0.000    0.000 
#    0.000    0.000    0.000    0.000    0.000    0.000 
#
# Total GULP energy -66835.722887 kJ/mol
# GULP energy per Si atom -5569.643574 kJ/mol
# Density = 2.172746 g / cm^3
# Si number density = 21.777027 Si / 1000 Ang^3
#
#
#
# Elastic Constant Matrix: (Units=GPa)
#
#
# Indices 1 2 3 4 5 6 
#
# 1 103.0055 28.3578 48.0530 11.9691 8.4247 39.4134
# 2 28.3578 83.8755 29.5090 10.7752 7.9960 38.7706
# 3 48.0530 29.5090 124.4180 -4.2020 -3.8299 26.1744
# 4 11.9691 10.7752 -4.2020 29.3506 10.6248 7.7309
# 5 8.4247 7.9960 -3.8299 10.6248 42.8955 6.7558
# 6 39.4134 38.7706 26.1744 7.7309 6.7558 41.2593
#
#
#
# Elastic Compliance Matrix: (Units=1/GPa)
#
#
# Indices 1 2 3 4 5 6 
#
# 1 0.017753 0.004075 -0.004432 -0.004598 -0.000829 -0.016979
# 2 0.004075 0.022378 -0.002277 -0.004022 -0.000616 -0.022622
# 3 -0.004432 -0.002277 0.010779 0.004033 0.001489 -0.001464
# 4 -0.004598 -0.004022 0.004033 0.041117 -0.008050 -0.000774
# 5 -0.000829 -0.000616 0.001489 -0.008050 0.026085 -0.002336
# 6 -0.016979 -0.022622 -0.001464 -0.000774 -0.002336 0.063171
#
#
# Mechanical properties :
#
#
# Convention : Reuss Voigt Hill
#
# Bulk Modulus (GPa) = 21.90946 58.12652 40.01799
# Shear Modulus (GPa) = 24.78140 36.39303 30.58721
#
# Velocity S-wave (km/s) = 3.37703 4.09242 3.75182
# Velocity P-wave (km/s) = 5.02876 7.00573 6.09789
#
# Compressibility (1/GPa) = 0.04564239
#
# Stress axis : x y z
#
# Youngs Moduli (GPa) = 56.32974 44.68686 92.77029
#
# Poissons Ratio (x) = -0.18211 0.41114
# Poissons Ratio (y) = -0.22956 0.21125
# Poissons Ratio (z) = 0.24964 0.10176
#
# Static dielectric constant tensor:
#      x y z
#    x 1.693760 -0.247320 0.402800 
#    y -0.247320 1.370780 0.465220 
#    z 0.402800 0.465220 1.300590 
# 
# From -- ./inp_files/36487.got.cif
#   From: 2010.05.17/outbox.cif.g08.bks.cpg/sg2_19_cif.got.tgz:36487.got - 2010.06.03 11:33:40.
