data_PCOD9054487
_publ_section_title
;
Structure prediction by ZEFSAII (Michael W. Deem and Ramdas Pophale) SiO2 
 PCOD9054487
Probable space group: P -1
;
_chemical_formula_sum "Si O2"
_cell_formula_units_Z 14
_cell_length_a 14.455395
_cell_length_b 11.119252
_cell_length_c 7.220408
_cell_angle_alpha 59.084508
_cell_angle_beta 31.084813
_cell_angle_gamma 59.994673
_cell_volume 509.321626
_symmetry_space_group_name_H-M "P -1"
_symmetry_group_IT_number 2
_symmetry_cell_setting 'triclinic'
loop_
_space_group_symop_operation_xyz
x,y,z
-x,-y,-z
loop_
_atom_site_type_symbol
_atom_site_label
_atom_site_fract_x
_atom_site_fract_y
_atom_site_fract_z
Si Si1 0.002534 0.548325 0.238949
Si Si2 0.374318 0.224516 0.821163
Si Si3 0.359372 0.263862 0.245788
Si Si4 0.498536 0.526568 0.703718
Si Si5 0.708293 0.067716 0.864086
Si Si6 0.867936 0.280625 0.687315
Si Si7 0.210832 0.791281 0.750428
O O1 0.827287 0.662980 0.408231
O O2 0.987123 0.392618 0.303965
O O3 0.000000 0.500000 0.500000
O O4 0.168239 0.639724 0.857093
O O5 0.363481 0.361661 0.602059
O O6 0.591935 0.193506 0.511389
O O7 0.312443 0.250268 0.118668
O O8 0.284013 0.098542 0.989611
O O9 0.502061 0.378713 0.915157
O O10 0.490903 0.125512 0.192620
O O11 0.500000 0.500000 0.500000
O O12 0.307302 0.609226 0.036046
O O13 0.809571 0.159030 0.756876
O O14 0.793302 0.098912 0.494928
O O15 0.922391 0.200624 0.851995
#
# Coordination Sequence:
#
# PCOD9054487 Si02
#       7
#     2   2   2   2   2   2   2
#     4   9  18  34  55  80 108 145 187 227 271 323
#     4   9  18  34  53  81 113 142 179 225 277 327
#     4   9  17  32  55  81 107 143 188 228 271 321
#     4   8  15  29  50  74 104 138 176 217 260 313
#     4  11  21  34  56  85 115 141 178 230 277 330
#     4   9  19  33  54  81 110 142 181 226 278 323
#     4   9  18  34  54  75 107 147 180 218 270 323
#
# _framework density 27.487544
#
# number of rings (size 3 to 8) (size 9 to 14) (size 15 to 20)
#    0.000    2.857    0.000    3.429    0.000    6.286 
#    0.000    2.857    0.000   17.143    0.000    0.000 
#    0.000    1.143    0.000    0.000    0.000    0.000 
#
# Total GULP energy -78151.807624 kJ/mol
# GULP energy per Si atom -5582.271973 kJ/mol
# Density = 2.742498 g / cm^3
# Si number density = 27.487544 Si / 1000 Ang^3
#
#
#
# Elastic Constant Matrix: (Units=GPa)
#
#
# Indices 1 2 3 4 5 6 
#
# 1 77.1974 20.9642 20.8411 6.9017 -9.5678 16.3411
# 2 20.9642 122.2299 48.4921 -39.6039 -20.1728 11.2225
# 3 20.8411 48.4921 151.6849 -10.8304 -34.4034 1.9279
# 4 6.9017 -39.6039 -10.8304 42.7652 4.9166 -14.1627
# 5 -9.5678 -20.1728 -34.4034 4.9166 33.1747 -10.1957
# 6 16.3411 11.2225 1.9279 -14.1627 -10.1957 24.4605
#
#
#
# Elastic Compliance Matrix: (Units=1/GPa)
#
#
# Indices 1 2 3 4 5 6 
#
# 1 0.021671 -0.007182 -0.003012 -0.018153 -0.005900 -0.023915
# 2 -0.007182 0.016135 -0.001401 0.018659 0.006968 0.011214
# 3 -0.003012 -0.001401 0.010004 0.003200 0.010693 0.008177
# 4 -0.018153 0.018659 0.003200 0.056693 0.013918 0.041941
# 5 -0.005900 0.006968 0.010693 0.013918 0.050638 0.029068
# 6 -0.023915 0.011214 0.008177 0.041941 0.029068 0.087470
#
#
# Mechanical properties :
#
#
# Convention : Reuss Voigt Hill
#
# Bulk Modulus (GPa) = 40.61652 59.07855 49.84753
# Shear Modulus (GPa) = 18.24757 37.46774 27.85766
#
# Velocity S-wave (km/s) = 2.57932 3.69600 3.18695
# Velocity P-wave (km/s) = 4.86610 6.30503 5.63171
#
# Compressibility (1/GPa) = 0.02462053
#
# Stress axis : x y z
#
# Youngs Moduli (GPa) = 46.14400 61.97611 99.95780
#
# Poissons Ratio (x) = 0.44509 0.30107
# Poissons Ratio (y) = 0.33139 0.14008
# Poissons Ratio (z) = 0.13899 0.08685
#
# Static dielectric constant tensor:
#      x y z
#    x 2.210700 0.023380 -0.007310 
#    y 0.023380 2.256250 0.051090 
#    z -0.007310 0.051090 2.181850 
# 
# From -- ./inp_files/330721.got.cif
#   From: 2010.05.17/outbox.cif.g08.bks.cpg/sg2_166_cif.got.tgz:330721.got - 2010.06.03 11:33:40.
