data_PCOD9054713
_publ_section_title
;
Structure prediction by ZEFSAII (Michael W. Deem and Ramdas Pophale) SiO2 
 PCOD9054713
Probable space group: P -1
;
_chemical_formula_sum "Si O2"
_cell_formula_units_Z 14
_cell_length_a 17.613099
_cell_length_b 11.659661
_cell_length_c 9.706332
_cell_angle_alpha 130.134152
_cell_angle_beta 38.928347
_cell_angle_gamma 150.099205
_cell_volume 621.537567
_symmetry_space_group_name_H-M "P -1"
_symmetry_group_IT_number 2
_symmetry_cell_setting 'triclinic'
loop_
_space_group_symop_operation_xyz
x,y,z
-x,-y,-z
loop_
_atom_site_type_symbol
_atom_site_label
_atom_site_fract_x
_atom_site_fract_y
_atom_site_fract_z
Si Si1 0.310417 0.840950 0.226165
Si Si2 0.927112 0.582762 0.939844
Si Si3 0.448483 0.709463 0.106226
Si Si4 0.877529 0.104734 0.841825
Si Si5 0.866698 0.744525 0.659678
Si Si6 0.361613 0.448171 0.759337
Si Si7 0.865099 0.055245 0.311726
O O1 0.143576 0.636705 0.200475
O O2 0.327365 0.737345 0.246524
O O3 0.284150 0.982127 0.428084
O O4 0.500000 0.000000 0.000000
O O5 0.069756 0.791590 0.793174
O O6 0.747163 0.521054 0.138801
O O7 0.016381 0.683266 0.040386
O O8 0.337112 0.523619 0.243717
O O9 0.663602 0.955236 0.013870
O O10 0.451634 0.597851 0.886008
O O11 0.860556 0.918362 0.782089
O O12 0.003985 0.200552 0.601605
O O13 0.968474 0.807273 0.708657
O O14 0.500000 0.500000 0.500000
O O15 0.215485 0.180817 0.795838
#
# Coordination Sequence:
#
# PCOD9054713 Si02
#       7
#     2   2   2   2   2   2   2
#     4  11  24  44  69  96 129 175 227 274 325 396
#     4  11  23  42  67  97 128 172 224 270 330 386
#     4  11  24  44  66  99 136 175 219 269 336 397
#     4  11  24  42  65 103 135 171 215 278 334 391
#     4  11  22  40  69  95 139 172 214 272 340 386
#     4  11  21  37  68  99 128 166 222 276 318 387
#     4  12  21  42  70  95 129 174 223 272 325 394
#
# _framework density 22.524782999999999
#
# number of rings (size 3 to 8) (size 9 to 14) (size 15 to 20)
#    0.000    0.857    4.286    5.571    2.000    0.000 
#    2.571    3.571    0.000    0.000    0.000    0.000 
#    0.000    0.000    0.000    0.000    0.000    0.000 
#
# Total GULP energy -78362.192433 kJ/mol
# GULP energy per Si atom -5597.299459 kJ/mol
# Density = 2.247352 g / cm^3
# Si number density = 22.524783 Si / 1000 Ang^3
#
#
#
# Elastic Constant Matrix: (Units=GPa)
#
#
# Indices 1 2 3 4 5 6 
#
# 1 49.9623 31.8513 32.0034 13.4636 0.1877 3.1343
# 2 31.8513 85.7370 14.2275 -1.9432 11.8837 9.5853
# 3 32.0034 14.2275 96.6085 -10.1344 1.6705 8.4928
# 4 13.4636 -1.9432 -10.1344 44.0230 -3.6557 2.5721
# 5 0.1877 11.8837 1.6705 -3.6557 31.3243 2.2035
# 6 3.1343 9.5853 8.4928 2.5721 2.2035 37.4980
#
#
#
# Elastic Compliance Matrix: (Units=1/GPa)
#
#
# Indices 1 2 3 4 5 6 
#
# 1 0.043079 -0.015055 -0.014301 -0.017065 0.003913 0.004427
# 2 -0.015055 0.018123 0.003414 0.005939 -0.005979 -0.004204
# 3 -0.014301 0.003414 0.015804 0.008316 -0.000816 -0.003779
# 4 -0.017065 0.005939 0.008316 0.030457 0.001251 -0.004138
# 5 0.003913 -0.005979 -0.000816 0.001251 0.034409 -0.000722
# 6 0.004427 -0.004204 -0.003779 -0.004138 -0.000722 0.028555
#
#
# Mechanical properties :
#
#
# Convention : Reuss Voigt Hill
#
# Bulk Modulus (GPa) = 39.80284 43.16359 41.48321
# Shear Modulus (GPa) = 21.67455 32.85076 27.26265
#
# Velocity S-wave (km/s) = 3.10539 3.82308 3.48277
# Velocity P-wave (km/s) = 5.52874 6.22031 5.88469
#
# Compressibility (1/GPa) = 0.02512384
#
# Stress axis : x y z
#
# Youngs Moduli (GPa) = 23.21292 55.17798 63.27372
#
# Poissons Ratio (x) = 0.83070 0.90487
# Poissons Ratio (y) = 0.34947 -0.21603
# Poissons Ratio (z) = 0.33196 -0.18839
#
# Static dielectric constant tensor:
#      x y z
#    x 1.847590 -0.014330 -0.022890 
#    y -0.014330 1.847000 -0.046220 
#    z -0.022890 -0.046220 1.881290 
# 
# From -- ./inp_files/156790.got.cif
#   From: 2010.05.17/outbox.cif.g08.bks.cpg/sg2_79_cif.got.tgz:156790.got - 2010.06.03 11:33:40.
