data_PCOD9054301
_publ_section_title
;
Structure prediction by ZEFSAII (Michael W. Deem and Ramdas Pophale) SiO2 
 PCOD9054301
Probable space group: P -1
;
_chemical_formula_sum "Si O2"
_cell_formula_units_Z 12
_cell_length_a 9.226798
_cell_length_b 8.693267
_cell_length_c 14.194128
_cell_angle_alpha 86.997442
_cell_angle_beta 30.705520
_cell_angle_gamma 91.894117
_cell_volume 573.714377
_symmetry_space_group_name_H-M "P -1"
_symmetry_group_IT_number 2
_symmetry_cell_setting 'triclinic'
loop_
_space_group_symop_operation_xyz
x,y,z
-x,-y,-z
loop_
_atom_site_type_symbol
_atom_site_label
_atom_site_fract_x
_atom_site_fract_y
_atom_site_fract_z
Si Si1 0.115801 0.632105 0.857619
Si Si2 0.137444 0.848037 0.455432
Si Si3 0.197307 0.084987 0.969285
Si Si4 0.748336 0.676353 0.530998
Si Si5 0.710219 0.345230 0.458945
Si Si6 0.239231 0.105582 0.652720
O O1 0.421344 0.703488 0.730594
O O2 0.185189 0.610560 0.707998
O O3 0.000000 0.500000 0.000000
O O4 0.881859 0.744487 0.982875
O O5 0.469003 0.896916 0.239348
O O6 0.131317 0.778297 0.567411
O O7 0.963843 0.708484 0.495477
O O8 0.000000 0.000000 0.500000
O O9 0.000000 0.000000 0.000000
O O10 0.051060 0.990766 0.143003
O O11 0.726954 0.503825 0.503973
O O12 0.841600 0.810914 0.398561
O O13 0.388297 0.249688 0.629883
O O14 0.500000 0.000000 0.500000
#
# Coordination Sequence:
#
# PCOD9054301 Si02
#       6
#     2   2   2   2   2   2
#     4  11  24  43  70 101 129 176 231 272 328 408
#     4  12  26  46  67  97 139 178 222 284 339 390
#     4  12  24  40  72  99 130 174 234 272 327 409
#     4  11  24  43  69  97 141 174 217 280 343 389
#     4  11  23  44  69  95 139 176 220 275 340 394
#     4  11  20  42  70 100 132 174 225 278 328 400
#
# _framework density 20.916332000000001
#
# number of rings (size 3 to 8) (size 9 to 14) (size 15 to 20)
#    0.000    0.667    5.000    5.500    2.333    0.667 
#    0.000    1.667    0.000    0.000    0.000    0.000 
#    0.000    0.000    0.000    0.000    0.000    0.000 
#
# Total GULP energy -66955.893319 kJ/mol
# GULP energy per Si atom -5579.657777 kJ/mol
# Density = 2.086873 g / cm^3
# Si number density = 20.916332 Si / 1000 Ang^3
#
#
#
# Elastic Constant Matrix: (Units=GPa)
#
#
# Indices 1 2 3 4 5 6 
#
# 1 127.2437 27.1074 50.6184 -17.5592 -3.4422 -7.0485
# 2 27.1074 101.6370 40.8781 -7.7851 2.9867 -13.0552
# 3 50.6184 40.8781 144.3724 -12.2184 -0.5392 -16.5783
# 4 -17.5592 -7.7851 -12.2184 34.8078 -18.9966 6.3277
# 5 -3.4422 2.9867 -0.5392 -18.9966 33.7098 -15.7764
# 6 -7.0485 -13.0552 -16.5783 6.3277 -15.7764 44.9050
#
#
#
# Elastic Compliance Matrix: (Units=1/GPa)
#
#
# Indices 1 2 3 4 5 6 
#
# 1 0.010286 -0.001201 -0.002511 0.006855 0.005608 0.001343
# 2 -0.001201 0.011511 -0.002506 0.000879 0.000359 0.002235
# 3 -0.002511 -0.002506 0.009054 0.002342 0.002770 0.002863
# 4 0.006855 0.000879 0.002342 0.049141 0.031283 0.006262
# 5 0.005608 0.000359 0.002770 0.031283 0.055956 0.017258
# 6 0.001343 0.002235 0.002863 0.006262 0.017258 0.029368
#
#
# Mechanical properties :
#
#
# Convention : Reuss Voigt Hill
#
# Bulk Modulus (GPa) = 54.30253 67.82898 61.06576
# Shear Modulus (GPa) = 27.19043 39.66112 33.42577
#
# Velocity S-wave (km/s) = 3.60941 4.35924 4.00192
# Velocity P-wave (km/s) = 6.58700 7.60502 7.11425
#
# Compressibility (1/GPa) = 0.01841535
#
# Stress axis : x y z
#
# Youngs Moduli (GPa) = 97.22219 86.87429 110.45056
#
# Poissons Ratio (x) = 0.10430 0.27734
# Poissons Ratio (y) = 0.11672 0.27678
# Poissons Ratio (z) = 0.24413 0.21770
#
# Static dielectric constant tensor:
#      x y z
#    x 1.851100 0.050180 0.148640 
#    y 0.050180 1.828820 0.028680 
#    z 0.148640 0.028680 1.958590 
# 
# From -- ./inp_files/145148.got.cif
#   From: 2010.05.17/outbox.cif.g08.bks.cpg/sg2_73_cif.got.tgz:145148.got - 2010.06.03 11:33:40.
