data_PCOD9054375
_publ_section_title
;
Structure prediction by ZEFSAII (Michael W. Deem and Ramdas Pophale) SiO2 
 PCOD9054375
Probable space group: P -1
;
_chemical_formula_sum "Si O2"
_cell_formula_units_Z 14
_cell_length_a 7.705970
_cell_length_b 12.147643
_cell_length_c 8.455564
_cell_angle_alpha 120.148212
_cell_angle_beta 124.857927
_cell_angle_gamma 78.901639
_cell_volume 556.631534
_symmetry_space_group_name_H-M "P -1"
_symmetry_group_IT_number 2
_symmetry_cell_setting 'triclinic'
loop_
_space_group_symop_operation_xyz
x,y,z
-x,-y,-z
loop_
_atom_site_type_symbol
_atom_site_label
_atom_site_fract_x
_atom_site_fract_y
_atom_site_fract_z
Si Si1 0.903612 0.253107 0.058501
Si Si2 0.534323 0.141014 0.029747
Si Si3 0.125642 0.124927 0.583872
Si Si4 0.286832 0.219828 0.444326
Si Si5 0.786439 0.257569 0.653923
Si Si6 0.277445 0.490243 0.779819
Si Si7 0.340221 0.593518 0.539032
O O1 0.734574 0.170402 0.030899
O O2 0.850841 0.401262 0.134591
O O3 0.134848 0.234319 0.229430
O O4 0.887644 0.221226 0.843350
O O5 0.565182 0.260631 0.254926
O O6 0.331693 0.159342 0.827316
O O7 0.500000 0.000000 0.000000
O O8 0.203624 0.103022 0.431089
O O9 0.930935 0.207177 0.556863
O O10 0.000000 0.000000 0.500000
O O11 0.532909 0.221348 0.530919
O O12 0.242754 0.336787 0.623941
O O13 0.795722 0.399515 0.687060
O O14 0.259333 0.535424 0.620949
O O15 0.500000 0.500000 0.000000
O O16 0.500000 0.500000 0.500000
#
# Coordination Sequence:
#
# PCOD9054375 Si02
#       7
#     2   2   2   2   2   2   2
#     4  11  24  45  71 107 144 198 246 300 381 439
#     4  11  24  49  76 105 152 199 248 309 376 448
#     4  12  27  50  73 106 148 199 251 314 374 446
#     4  12  24  47  73 102 150 192 242 309 375 441
#     4  12  26  46  73 108 145 190 251 302 376 443
#     4  11  20  43  71 103 152 195 240 310 372 442
#     4  11  22  42  72 111 150 189 247 309 364 444
#
# _framework density 25.151287
#
# number of rings (size 3 to 8) (size 9 to 14) (size 15 to 20)
#    0.000    0.571    4.286    4.714    2.000    0.571 
#    2.571    3.571    0.000    0.000    0.000    0.000 
#    0.000    0.000    0.000    0.000    0.000    0.000 
#
# Total GULP energy -78014.378384 kJ/mol
# GULP energy per Si atom -5572.455599 kJ/mol
# Density = 2.509404 g / cm^3
# Si number density = 25.151287 Si / 1000 Ang^3
#
#
#
# Elastic Constant Matrix: (Units=GPa)
#
#
# Indices 1 2 3 4 5 6 
#
# 1 144.8881 22.4784 35.3086 -15.2892 13.2638 12.0656
# 2 22.4784 82.8329 31.2070 -27.8772 12.3351 1.5839
# 3 35.3086 31.2070 113.6001 -41.8431 20.8208 1.8712
# 4 -15.2892 -27.8772 -41.8431 52.0187 -7.9258 3.8673
# 5 13.2638 12.3351 20.8208 -7.9258 39.6524 -15.0200
# 6 12.0656 1.5839 1.8712 3.8673 -15.0200 41.5571
#
#
#
# Elastic Compliance Matrix: (Units=1/GPa)
#
#
# Indices 1 2 3 4 5 6 
#
# 1 0.007984 -0.000989 -0.001497 0.000439 -0.002715 -0.003235
# 2 -0.000989 0.015569 -0.000636 0.007160 -0.003597 -0.002244
# 3 -0.001497 -0.000636 0.014311 0.010054 -0.006061 -0.003312
# 4 0.000439 0.007160 0.010054 0.031142 -0.003302 -0.004944
# 5 -0.002715 -0.003597 -0.006061 -0.003302 0.035151 0.014210
# 6 -0.003235 -0.002244 -0.003312 -0.004944 0.014210 0.030833
#
#
# Mechanical properties :
#
#
# Convention : Reuss Voigt Hill
#
# Bulk Modulus (GPa) = 31.62513 57.70102 44.66308
# Shear Modulus (GPa) = 32.94343 43.46747 38.20545
#
# Velocity S-wave (km/s) = 3.62306 4.16172 3.90170
# Velocity P-wave (km/s) = 5.48665 6.78856 6.17203
#
# Compressibility (1/GPa) = 0.03162042
#
# Stress axis : x y z
#
# Youngs Moduli (GPa) = 125.24341 64.23160 69.87395
#
# Poissons Ratio (x) = 0.06350 0.10463
# Poissons Ratio (y) = 0.12382 0.04444
# Poissons Ratio (z) = 0.18755 0.04085
#
# Static dielectric constant tensor:
#      x y z
#    x 1.983140 0.070830 -0.014900 
#    y 0.070830 2.018870 0.118730 
#    z -0.014900 0.118730 2.199960 
# 
# From -- ./inp_files/190483.got.cif
#   From: 2010.05.17/outbox.cif.g08.bks.cpg/sg2_96_cif.got.tgz:190483.got - 2010.06.03 11:33:40.
