data_PCOD9054558
_publ_section_title
;
Structure prediction by ZEFSAII (Michael W. Deem and Ramdas Pophale) SiO2 
 PCOD9054558
Probable space group: P -1
;
_chemical_formula_sum "Si O2"
_cell_formula_units_Z 16
_cell_length_a 9.384388
_cell_length_b 11.028615
_cell_length_c 9.672955
_cell_angle_alpha 112.572402
_cell_angle_beta 59.520059
_cell_angle_gamma 94.231900
_cell_volume 787.430183
_symmetry_space_group_name_H-M "P -1"
_symmetry_group_IT_number 2
_symmetry_cell_setting 'triclinic'
loop_
_space_group_symop_operation_xyz
x,y,z
-x,-y,-z
loop_
_atom_site_type_symbol
_atom_site_label
_atom_site_fract_x
_atom_site_fract_y
_atom_site_fract_z
Si Si1 0.502486 0.723917 0.861741
Si Si2 0.287457 0.168993 0.961812
Si Si3 0.197736 0.593906 0.077238
Si Si4 0.315568 0.872411 0.766477
Si Si5 0.719615 0.443980 0.660516
Si Si6 0.068655 0.662350 0.734532
Si Si7 0.160882 0.403024 0.764554
Si Si8 0.470963 0.235102 0.621484
O O1 0.444088 0.805008 0.789395
O O2 0.634787 0.589316 0.715688
O O3 0.584240 0.811377 0.970613
O O4 0.337407 0.674637 0.986245
O O5 0.378872 0.191337 0.782276
O O6 0.244582 0.020332 0.913034
O O7 0.121193 0.273982 0.117163
O O8 0.241368 0.554496 0.195752
O O9 0.005801 0.664932 0.189651
O O10 0.191239 0.466851 0.926861
O O11 0.179762 0.774020 0.771863
O O12 0.409197 0.873217 0.573180
O O13 0.882013 0.383312 0.465907
O O14 0.583575 0.346022 0.659109
O O15 0.127112 0.529849 0.736773
O O16 0.327950 0.302537 0.616153
#
# Coordination Sequence:
#
# PCOD9054558 Si02
#       8
#     2   2   2   2   2   2   2   2
#     4  12  22  40  66  90 128 159 201 255 307 364
#     4  12  25  42  64  87 124 174 205 239 300 367
#     4  11  21  36  60  97 129 152 193 251 318 372
#     4  11  25  43  62  89 125 166 211 246 289 362
#     4  11  22  39  64  98 124 152 196 262 321 350
#     4  11  24  41  64  93 127 157 201 258 304 362
#     4  11  21  37  64  97 121 156 197 254 325 353
#     4  11  22  40  67  92 121 157 207 256 302 362
#
# _framework density 20.319262999999999
#
# number of rings (size 3 to 8) (size 9 to 14) (size 15 to 20)
#    0.000    0.750    3.750    5.250    0.000    5.000 
#    0.000    0.000    0.000    1.500    0.000    0.000 
#    0.000    0.000    0.000    0.000    0.000    0.000 
#
# Total GULP energy -89451.098452 kJ/mol
# GULP energy per Si atom -5590.693653 kJ/mol
# Density = 2.027302 g / cm^3
# Si number density = 20.319263 Si / 1000 Ang^3
#
#
#
# Elastic Constant Matrix: (Units=GPa)
#
#
# Indices 1 2 3 4 5 6 
#
# 1 83.9116 0.9662 24.0491 -4.2706 -1.7957 14.1508
# 2 0.9662 43.6436 24.9538 1.3979 6.9692 10.1767
# 3 24.0491 24.9538 88.1963 -16.5273 -6.7543 -1.1584
# 4 -4.2706 1.3979 -16.5273 29.9365 -3.6078 3.5878
# 5 -1.7957 6.9692 -6.7543 -3.6078 24.7199 -8.1099
# 6 14.1508 10.1767 -1.1584 3.5878 -8.1099 27.9849
#
#
#
# Elastic Compliance Matrix: (Units=1/GPa)
#
#
# Indices 1 2 3 4 5 6 
#
# 1 0.016243 0.009007 -0.008179 -0.001959 -0.008485 -0.014035
# 2 0.009007 0.046306 -0.020480 -0.012224 -0.029354 -0.029181
# 3 -0.008179 -0.020480 0.023469 0.013061 0.018861 0.016346
# 4 -0.001959 -0.012224 0.013061 0.042088 0.014593 0.004810
# 5 -0.008485 -0.029354 0.018861 0.014593 0.066246 0.033072
# 6 -0.014035 -0.029181 0.016346 0.004810 0.033072 0.063086
#
#
# Mechanical properties :
#
#
# Convention : Reuss Voigt Hill
#
# Bulk Modulus (GPa) = 21.40590 35.07664 28.24127
# Shear Modulus (GPa) = 16.00953 27.58044 21.79499
#
# Velocity S-wave (km/s) = 2.81000 3.68823 3.27865
# Velocity P-wave (km/s) = 4.59193 5.95295 5.31617
#
# Compressibility (1/GPa) = 0.04671610
#
# Stress axis : x y z
#
# Youngs Moduli (GPa) = 61.56408 21.59542 42.60857
#
# Poissons Ratio (x) = -0.19451 0.34849
# Poissons Ratio (y) = -0.55451 0.87261
# Poissons Ratio (z) = 0.50352 0.44226
#
# Static dielectric constant tensor:
#      x y z
#    x 1.718610 0.004760 -0.024400 
#    y 0.004760 1.711340 -0.020900 
#    z -0.024400 -0.020900 1.749660 
# 
# From -- ./inp_files/189773.got.cif
#   From: 2010.05.17/outbox.cif.g08.bks.cpg/sg2_95_cif.got.tgz:189773.got - 2010.06.03 11:33:40.
