data_PCOD9054299
_publ_section_title
;
Structure prediction by ZEFSAII (Michael W. Deem and Ramdas Pophale) SiO2 
 PCOD9054299
Probable space group: P -1
;
_chemical_formula_sum "Si O2"
_cell_formula_units_Z 16
_cell_length_a 9.587210
_cell_length_b 14.535457
_cell_length_c 10.804848
_cell_angle_alpha 150.583346
_cell_angle_beta 107.849953
_cell_angle_gamma 80.351005
_cell_volume 687.845031
_symmetry_space_group_name_H-M "P -1"
_symmetry_group_IT_number 2
_symmetry_cell_setting 'triclinic'
loop_
_space_group_symop_operation_xyz
x,y,z
-x,-y,-z
loop_
_atom_site_type_symbol
_atom_site_label
_atom_site_fract_x
_atom_site_fract_y
_atom_site_fract_z
Si Si1 0.424651 0.801745 0.568621
Si Si2 0.504256 0.885874 0.238845
Si Si3 0.767473 0.774505 0.667274
Si Si4 0.808189 0.376020 0.528706
Si Si5 0.359743 0.428017 0.970207
Si Si6 0.902828 0.787984 0.983146
Si Si7 0.061745 0.186395 0.479159
Si Si8 0.810026 0.343930 0.199072
O O1 0.598286 0.791017 0.614633
O O2 0.343526 0.767484 0.637284
O O3 0.416310 0.985522 0.701053
O O4 0.337231 0.619808 0.253507
O O5 0.582132 0.711479 0.082884
O O6 0.500000 0.000000 0.500000
O O7 0.333888 0.807265 0.061255
O O8 0.815403 0.831883 0.887568
O O9 0.877625 0.879286 0.713142
O O10 0.782386 0.553072 0.402188
O O11 0.805808 0.602087 0.807935
O O12 0.826808 0.339993 0.346367
O O13 0.943626 0.317383 0.571075
O O14 0.210149 0.308376 0.726299
O O15 0.500000 0.500000 0.000000
O O16 0.043783 0.699835 0.875223
O O17 0.975658 0.994936 0.302031
#
# Coordination Sequence:
#
# PCOD9054299 Si02
#       8
#     2   2   2   2   2   2   2   2
#     4  12  27  44  68 104 141 180 224 286 341 403
#     4  12  24  42  70 103 131 177 236 278 333 403
#     4  11  20  42  69  98 136 175 228 278 335 399
#     4  11  27  45  64 106 144 177 219 286 357 390
#     4  12  24  45  71  99 132 179 231 282 330 403
#     4  11  23  40  71 102 134 179 228 278 340 405
#     4  12  23  43  73  98 134 177 233 281 334 409
#     4  11  21  42  72 101 137 176 230 288 331 408
#
# _framework density 23.261051999999999
#
# number of rings (size 3 to 8) (size 9 to 14) (size 15 to 20)
#    0.000    0.500    6.250    2.625    1.750    5.000 
#    0.000    1.250    0.000    0.000    0.000    0.000 
#    0.000    0.000    0.000    0.000    0.000    0.000 
#
# Total GULP energy -89610.973200 kJ/mol
# GULP energy per Si atom -5600.685825 kJ/mol
# Density = 2.320811 g / cm^3
# Si number density = 23.261052 Si / 1000 Ang^3
#
#
#
# Elastic Constant Matrix: (Units=GPa)
#
#
# Indices 1 2 3 4 5 6 
#
# 1 57.3142 31.5428 5.7182 8.5015 17.2229 -9.1385
# 2 31.5428 107.6928 30.1257 34.3047 17.1724 -17.0813
# 3 5.7182 30.1257 105.2970 4.1245 29.3525 -10.9958
# 4 8.5015 34.3047 4.1245 36.1528 -4.5327 13.7998
# 5 17.2229 17.1724 29.3525 -4.5327 32.4927 -0.4452
# 6 -9.1385 -17.0813 -10.9958 13.7998 -0.4452 28.1325
#
#
#
# Elastic Compliance Matrix: (Units=1/GPa)
#
#
# Indices 1 2 3 4 5 6 
#
# 1 0.040684 0.026235 0.016864 -0.070290 -0.059521 0.069274
# 2 0.026235 0.078866 0.022275 -0.147231 -0.094387 0.135842
# 3 0.016864 0.022275 0.023673 -0.054670 -0.048979 0.054298
# 4 -0.070290 -0.147231 -0.054670 0.326932 0.206079 -0.290704
# 5 -0.059521 -0.094387 -0.048979 0.206079 0.182544 -0.193987
# 6 0.069274 0.135842 0.054298 -0.290704 -0.193987 0.301281
#
#
# Mechanical properties :
#
#
# Convention : Reuss Voigt Hill
#
# Bulk Modulus (GPa) = 3.65000 45.00860 24.32930
# Shear Modulus (GPa) = 5.46713 32.88342 19.17528
#
# Velocity S-wave (km/s) = 1.53474 3.76396 2.87427
# Velocity P-wave (km/s) = 2.17098 6.18718 4.63650
#
# Compressibility (1/GPa) = 0.27397269
#
# Stress axis : x y z
#
# Youngs Moduli (GPa) = 24.57954 12.67968 42.24222
#
# Poissons Ratio (x) = -0.33266 -0.71237
# Poissons Ratio (y) = -0.64485 -0.94096
# Poissons Ratio (z) = -0.41451 -0.28244
#
# Static dielectric constant tensor:
#      x y z
#    x 1.904180 0.077730 -0.010270 
#    y 0.077730 1.897530 0.018830 
#    z -0.010270 0.018830 1.912820 
# 
# From -- ./inp_files/346466.got.cif
#   From: 2010.05.17/outbox.cif.g08.bks.cpg/sg2_174_cif.got.tgz:346466.got - 2010.06.03 11:33:40.
