data_PCOD9054616
_publ_section_title
;
Structure prediction by ZEFSAII (Michael W. Deem and Ramdas Pophale) SiO2 
 PCOD9054616
Probable space group: P -1
;
_chemical_formula_sum "Si O2"
_cell_formula_units_Z 15
_cell_length_a 7.366975
_cell_length_b 8.882879
_cell_length_c 16.697886
_cell_angle_alpha 36.760297
_cell_angle_beta 68.306815
_cell_angle_gamma 82.150399
_cell_volume 582.085720
_symmetry_space_group_name_H-M "P -1"
_symmetry_group_IT_number 2
_symmetry_cell_setting 'triclinic'
loop_
_space_group_symop_operation_xyz
x,y,z
-x,-y,-z
loop_
_atom_site_type_symbol
_atom_site_label
_atom_site_fract_x
_atom_site_fract_y
_atom_site_fract_z
Si Si1 0.294296 0.889148 0.032694
Si Si2 0.387189 0.423137 0.701848
Si Si3 0.000000 0.000000 0.500000
Si Si4 0.790073 0.625280 0.814963
Si Si5 0.827549 0.647420 0.975585
Si Si6 0.726995 0.259181 0.282556
Si Si7 0.184643 0.270470 0.521042
Si Si8 0.029543 0.230107 0.733836
O O1 0.271962 0.152057 0.882279
O O2 0.500000 0.000000 0.000000
O O3 0.318979 0.677348 0.054890
O O4 0.122014 0.724708 0.191985
O O5 0.375554 0.674527 0.648810
O O6 0.626337 0.469306 0.629150
O O7 0.255017 0.386542 0.659031
O O8 0.793708 0.821950 0.657733
O O9 0.931267 0.819587 0.505197
O O10 0.033949 0.645287 0.770171
O O11 0.744569 0.697465 0.881541
O O12 0.674578 0.445982 0.144472
O O13 0.000000 0.500000 0.000000
O O14 0.947330 0.914033 0.884999
O O15 0.714794 0.970888 0.375398
O O16 0.039514 0.275991 0.617428
#
# Coordination Sequence:
#
# PCOD9054616 Si02
#       8
#     2   2   1   2   2   2   2   2
#     4  12  26  42  64  96 135 174 220 266 333 394
#     4  12  23  40  67 102 133 168 217 275 327 384
#     4  10  20  42  64  84 134 180 206 258 326 388
#     4  10  20  39  65  88 128 171 214 259 324 384
#     4  10  17  35  66  96 117 164 220 268 318 374
#     4  10  19  37  67  98 124 164 215 271 315 379
#     4  11  24  40  67  98 135 172 219 265 327 392
#     4  12  22  41  68  94 129 171 217 274 325 374
#
# _framework density 25.769400000000001
#
# number of rings (size 3 to 8) (size 9 to 14) (size 15 to 20)
#    0.000    1.067    6.667    3.600    0.000    0.000 
#    0.000    4.667    2.933    0.000    0.000    0.000 
#    0.000    0.000    0.000    0.000    0.000    0.000 
#
# Total GULP energy -83505.608513 kJ/mol
# GULP energy per Si atom -5567.040568 kJ/mol
# Density = 2.571075 g / cm^3
# Si number density = 25.769400 Si / 1000 Ang^3
#
#
#
# Elastic Constant Matrix: (Units=GPa)
#
#
# Indices 1 2 3 4 5 6 
#
# 1 33.3901 8.1351 21.6928 5.4137 -13.6819 3.2742
# 2 8.1351 101.1542 35.2989 14.6014 1.8312 19.9067
# 3 21.6928 35.2989 118.6437 1.2023 -11.0145 1.6878
# 4 5.4137 14.6014 1.2023 46.6664 -4.0982 7.0662
# 5 -13.6819 1.8312 -11.0145 -4.0982 42.7090 -11.2019
# 6 3.2742 19.9067 1.6878 7.0662 -11.2019 35.7926
#
#
#
# Elastic Compliance Matrix: (Units=1/GPa)
#
#
# Indices 1 2 3 4 5 6 
#
# 1 0.038880 -0.001150 -0.005724 -0.003250 0.011102 0.001469
# 2 -0.001150 0.013501 -0.004069 -0.003166 -0.004388 -0.007960
# 3 -0.005724 -0.004069 0.010815 0.001435 0.001951 0.002604
# 4 -0.003250 -0.003166 0.001435 0.023196 0.001102 -0.002244
# 5 0.011102 -0.004388 0.001951 0.001102 0.030570 0.010683
# 6 0.001469 -0.007960 0.002604 -0.002244 0.010683 0.035895
#
#
# Mechanical properties :
#
#
# Convention : Reuss Voigt Hill
#
# Bulk Modulus (GPa) = 24.20686 42.60464 33.40575
# Shear Modulus (GPa) = 26.52339 37.57101 32.04720
#
# Velocity S-wave (km/s) = 3.21169 3.82248 3.53032
# Velocity P-wave (km/s) = 4.81324 6.00423 5.44142
#
# Compressibility (1/GPa) = 0.04131061
#
# Stress axis : x y z
#
# Youngs Moduli (GPa) = 25.72022 74.06752 92.46297
#
# Poissons Ratio (x) = 0.08520 0.52924
# Poissons Ratio (y) = 0.02959 0.37620
# Poissons Ratio (z) = 0.14722 0.30135
#
# Static dielectric constant tensor:
#      x y z
#    x 2.275460 -0.015900 0.282700 
#    y -0.015900 2.091240 0.115890 
#    z 0.282700 0.115890 2.405120 
# 
# From -- ./inp_files/331367.got.cif
#   From: 2010.05.17/outbox.cif.g08.bks.cpg/sg2_166_cif.got.tgz:331367.got - 2010.06.03 11:33:40.
