data_PCOD9054567
_publ_section_title
;
Structure prediction by ZEFSAII (Michael W. Deem and Ramdas Pophale) SiO2 
 PCOD9054567
Probable space group: P -1
;
_chemical_formula_sum "Si O2"
_cell_formula_units_Z 16
_cell_length_a 8.139197
_cell_length_b 28.626333
_cell_length_c 11.690787
_cell_angle_alpha 26.945635
_cell_angle_beta 131.117199
_cell_angle_gamma 146.934487
_cell_volume 627.804529
_symmetry_space_group_name_H-M "P -1"
_symmetry_group_IT_number 2
_symmetry_cell_setting 'triclinic'
loop_
_space_group_symop_operation_xyz
x,y,z
-x,-y,-z
loop_
_atom_site_type_symbol
_atom_site_label
_atom_site_fract_x
_atom_site_fract_y
_atom_site_fract_z
Si Si1 0.227790 0.564920 0.655599
Si Si2 0.787329 0.782941 0.875917
Si Si3 0.307357 0.136582 0.922425
Si Si4 0.863159 0.645384 0.385002
Si Si5 0.352721 0.620507 0.838951
Si Si6 0.334573 0.851877 0.323423
Si Si7 0.410105 0.768533 0.926449
Si Si8 0.468379 0.014610 0.630640
O O1 0.512029 0.704567 0.400579
O O2 0.344183 0.564268 0.834254
O O3 0.054881 0.610859 0.514730
O O4 0.937490 0.398095 0.832841
O O5 0.593239 0.657365 0.961818
O O6 0.522084 0.752464 0.894128
O O7 0.960025 0.772427 0.071398
O O8 0.108494 0.938714 0.624907
O O9 0.309778 0.158575 0.011987
O O10 0.512659 0.101786 0.101924
O O11 0.000000 0.000000 0.000000
O O12 0.500000 0.500000 0.500000
O O13 0.970788 0.712069 0.415332
O O14 0.471136 0.782189 0.526001
O O15 0.000000 0.500000 0.000000
O O16 0.360191 0.890072 0.382582
O O17 0.500000 0.000000 0.000000
O O18 0.357300 0.868922 0.649438
#
# Coordination Sequence:
#
# PCOD9054567 Si02
#       8
#     2   2   2   2   2   2   2   2
#     4  11  23  47  70  99 140 185 227 284 343 417
#     4  12  22  39  73 109 137 175 225 286 351 403
#     4  12  30  50  69  95 139 194 236 284 340 412
#     4  11  21  37  68 106 140 172 221 286 351 405
#     4  11  21  40  67 106 143 172 220 285 350 408
#     4  11  21  36  61  97 138 170 218 276 333 401
#     4  12  26  45  72 103 142 179 233 280 349 416
#     4  12  25  45  69 104 138 183 231 289 347 406
#
# _framework density 25.48564
#
# number of rings (size 3 to 8) (size 9 to 14) (size 15 to 20)
#    0.000    0.500    6.250    2.625    3.500    1.000 
#    0.000    0.625    0.000    0.000    0.000    0.000 
#    0.000    0.000    0.000    0.000    0.000    0.000 
#
# Total GULP energy -89377.907172 kJ/mol
# GULP energy per Si atom -5586.119198 kJ/mol
# Density = 2.542763 g / cm^3
# Si number density = 25.485640 Si / 1000 Ang^3
#
#
#
# Elastic Constant Matrix: (Units=GPa)
#
#
# Indices 1 2 3 4 5 6 
#
# 1 41.2478 9.3560 3.9361 3.8926 3.2147 0.3812
# 2 9.3560 182.3204 29.8915 2.1722 -22.4796 -27.2061
# 3 3.9361 29.8915 131.1235 -7.9469 -15.4539 -6.2997
# 4 3.8926 2.1722 -7.9469 40.8811 -1.9796 -7.8310
# 5 3.2147 -22.4796 -15.4539 -1.9796 30.2467 3.1248
# 6 0.3812 -27.2061 -6.2997 -7.8310 3.1248 30.3573
#
#
#
# Elastic Compliance Matrix: (Units=1/GPa)
#
#
# Indices 1 2 3 4 5 6 
#
# 1 0.025544 -0.002086 -0.001193 -0.003322 -0.004803 -0.002800
# 2 -0.002086 0.007175 -0.000665 0.001086 0.004653 0.006119
# 3 -0.001193 -0.000665 0.008483 0.002249 0.003975 0.001351
# 4 -0.003322 0.001086 0.002249 0.026861 0.003233 0.008078
# 5 -0.004803 0.004653 0.003975 0.003233 0.039080 0.001867
# 6 -0.002800 0.006119 0.001351 0.008078 0.001867 0.040632
#
#
# Mechanical properties :
#
#
# Convention : Reuss Voigt Hill
#
# Bulk Modulus (GPa) = 30.01631 49.00655 39.51143
# Shear Modulus (GPa) = 29.98175 41.06423 35.52299
#
# Velocity S-wave (km/s) = 3.43362 4.01842 3.73747
# Velocity P-wave (km/s) = 5.24623 6.38757 5.84483
#
# Compressibility (1/GPa) = 0.03331522
#
# Stress axis : x y z
#
# Youngs Moduli (GPa) = 39.14753 139.37671 117.87663
#
# Poissons Ratio (x) = 0.29069 0.14066
# Poissons Ratio (y) = 0.08165 0.07836
# Poissons Ratio (z) = 0.04671 0.09265
#
# Static dielectric constant tensor:
#      x y z
#    x 2.129970 -0.067530 -0.100120 
#    y -0.067530 2.051080 0.049820 
#    z -0.100120 0.049820 2.258710 
# 
# From -- ./inp_files/407524.got.cif
#   From: 2010.05.17/outbox.cif.g08.bks.cpg/sg2_204_cif.got.tgz:407524.got - 2010.06.03 11:33:40.
