data_PCOD9054662
_publ_section_title
;
Structure prediction by ZEFSAII (Michael W. Deem and Ramdas Pophale) SiO2 
 PCOD9054662
Probable space group: P -1
;
_chemical_formula_sum "Si O2"
_cell_formula_units_Z 16
_cell_length_a 9.303146
_cell_length_b 11.059317
_cell_length_c 10.986214
_cell_angle_alpha 124.513465
_cell_angle_beta 77.633152
_cell_angle_gamma 119.936717
_cell_volume 803.385877
_symmetry_space_group_name_H-M "P -1"
_symmetry_group_IT_number 2
_symmetry_cell_setting 'triclinic'
loop_
_space_group_symop_operation_xyz
x,y,z
-x,-y,-z
loop_
_atom_site_type_symbol
_atom_site_label
_atom_site_fract_x
_atom_site_fract_y
_atom_site_fract_z
Si Si1 0.488243 0.617345 0.466309
Si Si2 0.024596 0.080676 0.174971
Si Si3 0.242923 0.253826 0.929809
Si Si4 0.110221 0.464401 0.360801
Si Si5 0.466349 0.514210 0.857345
Si Si6 0.357622 0.764944 0.963969
Si Si7 0.986355 0.577569 0.915004
Si Si8 0.635235 0.908238 0.783525
O O1 0.500000 0.500000 0.500000
O O2 0.300368 0.560798 0.426918
O O3 0.574303 0.577876 0.315372
O O4 0.572752 0.799271 0.611913
O O5 0.049124 0.265781 0.267185
O O6 0.186511 0.078775 0.204587
O O7 0.848388 0.942763 0.185129
O O8 0.000000 0.000000 0.000000
O O9 0.396945 0.360491 0.874321
O O10 0.340686 0.343514 0.087627
O O11 0.100816 0.309298 0.973115
O O12 0.100181 0.515110 0.249574
O O13 0.000000 0.500000 0.500000
O O14 0.369621 0.620871 0.954484
O O15 0.502051 0.822198 0.868889
O O16 0.175026 0.686539 0.896024
O O17 0.366694 0.916819 0.127184
O O18 0.000000 0.500000 0.000000
#
# Coordination Sequence:
#
# PCOD9054662 Si02
#       8
#     2   2   2   2   2   2   2   2
#     4  12  22  41  64  93 135 175 212 270 335 399
#     4  12  21  42  67  94 131 168 225 276 325 384
#     4  11  23  41  69  95 124 175 224 272 320 393
#     4  12  26  42  68 102 134 170 221 278 334 390
#     4  11  23  41  66  94 130 174 220 263 333 393
#     4  11  21  37  63  96 130 170 223 270 317 392
#     4  12  23  42  67  98 132 176 223 276 326 392
#     4  11  23  36  63  99 130 171 219 271 329 387
#
# _framework density 19.915709
#
# number of rings (size 3 to 8) (size 9 to 14) (size 15 to 20)
#    0.000    0.500    7.500    1.500    0.000    3.000 
#    0.000    1.875    0.000    3.000    0.000    0.000 
#    0.000    0.000    0.000    0.000    0.000    0.000 
#
# Total GULP energy -89147.824717 kJ/mol
# GULP energy per Si atom -5571.739045 kJ/mol
# Density = 1.987038 g / cm^3
# Si number density = 19.915709 Si / 1000 Ang^3
#
#
#
# Elastic Constant Matrix: (Units=GPa)
#
#
# Indices 1 2 3 4 5 6 
#
# 1 95.9449 24.7981 50.6848 14.4942 15.0520 0.8341
# 2 24.7981 71.5804 45.4005 8.6857 6.1780 3.5626
# 3 50.6848 45.4005 144.6085 17.0133 12.0889 -16.7286
# 4 14.4942 8.6857 17.0133 34.0335 -0.5325 5.5367
# 5 15.0520 6.1780 12.0889 -0.5325 36.6698 8.3786
# 6 0.8341 3.5626 -16.7286 5.5367 8.3786 27.6968
#
#
#
# Elastic Compliance Matrix: (Units=1/GPa)
#
#
# Indices 1 2 3 4 5 6 
#
# 1 0.014011 -0.001723 -0.003618 -0.003726 -0.004240 -0.000358
# 2 -0.001723 0.018639 -0.006072 0.000059 0.001017 -0.006333
# 3 -0.003618 -0.006072 0.012181 -0.004751 -0.003951 0.010393
# 4 -0.003726 0.000059 -0.004751 0.035336 0.006279 -0.011728
# 5 -0.004240 0.001017 -0.003951 0.006279 0.033373 -0.013740
# 6 -0.000358 -0.006333 0.010393 -0.011728 -0.013740 0.049709
#
#
# Mechanical properties :
#
#
# Convention : Reuss Voigt Hill
#
# Bulk Modulus (GPa) = 45.44652 61.54451 53.49551
# Shear Modulus (GPa) = 25.85175 32.43005 29.14090
#
# Velocity S-wave (km/s) = 3.60677 4.03968 3.82934
# Velocity P-wave (km/s) = 6.34145 7.26142 6.81697
#
# Compressibility (1/GPa) = 0.02200389
#
# Stress axis : x y z
#
# Youngs Moduli (GPa) = 71.37415 53.65108 82.09256
#
# Poissons Ratio (x) = 0.09244 0.29704
# Poissons Ratio (y) = 0.12297 0.49849
# Poissons Ratio (z) = 0.25825 0.32579
#
# Static dielectric constant tensor:
#      x y z
#    x 1.209640 0.420130 0.426840 
#    y 0.420130 1.526450 -0.332840 
#    z 0.426840 -0.332840 1.542690 
# 
# From -- ./inp_files/393078.got.cif
#   From: 2010.05.17/outbox.cif.g08.bks.cpg/sg2_197_cif.got.tgz:393078.got - 2010.06.03 11:33:40.
