data_PCOD9054760
_publ_section_title
;
Structure prediction by ZEFSAII (Michael W. Deem and Ramdas Pophale) SiO2 
 PCOD9054760
Probable space group: P -1
;
_chemical_formula_sum "Si O2"
_cell_formula_units_Z 16
_cell_length_a 14.327601
_cell_length_b 12.792739
_cell_length_c 8.278603
_cell_angle_alpha 98.400579
_cell_angle_beta 30.078590
_cell_angle_gamma 90.000070
_cell_volume 727.465690
_symmetry_space_group_name_H-M "P -1"
_symmetry_group_IT_number 2
_symmetry_cell_setting 'triclinic'
loop_
_space_group_symop_operation_xyz
x,y,z
-x,-y,-z
loop_
_atom_site_type_symbol
_atom_site_label
_atom_site_fract_x
_atom_site_fract_y
_atom_site_fract_z
Si Si1 0.811688 0.727333 0.524389
Si Si2 0.836076 0.272666 0.475611
Si Si3 0.524689 0.578300 0.833418
Si Si4 0.891070 0.850788 0.717860
Si Si5 0.858106 0.421700 0.166584
Si Si6 0.746057 0.107667 0.007883
Si Si7 0.211022 0.919171 0.701705
Si Si8 0.587274 0.919168 0.701705
O O1 0.665845 0.652395 0.694770
O O2 0.779936 0.784875 0.757741
O O3 0.761781 0.825663 0.491774
O O4 0.031620 0.656727 0.157230
O O5 0.860615 0.347604 0.305229
O O6 0.753549 0.174337 0.508232
O O7 0.037676 0.215121 0.242257
O O8 0.688851 0.343273 0.842769
O O9 0.641638 0.500000 0.500001
O O10 0.500000 0.500000 0.000000
O O11 0.081306 0.860855 0.337388
O O12 0.784733 0.975957 0.930529
O O13 0.000000 0.500000 0.000000
O O14 0.754839 0.138925 0.188658
O O15 0.556501 0.138928 0.188659
O O16 0.346940 0.000002 0.500003
O O17 0.000000 0.000000 0.000000
O O18 0.500000 0.000000 0.000000
#
# Coordination Sequence:
#
# PCOD9054760 Si02
#       8
#     2   2   2   2   2   2   2   2
#     4  11  21  38  63  89 119 166 202 250 314 364
#     4  11  21  38  63  89 119 166 202 250 314 364
#     4   9  20  40  63  85 112 151 207 261 308 359
#     4  11  22  36  60  90 128 165 206 249 304 367
#     4   9  20  40  63  85 112 151 207 261 308 359
#     4  11  23  38  54  90 136 168 205 250 288 361
#     4  12  23  38  60  90 127 168 206 246 301 369
#     4  12  23  38  60  90 127 168 206 246 301 369
#
# _framework density 21.994163
#
# number of rings (size 3 to 8) (size 9 to 14) (size 15 to 20)
#    0.000    1.250    2.500    4.875    0.000    0.000 
#    0.000    6.250    0.000    6.000    0.000    0.000 
#    0.000    0.000    0.000    0.000    0.000    0.000 
#
# Total GULP energy -89347.083936 kJ/mol
# GULP energy per Si atom -5584.192746 kJ/mol
# Density = 2.194410 g / cm^3
# Si number density = 21.994163 Si / 1000 Ang^3
#
#
#
# Elastic Constant Matrix: (Units=GPa)
#
#
# Indices 1 2 3 4 5 6 
#
# 1 70.6223 -3.6992 -10.8616 7.7914 -1.4554 0.0683
# 2 -3.6992 91.1376 3.4438 -0.2828 0.2445 -0.0792
# 3 -10.8616 3.4438 64.2123 14.7012 1.2146 0.7538
# 4 7.7914 -0.2828 14.7012 46.7970 0.3431 1.1924
# 5 -1.4554 0.2445 1.2146 0.3431 20.1181 -3.5949
# 6 0.0683 -0.0792 0.7538 1.1924 -3.5949 12.9951
#
#
#
# Elastic Compliance Matrix: (Units=1/GPa)
#
#
# Indices 1 2 3 4 5 6 
#
# 1 0.015111 0.000474 0.003326 -0.003574 0.001008 0.000337
# 2 0.000474 0.011013 -0.000546 0.000158 -0.000057 0.000066
# 3 0.003326 -0.000546 0.017575 -0.006054 -0.000839 -0.000717
# 4 -0.003574 0.000158 -0.006054 0.023923 -0.000662 -0.002007
# 5 0.001008 -0.000057 -0.000839 -0.000662 0.052454 0.014614
# 6 0.000337 0.000066 -0.000717 -0.002007 0.014614 0.081219
#
#
# Mechanical properties :
#
#
# Convention : Reuss Voigt Hill
#
# Bulk Modulus (GPa) = 19.91764 22.63756 21.27760
# Shear Modulus (GPa) = 23.63807 31.78798 27.71303
#
# Velocity S-wave (km/s) = 3.28188 3.80582 3.55352
# Velocity P-wave (km/s) = 4.84113 5.44309 5.15091
#
# Compressibility (1/GPa) = 0.05020676
#
# Stress axis : x y z
#
# Youngs Moduli (GPa) = 66.17740 90.80171 56.89742
#
# Poissons Ratio (x) = -0.04306 -0.18923
# Poissons Ratio (y) = -0.03138 0.03108
# Poissons Ratio (z) = -0.22009 0.04960
#
# Static dielectric constant tensor:
#      x y z
#    x 1.847590 0.001240 0.000910 
#    y 0.001240 1.780970 0.033090 
#    z 0.000910 0.033090 1.874340 
# 
# From -- ./inp_files/208809.got.cif
#   From: 2010.05.17/outbox.cif.g08.bks.cpg/sg2_105_cif.got.tgz:208809.got - 2010.06.03 11:33:40.
