data_PCOD9054580
_publ_section_title
;
Structure prediction by ZEFSAII (Michael W. Deem and Ramdas Pophale) SiO2 
 PCOD9054580
Probable space group: P -1
;
_chemical_formula_sum "Si O2"
_cell_formula_units_Z 16
_cell_length_a 11.371250
_cell_length_b 9.650370
_cell_length_c 9.787814
_cell_angle_alpha 136.076597
_cell_angle_beta 109.794378
_cell_angle_gamma 82.016045
_cell_volume 691.928844
_symmetry_space_group_name_H-M "P -1"
_symmetry_group_IT_number 2
_symmetry_cell_setting 'triclinic'
loop_
_space_group_symop_operation_xyz
x,y,z
-x,-y,-z
loop_
_atom_site_type_symbol
_atom_site_label
_atom_site_fract_x
_atom_site_fract_y
_atom_site_fract_z
Si Si1 0.164841 0.479841 0.123977
Si Si2 0.349779 0.357631 0.627469
Si Si3 0.176900 0.238417 0.708937
Si Si4 0.940552 0.777219 0.868781
Si Si5 0.319777 0.082199 0.178195
Si Si6 0.167321 0.669431 0.734860
Si Si7 0.436546 0.392652 0.261087
Si Si8 0.103471 0.831301 0.532485
O O1 0.068530 0.300643 0.034759
O O2 0.306579 0.466527 0.220753
O O3 0.129627 0.685987 0.315207
O O4 0.162934 0.436655 0.932230
O O5 0.304865 0.273180 0.697446
O O6 0.373818 0.170906 0.407305
O O7 0.230879 0.471278 0.624154
O O8 0.467196 0.535343 0.772091
O O9 0.048339 0.174684 0.525235
O O10 0.173073 0.054991 0.683609
O O11 0.795607 0.788696 0.788764
O O12 0.029121 0.642138 0.730691
O O13 0.000000 0.000000 0.000000
O O14 0.405791 0.161223 0.137527
O O15 0.258878 0.849023 0.978843
O O16 0.154881 0.752115 0.636176
O O17 0.500000 0.500000 0.500000
#
# Coordination Sequence:
#
# PCOD9054580 Si02
#       8
#     2   2   2   2   2   2   2   2
#     4  11  22  40  60  81 122 165 191 233 297 353
#     4  11  23  38  59  89 119 151 201 247 282 342
#     4  11  25  40  57  88 124 156 192 238 294 355
#     4   9  17  31  56  85 111 143 187 235 286 338
#     4   9  19  35  56  84 118 147 185 245 294 332
#     4  11  21  36  63  91 114 152 197 242 297 346
#     4   9  19  38  61  86 116 152 197 249 291 332
#     4  11  23  39  61  88 119 156 195 236 296 361
#
# _framework density 23.123764000000001
#
# number of rings (size 3 to 8) (size 9 to 14) (size 15 to 20)
#    0.000    1.750    0.000    6.375    0.000    6.500 
#    0.000    3.125    0.000    0.000    0.000    0.000 
#    0.000    0.000    0.000    0.000    0.000    0.000 
#
# Total GULP energy -89278.721805 kJ/mol
# GULP energy per Si atom -5579.920113 kJ/mol
# Density = 2.307113 g / cm^3
# Si number density = 23.123764 Si / 1000 Ang^3
#
#
#
# Elastic Constant Matrix: (Units=GPa)
#
#
# Indices 1 2 3 4 5 6 
#
# 1 101.2378 24.6162 10.2573 0.3868 -0.9580 33.2088
# 2 24.6162 55.8809 13.9413 7.1446 -2.7172 21.7791
# 3 10.2573 13.9413 84.5645 6.6294 -18.7626 15.3400
# 4 0.3868 7.1446 6.6294 19.4283 -9.7913 0.2684
# 5 -0.9580 -2.7172 -18.7626 -9.7913 21.2419 -6.5838
# 6 33.2088 21.7791 15.3400 0.2684 -6.5838 49.6638
#
#
#
# Elastic Compliance Matrix: (Units=1/GPa)
#
#
# Indices 1 2 3 4 5 6 
#
# 1 0.013115 -0.002741 -0.000264 -0.000356 -0.002583 -0.007827
# 2 -0.002741 0.024429 -0.002861 -0.011708 -0.007698 -0.008953
# 3 -0.000264 -0.002861 0.015527 0.002954 0.014235 -0.001493
# 4 -0.000356 -0.011708 0.002954 0.073756 0.037909 0.009087
# 5 -0.002583 -0.007698 0.014235 0.037909 0.079443 0.011032
# 6 -0.007827 -0.008953 -0.001493 0.009087 0.011032 0.031170
#
#
# Mechanical properties :
#
#
# Convention : Reuss Voigt Hill
#
# Bulk Modulus (GPa) = 24.19062 37.70142 30.94602
# Shear Modulus (GPa) = 19.01496 30.92470 24.96983
#
# Velocity S-wave (km/s) = 2.87071 3.66095 3.28965
# Velocity P-wave (km/s) = 4.63379 5.84891 5.27645
#
# Compressibility (1/GPa) = 0.04133833
#
# Stress axis : x y z
#
# Youngs Moduli (GPa) = 76.24691 40.93569 64.40490
#
# Poissons Ratio (x) = 0.11221 0.01702
# Poissons Ratio (y) = 0.20901 0.18424
# Poissons Ratio (z) = 0.02015 0.11710
#
# Static dielectric constant tensor:
#      x y z
#    x 1.887880 0.037510 -0.003910 
#    y 0.037510 2.018930 -0.091120 
#    z -0.003910 -0.091120 1.956820 
# 
# From -- ./inp_files/246095.got.cif
#   From: 2010.05.17/outbox.cif.g08.bks.cpg/sg2_124_cif.got.tgz:246095.got - 2010.06.03 11:33:40.
