data_PCOD9054772
_publ_section_title
;
Structure prediction by ZEFSAII (Michael W. Deem and Ramdas Pophale) SiO2 
 PCOD9054772
Probable space group: P -1
;
_chemical_formula_sum "Si O2"
_cell_formula_units_Z 16
_cell_length_a 13.867882
_cell_length_b 9.652142
_cell_length_c 14.507067
_cell_angle_alpha 65.525025
_cell_angle_beta 56.245990
_cell_angle_gamma 29.595426
_cell_volume 786.073865
_symmetry_space_group_name_H-M "P -1"
_symmetry_group_IT_number 2
_symmetry_cell_setting 'triclinic'
loop_
_space_group_symop_operation_xyz
x,y,z
-x,-y,-z
loop_
_atom_site_type_symbol
_atom_site_label
_atom_site_fract_x
_atom_site_fract_y
_atom_site_fract_z
Si Si1 0.167817 0.732884 0.415620
Si Si2 0.965523 0.025373 0.785980
Si Si3 0.394631 0.681653 0.599672
Si Si4 0.121677 0.216216 0.484176
Si Si5 0.817986 0.600227 0.023537
Si Si6 0.680416 0.068197 0.896469
Si Si7 0.767448 0.485657 0.906212
Si Si8 0.382461 0.015047 0.226406
O O1 0.136899 0.819510 0.302488
O O2 0.410512 0.487294 0.390464
O O3 0.072430 0.669688 0.485307
O O4 0.000000 0.000000 0.500000
O O5 0.865399 0.968320 0.869747
O O6 0.890952 0.232045 0.844084
O O7 0.224194 0.751122 0.713836
O O8 0.500000 0.500000 0.500000
O O9 0.241502 0.991491 0.563914
O O10 0.301810 0.056476 0.357267
O O11 0.000000 0.500000 0.500000
O O12 0.640858 0.734591 0.151469
O O13 0.882853 0.410278 0.961367
O O14 0.000000 0.500000 0.000000
O O15 0.692091 0.875671 0.962851
O O16 0.692552 0.039421 0.787416
O O17 0.448640 0.361495 0.983986
O O18 0.710894 0.709353 0.822063
#
# Coordination Sequence:
#
# PCOD9054772 Si02
#       8
#     2   2   2   2   2   2   2   2
#     4  11  22  43  63  85 128 170 205 255 308 366
#     4  11  21  38  64  88 121 159 202 257 307 352
#     4  11  24  41  62  92 127 164 212 251 303 382
#     4  11  23  40  64  95 126 155 210 264 304 359
#     4   9  19  38  56  84 121 149 194 250 297 367
#     4   9  19  35  62  82 111 161 202 236 301 377
#     4   9  19  39  58  86 121 151 196 248 312 358
#     4   9  18  36  60  81 112 164 195 235 307 369
#
# _framework density 20.354320000000001
#
# number of rings (size 3 to 8) (size 9 to 14) (size 15 to 20)
#    0.000    2.000    2.500    4.125    0.000    1.500 
#   11.250    0.625    0.000    0.000    0.000    0.000 
#    0.000    0.000    0.000    0.000    0.000    0.000 
#
# Total GULP energy -89164.103982 kJ/mol
# GULP energy per Si atom -5572.756499 kJ/mol
# Density = 2.030799 g / cm^3
# Si number density = 20.354320 Si / 1000 Ang^3
#
#
#
# Elastic Constant Matrix: (Units=GPa)
#
#
# Indices 1 2 3 4 5 6 
#
# 1 177.7833 51.4471 50.9489 23.2676 -22.8325 -4.5723
# 2 51.4471 65.6212 18.3321 12.9225 -5.1789 2.9112
# 3 50.9489 18.3321 92.9062 12.9781 -5.0166 3.2914
# 4 23.2676 12.9225 12.9781 28.9779 4.6084 0.4146
# 5 -22.8325 -5.1789 -5.0166 4.6084 35.4125 4.7345
# 6 -4.5723 2.9112 3.2914 0.4146 4.7345 44.4698
#
#
#
# Elastic Compliance Matrix: (Units=1/GPa)
#
#
# Indices 1 2 3 4 5 6 
#
# 1 0.009345 -0.005146 -0.003214 -0.004624 0.005283 0.001016
# 2 -0.005146 0.020474 -0.000449 -0.004849 0.000490 -0.001843
# 3 -0.003214 -0.000449 0.013112 -0.003120 0.000296 -0.001274
# 4 -0.004624 -0.004849 -0.003120 0.043341 -0.009869 0.000720
# 5 0.005283 0.000490 0.000296 -0.009869 0.033441 -0.002979
# 6 0.001016 -0.001843 -0.001274 0.000720 -0.002979 0.023117
#
#
# Mechanical properties :
#
#
# Convention : Reuss Voigt Hill
#
# Bulk Modulus (GPa) = 39.50558 64.19634 51.85096
# Shear Modulus (GPa) = 29.60594 36.14419 32.87507
#
# Velocity S-wave (km/s) = 3.81797 4.21854 4.02324
# Velocity P-wave (km/s) = 6.23594 7.43881 6.86378
#
# Compressibility (1/GPa) = 0.02531288
#
# Stress axis : x y z
#
# Youngs Moduli (GPa) = 107.01049 48.84194 76.26824
#
# Poissons Ratio (x) = 0.25134 0.24513
# Poissons Ratio (y) = 0.55069 0.03423
# Poissons Ratio (z) = 0.34394 0.02192
#
# Static dielectric constant tensor:
#      x y z
#    x 1.796090 0.038500 0.033990 
#    y 0.038500 1.936420 -0.079680 
#    z 0.033990 -0.079680 1.791050 
# 
# From -- ./inp_files/417597.got.cif
#   From: 2010.05.17/outbox.cif.g08.bks.cpg/sg2_209_cif.got.tgz:417597.got - 2010.06.03 11:33:40.
