data_PCOD9054992
_publ_section_title
;
Structure prediction by ZEFSAII (Michael W. Deem and Ramdas Pophale) SiO2 
 PCOD9054992
Probable space group: P -1
;
_chemical_formula_sum "Si O2"
_cell_formula_units_Z 16
_cell_length_a 8.613083
_cell_length_b 12.499149
_cell_length_c 15.395893
_cell_angle_alpha 130.990950
_cell_angle_beta 40.663063
_cell_angle_gamma 135.767538
_cell_volume 729.982682
_symmetry_space_group_name_H-M "P -1"
_symmetry_group_IT_number 2
_symmetry_cell_setting 'triclinic'
loop_
_space_group_symop_operation_xyz
x,y,z
-x,-y,-z
loop_
_atom_site_type_symbol
_atom_site_label
_atom_site_fract_x
_atom_site_fract_y
_atom_site_fract_z
Si Si1 0.853243 0.730470 0.691871
Si Si2 0.760512 0.522163 0.782424
Si Si3 0.163882 0.210786 0.006892
Si Si4 0.532007 0.146421 0.468802
Si Si5 0.249536 0.203821 0.773643
Si Si6 0.427336 0.012110 0.799029
Si Si7 0.721288 0.014376 0.844677
Si Si8 0.334971 0.534187 0.512911
O O1 0.763295 0.655114 0.784763
O O2 0.802042 0.877296 0.765290
O O3 0.708523 0.588843 0.610885
O O4 0.166699 0.782386 0.587906
O O5 0.508025 0.364024 0.775232
O O6 0.036570 0.508123 0.651132
O O7 0.767408 0.606336 0.915767
O O8 0.130131 0.142514 0.887100
O O9 0.405490 0.173417 0.913819
O O10 0.880093 0.116545 0.124468
O O11 0.354103 0.115868 0.613424
O O12 0.482329 0.008164 0.346712
O O13 0.517818 0.288072 0.493665
O O14 0.980514 0.184698 0.830317
O O15 0.603902 0.985405 0.782652
O O16 0.500000 0.000000 0.000000
O O17 0.500000 0.500000 0.500000
#
# Coordination Sequence:
#
# PCOD9054992 Si02
#       8
#     2   2   2   2   2   2   2   2
#     4  11  21  41  72  94 132 183 225 265 341 410
#     4  11  22  45  68 100 132 179 227 274 333 411
#     4  11  23  42  71  94 135 182 225 272 338 411
#     4  11  22  44  70  98 135 175 227 279 331 407
#     4  12  25  44  68 101 139 174 225 284 342 389
#     4  11  23  44  68  99 131 183 232 268 333 410
#     4  12  26  43  67 100 138 180 226 279 339 401
#     4  11  21  39  69  99 134 178 222 272 338 402
#
# _framework density 21.918327000000001
#
# number of rings (size 3 to 8) (size 9 to 14) (size 15 to 20)
#    0.000    0.750    6.250    3.375    0.000    2.500 
#    2.250    2.500    0.000    0.000    0.000    0.000 
#    0.000    0.000    0.000    0.000    0.000    0.000 
#
# Total GULP energy -89291.907502 kJ/mol
# GULP energy per Si atom -5580.744219 kJ/mol
# Density = 2.186844 g / cm^3
# Si number density = 21.918327 Si / 1000 Ang^3
#
#
#
# Elastic Constant Matrix: (Units=GPa)
#
#
# Indices 1 2 3 4 5 6 
#
# 1 125.5787 10.4345 35.9123 8.5724 -7.1554 8.5046
# 2 10.4345 59.9408 28.5345 3.7272 -4.9139 11.2194
# 3 35.9123 28.5345 125.5397 8.3340 18.3643 10.9852
# 4 8.5724 3.7272 8.3340 33.0360 -2.7600 0.5868
# 5 -7.1554 -4.9139 18.3643 -2.7600 40.8297 5.2120
# 6 8.5046 11.2194 10.9852 0.5868 5.2120 28.3602
#
#
#
# Elastic Compliance Matrix: (Units=1/GPa)
#
#
# Indices 1 2 3 4 5 6 
#
# 1 0.009195 0.000599 -0.002932 -0.001402 0.003217 -0.002421
# 2 0.000599 0.020926 -0.005079 -0.000614 0.005830 -0.007549
# 3 -0.002932 -0.005079 0.011011 -0.001957 -0.006184 -0.000199
# 4 -0.001402 -0.000614 -0.001957 0.031413 0.002648 0.000285
# 5 0.003217 0.005830 -0.006184 0.002648 0.029529 -0.006357
# 6 -0.002421 -0.007549 -0.000199 0.000285 -0.006357 0.040213
#
#
# Mechanical properties :
#
#
# Convention : Reuss Voigt Hill
#
# Bulk Modulus (GPa) = 38.01238 51.20243 44.60741
# Shear Modulus (GPa) = 30.14222 36.19037 33.16629
#
# Velocity S-wave (km/s) = 3.71240 4.06784 3.89418
# Velocity P-wave (km/s) = 5.97966 6.74347 6.37301
#
# Compressibility (1/GPa) = 0.02630722
#
# Stress axis : x y z
#
# Youngs Moduli (GPa) = 108.75736 47.78756 90.81921
#
# Poissons Ratio (x) = -0.02863 0.26629
# Poissons Ratio (y) = -0.06516 0.46129
# Poissons Ratio (z) = 0.31889 0.24273
#
# Static dielectric constant tensor:
#      x y z
#    x 1.850490 -0.045300 0.015360 
#    y -0.045300 1.838970 -0.006970 
#    z 0.015360 -0.006970 1.816870 
# 
# From -- ./inp_files/185923.got.cif
#   From: 2010.05.17/outbox.cif.g08.bks.cpg/sg2_93_cif.got.tgz:185923.got - 2010.06.03 11:33:40.
