data_PCOD9054752
_publ_section_title
;
Structure prediction by ZEFSAII (Michael W. Deem and Ramdas Pophale) SiO2 
 PCOD9054752
Probable space group: P -1
;
_chemical_formula_sum "Si O2"
_cell_formula_units_Z 12
_cell_length_a 7.274671
_cell_length_b 7.734360
_cell_length_c 12.584453
_cell_angle_alpha 90.906125
_cell_angle_beta 49.504354
_cell_angle_gamma 81.655212
_cell_volume 527.019238
_symmetry_space_group_name_H-M "P -1"
_symmetry_group_IT_number 2
_symmetry_cell_setting 'triclinic'
loop_
_space_group_symop_operation_xyz
x,y,z
-x,-y,-z
loop_
_atom_site_type_symbol
_atom_site_label
_atom_site_fract_x
_atom_site_fract_y
_atom_site_fract_z
Si Si1 0.771523 0.027270 0.167744
Si Si2 0.128299 0.992752 0.565895
Si Si3 0.662816 0.755412 0.372323
Si Si4 0.619402 0.031032 0.843518
Si Si5 0.186141 0.602450 0.798572
Si Si6 0.626486 0.576124 0.053171
O O1 0.762703 0.205021 0.237887
O O2 0.522818 0.054736 0.193030
O O3 0.892502 0.614346 0.920208
O O4 0.782795 0.853053 0.232416
O O5 0.373767 0.841970 0.476351
O O6 0.219243 0.171690 0.567600
O O7 0.909595 0.967398 0.726413
O O8 0.000000 0.000000 0.500000
O O9 0.000000 0.000000 0.000000
O O10 0.552627 0.240078 0.848555
O O11 0.500000 0.000000 0.000000
O O12 0.312943 0.541651 0.864939
O O13 0.281843 0.450824 0.675302
O O14 0.500000 0.500000 0.000000
#
# Coordination Sequence:
#
# PCOD9054752 Si02
#       6
#     2   2   2   2   2   2
#     4  12  21  40  67 101 139 173 223 281 335 398
#     4  11  23  45  71  93 137 183 224 278 344 405
#     4  11  24  44  69  93 136 184 221 280 343 402
#     4  12  23  40  70 102 134 178 230 279 338 404
#     4  11  22  40  65 100 136 174 226 278 338 404
#     4  11  21  38  62  98 140 172 219 281 339 394
#
# _framework density 22.769565
#
# number of rings (size 3 to 8) (size 9 to 14) (size 15 to 20)
#    0.000    0.667    5.000    4.000    0.000    0.000 
#    0.000    4.167    3.667    0.000    0.000    0.000 
#    0.000    0.000    0.000    0.000    0.000    0.000 
#
# Total GULP energy -67205.237500 kJ/mol
# GULP energy per Si atom -5600.436458 kJ/mol
# Density = 2.271774 g / cm^3
# Si number density = 22.769565 Si / 1000 Ang^3
#
#
#
# Elastic Constant Matrix: (Units=GPa)
#
#
# Indices 1 2 3 4 5 6 
#
# 1 188.5834 44.0889 46.3136 17.9735 22.1105 1.4271
# 2 44.0889 93.6687 27.8797 26.7856 9.4420 18.8174
# 3 46.3136 27.8797 101.4099 13.2262 -9.0652 -1.2570
# 4 17.9735 26.7856 13.2262 43.5221 -0.2591 13.1071
# 5 22.1105 9.4420 -9.0652 -0.2591 52.1184 7.0401
# 6 1.4271 18.8174 -1.2570 13.1071 7.0401 34.2268
#
#
#
# Elastic Compliance Matrix: (Units=1/GPa)
#
#
# Indices 1 2 3 4 5 6 
#
# 1 0.006969 -0.002163 -0.002682 -0.001353 -0.003308 0.001999
# 2 -0.002163 0.015603 -0.002722 -0.006110 -0.001614 -0.005916
# 3 -0.002682 -0.002722 0.012373 -0.001537 0.003515 0.001928
# 4 -0.001353 -0.006110 -0.001537 0.030451 0.002763 -0.008870
# 5 -0.003308 -0.001614 0.003515 0.002763 0.022109 -0.004452
# 6 0.001999 -0.005916 0.001928 -0.008870 -0.004452 0.036770
#
#
# Mechanical properties :
#
#
# Convention : Reuss Voigt Hill
#
# Bulk Modulus (GPa) = 50.48201 68.91407 59.69804
# Shear Modulus (GPa) = 34.24360 43.66543 38.95452
#
# Velocity S-wave (km/s) = 3.88225 4.38392 4.14069
# Velocity P-wave (km/s) = 6.50498 7.48041 7.00968
#
# Compressibility (1/GPa) = 0.01980904
#
# Stress axis : x y z
#
# Youngs Moduli (GPa) = 143.49678 64.09159 80.82080
#
# Poissons Ratio (x) = 0.13862 0.21680
# Poissons Ratio (y) = 0.31036 0.22003
# Poissons Ratio (z) = 0.38492 0.17449
#
# Static dielectric constant tensor:
#      x y z
#    x 1.848660 -0.009020 0.049160 
#    y -0.009020 1.837820 -0.045600 
#    z 0.049160 -0.045600 1.934250 
# 
# From -- ./inp_files/378563.got.cif
#   From: 2010.05.17/outbox.cif.g08.bks.cpg/sg2_190_cif.got.tgz:378563.got - 2010.06.03 11:33:40.
