data_PCOD9054452
_publ_section_title
;
Structure prediction by ZEFSAII (Michael W. Deem and Ramdas Pophale) SiO2 
 PCOD9054452
Probable space group: P -1
;
_chemical_formula_sum "Si O2"
_cell_formula_units_Z 16
_cell_length_a 11.845426
_cell_length_b 9.811133
_cell_length_c 8.635250
_cell_angle_alpha 55.942476
_cell_angle_beta 60.999260
_cell_angle_gamma 72.007088
_cell_volume 726.209317
_symmetry_space_group_name_H-M "P -1"
_symmetry_group_IT_number 2
_symmetry_cell_setting 'triclinic'
loop_
_space_group_symop_operation_xyz
x,y,z
-x,-y,-z
loop_
_atom_site_type_symbol
_atom_site_label
_atom_site_fract_x
_atom_site_fract_y
_atom_site_fract_z
Si Si1 0.053765 0.261083 0.710130
Si Si2 0.075172 0.890182 0.393155
Si Si3 0.759600 0.884784 0.063570
Si Si4 0.572053 0.480304 0.715237
Si Si5 0.490830 0.133324 0.558671
Si Si6 0.715686 0.595192 0.041558
Si Si7 0.714785 0.304782 0.446754
Si Si8 0.187718 0.514317 0.258766
O O1 0.134150 0.156331 0.848365
O O2 0.134448 0.414859 0.503204
O O3 0.023328 0.162784 0.638137
O O4 0.915450 0.339407 0.807134
O O5 0.152574 0.745382 0.524901
O O6 0.000000 0.000000 0.500000
O O7 0.188278 0.976373 0.169690
O O8 0.621366 0.916269 0.217147
O O9 0.751258 0.726231 0.060903
O O10 0.549820 0.679684 0.593190
O O11 0.437766 0.398239 0.887405
O O12 0.627643 0.414434 0.555774
O O13 0.674455 0.429703 0.812100
O O14 0.626895 0.157734 0.540763
O O15 0.500000 0.000000 0.500000
O O16 0.744150 0.415135 0.209688
O O17 0.790449 0.604881 0.825558
#
# Coordination Sequence:
#
# PCOD9054452 Si02
#       8
#     2   2   2   2   2   2   2   2
#     4  11  25  45  65  96 140 179 227 285 331 406
#     4  12  29  45  67 100 141 185 229 285 343 408
#     4  12  25  47  69  98 140 182 226 288 349 405
#     4  11  20  48  70 102 139 175 227 287 340 408
#     4  11  24  42  74 105 139 178 224 291 351 406
#     4  11  23  41  76 101 131 177 230 284 343 407
#     4  11  23  47  71  98 142 178 228 283 342 409
#     4  11  23  40  73 103 126 178 237 279 330 405
#
# _framework density 22.032215000000001
#
# number of rings (size 3 to 8) (size 9 to 14) (size 15 to 20)
#    0.000    0.750    5.000    2.250    5.250    4.000 
#    2.250    0.000    0.000    0.000    0.000    0.000 
#    0.000    0.000    0.000    0.000    0.000    0.000 
#
# Total GULP energy -89535.963234 kJ/mol
# GULP energy per Si atom -5595.997702 kJ/mol
# Density = 2.198207 g / cm^3
# Si number density = 22.032215 Si / 1000 Ang^3
#
#
#
# Elastic Constant Matrix: (Units=GPa)
#
#
# Indices 1 2 3 4 5 6 
#
# 1 108.3875 22.8397 6.5461 6.4995 11.1964 22.1693
# 2 22.8397 99.1139 -0.5362 31.4267 1.7630 25.2876
# 3 6.5461 -0.5362 47.0839 14.6349 -3.1305 -0.1738
# 4 6.4995 31.4267 14.6349 30.9315 9.6704 3.0163
# 5 11.1964 1.7630 -3.1305 9.6704 14.7219 -1.4103
# 6 22.1693 25.2876 -0.1738 3.0163 -1.4103 36.3340
#
#
#
# Elastic Compliance Matrix: (Units=1/GPa)
#
#
# Indices 1 2 3 4 5 6 
#
# 1 0.013388 -0.005192 -0.007272 0.012830 -0.020152 -0.006438
# 2 -0.005192 0.027367 0.016581 -0.043383 0.031643 -0.010970
# 3 -0.007272 0.016581 0.040151 -0.047735 0.043318 -0.001267
# 4 0.012830 -0.043383 -0.047735 0.125696 -0.096517 0.007955
# 5 -0.020152 0.031643 0.043318 -0.096517 0.152496 0.004411
# 6 -0.006438 -0.010970 -0.001267 0.007955 0.004411 0.038590
#
#
# Mechanical properties :
#
#
# Convention : Reuss Voigt Hill
#
# Bulk Modulus (GPa) = 11.21808 34.69828 22.95818
# Shear Modulus (GPa) = 11.92840 31.44653 21.68747
#
# Velocity S-wave (km/s) = 2.32934 3.78206 3.14084
# Velocity P-wave (km/s) = 3.51243 5.90381 4.85758
#
# Compressibility (1/GPa) = 0.08914179
#
# Stress axis : x y z
#
# Youngs Moduli (GPa) = 74.69143 36.54013 24.90576
#
# Poissons Ratio (x) = 0.18971 0.18112
# Poissons Ratio (y) = 0.38778 -0.41297
# Poissons Ratio (z) = 0.54317 -0.60589
#
# Static dielectric constant tensor:
#      x y z
#    x 1.811700 0.004470 -0.032540 
#    y 0.004470 1.798070 -0.017540 
#    z -0.032540 -0.017540 1.812170 
# 
# From -- ./inp_files/208465.got.cif
#   From: 2010.05.17/outbox.cif.g08.bks.cpg/sg2_105_cif.got.tgz:208465.got - 2010.06.03 11:33:40.
