data_PCOD9055105
_publ_section_title
;
Structure prediction by ZEFSAII (Michael W. Deem and Ramdas Pophale) SiO2 
 PCOD9055105
Probable space group: P -1
;
_chemical_formula_sum "Si O2"
_cell_formula_units_Z 14
_cell_length_a 11.469772
_cell_length_b 9.133254
_cell_length_c 16.175855
_cell_angle_alpha 63.333379
_cell_angle_beta 45.258487
_cell_angle_gamma 101.508934
_cell_volume 627.706476
_symmetry_space_group_name_H-M "P -1"
_symmetry_group_IT_number 2
_symmetry_cell_setting 'triclinic'
loop_
_space_group_symop_operation_xyz
x,y,z
-x,-y,-z
loop_
_atom_site_type_symbol
_atom_site_label
_atom_site_fract_x
_atom_site_fract_y
_atom_site_fract_z
Si Si1 0.046367 0.478216 0.224237
Si Si2 0.715689 0.807441 0.019057
Si Si3 0.238153 0.671393 0.260629
Si Si4 0.644245 0.405905 0.221139
Si Si5 0.597852 0.993893 0.332962
Si Si6 0.947340 0.094681 0.276886
Si Si7 0.133185 0.865296 0.991237
O O1 0.125729 0.370657 0.170802
O O2 0.063028 0.491549 0.310953
O O3 0.206666 0.761238 0.032528
O O4 0.722736 0.251787 0.418618
O O5 0.430481 0.674655 0.190596
O O6 0.684755 0.586596 0.092048
O O7 0.916330 0.970271 0.798177
O O8 0.877514 0.000615 0.970531
O O9 0.000000 0.500000 0.500000
O O10 0.500000 0.000000 0.000000
O O11 0.692877 0.259448 0.204717
O O12 0.851939 0.611143 0.142249
O O13 0.322614 0.160852 0.467834
O O14 0.790015 0.062436 0.287417
O O15 0.630651 0.921389 0.250255
#
# Coordination Sequence:
#
# PCOD9055105 Si02
#       7
#     2   2   2   2   2   2   2
#     4  11  23  44  71  97 132 194 239 281 358 430
#     4  12  27  41  66 103 141 183 236 301 351 423
#     4  12  29  54  76 102 144 194 246 299 356 431
#     4  11  22  39  63 102 141 177 227 290 360 427
#     4  11  21  40  67 101 143 183 230 286 362 436
#     4  11  23  41  67 103 144 180 233 295 356 433
#     4  12  21  38  65 101 138 183 229 287 364 425
#
# _framework density 22.303418000000001
#
# number of rings (size 3 to 8) (size 9 to 14) (size 15 to 20)
#    0.000    0.571    5.714    3.429    2.000    2.286 
#    0.000    2.857    0.000    0.000    0.000    0.000 
#    0.000    0.000    0.000    0.000    0.000    0.000 
#
# Total GULP energy -77934.984974 kJ/mol
# GULP energy per Si atom -5566.784641 kJ/mol
# Density = 2.225265 g / cm^3
# Si number density = 22.303418 Si / 1000 Ang^3
#
#
#
# Elastic Constant Matrix: (Units=GPa)
#
#
# Indices 1 2 3 4 5 6 
#
# 1 56.1479 19.4558 3.0899 -3.5881 -9.4074 19.3074
# 2 19.4558 102.7633 37.6272 44.2204 -4.5472 6.2084
# 3 3.0899 37.6272 52.5783 18.3272 -13.3629 -2.4304
# 4 -3.5881 44.2204 18.3272 26.1632 -5.5168 10.8030
# 5 -9.4074 -4.5472 -13.3629 -5.5168 31.1664 17.1142
# 6 19.3074 6.2084 -2.4304 10.8030 17.1142 15.3619
#
#
#
# Elastic Compliance Matrix: (Units=1/GPa)
#
#
# Indices 1 2 3 4 5 6 
#
# 1 0.004895 0.006508 0.000412 -0.021836 -0.012638 0.020718
# 2 0.006508 0.016618 -0.007087 -0.007262 0.015597 -0.028286
# 3 0.000412 -0.007087 0.029160 -0.008210 0.008108 0.003701
# 4 -0.021836 -0.007262 -0.008210 0.021447 -0.038793 0.057216
# 5 -0.012638 0.015597 0.008108 -0.038793 0.015996 0.020323
# 6 0.020718 -0.028286 0.003701 0.057216 0.020323 -0.011803
#
#
# Mechanical properties :
#
#
# Convention : Reuss Voigt Hill
#
# Bulk Modulus (GPa) = 19.86521 36.87057 28.36789
# Shear Modulus (GPa) = 53.51747 24.62607 39.07177
#
# Velocity S-wave (km/s) = 4.90380 3.32646 4.19003
# Velocity P-wave (km/s) = 6.40228 5.59652 6.01291
#
# Compressibility (1/GPa) = 0.05033925
#
# Stress axis : x y z
#
# Youngs Moduli (GPa) = 204.27335 60.17629 34.29315
#
# Poissons Ratio (x) = -0.39161 -0.01414
# Poissons Ratio (y) = -1.32934 0.24304
# Poissons Ratio (z) = -0.08420 0.42647
#
# Static dielectric constant tensor:
#      x y z
#    x 1.834690 0.004140 0.098730 
#    y 0.004140 1.836950 -0.003410 
#    z 0.098730 -0.003410 2.071580 
# 
# From -- ./inp_files/467032.got.cif
#   From: 2010.05.17/outbox.cif.g08.bks.cpg/sg2_234_cif.got.tgz:467032.got - 2010.06.03 11:33:40.
