data_PCOD9055530
_publ_section_title
;
Structure prediction by ZEFSAII (Michael W. Deem and Ramdas Pophale) SiO2 
 PCOD9055530
Probable space group: P -1
;
_chemical_formula_sum "Si O2"
_cell_formula_units_Z 16
_cell_length_a 19.112366
_cell_length_b 11.714925
_cell_length_c 9.605346
_cell_angle_alpha 139.803489
_cell_angle_beta 132.887604
_cell_angle_gamma 30.201779
_cell_volume 696.870297
_symmetry_space_group_name_H-M "P -1"
_symmetry_group_IT_number 2
_symmetry_cell_setting 'triclinic'
loop_
_space_group_symop_operation_xyz
x,y,z
-x,-y,-z
loop_
_atom_site_type_symbol
_atom_site_label
_atom_site_fract_x
_atom_site_fract_y
_atom_site_fract_z
Si Si1 0.448026 0.733484 0.008335
Si Si2 0.148072 0.738559 0.012804
Si Si3 0.233060 0.157408 0.306103
Si Si4 0.289242 0.468965 0.670642
Si Si5 0.945733 0.438596 0.080655
Si Si6 0.876204 0.051015 0.317385
Si Si7 0.303990 0.959640 0.761209
Si Si8 0.355559 0.787209 0.369609
O O1 0.559995 0.665693 0.202096
O O2 0.308330 0.912612 0.078438
O O3 0.517717 0.465868 0.784105
O O4 0.404703 0.895256 0.959764
O O5 0.243361 0.778258 0.215599
O O6 0.214543 0.555388 0.799164
O O7 0.123049 0.636038 0.006272
O O8 0.000000 0.000000 0.000000
O O9 0.284709 0.275839 0.429087
O O10 0.066647 0.365619 0.269934
O O11 0.288832 0.034330 0.419230
O O12 0.203851 0.715748 0.685218
O O13 0.823970 0.736326 0.155554
O O14 0.038531 0.232644 0.890863
O O15 0.766787 0.122407 0.347643
O O16 0.000000 0.000000 0.500000
O O17 0.382233 0.813963 0.587260
#
# Coordination Sequence:
#
# PCOD9055530 Si02
#       8
#     2   2   2   2   2   2   2   2
#     4  11  26  49  69  99 140 187 237 280 345 411
#     4  11  21  42  69 101 139 178 227 284 348 408
#     4  12  24  44  76 102 136 181 236 289 337 416
#     4  11  26  44  71 102 136 188 235 283 339 417
#     4  12  24  43  70 107 140 177 231 287 353 406
#     4  12  25  42  68 103 144 180 223 284 355 411
#     4  12  27  43  71 104 142 182 228 292 345 411
#     4  11  25  46  71 102 136 184 234 283 349 410
#
# _framework density 22.959795
#
# number of rings (size 3 to 8) (size 9 to 14) (size 15 to 20)
#    0.000    0.500    3.750    4.500    5.250    1.000 
#    0.000    5.625    0.000    0.000    0.000    0.000 
#    0.000    0.000    0.000    0.000    0.000    0.000 
#
# Total GULP energy -89466.414484 kJ/mol
# GULP energy per Si atom -5591.650905 kJ/mol
# Density = 2.290754 g / cm^3
# Si number density = 22.959795 Si / 1000 Ang^3
#
#
#
# Elastic Constant Matrix: (Units=GPa)
#
#
# Indices 1 2 3 4 5 6 
#
# 1 80.9533 29.0326 30.5986 6.0395 1.0898 11.2133
# 2 29.0326 146.3918 24.0796 1.6236 19.9948 2.9129
# 3 30.5986 24.0796 56.8423 -4.6531 7.5580 8.4513
# 4 6.0395 1.6236 -4.6531 30.6267 2.2884 -0.2196
# 5 1.0898 19.9948 7.5580 2.2884 31.1092 -1.2760
# 6 11.2133 2.9129 8.4513 -0.2196 -1.2760 39.1472
#
#
#
# Elastic Compliance Matrix: (Units=1/GPa)
#
#
# Indices 1 2 3 4 5 6 
#
# 1 0.017163 -0.002310 -0.008671 -0.004841 0.003231 -0.002794
# 2 -0.002310 0.008205 -0.001620 0.000135 -0.004799 0.000245
# 3 -0.008671 -0.001620 0.024536 0.005889 -0.005165 -0.002828
# 4 -0.004841 0.000135 0.005889 0.034786 -0.003900 0.000173
# 5 0.003231 -0.004799 -0.005165 -0.003900 0.036728 0.001722
# 6 -0.002794 0.000245 -0.002828 0.000173 0.001722 0.026994
#
#
# Mechanical properties :
#
#
# Convention : Reuss Voigt Hill
#
# Bulk Modulus (GPa) = 40.48152 50.17880 45.33016
# Shear Modulus (GPa) = 27.49550 33.54170 30.51860
#
# Velocity S-wave (km/s) = 3.46432 3.82630 3.64980
# Velocity P-wave (km/s) = 5.80274 6.43610 6.12760
#
# Compressibility (1/GPa) = 0.02470263
#
# Stress axis : x y z
#
# Youngs Moduli (GPa) = 58.26360 121.88429 40.75667
#
# Poissons Ratio (x) = 0.28151 0.35341
# Poissons Ratio (y) = 0.13457 0.06601
# Poissons Ratio (z) = 0.50522 0.19741
#
# Static dielectric constant tensor:
#      x y z
#    x 1.874340 -0.025100 -0.022250 
#    y -0.025100 1.881820 0.007030 
#    z -0.022250 0.007030 1.961670 
# 
# From -- ./inp_files/346508.got.cif
#   From: 2010.05.17/outbox.cif.g08.bks.cpg/sg2_174_cif.got.tgz:346508.got - 2010.06.03 11:33:40.
