data_PCOD9055104
_publ_section_title
;
Structure prediction by ZEFSAII (Michael W. Deem and Ramdas Pophale) SiO2 
 PCOD9055104
Probable space group: P -1
;
_chemical_formula_sum "Si O2"
_cell_formula_units_Z 14
_cell_length_a 8.039717
_cell_length_b 13.589189
_cell_length_c 8.561404
_cell_angle_alpha 59.487923
_cell_angle_beta 90.527779
_cell_angle_gamma 129.056671
_cell_volume 554.170712
_symmetry_space_group_name_H-M "P -1"
_symmetry_group_IT_number 2
_symmetry_cell_setting 'triclinic'
loop_
_space_group_symop_operation_xyz
x,y,z
-x,-y,-z
loop_
_atom_site_type_symbol
_atom_site_label
_atom_site_fract_x
_atom_site_fract_y
_atom_site_fract_z
Si Si1 0.022528 0.413770 0.443671
Si Si2 0.541170 0.178972 0.492114
Si Si3 0.934138 0.735965 0.184735
Si Si4 0.406046 0.909659 0.903668
Si Si5 0.630405 0.803950 0.846375
Si Si6 0.167386 0.145410 0.656066
Si Si7 0.566086 0.512422 0.758624
O O1 0.828565 0.341704 0.367152
O O2 0.000000 0.500000 0.500000
O O3 0.950110 0.267812 0.661475
O O4 0.285270 0.511102 0.312350
O O5 0.430717 0.173532 0.339639
O O6 0.393513 0.172504 0.631073
O O7 0.500936 0.028452 0.660657
O O8 0.872972 0.826229 0.191882
O O9 0.672036 0.560936 0.272117
O O10 0.120622 0.798217 0.000680
O O11 0.488635 0.820972 0.947451
O O12 0.500000 0.000000 0.000000
O O13 0.544752 0.627722 0.995442
O O14 0.917529 0.960937 0.751861
O O15 0.245904 0.287591 0.420989
#
# Coordination Sequence:
#
# PCOD9055104 Si02
#       7
#     2   2   2   2   2   2   2
#     4  11  21  40  67 101 143 179 239 294 344 413
#     4  12  26  44  72 104 145 191 231 295 363 420
#     4  11  22  40  69 104 135 183 236 298 342 410
#     4  12  23  43  72 105 138 186 243 292 348 420
#     4  12  27  47  71 105 146 189 235 291 359 431
#     4  11  24  45  70 105 147 181 239 295 354 419
#     4  11  25  43  70 104 142 188 235 289 359 419
#
# _framework density 25.262972999999999
#
# number of rings (size 3 to 8) (size 9 to 14) (size 15 to 20)
#    0.000    0.571    2.857    6.857    2.000    2.286 
#    0.000    1.429    0.000    0.000    0.000    0.000 
#    0.000    0.000    0.000    0.000    0.000    0.000 
#
# Total GULP energy -78138.174365 kJ/mol
# GULP energy per Si atom -5581.298169 kJ/mol
# Density = 2.520547 g / cm^3
# Si number density = 25.262973 Si / 1000 Ang^3
#
#
#
# Elastic Constant Matrix: (Units=GPa)
#
#
# Indices 1 2 3 4 5 6 
#
# 1 132.4408 24.8009 16.4960 -18.9331 -10.3226 1.8509
# 2 24.8009 47.6165 32.1489 -11.5046 1.3084 12.5285
# 3 16.4960 32.1489 126.0819 -24.8160 23.1897 4.2572
# 4 -18.9331 -11.5046 -24.8160 33.7885 -0.6984 6.8474
# 5 -10.3226 1.3084 23.1897 -0.6984 53.2279 -10.4097
# 6 1.8509 12.5285 4.2572 6.8474 -10.4097 49.4821
#
#
#
# Elastic Compliance Matrix: (Units=1/GPa)
#
#
# Indices 1 2 3 4 5 6 
#
# 1 0.008967 -0.004142 0.000247 0.003718 0.001895 0.000576
# 2 -0.004142 0.030478 -0.005812 0.005381 -0.000497 -0.007911
# 3 0.000247 -0.005812 0.011765 0.007019 -0.005157 -0.001606
# 4 0.003718 0.005381 0.007019 0.040302 -0.003591 -0.008438
# 5 0.001895 -0.000497 -0.005157 -0.003591 0.022486 0.005726
# 6 0.000576 -0.007911 -0.001606 -0.008438 0.005726 0.024701
#
#
# Mechanical properties :
#
#
# Convention : Reuss Voigt Hill
#
# Bulk Modulus (GPa) = 31.45153 50.33676 40.89414
# Shear Modulus (GPa) = 29.63627 42.81260 36.22443
#
# Velocity S-wave (km/s) = 3.42879 4.12111 3.79079
# Velocity P-wave (km/s) = 5.30586 6.52787 5.94833
#
# Compressibility (1/GPa) = 0.03179496
#
# Stress axis : x y z
#
# Youngs Moduli (GPa) = 111.52544 32.81087 84.99555
#
# Poissons Ratio (x) = 0.13592 -0.02098
# Poissons Ratio (y) = 0.46198 0.49398
# Poissons Ratio (z) = -0.02753 0.19069
#
# Static dielectric constant tensor:
#      x y z
#    x 1.636200 0.057840 -0.159990 
#    y 0.057840 1.951340 0.008740 
#    z -0.159990 0.008740 2.037370 
# 
# From -- ./inp_files/184378.got.cif
#   From: 2010.05.17/outbox.cif.g08.bks.cpg/sg2_93_cif.got.tgz:184378.got - 2010.06.03 11:33:40.
