data_PCOD9055045
_publ_section_title
;
Structure prediction by ZEFSAII (Michael W. Deem and Ramdas Pophale) SiO2 
 PCOD9055045
Probable space group: P -1
;
_chemical_formula_sum "Si O2"
_cell_formula_units_Z 13
_cell_length_a 12.899236
_cell_length_b 10.930791
_cell_length_c 9.319981
_cell_angle_alpha 42.342837
_cell_angle_beta 124.627233
_cell_angle_gamma 145.322149
_cell_volume 500.913375
_symmetry_space_group_name_H-M "P -1"
_symmetry_group_IT_number 2
_symmetry_cell_setting 'triclinic'
loop_
_space_group_symop_operation_xyz
x,y,z
-x,-y,-z
loop_
_atom_site_type_symbol
_atom_site_label
_atom_site_fract_x
_atom_site_fract_y
_atom_site_fract_z
Si Si1 0.136066 0.727098 0.790632
Si Si2 0.253407 0.065657 0.850711
Si Si3 0.389656 0.718814 0.076709
Si Si4 0.500000 0.500000 0.000000
Si Si5 0.826636 0.616990 0.526337
Si Si6 0.835274 0.116864 0.759471
Si Si7 0.735040 0.404102 0.355141
O O1 0.017696 0.711050 0.598317
O O2 0.238845 0.981481 0.749879
O O3 0.268713 0.699471 0.881505
O O4 0.000000 0.500000 0.000000
O O5 0.470794 0.288451 0.860731
O O6 0.158009 0.158223 0.698234
O O7 0.175266 0.860404 0.094316
O O8 0.259436 0.492533 0.288726
O O9 0.500000 0.000000 0.000000
O O10 0.597261 0.395616 0.177154
O O11 0.294356 0.189832 0.104614
O O12 0.689280 0.388222 0.502304
O O13 0.753566 0.205430 0.534284
O O14 0.051032 0.312369 0.735406
#
# Coordination Sequence:
#
# PCOD9055045 Si02
#       7
#     2   2   2   1   2   2   2
#     4   9  19  37  59  89 122 168 208 256 331 395
#     4  11  21  40  63  94 132 166 220 276 331 402
#     4   9  19  37  59  89 126 164 210 262 324 396
#     4  12  24  48  70 104 130 178 244 274 346 396
#     4  11  21  40  63  94 130 168 221 272 335 403
#     4  11  25  48  70 100 139 180 226 286 343 401
#     4  11  25  48  71  99 139 181 226 288 340 403
#
# _framework density 25.952590000000001
#
# number of rings (size 3 to 8) (size 9 to 14) (size 15 to 20)
#    0.000    1.538    1.538    4.615    0.000    0.000 
#   19.385    0.000    0.000    0.000    0.000    0.000 
#    0.000    0.000    0.000    0.000    0.000    0.000 
#
# Total GULP energy -72409.415497 kJ/mol
# GULP energy per Si atom -5569.955038 kJ/mol
# Density = 2.589352 g / cm^3
# Si number density = 25.952590 Si / 1000 Ang^3
#
#
#
# Elastic Constant Matrix: (Units=GPa)
#
#
# Indices 1 2 3 4 5 6 
#
# 1 77.4080 6.5867 52.9703 22.3090 19.5646 27.7998
# 2 6.5867 93.6470 44.3880 2.6532 14.1854 15.2642
# 3 52.9703 44.3880 112.7481 14.6416 24.5634 9.2747
# 4 22.3090 2.6532 14.6416 48.1099 1.7798 6.8590
# 5 19.5646 14.1854 24.5634 1.7798 46.9519 7.7682
# 6 27.7998 15.2642 9.2747 6.8590 7.7682 31.1323
#
#
#
# Elastic Compliance Matrix: (Units=1/GPa)
#
#
# Indices 1 2 3 4 5 6 
#
# 1 0.041034 0.012799 -0.019305 -0.008830 -0.004907 -0.033996
# 2 0.012799 0.018074 -0.011163 -0.001149 -0.002238 -0.016153
# 3 -0.019305 -0.011163 0.021420 0.000748 -0.002599 0.016814
# 4 -0.008830 -0.001149 0.000748 0.024304 0.002336 0.002288
# 5 -0.004907 -0.002238 -0.002599 0.002336 0.025389 -0.000597
# 6 -0.033996 -0.016153 0.016814 0.002288 -0.000597 0.065033
#
#
# Mechanical properties :
#
#
# Convention : Reuss Voigt Hill
#
# Bulk Modulus (GPa) = 22.12912 54.63256 38.38084
# Shear Modulus (GPa) = 20.35375 37.22936 28.79155
#
# Velocity S-wave (km/s) = 2.80351 3.79161 3.33436
# Velocity P-wave (km/s) = 4.36175 6.34547 5.44471
#
# Compressibility (1/GPa) = 0.04518932
#
# Stress axis : x y z
#
# Youngs Moduli (GPa) = 24.37014 55.32847 46.68561
#
# Poissons Ratio (x) = -0.70814 0.90126
# Poissons Ratio (y) = -0.31191 0.52116
# Poissons Ratio (z) = 0.47046 0.61764
#
# Static dielectric constant tensor:
#      x y z
#    x 2.298190 -0.097880 -0.056050 
#    y -0.097880 2.045540 0.040640 
#    z -0.056050 0.040640 1.983120 
# 
# From -- ./inp_files/453551.got.cif
#   From: 2010.05.17/outbox.cif.g08.bks.cpg/sg2_227_cif.got.tgz:453551.got - 2010.06.03 11:33:40.
