data_PCOD9055890
_publ_section_title
;
Structure prediction by ZEFSAII (Michael W. Deem and Ramdas Pophale) SiO2 
 PCOD9055890
Probable space group: P -1
;
_chemical_formula_sum "Si O2"
_cell_formula_units_Z 15
_cell_length_a 13.910001
_cell_length_b 8.756380
_cell_length_c 8.297259
_cell_angle_alpha 112.132895
_cell_angle_beta 73.176986
_cell_angle_gamma 139.566489
_cell_volume 607.146301
_symmetry_space_group_name_H-M "P -1"
_symmetry_group_IT_number 2
_symmetry_cell_setting 'triclinic'
loop_
_space_group_symop_operation_xyz
x,y,z
-x,-y,-z
loop_
_atom_site_type_symbol
_atom_site_label
_atom_site_fract_x
_atom_site_fract_y
_atom_site_fract_z
Si Si1 0.693112 0.136203 0.171189
Si Si2 0.103289 0.911891 0.003070
Si Si3 0.086541 0.449868 0.517624
Si Si4 0.774354 0.510854 0.081217
Si Si5 0.731031 0.585419 0.781806
Si Si6 0.151536 0.060930 0.671625
Si Si7 0.527776 0.675399 0.425125
Si Si8 0.500000 0.000000 0.500000
O O1 0.759757 0.047423 0.036424
O O2 0.832672 0.383686 0.300322
O O3 0.670972 0.240793 0.082998
O O4 0.566880 0.974270 0.302532
O O5 0.091789 0.954553 0.839162
O O6 0.941393 0.648325 0.018734
O O7 0.143041 0.121574 0.170060
O O8 0.218231 0.524015 0.375504
O O9 0.000000 0.500000 0.500000
O O10 0.966011 0.160342 0.480702
O O11 0.800333 0.691457 0.266452
O O12 0.713307 0.520129 0.951516
O O13 0.591285 0.496154 0.726849
O O14 0.300779 0.137090 0.623804
O O15 0.500000 0.500000 0.500000
O O16 0.502684 0.835390 0.546555
#
# Coordination Sequence:
#
# PCOD9055890 Si02
#       8
#     2   2   2   2   2   2   2   1
#     4  12  25  42  73 105 151 187 243 306 368 438
#     4  11  21  44  69 106 146 187 235 307 368 435
#     4  12  21  41  74 106 135 198 243 301 373 424
#     4  11  23  43  71 108 143 189 244 302 370 446
#     4  11  24  46  76 100 150 194 240 305 375 439
#     4  11  22  42  70  99 143 182 237 305 360 426
#     4  12  27  48  72 106 147 195 245 301 372 442
#     4  12  24  50  70 102 154 186 242 312 358 424
#
# _framework density 24.705742999999998
#
# number of rings (size 3 to 8) (size 9 to 14) (size 15 to 20)
#    0.000    0.533    6.667    2.000    0.000    3.733 
#    2.400    0.667    0.000    0.000    0.000    0.000 
#    0.000    0.000    0.000    0.000    0.000    0.000 
#
# Total GULP energy -83702.519107 kJ/mol
# GULP energy per Si atom -5580.167940 kJ/mol
# Density = 2.464951 g / cm^3
# Si number density = 24.705743 Si / 1000 Ang^3
#
#
#
# Elastic Constant Matrix: (Units=GPa)
#
#
# Indices 1 2 3 4 5 6 
#
# 1 115.4389 38.4147 26.9386 -1.0499 -4.0007 -15.0419
# 2 38.4147 69.6498 21.5613 -11.2291 8.9098 -13.9105
# 3 26.9386 21.5613 49.7943 7.2131 -6.0968 -2.9450
# 4 -1.0499 -11.2291 7.2131 36.5057 -4.9912 -2.4481
# 5 -4.0007 8.9098 -6.0968 -4.9912 43.6136 8.4784
# 6 -15.0419 -13.9105 -2.9450 -2.4481 8.4784 53.4758
#
#
#
# Elastic Compliance Matrix: (Units=1/GPa)
#
#
# Indices 1 2 3 4 5 6 
#
# 1 0.011452 -0.005057 -0.003733 -0.000218 0.001247 0.001493
# 2 -0.005057 0.023208 -0.008986 0.008239 -0.006596 0.005542
# 3 -0.003733 -0.008986 0.027566 -0.007832 0.005039 -0.003027
# 4 -0.000218 0.008239 -0.007832 0.031706 0.000235 0.003065
# 5 0.001247 -0.006596 0.005039 0.000235 0.026137 -0.005221
# 6 0.001493 0.005542 -0.003027 0.003065 -0.005221 0.021363
#
#
# Mechanical properties :
#
#
# Convention : Reuss Voigt Hill
#
# Bulk Modulus (GPa) = 37.49234 45.41247 41.45241
# Shear Modulus (GPa) = 26.89958 36.58358 31.74158
#
# Velocity S-wave (km/s) = 3.30327 3.85226 3.58828
# Velocity P-wave (km/s) = 5.45503 6.18124 5.82945
#
# Compressibility (1/GPa) = 0.02667211
#
# Stress axis : x y z
#
# Youngs Moduli (GPa) = 87.31769 43.08923 36.27652
#
# Poissons Ratio (x) = 0.21791 0.13544
# Poissons Ratio (y) = 0.44159 0.32599
# Poissons Ratio (z) = 0.32599 0.38721
#
# Static dielectric constant tensor:
#      x y z
#    x 2.024170 0.096130 0.036330 
#    y 0.096130 2.212660 0.057940 
#    z 0.036330 0.057940 1.962500 
# 
# From -- ./inp_files/299147.got.cif
#   From: 2010.05.17/outbox.cif.g08.bks.cpg/sg2_150_cif.got.tgz:299147.got - 2010.06.03 11:33:40.
