data_PCOD9055721
_publ_section_title
;
Structure prediction by ZEFSAII (Michael W. Deem and Ramdas Pophale) SiO2 
 PCOD9055721
Probable space group: P -1
;
_chemical_formula_sum "Si O2"
_cell_formula_units_Z 16
_cell_length_a 11.094919
_cell_length_b 15.617167
_cell_length_c 15.827705
_cell_angle_alpha 37.052272
_cell_angle_beta 63.127110
_cell_angle_gamma 34.459701
_cell_volume 744.971383
_symmetry_space_group_name_H-M "P -1"
_symmetry_group_IT_number 2
_symmetry_cell_setting 'triclinic'
loop_
_space_group_symop_operation_xyz
x,y,z
-x,-y,-z
loop_
_atom_site_type_symbol
_atom_site_label
_atom_site_fract_x
_atom_site_fract_y
_atom_site_fract_z
Si Si1 0.560490 0.240127 0.016125
Si Si2 0.884224 0.286999 0.529300
Si Si3 0.183668 0.299030 0.366023
Si Si4 0.467696 0.868969 0.239624
Si Si5 0.874701 0.441280 0.965683
Si Si6 0.898896 0.683571 0.308898
Si Si7 0.878802 0.161715 0.076179
Si Si8 0.525985 0.305790 0.787389
O O1 0.359079 0.344333 0.060978
O O2 0.651922 0.307021 0.973004
O O3 0.831842 0.902165 0.186814
O O4 0.439814 0.362167 0.865351
O O5 0.668309 0.558796 0.446597
O O6 0.689299 0.406400 0.423245
O O7 0.054053 0.264441 0.456390
O O8 0.064489 0.007237 0.736309
O O9 0.095296 0.445086 0.189723
O O10 0.091828 0.486593 0.323363
O O11 0.500000 0.000000 0.500000
O O12 0.617326 0.873802 0.216302
O O13 0.462185 0.845520 0.157910
O O14 0.163282 0.141934 0.149420
O O15 0.807287 0.374625 0.974883
O O16 0.000000 0.500000 0.500000
O O17 0.170582 0.914292 0.135885
#
# Coordination Sequence:
#
# PCOD9055721 Si02
#       8
#     2   2   2   2   2   2   2   2
#     4  12  24  38  62  99 130 164 220 272 310 379
#     4   9  20  40  70  88 123 168 216 255 321 388
#     4  11  23  42  65  94 129 168 210 260 333 384
#     4   8  20  39  63  87 127 167 211 250 329 374
#     4  11  24  40  66  94 131 173 214 262 325 382
#     4  11  22  39  62  93 128 168 216 264 317 381
#     4  11  21  43  68  90 126 177 218 260 325 383
#     4   9  21  38  64  91 121 165 214 261 315 377
#
# _framework density 21.477336000000001
#
# number of rings (size 3 to 8) (size 9 to 14) (size 15 to 20)
#    0.750    1.000    0.000    5.625    1.750    2.000 
#    2.250    0.625    0.000    0.000    0.000    0.000 
#    0.000    0.000    0.000    0.000    0.000    0.000 
#
# Total GULP energy -89307.439042 kJ/mol
# GULP energy per Si atom -5581.714940 kJ/mol
# Density = 2.142845 g / cm^3
# Si number density = 21.477336 Si / 1000 Ang^3
#
#
#
# Elastic Constant Matrix: (Units=GPa)
#
#
# Indices 1 2 3 4 5 6 
#
# 1 57.1509 26.8480 14.1994 1.0287 4.6117 -4.6987
# 2 26.8480 120.9024 7.7865 3.3464 3.7651 -3.8210
# 3 14.1994 7.7865 39.3807 13.4682 -3.1076 -0.0265
# 4 1.0287 3.3464 13.4682 31.1838 -4.7157 5.4350
# 5 4.6117 3.7651 -3.1076 -4.7157 27.3510 2.0062
# 6 -4.6987 -3.8210 -0.0265 5.4350 2.0062 24.4421
#
#
#
# Elastic Compliance Matrix: (Units=1/GPa)
#
#
# Indices 1 2 3 4 5 6 
#
# 1 0.022056 -0.004198 -0.008129 0.002033 -0.003967 0.003449
# 2 -0.004198 0.009292 0.000007 -0.001158 -0.000842 0.000972
# 3 -0.008129 0.000007 0.033305 -0.013953 0.002648 0.001360
# 4 0.002033 -0.001158 -0.013953 0.040676 0.005929 -0.009337
# 5 -0.003967 -0.000842 0.002648 0.005929 0.039067 -0.005416
# 6 0.003449 0.000972 0.001360 -0.009337 -0.005416 0.044250
#
#
# Mechanical properties :
#
#
# Convention : Reuss Voigt Hill
#
# Bulk Modulus (GPa) = 24.99181 35.01133 30.00157
# Shear Modulus (GPa) = 22.06304 27.83538 24.94921
#
# Velocity S-wave (km/s) = 3.20858 3.60395 3.41200
# Velocity P-wave (km/s) = 5.03868 5.80128 5.43338
#
# Compressibility (1/GPa) = 0.04001311
#
# Stress axis : x y z
#
# Youngs Moduli (GPa) = 45.33832 107.62017 30.02586
#
# Poissons Ratio (x) = 0.45180 0.24407
# Poissons Ratio (y) = 0.19034 -0.00021
# Poissons Ratio (z) = 0.36854 -0.00074
#
# Static dielectric constant tensor:
#      x y z
#    x 1.803160 -0.010540 -0.009370 
#    y -0.010540 1.770970 0.003010 
#    z -0.009370 0.003010 1.827660 
# 
# From -- ./inp_files/570331.got.cif
#   From: 2010.05.17/outbox.cif.g08.bks.cpg/sg2_286_cif.got.tgz:570331.got - 2010.06.03 11:33:40.
