data_PCOD9055501
_publ_section_title
;
Structure prediction by ZEFSAII (Michael W. Deem and Ramdas Pophale) SiO2 
 PCOD9055501
Probable space group: P -1
;
_chemical_formula_sum "Si O2"
_cell_formula_units_Z 14
_cell_length_a 7.865006
_cell_length_b 7.686579
_cell_length_c 13.293542
_cell_angle_alpha 75.321252
_cell_angle_beta 120.460088
_cell_angle_gamma 122.856246
_cell_volume 581.667119
_symmetry_space_group_name_H-M "P -1"
_symmetry_group_IT_number 2
_symmetry_cell_setting 'triclinic'
loop_
_space_group_symop_operation_xyz
x,y,z
-x,-y,-z
loop_
_atom_site_type_symbol
_atom_site_label
_atom_site_fract_x
_atom_site_fract_y
_atom_site_fract_z
Si Si1 0.409544 0.875972 0.389062
Si Si2 0.155227 0.038550 0.944157
Si Si3 0.963757 0.525675 0.692881
Si Si4 0.444008 0.913571 0.806394
Si Si5 0.792112 0.765985 0.465872
Si Si6 0.135234 0.426386 0.123103
Si Si7 0.353462 0.289569 0.785766
O O1 0.149080 0.702984 0.351997
O O2 0.568262 0.772831 0.432146
O O3 0.500000 0.000000 0.500000
O O4 0.439104 0.012563 0.278856
O O5 0.390854 0.079002 0.057539
O O6 0.213195 0.223355 0.856943
O O7 0.000000 0.000000 0.000000
O O8 0.014076 0.820049 0.877140
O O9 0.862779 0.640245 0.579256
O O10 0.857771 0.484135 0.778457
O O11 0.229662 0.685215 0.760996
O O12 0.375023 0.085191 0.793644
O O13 0.748336 0.677750 0.352246
O O14 0.000000 0.000000 0.500000
O O15 0.392943 0.519014 0.149943
O O16 0.000000 0.500000 0.000000
#
# Coordination Sequence:
#
# PCOD9055501 Si02
#       7
#     2   2   2   2   2   2   2
#     4  11  25  42  65 100 141 170 216 284 333 383
#     4  12  26  44  67 102 135 166 217 290 337 376
#     4  12  22  42  75  98 127 185 228 264 327 401
#     4  11  22  44  68  98 129 178 229 263 328 410
#     4  11  21  42  67  98 131 174 232 265 314 403
#     4  12  22  40  72  96 128 180 224 264 323 402
#     4  11  22  41  69  96 128 177 224 266 319 407
#
# _framework density 24.068746999999998
#
# number of rings (size 3 to 8) (size 9 to 14) (size 15 to 20)
#    0.000    0.571    8.571    1.714    0.000    3.429 
#    0.000    0.000    0.000    0.000    0.000    0.000 
#    0.000    0.000    0.000    0.000    0.000    0.000 
#
# Total GULP energy -78413.117164 kJ/mol
# GULP energy per Si atom -5600.936940 kJ/mol
# Density = 2.401397 g / cm^3
# Si number density = 24.068747 Si / 1000 Ang^3
#
#
#
# Elastic Constant Matrix: (Units=GPa)
#
#
# Indices 1 2 3 4 5 6 
#
# 1 72.2247 23.0876 36.0494 -0.9188 4.1717 23.4514
# 2 23.0876 129.0449 41.0002 23.9122 10.8265 51.3693
# 3 36.0494 41.0002 156.1506 1.7814 3.0172 14.8925
# 4 -0.9188 23.9122 1.7814 53.0100 12.2783 3.2858
# 5 4.1717 10.8265 3.0172 12.2783 37.6231 6.0758
# 6 23.4514 51.3693 14.8925 3.2858 6.0758 31.3737
#
#
#
# Elastic Compliance Matrix: (Units=1/GPa)
#
#
# Indices 1 2 3 4 5 6 
#
# 1 0.023544 0.010940 -0.005151 -0.002494 0.000791 -0.032957
# 2 0.010940 0.032652 -0.005453 -0.011428 0.002994 -0.058434
# 3 -0.005151 -0.005453 0.008175 0.001661 -0.000481 0.008819
# 4 -0.002494 -0.011428 0.001661 0.024519 -0.007588 0.018689
# 5 0.000791 0.002994 -0.000481 -0.007588 0.029799 -0.010242
# 6 -0.032957 -0.058434 0.008819 0.018689 -0.010242 0.148026
#
#
# Mechanical properties :
#
#
# Convention : Reuss Voigt Hill
#
# Bulk Modulus (GPa) = 15.37515 61.96606 38.67061
# Shear Modulus (GPa) = 17.37769 41.55356 29.46562
#
# Velocity S-wave (km/s) = 2.68992 4.15957 3.50269
# Velocity P-wave (km/s) = 4.00618 6.99076 5.69737
#
# Compressibility (1/GPa) = 0.06504000
#
# Stress axis : x y z
#
# Youngs Moduli (GPa) = 42.47421 30.62578 122.33116
#
# Poissons Ratio (x) = -0.33503 0.63018
# Poissons Ratio (y) = -0.46465 0.66713
# Poissons Ratio (z) = 0.21880 0.16702
#
# Static dielectric constant tensor:
#      x y z
#    x 2.027620 -0.037800 -0.007500 
#    y -0.037800 1.960470 0.012770 
#    z -0.007500 0.012770 1.899080 
# 
# From -- ./inp_files/185464.got.cif
#   From: 2010.05.17/outbox.cif.g08.bks.cpg/sg2_93_cif.got.tgz:185464.got - 2010.06.03 11:33:40.
