data_PCOD9055909
_publ_section_title
;
Structure prediction by ZEFSAII (Michael W. Deem and Ramdas Pophale) SiO2 
 PCOD9055909
Probable space group: P -1
;
_chemical_formula_sum "Si O2"
_cell_formula_units_Z 16
_cell_length_a 25.409254
_cell_length_b 21.624923
_cell_length_c 9.821307
_cell_angle_alpha 153.103013
_cell_angle_beta 152.295894
_cell_angle_gamma 19.707138
_cell_volume 785.312712
_symmetry_space_group_name_H-M "P -1"
_symmetry_group_IT_number 2
_symmetry_cell_setting 'triclinic'
loop_
_space_group_symop_operation_xyz
x,y,z
-x,-y,-z
loop_
_atom_site_type_symbol
_atom_site_label
_atom_site_fract_x
_atom_site_fract_y
_atom_site_fract_z
Si Si1 0.267701 0.035613 0.737073
Si Si2 0.338851 0.941736 0.408151
Si Si3 0.878241 0.510419 0.324900
Si Si4 0.302987 0.468646 0.516073
Si Si5 0.375661 0.222963 0.950121
Si Si6 0.855452 0.575366 0.718420
Si Si7 0.988704 0.082703 0.279952
Si Si8 0.971223 0.909468 0.145722
O O1 0.128023 0.078100 0.582429
O O2 0.243077 0.043561 0.533089
O O3 0.266778 0.191781 0.091932
O O4 0.457598 0.835234 0.794311
O O5 0.502280 0.709408 0.355331
O O6 0.387847 0.053329 0.692614
O O7 0.213735 0.982554 0.095504
O O8 0.707729 0.695162 0.226645
O O9 0.895079 0.517969 0.539507
O O10 0.000000 0.500000 0.500000
O O11 0.924455 0.313994 0.017907
O O12 0.219755 0.488397 0.503300
O O13 0.193521 0.696824 0.678734
O O14 0.279826 0.382276 0.167659
O O15 0.000000 0.500000 0.000000
O O16 0.028090 0.933620 0.186500
O O17 0.000000 0.000000 0.000000
O O18 0.000000 0.000000 0.500000
#
# Coordination Sequence:
#
# PCOD9055909 Si02
#       8
#     2   2   2   2   2   2   2   2
#     4  11  22  40  70 104 134 170 220 292 333 397
#     4  11  21  44  70 104 138 166 227 287 338 397
#     4  12  26  43  69  98 136 182 230 283 335 397
#     4  11  22  40  73 101 129 178 221 282 342 398
#     4  11  22  43  69 107 136 166 224 290 347 388
#     4  12  21  37  70 102 129 168 228 278 335 393
#     4  12  25  43  66  93 137 183 229 267 334 412
#     4  12  27  46  63  94 139 186 225 275 338 406
#
# _framework density 20.37405
#
# number of rings (size 3 to 8) (size 9 to 14) (size 15 to 20)
#    0.000    0.500    6.250    3.750    1.750    1.000 
#    4.500    0.625    0.000    0.000    0.000    0.000 
#    0.000    0.000    0.000    0.000    0.000    0.000 
#
# Total GULP energy -89278.341425 kJ/mol
# GULP energy per Si atom -5579.896339 kJ/mol
# Density = 2.032768 g / cm^3
# Si number density = 20.374050 Si / 1000 Ang^3
#
#
#
# Elastic Constant Matrix: (Units=GPa)
#
#
# Indices 1 2 3 4 5 6 
#
# 1 90.8558 12.7201 17.6668 3.8223 -3.5244 8.3000
# 2 12.7201 67.7581 17.1316 -0.8456 6.6438 -0.0169
# 3 17.6668 17.1316 88.0333 -0.1337 -16.1390 -0.8846
# 4 3.8223 -0.8456 -0.1337 37.7227 5.9257 -0.4162
# 5 -3.5244 6.6438 -16.1390 5.9257 38.9689 5.0013
# 6 8.3000 -0.0169 -0.8846 -0.4162 5.0013 25.2301
#
#
#
# Elastic Compliance Matrix: (Units=1/GPa)
#
#
# Indices 1 2 3 4 5 6 
#
# 1 0.012164 -0.001987 -0.001829 -0.001565 0.001482 -0.004387
# 2 -0.001987 0.016573 -0.003716 0.001354 -0.004947 0.001538
# 3 -0.001829 -0.003716 0.013592 -0.000833 0.006246 -0.000176
# 4 -0.001565 0.001354 -0.000833 0.027527 -0.005155 0.001962
# 5 0.001482 -0.004947 0.006246 -0.005155 0.030840 -0.006470
# 6 -0.004387 0.001538 -0.000176 0.001962 -0.006470 0.042388
#
#
# Mechanical properties :
#
#
# Convention : Reuss Voigt Hill
#
# Bulk Modulus (GPa) = 36.67718 37.96493 37.32105
# Shear Modulus (GPa) = 29.89763 33.65958 31.77861
#
# Velocity S-wave (km/s) = 3.83487 4.06899 3.95366
# Velocity P-wave (km/s) = 6.13590 6.38357 6.26096
#
# Compressibility (1/GPa) = 0.02726491
#
# Stress axis : x y z
#
# Youngs Moduli (GPa) = 82.20691 60.33794 73.57450
#
# Poissons Ratio (x) = 0.11990 0.13458
# Poissons Ratio (y) = 0.16335 0.27340
# Poissons Ratio (z) = 0.15037 0.22421
#
# Static dielectric constant tensor:
#      x y z
#    x 1.711790 -0.039140 0.023530 
#    y -0.039140 1.910110 -0.013110 
#    z 0.023530 -0.013110 1.736810 
# 
# From -- ./inp_files/205913.got.cif
#   From: 2010.05.17/outbox.cif.g08.bks.cpg/sg2_103_cif.got.tgz:205913.got - 2010.06.03 11:33:40.
