data_PCOD9055512
_publ_section_title
;
Structure prediction by ZEFSAII (Michael W. Deem and Ramdas Pophale) SiO2 
 PCOD9055512
Probable space group: P -1
;
_chemical_formula_sum "Si O2"
_cell_formula_units_Z 16
_cell_length_a 15.450778
_cell_length_b 13.287535
_cell_length_c 8.324720
_cell_angle_alpha 77.320655
_cell_angle_beta 83.238085
_cell_angle_gamma 25.919980
_cell_volume 716.018453
_symmetry_space_group_name_H-M "P -1"
_symmetry_group_IT_number 2
_symmetry_cell_setting 'triclinic'
loop_
_space_group_symop_operation_xyz
x,y,z
-x,-y,-z
loop_
_atom_site_type_symbol
_atom_site_label
_atom_site_fract_x
_atom_site_fract_y
_atom_site_fract_z
Si Si1 0.819674 0.463700 0.362193
Si Si2 0.323080 0.040073 0.849796
Si Si3 0.128364 0.768511 0.121179
Si Si4 0.411189 0.407845 0.892431
Si Si5 0.826642 0.972639 0.321032
Si Si6 0.980450 0.538542 0.690230
Si Si7 0.479169 0.974033 0.339012
Si Si8 0.523874 0.499090 0.681765
O O1 0.748918 0.455370 0.254260
O O2 0.906563 0.478892 0.274838
O O3 0.002604 0.229937 0.513366
O O4 0.613716 0.727094 0.394738
O O5 0.445459 0.014515 0.798400
O O6 0.300529 0.992298 0.712749
O O7 0.094709 0.321834 0.824281
O O8 0.431701 0.852711 0.021297
O O9 0.270903 0.657862 0.272332
O O10 0.962601 0.863353 0.179525
O O11 0.285180 0.560541 0.028220
O O12 0.000000 0.000000 0.000000
O O13 0.519719 0.397143 0.819235
O O14 0.668203 0.228960 0.315119
O O15 0.000000 0.500000 0.500000
O O16 0.755706 0.791756 0.709059
O O17 0.500000 0.000000 0.500000
O O18 0.500000 0.500000 0.500000
#
# Coordination Sequence:
#
# PCOD9055512 Si02
#       8
#     2   2   2   2   2   2   2   2
#     4  11  26  43  69 104 141 179 242 290 341 426
#     4  11  24  42  72  98 140 181 235 287 342 424
#     4  12  26  46  74  97 145 186 230 298 353 417
#     4  12  27  48  67 108 147 181 234 294 363 413
#     4  12  24  46  74 104 133 190 244 277 357 420
#     4  11  21  42  68 102 139 179 235 286 338 418
#     4  11  21  42  69 101 138 184 233 290 346 409
#     4  12  28  49  71 105 143 185 239 294 343 429
#
# _framework density 22.345791999999999
#
# number of rings (size 3 to 8) (size 9 to 14) (size 15 to 20)
#    0.000    0.500    6.250    1.875    5.250    6.000 
#    2.250    1.250    0.000    0.000    0.000    0.000 
#    0.000    0.000    0.000    0.000    0.000    0.000 
#
# Total GULP energy -89447.442413 kJ/mol
# GULP energy per Si atom -5590.465151 kJ/mol
# Density = 2.229493 g / cm^3
# Si number density = 22.345792 Si / 1000 Ang^3
#
#
#
# Elastic Constant Matrix: (Units=GPa)
#
#
# Indices 1 2 3 4 5 6 
#
# 1 62.1169 7.4702 -8.9741 2.3919 -1.0467 -9.2206
# 2 7.4702 83.7856 12.2429 -28.0141 -12.4795 -21.1039
# 3 -8.9741 12.2429 50.4610 -19.8553 0.9042 -0.9908
# 4 2.3919 -28.0141 -19.8553 45.8922 8.7630 -1.7755
# 5 -1.0467 -12.4795 0.9042 8.7630 38.2670 -7.3750
# 6 -9.2206 -21.1039 -0.9908 -1.7755 -7.3750 31.7611
#
#
#
# Elastic Compliance Matrix: (Units=1/GPa)
#
#
# Indices 1 2 3 4 5 6 
#
# 1 0.017419 -0.000518 0.003388 0.000218 0.001161 0.005100
# 2 -0.000518 0.021293 -0.000293 0.012135 0.007312 0.016365
# 3 0.003388 -0.000293 0.024907 0.011018 -0.002820 0.001527
# 4 0.000218 0.012135 0.011018 0.034786 -0.002361 0.009866
# 5 0.001161 0.007312 -0.002820 -0.002361 0.031525 0.012295
# 6 0.005100 0.016365 0.001527 0.009866 0.012295 0.047294
#
#
# Mechanical properties :
#
#
# Convention : Reuss Voigt Hill
#
# Bulk Modulus (GPa) = 14.54051 24.20461 19.37256
# Shear Modulus (GPa) = 25.64203 35.55902 30.60052
#
# Velocity S-wave (km/s) = 3.39117 3.99345 3.70457
# Velocity P-wave (km/s) = 4.67488 5.66735 5.19487
#
# Compressibility (1/GPa) = 0.06877339
#
# Stress axis : x y z
#
# Youngs Moduli (GPa) = 57.40950 46.96479 40.14949
#
# Poissons Ratio (x) = 0.02432 -0.13605
# Poissons Ratio (y) = 0.02973 0.01176
# Poissons Ratio (z) = -0.19453 0.01376
#
# Static dielectric constant tensor:
#      x y z
#    x 1.818700 0.005690 -0.007580 
#    y 0.005690 1.845540 0.017910 
#    z -0.007580 0.017910 1.871480 
# 
# From -- ./inp_files/307346.got.cif
#   From: 2010.05.17/outbox.cif.g08.bks.cpg/sg2_154_cif.got.tgz:307346.got - 2010.06.03 11:33:40.
