data_PCOD9055131
_publ_section_title
;
Structure prediction by ZEFSAII (Michael W. Deem and Ramdas Pophale) SiO2 
 PCOD9055131
Probable space group: P -1
;
_chemical_formula_sum "Si O2"
_cell_formula_units_Z 16
_cell_length_a 9.445437
_cell_length_b 8.480754
_cell_length_c 19.332006
_cell_angle_alpha 105.851478
_cell_angle_beta 150.249396
_cell_angle_gamma 76.071205
_cell_volume 739.202383
_symmetry_space_group_name_H-M "P -1"
_symmetry_group_IT_number 2
_symmetry_cell_setting 'triclinic'
loop_
_space_group_symop_operation_xyz
x,y,z
-x,-y,-z
loop_
_atom_site_type_symbol
_atom_site_label
_atom_site_fract_x
_atom_site_fract_y
_atom_site_fract_z
Si Si1 0.738687 0.417285 0.195294
Si Si2 0.095936 0.125838 0.689960
Si Si3 0.785435 0.789949 0.554289
Si Si4 0.470633 0.687794 0.539015
Si Si5 0.400472 0.738506 0.135732
Si Si6 0.756337 0.282109 0.775962
Si Si7 0.039368 0.383933 0.169564
Si Si8 0.707996 0.845039 0.070477
O O1 0.600289 0.582728 0.183691
O O2 0.876248 0.424697 0.177472
O O3 0.974572 0.344213 0.338922
O O4 0.476044 0.293966 0.060538
O O5 0.372890 0.115050 0.757396
O O6 0.217024 0.188268 0.822169
O O7 0.849145 0.252215 0.577120
O O8 0.946932 0.953105 0.620231
O O9 0.602736 0.802964 0.549283
O O10 0.552078 0.740793 0.392650
O O11 0.500000 0.500000 0.500000
O O12 0.664557 0.695600 0.689658
O O13 0.273943 0.717979 0.155128
O O14 0.152793 0.732985 0.972768
O O15 0.886323 0.450265 0.820268
O O16 0.985115 0.142675 0.834203
O O17 0.500000 0.000000 0.000000
#
# Coordination Sequence:
#
# PCOD9055131 Si02
#       8
#     2   2   2   2   2   2   2   2
#     4  11  23  42  73 103 129 173 232 274 335 391
#     4  12  24  43  67  99 135 179 229 269 335 402
#     4  11  24  42  69 100 136 175 219 281 334 398
#     4  11  21  40  68 104 126 169 231 286 325 382
#     4  12  26  43  68 100 137 182 218 280 334 400
#     4  12  26  44  66 100 141 173 224 277 344 394
#     4  11  22  41  69 100 129 168 230 286 323 386
#     4  12  23  43  72 101 131 177 225 281 333 401
#
# _framework density 21.644953999999998
#
# number of rings (size 3 to 8) (size 9 to 14) (size 15 to 20)
#    0.000    0.500    6.250    3.375    0.000    1.000 
#    0.000    0.625    2.750    0.000    0.000    0.000 
#    0.000    0.000    0.000    0.000    0.000    0.000 
#
# Total GULP energy -89509.492772 kJ/mol
# GULP energy per Si atom -5594.343298 kJ/mol
# Density = 2.159569 g / cm^3
# Si number density = 21.644954 Si / 1000 Ang^3
#
#
#
# Elastic Constant Matrix: (Units=GPa)
#
#
# Indices 1 2 3 4 5 6 
#
# 1 87.1688 21.3252 37.3239 -19.4223 -11.3897 9.1857
# 2 21.3252 72.1375 32.7489 4.8623 6.3459 22.8695
# 3 37.3239 32.7489 175.2000 -20.0700 9.4356 4.7599
# 4 -19.4223 4.8623 -20.0700 36.7055 6.7413 8.6479
# 5 -11.3897 6.3459 9.4356 6.7413 16.9468 1.1620
# 6 9.1857 22.8695 4.7599 8.6479 1.1620 12.9399
#
#
#
# Elastic Compliance Matrix: (Units=1/GPa)
#
#
# Indices 1 2 3 4 5 6 
#
# 1 0.018907 0.001682 -0.002878 0.011990 0.010576 -0.024300
# 2 0.001682 0.040432 -0.003348 0.014925 -0.012579 -0.080267
# 3 -0.002878 -0.003348 0.007602 0.003467 -0.006528 0.003433
# 4 0.011990 0.014925 0.003467 0.052910 -0.015701 -0.070116
# 5 0.010576 -0.012579 -0.006528 -0.015701 0.079302 0.020497
# 6 -0.024300 -0.080267 0.003433 -0.070116 0.020497 0.280147
#
#
# Mechanical properties :
#
#
# Convention : Reuss Voigt Hill
#
# Bulk Modulus (GPa) = 17.28504 57.47805 37.38154
# Shear Modulus (GPa) = 9.84885 29.52565 19.68725
#
# Velocity S-wave (km/s) = 2.13543 3.69736 3.01915
# Velocity P-wave (km/s) = 3.75275 6.69626 5.42785
#
# Compressibility (1/GPa) = 0.05785351
#
# Stress axis : x y z
#
# Youngs Moduli (GPa) = 52.89059 24.73265 131.53880
#
# Poissons Ratio (x) = -0.04161 0.37860
# Poissons Ratio (y) = -0.08899 0.44043
# Poissons Ratio (z) = 0.15223 0.08281
#
# Static dielectric constant tensor:
#      x y z
#    x 1.762200 0.025480 0.030310 
#    y 0.025480 1.889090 0.024300 
#    z 0.030310 0.024300 1.793360 
# 
# From -- ./inp_files/557286.got.cif
#   From: 2010.05.17/outbox.cif.g08.bks.cpg/sg2_279_cif.got.tgz:557286.got - 2010.06.03 11:33:40.
