data_PCOD9055891
_publ_section_title
;
Structure prediction by ZEFSAII (Michael W. Deem and Ramdas Pophale) SiO2 
 PCOD9055891
Probable space group: P -1
;
_chemical_formula_sum "Si O2"
_cell_formula_units_Z 16
_cell_length_a 6.830183
_cell_length_b 11.692877
_cell_length_c 22.963948
_cell_angle_alpha 29.492752
_cell_angle_beta 115.553596
_cell_angle_gamma 128.092111
_cell_volume 683.687674
_symmetry_space_group_name_H-M "P -1"
_symmetry_group_IT_number 2
_symmetry_cell_setting 'triclinic'
loop_
_space_group_symop_operation_xyz
x,y,z
-x,-y,-z
loop_
_atom_site_type_symbol
_atom_site_label
_atom_site_fract_x
_atom_site_fract_y
_atom_site_fract_z
Si Si1 0.557972 0.794713 0.508370
Si Si2 0.264855 0.818721 0.954304
Si Si3 0.686193 0.008765 0.698879
Si Si4 0.131986 0.262687 0.736907
Si Si5 0.973970 0.767485 0.141111
Si Si6 0.658707 0.354931 0.083047
Si Si7 0.898204 0.654386 0.669570
Si Si8 0.628229 0.573732 0.790151
O O1 0.397874 0.813127 0.426926
O O2 0.328142 0.593750 0.612291
O O3 0.722271 0.648995 0.596527
O O4 0.802956 0.107081 0.411429
O O5 0.358840 0.791071 0.915214
O O6 0.287180 0.109752 0.831807
O O7 0.373681 0.695026 0.068869
O O8 0.958238 0.594445 0.020242
O O9 0.950668 0.167331 0.699261
O O10 0.450748 0.841384 0.788270
O O11 0.710658 0.800322 0.751318
O O12 0.945973 0.152935 0.817338
O O13 0.669764 0.542392 0.206624
O O14 0.118320 0.628386 0.197967
O O15 0.000000 0.000000 0.000000
O O16 0.500000 0.500000 0.000000
O O17 0.799666 0.704543 0.696024
#
# Coordination Sequence:
#
# PCOD9055891 Si02
#       8
#     2   2   2   2   2   2   2   2
#     4  11  26  49  73 104 148 200 254 297 355 442
#     4  11  24  40  72 109 147 183 240 299 375 437
#     4  12  25  46  77 108 147 195 245 303 374 433
#     4  12  27  47  71 114 154 188 243 310 367 432
#     4  12  29  48  77 112 149 191 242 311 376 433
#     4  11  21  44  69 107 147 192 231 298 377 441
#     4  11  26  51  77 105 142 203 252 297 364 438
#     4  12  25  47  78 106 144 190 248 302 368 452
#
# _framework density 23.402498999999999
#
# number of rings (size 3 to 8) (size 9 to 14) (size 15 to 20)
#    0.000    0.500    5.000    2.625    5.250    4.000 
#    0.000    4.375    0.000    0.000    0.000    0.000 
#    0.000    0.000    0.000    0.000    0.000    0.000 
#
# Total GULP energy -89392.117381 kJ/mol
# GULP energy per Si atom -5587.007336 kJ/mol
# Density = 2.334923 g / cm^3
# Si number density = 23.402499 Si / 1000 Ang^3
#
#
#
# Elastic Constant Matrix: (Units=GPa)
#
#
# Indices 1 2 3 4 5 6 
#
# 1 129.3594 40.0114 53.7560 6.7616 -4.1081 1.7974
# 2 40.0114 76.1521 37.4830 20.1529 0.3056 7.2825
# 3 53.7560 37.4830 176.0525 28.8395 -11.3931 0.7943
# 4 6.7616 20.1529 28.8395 35.8072 10.3661 2.2034
# 5 -4.1081 0.3056 -11.3931 10.3661 37.3920 10.6985
# 6 1.7974 7.2825 0.7943 2.2034 10.6985 43.8949
#
#
#
# Elastic Compliance Matrix: (Units=1/GPa)
#
#
# Indices 1 2 3 4 5 6 
#
# 1 0.010141 -0.004907 -0.002601 0.003095 -0.000623 0.000442
# 2 -0.004907 0.018933 -0.000760 -0.009693 0.002644 -0.003084
# 3 -0.002601 -0.000760 0.008009 -0.006708 0.004191 -0.000597
# 4 0.003095 -0.009693 -0.006708 0.042114 -0.014140 0.002935
# 5 -0.000623 0.002644 0.004191 -0.014140 0.034170 -0.008108
# 6 0.000442 -0.003084 -0.000597 0.002935 -0.008108 0.025115
#
#
# Mechanical properties :
#
#
# Convention : Reuss Voigt Hill
#
# Bulk Modulus (GPa) = 48.66676 71.56273 60.11475
# Shear Modulus (GPa) = 30.88935 40.10638 35.49786
#
# Velocity S-wave (km/s) = 3.63701 4.14426 3.89889
# Velocity P-wave (km/s) = 6.20305 7.31746 6.78318
#
# Compressibility (1/GPa) = 0.02054790
#
# Stress axis : x y z
#
# Youngs Moduli (GPa) = 98.60631 52.81689 124.86026
#
# Poissons Ratio (x) = 0.25917 0.32477
# Poissons Ratio (y) = 0.48385 0.09488
# Poissons Ratio (z) = 0.25648 0.04013
#
# Static dielectric constant tensor:
#      x y z
#    x 1.911970 0.001940 -0.000340 
#    y 0.001940 1.953150 -0.000520 
#    z -0.000340 -0.000520 1.920540 
# 
# From -- ./inp_files/604420.got.cif
#   From: 2010.05.17/outbox.cif.g08.bks.cpg/sg2_303_cif.got.tgz:604420.got - 2010.06.03 11:33:40.
