data_PCOD9055502
_publ_section_title
;
Structure prediction by ZEFSAII (Michael W. Deem and Ramdas Pophale) SiO2 
 PCOD9055502
Probable space group: P -1
;
_chemical_formula_sum "Si O2"
_cell_formula_units_Z 14
_cell_length_a 8.003321
_cell_length_b 16.392492
_cell_length_c 11.913789
_cell_angle_alpha 46.177853
_cell_angle_beta 84.696111
_cell_angle_gamma 50.019343
_cell_volume 665.735618
_symmetry_space_group_name_H-M "P -1"
_symmetry_group_IT_number 2
_symmetry_cell_setting 'triclinic'
loop_
_space_group_symop_operation_xyz
x,y,z
-x,-y,-z
loop_
_atom_site_type_symbol
_atom_site_label
_atom_site_fract_x
_atom_site_fract_y
_atom_site_fract_z
Si Si1 0.910281 0.880846 0.318266
Si Si2 0.882504 0.081582 0.553003
Si Si3 0.344833 0.278610 0.872592
Si Si4 0.683513 0.786261 0.309680
Si Si5 0.236807 0.449049 0.303344
Si Si6 0.027630 0.160855 0.042590
Si Si7 0.323075 0.704060 0.279790
O O1 0.887521 0.766119 0.378417
O O2 0.007938 0.858424 0.458481
O O3 0.139402 0.828449 0.282507
O O4 0.600582 0.095593 0.106084
O O5 0.538507 0.265662 0.401202
O O6 0.000000 0.000000 0.500000
O O7 0.001260 0.916622 0.783680
O O8 0.285285 0.232682 0.808886
O O9 0.464438 0.323500 0.761403
O O10 0.066695 0.442984 0.809299
O O11 0.723726 0.636909 0.496969
O O12 0.364906 0.991943 0.168853
O O13 0.151036 0.627063 0.129475
O O14 0.910593 0.187499 0.904164
O O15 0.500000 0.500000 0.500000
#
# Coordination Sequence:
#
# PCOD9055502 Si02
#       7
#     2   2   2   2   2   2   2
#     4  12  22  41  66  94 134 176 212 263 327 381
#     4  11  27  49  69  90 124 174 231 280 319 371
#     4  12  21  38  62  99 141 171 206 259 328 398
#     4  11  22  38  64 100 142 169 203 260 328 401
#     4  11  24  41  66  97 129 174 216 264 327 389
#     4  11  21  42  67  98 136 168 212 271 324 390
#     4  12  22  35  64 104 138 174 210 255 327 404
#
# _framework density 21.029368999999999
#
# number of rings (size 3 to 8) (size 9 to 14) (size 15 to 20)
#    0.000    0.571    4.286    6.429    0.000    0.571 
#    0.000    3.571    0.000    0.000    0.000    0.000 
#    0.000    0.000    0.000    0.000    0.000    0.000 
#
# Total GULP energy -78089.317314 kJ/mol
# GULP energy per Si atom -5577.808380 kJ/mol
# Density = 2.098151 g / cm^3
# Si number density = 21.029369 Si / 1000 Ang^3
#
#
#
# Elastic Constant Matrix: (Units=GPa)
#
#
# Indices 1 2 3 4 5 6 
#
# 1 104.0248 32.3658 11.4654 -0.7758 9.8494 5.0367
# 2 32.3658 104.0918 37.0746 -3.7447 26.8383 -8.9000
# 3 11.4654 37.0746 101.6331 -23.2438 -5.4196 -0.9321
# 4 -0.7758 -3.7447 -23.2438 33.3889 -5.6305 7.4679
# 5 9.8494 26.8383 -5.4196 -5.6305 39.8844 -1.8467
# 6 5.0367 -8.9000 -0.9321 7.4679 -1.8467 12.1396
#
#
#
# Elastic Compliance Matrix: (Units=1/GPa)
#
#
# Indices 1 2 3 4 5 6 
#
# 1 0.011434 -0.004757 0.000991 0.002673 0.000439 -0.009733
# 2 -0.004757 0.019548 -0.009839 -0.011750 -0.014019 0.020645
# 3 0.000991 -0.009839 0.017402 0.016037 0.010330 -0.014583
# 4 0.002673 -0.011750 0.016037 0.050739 0.014855 -0.037445
# 5 0.000439 -0.014019 0.010330 0.014855 0.037290 -0.013132
# 6 -0.009733 0.020645 -0.014583 -0.037445 -0.013132 0.121466
#
#
# Mechanical properties :
#
#
# Convention : Reuss Voigt Hill
#
# Bulk Modulus (GPa) = 47.23319 52.39571 49.81445
# Shear Modulus (GPa) = 17.11467 32.33884 24.72675
#
# Velocity S-wave (km/s) = 2.85589 3.92573 3.43274
# Velocity P-wave (km/s) = 5.77790 6.74670 6.28101
#
# Compressibility (1/GPa) = 0.02117155
#
# Stress axis : x y z
#
# Youngs Moduli (GPa) = 87.46103 51.15717 57.46564
#
# Poissons Ratio (x) = 0.24337 -0.05695
# Poissons Ratio (y) = 0.41608 0.56543
# Poissons Ratio (z) = -0.08668 0.50336
#
# Static dielectric constant tensor:
#      x y z
#    x 1.899200 0.026840 -0.030190 
#    y 0.026840 1.733280 -0.061840 
#    z -0.030190 -0.061840 1.802370 
# 
# From -- ./inp_files/272953.got.cif
#   From: 2010.05.17/outbox.cif.g08.bks.cpg/sg2_137_cif.got.tgz:272953.got - 2010.06.03 11:33:40.
