data_PCOD9055027
_publ_section_title
;
Structure prediction by ZEFSAII (Michael W. Deem and Ramdas Pophale) SiO2 
 PCOD9055027
Probable space group: P -1
;
_chemical_formula_sum "Si O2"
_cell_formula_units_Z 12
_cell_length_a 12.475491
_cell_length_b 7.169120
_cell_length_c 7.658277
_cell_angle_alpha 121.830167
_cell_angle_beta 119.623206
_cell_angle_gamma 52.719110
_cell_volume 447.280763
_symmetry_space_group_name_H-M "P -1"
_symmetry_group_IT_number 2
_symmetry_cell_setting 'triclinic'
loop_
_space_group_symop_operation_xyz
x,y,z
-x,-y,-z
loop_
_atom_site_type_symbol
_atom_site_label
_atom_site_fract_x
_atom_site_fract_y
_atom_site_fract_z
Si Si1 0.646448 0.295418 0.596991
Si Si2 0.318265 0.363202 0.558650
Si Si3 0.418056 0.915305 0.211234
Si Si4 0.945366 0.709901 0.702613
Si Si5 0.226291 0.942169 0.751302
Si Si6 0.936898 0.221811 0.825218
O O1 0.500000 0.500000 0.500000
O O2 0.630149 0.221715 0.745074
O O3 0.711812 0.068588 0.396506
O O4 0.771512 0.375441 0.734559
O O5 0.417315 0.279349 0.767634
O O6 0.204273 0.272719 0.387679
O O7 0.249405 0.658878 0.649343
O O8 0.421306 0.167617 0.399907
O O9 0.322377 0.965423 0.990154
O O10 0.000000 0.500000 0.500000
O O11 0.948546 0.957696 0.764912
O O12 0.022896 0.654980 0.922339
O O13 0.063074 0.134316 0.743147
#
# Coordination Sequence:
#
# PCOD9055027 Si02
#       6
#     2   2   2   2   2   2
#     4  12  26  44  69 101 137 183 225 275 344 408
#     4  11  22  40  72 103 132 178 231 276 336 406
#     4  11  24  46  69 100 140 179 225 279 338 404
#     4  11  21  39  74 100 128 181 227 275 339 403
#     4  12  24  45  75  98 137 182 222 285 343 389
#     4  11  23  43  65 101 138 173 227 282 338 399
#
# _framework density 26.828789
#
# number of rings (size 3 to 8) (size 9 to 14) (size 15 to 20)
#    0.000    0.667    6.667    2.000    0.000    0.000 
#    0.000    7.500    0.000    0.000    0.000    0.000 
#    0.000    0.000    0.000    0.000    0.000    0.000 
#
# Total GULP energy -67016.941975 kJ/mol
# GULP energy per Si atom -5584.745165 kJ/mol
# Density = 2.676773 g / cm^3
# Si number density = 26.828789 Si / 1000 Ang^3
#
#
#
# Elastic Constant Matrix: (Units=GPa)
#
#
# Indices 1 2 3 4 5 6 
#
# 1 108.0456 27.3384 48.1269 -12.0911 11.2518 -11.5063
# 2 27.3384 121.7040 39.7939 9.0983 14.7129 -5.9997
# 3 48.1269 39.7939 190.0204 -16.2927 9.6373 -19.5442
# 4 -12.0911 9.0983 -16.2927 55.5340 -3.6182 14.4770
# 5 11.2518 14.7129 9.6373 -3.6182 44.8382 -5.1277
# 6 -11.5063 -5.9997 -19.5442 14.4770 -5.1277 44.2073
#
#
#
# Elastic Compliance Matrix: (Units=1/GPa)
#
#
# Indices 1 2 3 4 5 6 
#
# 1 0.011085 -0.001690 -0.002129 0.001712 -0.001520 0.000978
# 2 -0.001690 0.009685 -0.001632 -0.002801 -0.002540 0.000776
# 3 -0.002129 -0.001632 0.006422 0.001256 -0.000021 0.001650
# 4 0.001712 -0.002801 0.001256 0.020869 0.001209 -0.006073
# 5 -0.001520 -0.002540 -0.000021 0.001209 0.023804 0.001616
# 6 0.000978 0.000776 0.001650 -0.006073 0.001616 0.025886
#
#
# Mechanical properties :
#
#
# Convention : Reuss Voigt Hill
#
# Bulk Modulus (GPa) = 61.38686 72.25426 66.82056
# Shear Modulus (GPa) = 43.82775 49.21662 46.52218
#
# Velocity S-wave (km/s) = 4.04618 4.28772 4.16870
# Velocity P-wave (km/s) = 6.69024 7.17654 6.93766
#
# Compressibility (1/GPa) = 0.01629013
#
# Stress axis : x y z
#
# Youngs Moduli (GPa) = 90.20917 103.25760 155.71396
#
# Poissons Ratio (x) = 0.17450 0.33156
# Poissons Ratio (y) = 0.15245 0.25407
# Poissons Ratio (z) = 0.19208 0.16848
#
# Static dielectric constant tensor:
#      x y z
#    x 0.523400 1.407500 0.449920 
#    y 1.407500 0.993220 -0.474190 
#    z 0.449920 -0.474190 1.932350 
# 
# From -- ./inp_files/293593.got.cif
#   From: 2010.05.17/outbox.cif.g08.bks.cpg/sg2_147_cif.got.tgz:293593.got - 2010.06.03 11:33:40.
