data_PCOD9055230
_publ_section_title
;
Structure prediction by ZEFSAII (Michael W. Deem and Ramdas Pophale) SiO2 
 PCOD9055230
Probable space group: P -1
;
_chemical_formula_sum "Si O2"
_cell_formula_units_Z 16
_cell_length_a 9.077065
_cell_length_b 20.926071
_cell_length_c 4.922220
_cell_angle_alpha 60.578694
_cell_angle_beta 105.421664
_cell_angle_gamma 127.559735
_cell_volume 644.813593
_symmetry_space_group_name_H-M "P -1"
_symmetry_group_IT_number 2
_symmetry_cell_setting 'triclinic'
loop_
_space_group_symop_operation_xyz
x,y,z
-x,-y,-z
loop_
_atom_site_type_symbol
_atom_site_label
_atom_site_fract_x
_atom_site_fract_y
_atom_site_fract_z
Si Si1 0.137622 0.210618 0.032020
Si Si2 0.546725 0.636493 0.787398
Si Si3 0.612963 0.805570 0.198274
Si Si4 0.821042 0.079096 0.563292
Si Si5 0.282107 0.783644 0.750528
Si Si6 0.319763 0.459776 0.302373
Si Si7 0.809247 0.975420 0.309913
Si Si8 0.946776 0.303853 0.662759
O O1 0.321575 0.302509 0.030536
O O2 0.016585 0.152272 0.353549
O O3 0.212373 0.169195 0.955976
O O4 0.013885 0.238669 0.769239
O O5 0.527349 0.704923 0.463971
O O6 0.660731 0.604074 0.755848
O O7 0.359265 0.545998 0.982499
O O8 0.229442 0.733693 0.541200
O O9 0.466577 0.806311 0.936430
O O10 0.721570 0.129368 0.451725
O O11 0.837909 0.036023 0.934558
O O12 0.721647 0.002048 0.445966
O O13 0.684519 0.875983 0.333160
O O14 0.116711 0.714191 0.020726
O O15 0.500000 0.500000 0.500000
O O16 0.123608 0.402187 0.477517
O O17 0.000000 0.000000 0.500000
#
# Coordination Sequence:
#
# PCOD9055230 Si02
#       8
#     2   2   2   2   2   2   2   2
#     4  11  24  44  78 104 148 185 254 307 356 426
#     4  11  23  40  72 111 146 183 247 304 368 419
#     4  12  29  47  71 109 150 196 240 310 366 439
#     4  11  26  47  73 109 142 196 245 298 369 439
#     4  11  28  48  74 101 155 200 241 287 376 443
#     4  11  21  40  75 114 142 185 247 310 359 428
#     4  12  29  45  77 111 148 182 252 316 367 414
#     4  11  23  46  73 108 141 196 242 298 359 441
#
# _framework density 24.813371
#
# number of rings (size 3 to 8) (size 9 to 14) (size 15 to 20)
#    0.000    0.750    2.500    4.125   12.250    1.000 
#    2.250    1.250    0.000    0.000    0.000    0.000 
#    0.000    0.000    0.000    0.000    0.000    0.000 
#
# Total GULP energy -89670.280317 kJ/mol
# GULP energy per Si atom -5604.392520 kJ/mol
# Density = 2.475689 g / cm^3
# Si number density = 24.813371 Si / 1000 Ang^3
#
#
#
# Elastic Constant Matrix: (Units=GPa)
#
#
# Indices 1 2 3 4 5 6 
#
# 1 62.1015 29.5216 43.7393 -6.9378 11.8206 8.6150
# 2 29.5216 124.0927 62.8369 -1.7955 13.0127 -6.0233
# 3 43.7393 62.8369 193.0035 -22.6262 14.9556 3.8189
# 4 -6.9378 -1.7955 -22.6262 64.5097 1.0783 -0.2098
# 5 11.8206 13.0127 14.9556 1.0783 39.9097 1.6152
# 6 8.6150 -6.0233 3.8189 -0.2098 1.6152 29.5365
#
#
#
# Elastic Compliance Matrix: (Units=1/GPa)
#
#
# Indices 1 2 3 4 5 6 
#
# 1 0.021781 -0.003417 -0.003261 0.001148 -0.003887 -0.006407
# 2 -0.003417 0.010578 -0.002739 -0.000997 -0.001529 0.003585
# 3 -0.003261 -0.002739 0.007132 0.002087 -0.000851 -0.000468
# 4 0.001148 -0.000997 0.002087 0.016348 -0.001214 -0.000625
# 5 -0.003887 -0.001529 -0.000851 -0.001214 0.027080 -0.000558
# 6 -0.006407 0.003585 -0.000468 -0.000625 -0.000558 0.036543
#
#
# Mechanical properties :
#
#
# Convention : Reuss Voigt Hill
#
# Bulk Modulus (GPa) = 48.41035 72.37703 60.39369
# Shear Modulus (GPa) = 34.43968 42.99784 38.71876
#
# Velocity S-wave (km/s) = 3.72956 4.16727 3.95447
# Velocity P-wave (km/s) = 6.17238 7.23787 6.72625
#
# Compressibility (1/GPa) = 0.02065674
#
# Stress axis : x y z
#
# Youngs Moduli (GPa) = 45.91203 94.53412 140.21540
#
# Poissons Ratio (x) = 0.32304 0.45724
# Poissons Ratio (y) = 0.15689 0.38403
# Poissons Ratio (z) = 0.14972 0.25892
#
# Static dielectric constant tensor:
#      x y z
#    x 1.964570 0.004620 0.000080 
#    y 0.004620 1.982820 -0.010610 
#    z 0.000080 -0.010610 2.025790 
# 
# From -- ./inp_files/55384.got.cif
#   From: 2010.05.17/outbox.cif.g08.bks.cpg/sg2_28_cif.got.tgz:55384.got - 2010.06.03 11:33:40.
