data_PCOD9055291
_publ_section_title
;
Structure prediction by ZEFSAII (Michael W. Deem and Ramdas Pophale) SiO2 
 PCOD9055291
Probable space group: P -1
;
_chemical_formula_sum "Si O2"
_cell_formula_units_Z 16
_cell_length_a 8.830637
_cell_length_b 8.674175
_cell_length_c 11.248357
_cell_angle_alpha 133.773481
_cell_angle_beta 87.127324
_cell_angle_gamma 91.155845
_cell_volume 621.242333
_symmetry_space_group_name_H-M "P -1"
_symmetry_group_IT_number 2
_symmetry_cell_setting 'triclinic'
loop_
_space_group_symop_operation_xyz
x,y,z
-x,-y,-z
loop_
_atom_site_type_symbol
_atom_site_label
_atom_site_fract_x
_atom_site_fract_y
_atom_site_fract_z
Si Si1 0.694992 0.639465 0.003050
Si Si2 0.588082 0.172233 0.509174
Si Si3 0.150717 0.791290 0.157757
Si Si4 0.026434 0.242589 0.092634
Si Si5 0.159909 0.129970 0.657388
Si Si6 0.484999 0.648636 0.830064
Si Si7 0.365638 0.181016 0.307229
Si Si8 0.195265 0.474870 0.638234
O O1 0.747109 0.395510 0.889908
O O2 0.526877 0.686718 0.985604
O O3 0.803812 0.724132 0.939314
O O4 0.737968 0.756690 0.185062
O O5 0.552502 0.409328 0.680352
O O6 0.510396 0.159681 0.376785
O O7 0.500000 0.000000 0.500000
O O8 0.763611 0.103893 0.474819
O O9 0.012124 0.859490 0.286139
O O10 0.250534 0.990632 0.225664
O O11 0.067575 0.704436 0.996431
O O12 0.963203 0.396706 0.281088
O O13 0.000000 0.000000 0.000000
O O14 0.180470 0.264356 0.608501
O O15 0.569375 0.799553 0.815896
O O16 0.313406 0.629335 0.783074
O O17 0.273430 0.393863 0.470844
#
# Coordination Sequence:
#
# PCOD9055291 Si02
#       8
#     2   2   2   2   2   2   2   2
#     4  11  23  42  65  95 128 168 214 262 309 378
#     4  11  21  41  66  96 125 167 213 258 313 373
#     4  11  23  42  65  95 128 168 214 262 309 378
#     4  11  23  43  67  94 130 166 208 264 324 373
#     4  11  22  41  68  98 120 167 219 261 312 367
#     4  11  25  42  63  95 134 167 207 263 319 374
#     4  11  25  42  63  95 134 167 207 263 319 374
#     4  11  22  43  67  93 127 168 211 263 316 374
#
# _framework density 25.754845
#
# number of rings (size 3 to 8) (size 9 to 14) (size 15 to 20)
#    0.000    1.000    5.000    3.750    0.000    7.000 
#    0.000    3.750    0.000    0.000    0.000    0.000 
#    0.000    0.000    0.000    0.000    0.000    0.000 
#
# Total GULP energy -89753.684507 kJ/mol
# GULP energy per Si atom -5609.605282 kJ/mol
# Density = 2.569623 g / cm^3
# Si number density = 25.754845 Si / 1000 Ang^3
#
#
#
# Elastic Constant Matrix: (Units=GPa)
#
#
# Indices 1 2 3 4 5 6 
#
# 1 74.3774 18.9760 28.7921 -16.8025 -3.3717 13.1601
# 2 18.9760 98.1899 0.9244 -9.3852 -2.2005 12.6061
# 3 28.7921 0.9244 62.2772 -3.6850 -10.7445 -3.9540
# 4 -16.8025 -9.3852 -3.6850 31.9058 -2.1685 4.5468
# 5 -3.3717 -2.2005 -10.7445 -2.1685 60.8288 -5.7359
# 6 13.1601 12.6061 -3.9540 4.5468 -5.7359 42.8486
#
#
#
# Elastic Compliance Matrix: (Units=1/GPa)
#
#
# Indices 1 2 3 4 5 6 
#
# 1 0.021722 -0.002031 -0.010081 0.010788 -0.001047 -0.008289
# 2 -0.002031 0.011204 0.000799 0.002743 0.000262 -0.002855
# 3 -0.010081 0.000799 0.021517 -0.003146 0.003694 0.005675
# 4 0.010788 0.002743 -0.003146 0.038716 0.000728 -0.008421
# 5 -0.001047 0.000262 0.003694 0.000728 0.017336 0.002829
# 6 -0.008289 -0.002855 0.005675 -0.008421 0.002829 0.028520
#
#
# Mechanical properties :
#
#
# Convention : Reuss Voigt Hill
#
# Bulk Modulus (GPa) = 31.42963 36.91437 34.17200
# Shear Modulus (GPa) = 29.02814 39.52678 34.27746
#
# Velocity S-wave (km/s) = 3.36086 3.92182 3.65213
# Velocity P-wave (km/s) = 5.22402 5.90522 5.57504
#
# Compressibility (1/GPa) = 0.03181711
#
# Stress axis : x y z
#
# Youngs Moduli (GPa) = 46.03686 89.25457 46.47400
#
# Poissons Ratio (x) = 0.18129 0.46850
# Poissons Ratio (y) = 0.09351 -0.03714
# Poissons Ratio (z) = 0.46409 -0.07132
#
# Static dielectric constant tensor:
#      x y z
#    x 2.054810 -0.001970 0.020300 
#    y -0.001970 1.943450 0.002460 
#    z 0.020300 0.002460 2.097610 
# 
# From -- ./inp_files/186617.got.cif
#   From: 2010.05.17/outbox.cif.g08.bks.cpg/sg2_94_cif.got.tgz:186617.got - 2010.06.03 11:33:40.
