data_PCOD9055626
_publ_section_title
;
Structure prediction by ZEFSAII (Michael W. Deem and Ramdas Pophale) SiO2 
 PCOD9055626
Probable space group: P -1
;
_chemical_formula_sum "Si O2"
_cell_formula_units_Z 16
_cell_length_a 9.481747
_cell_length_b 10.774118
_cell_length_c 16.293916
_cell_angle_alpha 56.619353
_cell_angle_beta 78.128347
_cell_angle_gamma 123.918086
_cell_volume 775.882550
_symmetry_space_group_name_H-M "P -1"
_symmetry_group_IT_number 2
_symmetry_cell_setting 'triclinic'
loop_
_space_group_symop_operation_xyz
x,y,z
-x,-y,-z
loop_
_atom_site_type_symbol
_atom_site_label
_atom_site_fract_x
_atom_site_fract_y
_atom_site_fract_z
Si Si1 0.033221 0.599420 0.371638
Si Si2 0.989499 0.143050 0.000688
Si Si3 0.532407 0.877042 0.444923
Si Si4 0.468031 0.773303 0.678059
Si Si5 0.788413 0.408247 0.007262
Si Si6 0.486883 0.070103 0.890335
Si Si7 0.728756 0.915332 0.752201
Si Si8 0.042147 0.900541 0.779692
O O1 0.231815 0.670079 0.270857
O O2 0.000000 0.500000 0.500000
O O3 0.767086 0.384823 0.438074
O O4 0.142978 0.853827 0.288390
O O5 0.979843 0.115918 0.111775
O O6 0.221092 0.454537 0.835815
O O7 0.715031 0.971518 0.069711
O O8 0.000000 0.000000 0.000000
O O9 0.566996 0.859414 0.541573
O O10 0.599198 0.109278 0.338215
O O11 0.671622 0.880536 0.365327
O O12 0.700178 0.926960 0.654891
O O13 0.928012 0.649395 0.849909
O O14 0.569565 0.323544 0.104996
O O15 0.000000 0.500000 0.000000
O O16 0.640361 0.153900 0.074162
O O17 0.500000 0.000000 0.000000
O O18 0.878689 0.893460 0.763027
#
# Coordination Sequence:
#
# PCOD9055626 Si02
#       8
#     2   2   2   2   2   2   2   2
#     4  11  23  42  69  96 133 178 233 273 330 410
#     4  12  27  44  68 104 143 177 222 294 352 398
#     4  11  25  45  73 100 135 187 225 281 343 413
#     4  11  24  47  70  98 141 176 233 281 341 409
#     4  11  21  42  72  95 128 176 231 274 329 403
#     4  11  24  41  69 100 129 175 230 283 330 395
#     4  11  24  41  68 102 137 173 225 287 335 406
#     4  12  25  42  72 102 135 184 228 278 357 406
#
# _framework density 20.621676999999998
#
# number of rings (size 3 to 8) (size 9 to 14) (size 15 to 20)
#    0.000    0.750    3.750    3.375    5.250    2.000 
#    2.250    0.000    0.000    0.000    0.000    0.000 
#    0.000    0.000    0.000    0.000    0.000    0.000 
#
# Total GULP energy -89187.408235 kJ/mol
# GULP energy per Si atom -5574.213015 kJ/mol
# Density = 2.057474 g / cm^3
# Si number density = 20.621677 Si / 1000 Ang^3
#
#
#
# Elastic Constant Matrix: (Units=GPa)
#
#
# Indices 1 2 3 4 5 6 
#
# 1 197.7841 54.0808 63.6598 9.1719 -14.2942 -1.3992
# 2 54.0808 71.5739 38.5180 4.1626 -12.3664 6.4707
# 3 63.6598 38.5180 90.4981 6.6473 -12.1954 -1.6206
# 4 9.1719 4.1626 6.6473 38.9073 6.6783 4.8874
# 5 -14.2942 -12.3664 -12.1954 6.6783 28.1684 6.6997
# 6 -1.3992 6.4707 -1.6206 4.8874 6.6997 35.3141
#
#
#
# Elastic Compliance Matrix: (Units=1/GPa)
#
#
# Indices 1 2 3 4 5 6 
#
# 1 0.007211 -0.003515 -0.003400 -0.000958 0.000687 0.000776
# 2 -0.003515 0.021437 -0.005786 -0.000930 0.006643 -0.005464
# 3 -0.003400 -0.005786 0.016492 -0.002094 0.003040 0.001396
# 4 -0.000958 -0.000930 -0.002094 0.028034 -0.007890 -0.002347
# 5 0.000687 0.006643 0.003040 -0.007890 0.043924 -0.008292
# 6 0.000776 -0.005464 0.001396 -0.002347 -0.008292 0.031311
#
#
# Mechanical properties :
#
#
# Convention : Reuss Voigt Hill
#
# Bulk Modulus (GPa) = 50.65954 74.70813 62.68383
# Shear Modulus (GPa) = 27.71764 34.05112 30.88438
#
# Velocity S-wave (km/s) = 3.67018 4.06794 3.87417
# Velocity P-wave (km/s) = 6.52532 7.64008 7.10460
#
# Compressibility (1/GPa) = 0.01973962
#
# Stress axis : x y z
#
# Youngs Moduli (GPa) = 138.68019 46.64874 60.63384
#
# Poissons Ratio (x) = 0.16395 0.20613
# Poissons Ratio (y) = 0.48741 0.35083
# Poissons Ratio (z) = 0.47145 0.26991
#
# Static dielectric constant tensor:
#      x y z
#    x 1.735840 -0.052420 -0.010830 
#    y -0.052420 1.861240 0.031610 
#    z -0.010830 0.031610 1.903670 
# 
# From -- ./inp_files/559773.got.cif
#   From: 2010.05.17/outbox.cif.g08.bks.cpg/sg2_280_cif.got.tgz:559773.got - 2010.06.03 11:33:40.
