data_PCOD9055759
_publ_section_title
;
Structure prediction by ZEFSAII (Michael W. Deem and Ramdas Pophale) SiO2 
 PCOD9055759
Probable space group: P -1
;
_chemical_formula_sum "Si O2"
_cell_formula_units_Z 16
_cell_length_a 15.344559
_cell_length_b 8.989976
_cell_length_c 11.324301
_cell_angle_alpha 107.431676
_cell_angle_beta 118.988205
_cell_angle_gamma 124.588628
_cell_volume 677.876198
_symmetry_space_group_name_H-M "P -1"
_symmetry_group_IT_number 2
_symmetry_cell_setting 'triclinic'
loop_
_space_group_symop_operation_xyz
x,y,z
-x,-y,-z
loop_
_atom_site_type_symbol
_atom_site_label
_atom_site_fract_x
_atom_site_fract_y
_atom_site_fract_z
Si Si1 0.178046 0.732025 0.258828
Si Si2 0.352228 0.449679 0.793163
Si Si3 0.877993 0.562215 0.462470
Si Si4 0.368399 0.791033 0.566783
Si Si5 0.733551 0.859617 0.002298
Si Si6 0.689773 0.472010 0.963066
Si Si7 0.577966 0.771590 0.651828
Si Si8 0.044870 0.776252 0.385797
O O1 0.240078 0.650204 0.333676
O O2 0.134305 0.772617 0.356061
O O3 0.342069 0.033894 0.363060
O O4 0.000000 0.500000 0.000000
O O5 0.227063 0.420121 0.645239
O O6 0.546606 0.674439 0.904272
O O7 0.210838 0.112515 0.620691
O O8 0.392358 0.557612 0.978539
O O9 0.733661 0.296263 0.398800
O O10 0.933936 0.556299 0.373789
O O11 0.073196 0.855763 0.730517
O O12 0.424293 0.685269 0.584714
O O13 0.554656 0.149251 0.760815
O O14 0.708624 0.638946 0.923818
O O15 0.734682 0.947454 0.898210
O O16 0.892963 0.673185 0.185051
O O17 0.500000 0.500000 0.500000
#
# Coordination Sequence:
#
# PCOD9055759 Si02
#       8
#     2   2   2   2   2   2   2   2
#     4  12  28  50  71 103 148 202 246 301 368 429
#     4  11  21  43  70 113 153 183 248 295 369 448
#     4  11  24  44  72 115 147 187 243 308 374 438
#     4  12  27  49  71 109 152 184 248 317 371 433
#     4  12  23  44  78 106 142 197 252 297 364 440
#     4  11  23  42  76 110 148 192 230 306 385 429
#     4  12  27  49  74 101 142 200 254 297 354 444
#     4  11  23  45  75 110 152 188 248 303 363 449
#
# _framework density 23.60313
#
# number of rings (size 3 to 8) (size 9 to 14) (size 15 to 20)
#    0.000    0.500    3.750    5.250    1.750    3.500 
#    2.250    1.875    0.000    0.000    0.000    0.000 
#    0.000    0.000    0.000    0.000    0.000    0.000 
#
# Total GULP energy -89644.178302 kJ/mol
# GULP energy per Si atom -5602.761144 kJ/mol
# Density = 2.354941 g / cm^3
# Si number density = 23.603130 Si / 1000 Ang^3
#
#
#
# Elastic Constant Matrix: (Units=GPa)
#
#
# Indices 1 2 3 4 5 6 
#
# 1 82.6869 28.9610 9.5431 -6.1716 0.9441 10.9110
# 2 28.9610 107.8738 12.0826 -34.1227 7.0296 8.4050
# 3 9.5431 12.0826 91.0058 -21.4306 10.4721 -13.1464
# 4 -6.1716 -34.1227 -21.4306 47.2770 -3.2478 6.1525
# 5 0.9441 7.0296 10.4721 -3.2478 33.3057 -0.2320
# 6 10.9110 8.4050 -13.1464 6.1525 -0.2320 33.5147
#
#
#
# Elastic Compliance Matrix: (Units=1/GPa)
#
#
# Indices 1 2 3 4 5 6 
#
# 1 0.014055 -0.003611 -0.001950 -0.001046 0.000845 -0.004237
# 2 -0.003611 0.013822 0.000600 0.010148 -0.002041 -0.003933
# 3 -0.001950 0.000600 0.013511 0.005425 -0.003757 0.004762
# 4 -0.001046 0.010148 0.005425 0.031509 -0.000786 -0.005866
# 5 0.000845 -0.002041 -0.003757 -0.000786 0.031530 -0.000874
# 6 -0.004237 -0.003933 0.004762 -0.005866 -0.000874 0.035142
#
#
# Mechanical properties :
#
#
# Convention : Reuss Voigt Hill
#
# Bulk Modulus (GPa) = 31.77986 42.52665 37.15326
# Shear Modulus (GPa) = 31.25409 38.21813 34.73611
#
# Velocity S-wave (km/s) = 3.64284 4.02829 3.84040
# Velocity P-wave (km/s) = 5.58455 6.30021 5.95314
#
# Compressibility (1/GPa) = 0.03146647
#
# Stress axis : x y z
#
# Youngs Moduli (GPa) = 71.14933 72.34969 74.01381
#
# Poissons Ratio (x) = 0.26123 0.14433
# Poissons Ratio (y) = 0.25690 -0.04442
# Poissons Ratio (z) = 0.13875 -0.04342
#
# Static dielectric constant tensor:
#      x y z
#    x 1.899080 0.001010 0.029400 
#    y 0.001010 1.890760 -0.015660 
#    z 0.029400 -0.015660 1.870550 
# 
# From -- ./inp_files/188883.got.cif
#   From: 2010.05.17/outbox.cif.g08.bks.cpg/sg2_95_cif.got.tgz:188883.got - 2010.06.03 11:33:40.
