data_PCOD9055159
_publ_section_title
;
Structure prediction by ZEFSAII (Michael W. Deem and Ramdas Pophale) SiO2 
 PCOD9055159
Probable space group: P -1
;
_chemical_formula_sum "Si O2"
_cell_formula_units_Z 16
_cell_length_a 11.416501
_cell_length_b 14.518937
_cell_length_c 8.459628
_cell_angle_alpha 72.885133
_cell_angle_beta 50.875829
_cell_angle_gamma 42.812452
_cell_volume 700.461593
_symmetry_space_group_name_H-M "P -1"
_symmetry_group_IT_number 2
_symmetry_cell_setting 'triclinic'
loop_
_space_group_symop_operation_xyz
x,y,z
-x,-y,-z
loop_
_atom_site_type_symbol
_atom_site_label
_atom_site_fract_x
_atom_site_fract_y
_atom_site_fract_z
Si Si1 0.779602 0.496910 0.316132
Si Si2 0.950313 0.174915 0.843307
Si Si3 0.130878 0.985424 0.067273
Si Si4 0.819801 0.288957 0.580513
Si Si5 0.678643 0.478278 0.054582
Si Si6 0.514584 0.108438 0.950916
Si Si7 0.337810 0.804451 0.470126
Si Si8 0.134656 0.418545 0.263157
O O1 0.861691 0.360484 0.399708
O O2 0.748030 0.479076 0.171400
O O3 0.530687 0.656851 0.476910
O O4 0.953968 0.492988 0.236121
O O5 0.999094 0.185709 0.617173
O O6 0.784757 0.161460 0.968634
O O7 0.834376 0.318629 0.952181
O O8 0.128868 0.052069 0.879911
O O9 0.878030 0.080940 0.293727
O O10 0.262572 0.974336 0.098201
O O11 0.578707 0.429348 0.788400
O O12 0.761618 0.220197 0.567638
O O13 0.720852 0.553643 0.882945
O O14 0.548987 0.157551 0.736514
O O15 0.310249 0.249551 0.158475
O O16 0.500000 0.000000 0.000000
O O17 0.000000 0.500000 0.500000
#
# Coordination Sequence:
#
# PCOD9055159 Si02
#       8
#     2   2   2   2   2   2   2   2
#     4  11  24  42  75 106 144 183 244 298 372 425
#     4  11  23  37  69 105 143 181 235 300 362 419
#     4  11  25  46  70 102 151 193 240 296 366 440
#     4  11  21  40  69 104 137 176 242 304 363 411
#     4  11  22  42  69 101 144 184 241 303 360 427
#     4  12  28  47  74 104 148 200 243 295 361 444
#     4  11  23  45  71 104 139 187 246 298 354 439
#     4  12  27  47  71 105 150 194 244 303 363 432
#
# _framework density 22.842079999999999
#
# number of rings (size 3 to 8) (size 9 to 14) (size 15 to 20)
#    0.000    0.750    3.750    4.875    3.500    5.000 
#    0.000    0.000    0.000    7.500    0.000    0.000 
#    0.000    0.000    0.000    0.000    0.000    0.000 
#
# Total GULP energy -89305.697794 kJ/mol
# GULP energy per Si atom -5581.606112 kJ/mol
# Density = 2.279009 g / cm^3
# Si number density = 22.842080 Si / 1000 Ang^3
#
#
#
# Elastic Constant Matrix: (Units=GPa)
#
#
# Indices 1 2 3 4 5 6 
#
# 1 66.7654 33.4190 4.6945 8.9551 -2.3983 13.7086
# 2 33.4190 123.7380 39.2956 -3.7008 6.3819 15.1261
# 3 4.6945 39.2956 63.1702 -4.9810 7.5267 4.9064
# 4 8.9551 -3.7008 -4.9810 39.6013 2.4225 9.3666
# 5 -2.3983 6.3819 7.5267 2.4225 27.2051 -8.2352
# 6 13.7086 15.1261 4.9064 9.3666 -8.2352 47.4833
#
#
#
# Elastic Compliance Matrix: (Units=1/GPa)
#
#
# Indices 1 2 3 4 5 6 
#
# 1 0.018781 -0.005500 0.001675 -0.004037 0.002026 -0.002696
# 2 -0.005500 0.012121 -0.006457 0.002308 -0.002503 -0.002495
# 3 0.001675 -0.006457 0.020625 0.002345 -0.004814 -0.001856
# 4 -0.004037 0.002308 0.002345 0.028584 -0.006059 -0.006501
# 5 0.002026 -0.002503 -0.004814 -0.006059 0.042187 0.009222
# 6 -0.002696 -0.002495 -0.001856 -0.006501 0.009222 0.025707
#
#
# Mechanical properties :
#
#
# Convention : Reuss Voigt Hill
#
# Bulk Modulus (GPa) = 32.29670 45.38798 38.84234
# Shear Modulus (GPa) = 27.95047 34.60890 31.27968
#
# Velocity S-wave (km/s) = 3.50185 3.89670 3.70454
# Velocity P-wave (km/s) = 5.52453 6.33713 5.94473
#
# Compressibility (1/GPa) = 0.03096292
#
# Stress axis : x y z
#
# Youngs Moduli (GPa) = 53.24631 82.50319 48.48448
#
# Poissons Ratio (x) = 0.45377 -0.08123
# Poissons Ratio (y) = 0.29285 0.31307
# Poissons Ratio (z) = -0.08921 0.53274
#
# Static dielectric constant tensor:
#      x y z
#    x 1.865450 -0.002270 0.028130 
#    y -0.002270 1.894300 0.026590 
#    z 0.028130 0.026590 1.935110 
# 
# From -- ./inp_files/272371.got.cif
#   From: 2010.05.17/outbox.cif.g08.bks.cpg/sg2_137_cif.got.tgz:272371.got - 2010.06.03 11:33:40.
