data_PCOD9055958
_publ_section_title
;
Structure prediction by ZEFSAII (Michael W. Deem and Ramdas Pophale) SiO2 
 PCOD9055958
Probable space group: P -1
;
_chemical_formula_sum "Si O2"
_cell_formula_units_Z 16
_cell_length_a 9.299722
_cell_length_b 12.066559
_cell_length_c 16.084172
_cell_angle_alpha 25.431260
_cell_angle_beta 59.464952
_cell_angle_gamma 59.581426
_cell_volume 662.061465
_symmetry_space_group_name_H-M "P -1"
_symmetry_group_IT_number 2
_symmetry_cell_setting 'triclinic'
loop_
_space_group_symop_operation_xyz
x,y,z
-x,-y,-z
loop_
_atom_site_type_symbol
_atom_site_label
_atom_site_fract_x
_atom_site_fract_y
_atom_site_fract_z
Si Si1 0.645129 0.514936 0.014039
Si Si2 0.172163 0.119114 0.385795
Si Si3 0.778296 0.637644 0.440515
Si Si4 0.143740 0.967219 0.181014
Si Si5 0.173433 0.038737 0.627168
Si Si6 0.803388 0.763168 0.173189
Si Si7 0.408450 0.634403 0.574097
Si Si8 0.477038 0.181207 0.994395
O O1 0.799871 0.631316 0.845577
O O2 0.567806 0.706812 0.978193
O O3 0.500000 0.500000 0.000000
O O4 0.706065 0.232209 0.224595
O O5 0.184509 0.172678 0.444229
O O6 0.320440 0.896346 0.464144
O O7 0.000000 0.000000 0.500000
O O8 0.843158 0.335962 0.639399
O O9 0.787613 0.797311 0.414224
O O10 0.871970 0.728463 0.269648
O O11 0.579759 0.671200 0.451744
O O12 0.015792 0.020286 0.258944
O O13 0.327543 0.022508 0.117453
O O14 0.088913 0.155858 0.991233
O O15 0.725676 0.499778 0.349958
O O16 0.652404 0.001065 0.058921
O O17 0.467847 0.424824 0.770003
#
# Coordination Sequence:
#
# PCOD9055958 Si02
#       8
#     2   2   2   2   2   2   2   2
#     4  12  28  47  73 105 146 191 237 295 360 425
#     4  12  29  47  74 106 143 193 242 291 354 432
#     4  12  25  43  72 102 140 184 235 292 349 421
#     4  11  25  44  67 102 141 183 234 292 351 413
#     4  12  29  46  68 104 149 190 228 295 358 428
#     4  11  23  41  72 103 132 179 238 292 346 411
#     4  11  22  43  73 100 137 178 238 294 344 410
#     4  11  21  44  73 101 137 181 234 298 349 410
#
# _framework density 24.16694
#
# number of rings (size 3 to 8) (size 9 to 14) (size 15 to 20)
#    0.000    0.500    3.750    4.500    8.750    3.500 
#    0.000    0.000    0.000    0.000    0.000    0.000 
#    0.000    0.000    0.000    0.000    0.000    0.000 
#
# Total GULP energy -89718.933590 kJ/mol
# GULP energy per Si atom -5607.433349 kJ/mol
# Density = 2.411193 g / cm^3
# Si number density = 24.166940 Si / 1000 Ang^3
#
#
#
# Elastic Constant Matrix: (Units=GPa)
#
#
# Indices 1 2 3 4 5 6 
#
# 1 41.0193 -0.6608 0.3013 -0.6899 3.2713 10.5624
# 2 -0.6608 131.0700 19.9898 13.1391 11.4700 21.8954
# 3 0.3013 19.9898 34.1477 -2.3994 2.1750 15.5099
# 4 -0.6899 13.1391 -2.3994 35.4372 -0.6635 5.1769
# 5 3.2713 11.4700 2.1750 -0.6635 22.7430 4.2625
# 6 10.5624 21.8954 15.5099 5.1769 4.2625 50.4213
#
#
#
# Elastic Compliance Matrix: (Units=1/GPa)
#
#
# Indices 1 2 3 4 5 6 
#
# 1 0.026348 0.001023 0.002441 0.001196 -0.003275 -0.006561
# 2 0.001023 0.009405 -0.004498 -0.003528 -0.004151 -0.002202
# 3 0.002441 -0.004498 0.037086 0.005785 0.000527 -0.010604
# 4 0.001196 -0.003528 0.005785 0.030556 0.002669 -0.003861
# 5 -0.003275 -0.004151 0.000527 0.002669 0.046920 -0.001914
# 6 -0.006561 -0.002202 -0.010604 -0.003861 -0.001914 0.025984
#
#
# Mechanical properties :
#
#
# Convention : Reuss Voigt Hill
#
# Bulk Modulus (GPa) = 14.13016 27.27752 20.70384
# Shear Modulus (GPa) = 24.75771 34.16075 29.45923
#
# Velocity S-wave (km/s) = 3.20417 3.76378 3.49519
# Velocity P-wave (km/s) = 4.42137 5.49542 4.98739
#
# Compressibility (1/GPa) = 0.07077063
#
# Stress axis : x y z
#
# Youngs Moduli (GPa) = 37.95365 106.32157 26.96461
#
# Poissons Ratio (x) = -0.10879 -0.06582
# Poissons Ratio (y) = -0.03883 0.12130
# Poissons Ratio (z) = -0.09264 0.47827
#
# Static dielectric constant tensor:
#      x y z
#    x 1.980660 0.004660 -0.038790 
#    y 0.004660 1.875040 0.036830 
#    z -0.038790 0.036830 1.938730 
# 
# From -- ./inp_files/427804.got.cif
#   From: 2010.05.17/outbox.cif.g08.bks.cpg/sg2_214_cif.got.tgz:427804.got - 2010.06.03 11:33:40.
