data_PCOD9055610
_publ_section_title
;
Structure prediction by ZEFSAII (Michael W. Deem and Ramdas Pophale) SiO2 
 PCOD9055610
Probable space group: P -1
;
_chemical_formula_sum "Si O2"
_cell_formula_units_Z 16
_cell_length_a 18.217376
_cell_length_b 9.452613
_cell_length_c 16.594492
_cell_angle_alpha 37.295961
_cell_angle_beta 22.324171
_cell_angle_gamma 39.109656
_cell_volume 647.676086
_symmetry_space_group_name_H-M "P -1"
_symmetry_group_IT_number 2
_symmetry_cell_setting 'triclinic'
loop_
_space_group_symop_operation_xyz
x,y,z
-x,-y,-z
loop_
_atom_site_type_symbol
_atom_site_label
_atom_site_fract_x
_atom_site_fract_y
_atom_site_fract_z
Si Si1 0.718365 0.973250 0.823349
Si Si2 0.294665 0.322928 0.479960
Si Si3 0.314109 0.835447 0.928682
Si Si4 0.002220 0.560352 0.795802
Si Si5 0.543579 0.217654 0.594080
Si Si6 0.898829 0.073629 0.181897
Si Si7 0.826794 0.044969 0.503504
Si Si8 0.817352 0.327317 0.700777
O O1 0.834056 0.020629 0.603530
O O2 0.737450 0.153073 0.795729
O O3 0.818616 0.711985 0.867677
O O4 0.500000 0.000000 0.000000
O O5 0.524707 0.284590 0.244912
O O6 0.195464 0.489165 0.576164
O O7 0.203051 0.431735 0.438478
O O8 0.224077 0.074928 0.682433
O O9 0.387693 0.074438 0.778095
O O10 0.296106 0.675055 0.098611
O O11 0.103152 0.910854 0.069698
O O12 0.060272 0.733854 0.727129
O O13 0.940298 0.321665 0.996609
O O14 0.500000 0.500000 0.500000
O O15 0.604111 0.121801 0.665231
O O16 0.751803 0.126489 0.381723
O O17 0.958467 0.799975 0.452186
#
# Coordination Sequence:
#
# PCOD9055610 Si02
#       8
#     2   2   2   2   2   2   2   2
#     4  11  23  39  68 102 130 170 220 277 335 380
#     4  11  24  46  65  94 137 172 228 265 320 399
#     4  11  25  44  66  98 130 177 223 266 330 390
#     4  11  23  44  67  95 135 172 218 274 328 392
#     4  11  25  42  68 101 135 169 220 272 329 396
#     4  11  26  44  65  96 133 182 217 266 329 388
#     4  11  21  42  71  97 131 170 215 283 333 375
#     4  11  21  44  67  96 135 167 223 278 325 385
#
# _framework density 24.703706
#
# number of rings (size 3 to 8) (size 9 to 14) (size 15 to 20)
#    0.000    1.000    3.750    3.000    5.250    3.000 
#    2.250    0.000    0.000    0.000    0.000    0.000 
#    0.000    0.000    0.000    0.000    0.000    0.000 
#
# Total GULP energy -89533.337065 kJ/mol
# GULP energy per Si atom -5595.833567 kJ/mol
# Density = 2.464748 g / cm^3
# Si number density = 24.703706 Si / 1000 Ang^3
#
#
#
# Elastic Constant Matrix: (Units=GPa)
#
#
# Indices 1 2 3 4 5 6 
#
# 1 43.9976 -4.6477 4.0598 17.5559 -0.5445 -7.8729
# 2 -4.6477 89.3276 17.2957 7.0963 -11.4064 -9.8199
# 3 4.0598 17.2957 96.2684 3.1417 -4.7312 1.4157
# 4 17.5559 7.0963 3.1417 45.1254 -10.5367 -1.9103
# 5 -0.5445 -11.4064 -4.7312 -10.5367 22.8981 3.7827
# 6 -7.8729 -9.8199 1.4157 -1.9103 3.7827 25.7575
#
#
#
# Elastic Compliance Matrix: (Units=1/GPa)
#
#
# Indices 1 2 3 4 5 6 
#
# 1 0.030300 0.003410 -0.001900 -0.013085 -0.005736 0.010538
# 2 0.003410 0.013122 -0.002302 -0.001989 0.004337 0.005387
# 3 -0.001900 -0.002302 0.010980 0.000650 0.001751 -0.002271
# 4 -0.013085 -0.001989 0.000650 0.030507 0.013619 -0.004531
# 5 -0.005736 0.004337 0.001751 0.013619 0.053487 -0.007041
# 6 0.010538 0.005387 -0.002271 -0.004531 -0.007041 0.044921
#
#
# Mechanical properties :
#
#
# Convention : Reuss Voigt Hill
#
# Bulk Modulus (GPa) = 18.93361 29.22325 24.07843
# Shear Modulus (GPa) = 24.69041 32.94858 28.81949
#
# Velocity S-wave (km/s) = 3.16486 3.65602 3.41927
# Velocity P-wave (km/s) = 4.58650 5.44767 5.03553
#
# Compressibility (1/GPa) = 0.05281612
#
# Stress axis : x y z
#
# Youngs Moduli (GPa) = 33.00330 76.20813 91.07754
#
# Poissons Ratio (x) = -0.25987 0.17307
# Poissons Ratio (y) = -0.11254 0.20971
# Poissons Ratio (z) = 0.06271 0.17547
#
# Static dielectric constant tensor:
#      x y z
#    x 2.090930 0.019580 0.068740 
#    y 0.019580 1.929100 -0.001170 
#    z 0.068740 -0.001170 2.002260 
# 
# From -- ./inp_files/428891.got.cif
#   From: 2010.05.17/outbox.cif.g08.bks.cpg/sg2_215_cif.got.tgz:428891.got - 2010.06.03 11:33:40.
