data_PCOD9055276
_publ_section_title
;
Structure prediction by ZEFSAII (Michael W. Deem and Ramdas Pophale) SiO2 
 PCOD9055276
Probable space group: P -1
;
_chemical_formula_sum "Si O2"
_cell_formula_units_Z 16
_cell_length_a 10.539215
_cell_length_b 14.034219
_cell_length_c 8.754277
_cell_angle_alpha 36.013556
_cell_angle_beta 70.208891
_cell_angle_gamma 57.860247
_cell_volume 633.630379
_symmetry_space_group_name_H-M "P -1"
_symmetry_group_IT_number 2
_symmetry_cell_setting 'triclinic'
loop_
_space_group_symop_operation_xyz
x,y,z
-x,-y,-z
loop_
_atom_site_type_symbol
_atom_site_label
_atom_site_fract_x
_atom_site_fract_y
_atom_site_fract_z
Si Si1 0.142388 0.308220 0.131013
Si Si2 0.709160 0.807763 0.489004
Si Si3 0.576755 0.213088 0.434963
Si Si4 0.339903 0.630170 0.071426
Si Si5 0.428392 0.334493 0.846979
Si Si6 0.983341 0.496514 0.691470
Si Si7 0.179040 0.695845 0.343787
Si Si8 0.693683 0.059812 0.902357
O O1 0.209752 0.162376 0.431847
O O2 0.295592 0.318104 0.011978
O O3 0.076242 0.306630 0.991061
O O4 0.000000 0.500000 0.000000
O O5 0.532658 0.858846 0.507085
O O6 0.811652 0.589817 0.701966
O O7 0.733246 0.885849 0.217620
O O8 0.680126 0.264570 0.215262
O O9 0.671428 0.078375 0.706689
O O10 0.453445 0.413508 0.288665
O O11 0.442746 0.694152 0.047961
O O12 0.194208 0.686953 0.165380
O O13 0.340051 0.533202 0.549350
O O14 0.520644 0.192433 0.861488
O O15 0.056751 0.632802 0.527854
O O16 0.000000 0.500000 0.500000
O O17 0.184419 0.870815 0.186029
#
# Coordination Sequence:
#
# PCOD9055276 Si02
#       8
#     2   2   2   2   2   2   2   2
#     4   9  20  38  57  80 112 149 194 232 275 339
#     4  11  23  38  54  88 119 151 189 227 298 337
#     4  11  20  34  54  87 119 143 186 241 283 329
#     4  10  18  31  58  80 111 143 191 240 273 324
#     4  10  17  36  57  80 109 149 194 231 274 337
#     4  10  22  39  65  83 107 150 193 246 275 335
#     4  10  19  38  58  81 111 148 200 223 283 339
#     4  11  22  35  58  84 120 155 179 238 287 345
#
# _framework density 25.251313
#
# number of rings (size 3 to 8) (size 9 to 14) (size 15 to 20)
#    0.000    1.750    3.750    1.875    1.750    1.000 
#    0.000    0.000    0.000    1.500    0.000    0.000 
#    0.000    0.000    0.000    0.000    0.000    0.000 
#
# Total GULP energy -89229.106964 kJ/mol
# GULP energy per Si atom -5576.819185 kJ/mol
# Density = 2.519384 g / cm^3
# Si number density = 25.251313 Si / 1000 Ang^3
#
#
#
# Elastic Constant Matrix: (Units=GPa)
#
#
# Indices 1 2 3 4 5 6 
#
# 1 64.5365 16.0136 35.3979 14.8897 4.6547 -10.2846
# 2 16.0136 48.6822 22.3009 8.3871 0.8848 -14.0172
# 3 35.3979 22.3009 170.3505 29.3315 32.9559 10.3185
# 4 14.8897 8.3871 29.3315 37.1403 3.8201 -0.6219
# 5 4.6547 0.8848 32.9559 3.8201 38.1894 18.6156
# 6 -10.2846 -14.0172 10.3185 -0.6219 18.6156 26.8215
#
#
#
# Elastic Compliance Matrix: (Units=1/GPa)
#
#
# Indices 1 2 3 4 5 6 
#
# 1 0.020919 -0.000975 -0.003065 -0.004986 -0.005386 0.012313
# 2 -0.000975 0.028997 -0.002812 -0.002710 -0.008398 0.021628
# 3 -0.003065 -0.002812 0.008909 -0.004623 -0.005705 -0.002220
# 4 -0.004986 -0.002710 -0.004623 0.032870 0.002654 -0.002629
# 5 -0.005386 -0.008398 -0.005705 0.002654 0.050992 -0.039589
# 6 0.012313 0.021628 -0.002220 -0.002629 -0.039589 0.081577
#
#
# Mechanical properties :
#
#
# Convention : Reuss Voigt Hill
#
# Bulk Modulus (GPa) = 22.16215 47.88821 35.02518
# Shear Modulus (GPa) = 19.76212 34.42068 27.09140
#
# Velocity S-wave (km/s) = 2.80056 3.69606 3.27902
# Velocity P-wave (km/s) = 4.38785 6.10084 5.31383
#
# Compressibility (1/GPa) = 0.04512198
#
# Stress axis : x y z
#
# Youngs Moduli (GPa) = 47.80351 34.48583 112.24120
#
# Poissons Ratio (x) = 0.03362 0.34397
# Poissons Ratio (y) = 0.04661 0.31565
# Poissons Ratio (z) = 0.14650 0.09698
#
# Static dielectric constant tensor:
#      x y z
#    x 2.049120 0.103700 0.023420 
#    y 0.103700 2.079620 0.029300 
#    z 0.023420 0.029300 2.052960 
# 
# From -- ./inp_files/252208.got.cif
#   From: 2010.05.17/outbox.cif.g08.bks.cpg/sg2_127_cif.got.tgz:252208.got - 2010.06.03 11:33:40.
