data_PCOD9055994
_publ_section_title
;
Structure prediction by ZEFSAII (Michael W. Deem and Ramdas Pophale) SiO2 
 PCOD9055994
Probable space group: P -1
;
_chemical_formula_sum "Si O2"
_cell_formula_units_Z 16
_cell_length_a 7.773526
_cell_length_b 15.402045
_cell_length_c 14.464158
_cell_angle_alpha 153.441463
_cell_angle_beta 62.130525
_cell_angle_gamma 110.126112
_cell_volume 672.369395
_symmetry_space_group_name_H-M "P -1"
_symmetry_group_IT_number 2
_symmetry_cell_setting 'triclinic'
loop_
_space_group_symop_operation_xyz
x,y,z
-x,-y,-z
loop_
_atom_site_type_symbol
_atom_site_label
_atom_site_fract_x
_atom_site_fract_y
_atom_site_fract_z
Si Si1 0.337599 0.456451 0.250115
Si Si2 0.370353 0.891309 0.230828
Si Si3 0.333915 0.852185 0.544589
Si Si4 0.701916 0.808402 0.616576
Si Si5 0.933543 0.069937 0.912231
Si Si6 0.343591 0.648739 0.617103
Si Si7 0.985741 0.574234 0.856507
Si Si8 0.281128 0.635172 0.169465
O O1 0.430165 0.638543 0.358555
O O2 0.274975 0.519849 0.429446
O O3 0.164707 0.432315 0.198645
O O4 0.497599 0.257303 0.015574
O O5 0.265629 0.756261 0.194144
O O6 0.522330 0.992006 0.350220
O O7 0.260842 0.072645 0.371321
O O8 0.252716 0.795189 0.412344
O O9 0.152637 0.941418 0.742997
O O10 0.476127 0.797361 0.682470
O O11 0.822397 0.588503 0.366399
O O12 0.789389 0.920338 0.783725
O O13 0.837715 0.221376 0.159036
O O14 0.958381 0.212162 0.954518
O O15 0.500000 0.500000 0.500000
O O16 0.873051 0.508684 0.910476
O O17 0.500000 0.500000 0.000000
#
# Coordination Sequence:
#
# PCOD9055994 Si02
#       8
#     2   2   2   2   2   2   2   2
#     4  11  23  46  69 103 136 181 238 285 333 413
#     4  12  24  42  75 102 139 185 229 286 349 407
#     4  11  22  44  70 104 136 178 238 287 332 415
#     4  12  26  46  67 104 146 175 233 289 348 411
#     4  12  24  46  70  98 142 188 227 289 342 404
#     4  12  26  46  73  99 140 191 227 286 358 405
#     4  11  24  46  68 102 144 173 233 290 336 409
#     4  11  21  44  76 100 136 186 232 280 346 411
#
# _framework density 23.796444000000001
#
# number of rings (size 3 to 8) (size 9 to 14) (size 15 to 20)
#    0.000    0.500    8.750    1.500    0.000    1.500 
#    0.000    0.625    0.000    0.000    0.000    0.000 
#    0.000    0.000    0.000    0.000    0.000    0.000 
#
# Total GULP energy -89507.953689 kJ/mol
# GULP energy per Si atom -5594.247106 kJ/mol
# Density = 2.374228 g / cm^3
# Si number density = 23.796444 Si / 1000 Ang^3
#
#
#
# Elastic Constant Matrix: (Units=GPa)
#
#
# Indices 1 2 3 4 5 6 
#
# 1 41.1836 15.4399 5.2648 2.3974 -1.1747 8.2441
# 2 15.4399 66.5195 1.3982 6.9635 3.8291 10.4213
# 3 5.2648 1.3982 92.8239 11.4150 -9.0236 3.4376
# 4 2.3974 6.9635 11.4150 39.1446 3.8287 1.0732
# 5 -1.1747 3.8291 -9.0236 3.8287 22.3068 5.7325
# 6 8.2441 10.4213 3.4376 1.0732 5.7325 42.8555
#
#
#
# Elastic Compliance Matrix: (Units=1/GPa)
#
#
# Indices 1 2 3 4 5 6 
#
# 1 0.027565 -0.005843 -0.000930 -0.000581 0.003265 -0.004229
# 2 -0.005843 0.017192 0.000288 -0.002513 -0.002004 -0.002749
# 3 -0.000930 0.000288 0.011935 -0.004001 0.005808 -0.001525
# 4 -0.000581 -0.002513 -0.004001 0.027778 -0.006291 0.001190
# 5 0.003265 -0.002004 0.005808 -0.006291 0.050630 -0.007221
# 6 -0.004229 -0.002749 -0.001525 0.001190 -0.007221 0.025875
#
#
# Mechanical properties :
#
#
# Convention : Reuss Voigt Hill
#
# Bulk Modulus (GPa) = 22.87149 27.19253 25.03201
# Shear Modulus (GPa) = 26.52263 32.75633 29.63948
#
# Velocity S-wave (km/s) = 3.34213 3.71418 3.53305
# Velocity P-wave (km/s) = 4.95230 5.46310 5.21396
#
# Compressibility (1/GPa) = 0.04372255
#
# Stress axis : x y z
#
# Youngs Moduli (GPa) = 36.27853 58.16500 83.79007
#
# Poissons Ratio (x) = 0.33986 0.07792
# Poissons Ratio (y) = 0.21198 -0.02417
# Poissons Ratio (z) = 0.03374 -0.01678
#
# Static dielectric constant tensor:
#      x y z
#    x 1.923210 -0.023350 0.001070 
#    y -0.023350 1.937460 -0.019160 
#    z 0.001070 -0.019160 1.856900 
# 
# From -- ./inp_files/505712.got.cif
#   From: 2010.05.17/outbox.cif.g08.bks.cpg/sg2_253_cif.got.tgz:505712.got - 2010.06.03 11:33:40.
