data_PCOD9055093
_publ_section_title
;
Structure prediction by ZEFSAII (Michael W. Deem and Ramdas Pophale) SiO2 
 PCOD9055093
Probable space group: P -1
;
_chemical_formula_sum "Si O2"
_cell_formula_units_Z 16
_cell_length_a 12.129278
_cell_length_b 11.317906
_cell_length_c 7.817480
_cell_angle_alpha 57.306250
_cell_angle_beta 116.383411
_cell_angle_gamma 87.582406
_cell_volume 750.251542
_symmetry_space_group_name_H-M "P -1"
_symmetry_group_IT_number 2
_symmetry_cell_setting 'triclinic'
loop_
_space_group_symop_operation_xyz
x,y,z
-x,-y,-z
loop_
_atom_site_type_symbol
_atom_site_label
_atom_site_fract_x
_atom_site_fract_y
_atom_site_fract_z
Si Si1 0.745185 0.630789 0.814338
Si Si2 0.107360 0.155682 0.296174
Si Si3 0.522248 0.156439 0.373993
Si Si4 0.046515 0.153029 0.848224
Si Si5 0.344346 0.589004 0.296478
Si Si6 0.224668 0.848232 0.239796
Si Si7 0.087021 0.662259 0.686238
Si Si8 0.284223 0.811734 0.774574
O O1 0.790239 0.760549 0.672300
O O2 0.612150 0.709824 0.769502
O O3 0.714797 0.526776 0.732560
O O4 0.863846 0.513979 0.098595
O O5 0.984031 0.240963 0.269320
O O6 0.177416 0.981602 0.540191
O O7 0.074881 0.172319 0.054790
O O8 0.645040 0.147383 0.586090
O O9 0.579629 0.185767 0.211219
O O10 0.500000 0.000000 0.500000
O O11 0.909505 0.124204 0.769874
O O12 0.011524 0.288018 0.581661
O O13 0.165139 0.005943 0.969348
O O14 0.500000 0.500000 0.500000
O O15 0.265374 0.678082 0.334947
O O16 0.318466 0.734550 0.042702
O O17 0.220819 0.699884 0.728674
#
# Coordination Sequence:
#
# PCOD9055093 Si02
#       8
#     2   2   2   2   2   2   2   2
#     4  11  25  43  66  98 144 179 217 287 353 397
#     4  12  23  45  69 100 142 178 227 288 342 401
#     4  12  22  43  68  94 136 175 226 280 338 407
#     4  11  21  40  70 100 131 180 232 279 333 400
#     4  11  24  42  66  98 135 179 224 280 337 410
#     4  11  21  40  66  96 131 171 227 275 331 407
#     4  11  24  40  66 105 136 178 234 278 340 414
#     4  11  22  41  68  98 128 182 228 273 341 404
#
# _framework density 21.326180999999998
#
# number of rings (size 3 to 8) (size 9 to 14) (size 15 to 20)
#    0.000    0.750    5.000    3.750    0.000    3.500 
#    0.000    5.000    0.000    0.000    0.000    0.000 
#    0.000    0.000    0.000    0.000    0.000    0.000 
#
# Total GULP energy -89186.174576 kJ/mol
# GULP energy per Si atom -5574.135911 kJ/mol
# Density = 2.127764 g / cm^3
# Si number density = 21.326181 Si / 1000 Ang^3
#
#
#
# Elastic Constant Matrix: (Units=GPa)
#
#
# Indices 1 2 3 4 5 6 
#
# 1 69.8631 28.7123 -1.6081 -4.9482 7.8643 3.9699
# 2 28.7123 100.7295 27.2477 -9.7790 5.6528 -3.9242
# 3 -1.6081 27.2477 120.3018 -7.2633 15.5240 -13.3887
# 4 -4.9482 -9.7790 -7.2633 27.4615 -3.1239 0.4908
# 5 7.8643 5.6528 15.5240 -3.1239 26.7317 -10.9228
# 6 3.9699 -3.9242 -13.3887 0.4908 -10.9228 28.3548
#
#
#
# Elastic Compliance Matrix: (Units=1/GPa)
#
#
# Indices 1 2 3 4 5 6 
#
# 1 0.017671 -0.005227 0.001838 0.001091 -0.007112 -0.005089
# 2 -0.005227 0.012414 -0.002713 0.002904 0.001525 0.001706
# 3 0.001838 -0.002713 0.009882 0.001412 -0.004632 0.002225
# 4 0.001091 0.002904 0.001412 0.038373 0.003361 0.001547
# 5 -0.007112 0.001525 -0.004632 0.003361 0.049653 0.018089
# 6 -0.005089 0.001706 0.002225 0.001547 0.018089 0.044208
#
#
# Mechanical properties :
#
#
# Convention : Reuss Voigt Hill
#
# Bulk Modulus (GPa) = 36.02104 44.39982 40.21043
# Shear Modulus (GPa) = 25.81821 32.27909 29.04865
#
# Velocity S-wave (km/s) = 3.48319 3.89471 3.69468
# Velocity P-wave (km/s) = 5.75361 6.41012 6.09072
#
# Compressibility (1/GPa) = 0.02776155
#
# Stress axis : x y z
#
# Youngs Moduli (GPa) = 56.58867 80.55167 101.19368
#
# Poissons Ratio (x) = 0.42108 -0.18594
# Poissons Ratio (y) = 0.29581 0.27456
# Poissons Ratio (z) = -0.10398 0.21856
#
# Static dielectric constant tensor:
#      x y z
#    x 1.783960 -0.042060 -0.064370 
#    y -0.042060 1.803820 0.030690 
#    z -0.064370 0.030690 1.859920 
# 
# From -- ./inp_files/261702.got.cif
#   From: 2010.05.17/outbox.cif.g08.bks.cpg/sg2_131_cif.got.tgz:261702.got - 2010.06.03 11:33:40.
