data_PCOD9055882
_publ_section_title
;
Structure prediction by ZEFSAII (Michael W. Deem and Ramdas Pophale) SiO2 
 PCOD9055882
Probable space group: P -1
;
_chemical_formula_sum "Si O2"
_cell_formula_units_Z 16
_cell_length_a 8.819668
_cell_length_b 19.137848
_cell_length_c 15.126985
_cell_angle_alpha 153.027086
_cell_angle_beta 37.792222
_cell_angle_gamma 143.881676
_cell_volume 658.612938
_symmetry_space_group_name_H-M "P -1"
_symmetry_group_IT_number 2
_symmetry_cell_setting 'triclinic'
loop_
_space_group_symop_operation_xyz
x,y,z
-x,-y,-z
loop_
_atom_site_type_symbol
_atom_site_label
_atom_site_fract_x
_atom_site_fract_y
_atom_site_fract_z
Si Si1 0.304626 0.975016 0.751551
Si Si2 0.169736 0.989637 0.528940
Si Si3 0.341739 0.473756 0.336076
Si Si4 0.113313 0.848330 0.877519
Si Si5 0.630014 0.280286 0.241568
Si Si6 0.245657 0.277886 0.697097
Si Si7 0.156118 0.570408 0.874069
Si Si8 0.019368 0.213872 0.451638
O O1 0.316926 0.940984 0.810702
O O2 0.152911 0.802184 0.574662
O O3 0.594505 0.060512 0.674844
O O4 0.104453 0.067445 0.928529
O O5 0.897828 0.869999 0.473251
O O6 0.134186 0.947055 0.599481
O O7 0.248559 0.178020 0.672689
O O8 0.064983 0.338317 0.280779
O O9 0.320353 0.565611 0.540028
O O10 0.481714 0.605287 0.342140
O O11 0.563002 0.393490 0.165589
O O12 0.264616 0.840912 0.888713
O O13 0.779344 0.333562 0.140668
O O14 0.314137 0.219891 0.301886
O O15 0.056597 0.380208 0.918015
O O16 0.048495 0.375540 0.677936
#
# Coordination Sequence:
#
# PCOD9055882 Si02
#       8
#     2   2   2   2   2   2   2   2
#     4  11  25  44  65  98 136 176 218 273 338 393
#     4  11  24  44  68  96 137 176 217 275 335 392
#     4  11  21  44  68  94 135 178 222 269 331 393
#     4  11  25  41  69  98 131 177 224 273 327 396
#     4  11  23  42  67  99 133 171 224 273 328 388
#     4  11  24  41  71 102 130 175 227 271 326 395
#     4  11  23  40  69 102 130 173 224 274 325 395
#     4  11  24  44  68  94 138 177 216 270 341 389
#
# _framework density 24.293481
#
# number of rings (size 3 to 8) (size 9 to 14) (size 15 to 20)
#    0.000    1.000    2.500    5.625    5.250    2.500 
#    0.000    1.250    0.000    0.000    0.000    0.000 
#    0.000    0.000    0.000    0.000    0.000    0.000 
#
# Total GULP energy -89638.109742 kJ/mol
# GULP energy per Si atom -5602.381859 kJ/mol
# Density = 2.423819 g / cm^3
# Si number density = 24.293481 Si / 1000 Ang^3
#
#
#
# Elastic Constant Matrix: (Units=GPa)
#
#
# Indices 1 2 3 4 5 6 
#
# 1 78.7670 32.7242 2.4389 8.5332 -15.8785 -15.8027
# 2 32.7242 116.1705 5.1398 -15.8777 9.2867 -20.7798
# 3 2.4389 5.1398 65.3791 -2.3201 -12.0821 2.4833
# 4 8.5332 -15.8777 -2.3201 31.7393 2.1131 -0.2801
# 5 -15.8785 9.2867 -12.0821 2.1131 29.4273 3.1667
# 6 -15.8027 -20.7798 2.4833 -0.2801 3.1667 49.1250
#
#
#
# Elastic Compliance Matrix: (Units=1/GPa)
#
#
# Indices 1 2 3 4 5 6 
#
# 1 0.020626 -0.008191 0.002228 -0.010472 0.015164 0.002021
# 2 -0.008191 0.014007 -0.002656 0.009790 -0.011085 0.004195
# 3 0.002228 -0.002656 0.017182 -0.001314 0.009393 -0.001888
# 4 -0.010472 0.009790 -0.001314 0.039962 -0.012349 0.001863
# 5 0.015164 -0.011085 0.009393 -0.012349 0.050796 -0.003631
# 6 0.002021 0.004195 -0.001888 0.001863 -0.003631 0.023121
#
#
# Mechanical properties :
#
#
# Convention : Reuss Voigt Hill
#
# Bulk Modulus (GPa) = 28.91952 37.88024 33.39988
# Shear Modulus (GPa) = 25.71245 36.72591 31.21918
#
# Velocity S-wave (km/s) = 3.25685 3.89235 3.58870
# Velocity P-wave (km/s) = 5.10616 5.98558 5.56327
#
# Compressibility (1/GPa) = 0.03457872
#
# Stress axis : x y z
#
# Youngs Moduli (GPa) = 48.48168 71.39067 58.20060
#
# Poissons Ratio (x) = 0.58475 -0.12970
# Poissons Ratio (y) = 0.39711 0.15459
# Poissons Ratio (z) = -0.10804 0.18962
#
# Static dielectric constant tensor:
#      x y z
#    x 1.908950 -0.024040 -0.013960 
#    y -0.024040 1.894920 0.070630 
#    z -0.013960 0.070630 1.996080 
# 
# From -- ./inp_files/207724.got.cif
#   From: 2010.05.17/outbox.cif.g08.bks.cpg/sg2_104_cif.got.tgz:207724.got - 2010.06.03 11:33:40.
