data_PCOD9055117
_publ_section_title
;
Structure prediction by ZEFSAII (Michael W. Deem and Ramdas Pophale) SiO2 
 PCOD9055117
Probable space group: P -1
;
_chemical_formula_sum "Si O2"
_cell_formula_units_Z 12
_cell_length_a 16.363946
_cell_length_b 12.927195
_cell_length_c 19.682320
_cell_angle_alpha 29.171278
_cell_angle_beta 19.622500
_cell_angle_gamma 26.505995
_cell_volume 611.174244
_symmetry_space_group_name_H-M "P -1"
_symmetry_group_IT_number 2
_symmetry_cell_setting 'triclinic'
loop_
_space_group_symop_operation_xyz
x,y,z
-x,-y,-z
loop_
_atom_site_type_symbol
_atom_site_label
_atom_site_fract_x
_atom_site_fract_y
_atom_site_fract_z
Si Si1 0.537703 0.381646 0.857638
Si Si2 0.307860 0.561192 0.679861
Si Si3 0.140132 0.064796 0.575392
Si Si4 0.250434 0.228639 0.537837
Si Si5 0.715363 0.571230 0.827582
Si Si6 0.318335 0.271375 0.963122
O O1 0.635305 0.584146 0.677456
O O2 0.369330 0.419398 0.899059
O O3 0.823289 0.149135 0.758609
O O4 0.370560 0.373800 0.058614
O O5 0.500000 0.500000 0.500000
O O6 0.398186 0.343702 0.786690
O O7 0.299475 0.786854 0.597688
O O8 0.002089 0.644202 0.843884
O O9 0.141944 0.152482 0.599982
O O10 0.262180 0.206874 0.352381
O O11 0.010168 0.353738 0.708326
O O12 0.500000 0.000000 0.500000
O O13 0.500000 0.500000 0.000000
O O14 0.500000 0.000000 0.000000
#
# Coordination Sequence:
#
# PCOD9055117 Si02
#       6
#     2   2   2   2   2   2
#     4  11  22  42  67  96 130 174 222 265 334 398
#     4  11  27  46  69 102 132 175 231 278 332 397
#     4  11  22  41  66  93 136 169 218 284 322 388
#     4  11  23  39  62  96 135 164 214 283 329 386
#     4  11  21  40  67  95 123 180 219 254 336 403
#     4  11  25  46  70  95 135 180 220 278 336 391
#
# _framework density 19.634336000000001
#
# number of rings (size 3 to 8) (size 9 to 14) (size 15 to 20)
#    0.000    1.000    5.000    2.000    2.333    5.333 
#    3.000    0.000    0.000    0.000    0.000    0.000 
#    0.000    0.000    0.000    0.000    0.000    0.000 
#
# Total GULP energy -67028.858128 kJ/mol
# GULP energy per Si atom -5585.738177 kJ/mol
# Density = 1.958965 g / cm^3
# Si number density = 19.634336 Si / 1000 Ang^3
#
#
#
# Elastic Constant Matrix: (Units=GPa)
#
#
# Indices 1 2 3 4 5 6 
#
# 1 120.7100 21.9360 50.8126 -0.3682 6.2016 -6.2259
# 2 21.9360 103.9561 42.6188 -9.3906 16.4608 -15.4262
# 3 50.8126 42.6188 113.2062 14.7072 26.9315 -4.1357
# 4 -0.3682 -9.3906 14.7072 11.8689 8.5264 -0.3318
# 5 6.2016 16.4608 26.9315 8.5264 43.4063 -2.9371
# 6 -6.2259 -15.4262 -4.1357 -0.3318 -2.9371 35.7040
#
#
#
# Elastic Compliance Matrix: (Units=1/GPa)
#
#
# Indices 1 2 3 4 5 6 
#
# 1 0.010978 0.001637 -0.006821 0.009990 0.000212 0.001942
# 2 0.001637 0.018300 -0.009892 0.031891 -0.006842 0.006780
# 3 -0.006821 -0.009892 0.020014 -0.031713 -0.001705 -0.003580
# 4 0.009990 0.031891 -0.031713 0.168169 -0.026116 0.011262
# 5 0.000212 -0.006842 -0.001705 -0.026116 0.031740 -0.000748
# 6 0.001942 0.006780 -0.003580 0.011262 -0.000748 0.030904
#
#
# Mechanical properties :
#
#
# Convention : Reuss Voigt Hill
#
# Bulk Modulus (GPa) = 52.24805 63.17856 57.71330
# Shear Modulus (GPa) = 15.79103 33.02950 24.41026
#
# Velocity S-wave (km/s) = 2.83902 4.10595 3.52979
# Velocity P-wave (km/s) = 6.11678 7.39769 6.78752
#
# Compressibility (1/GPa) = 0.01913947
#
# Stress axis : x y z
#
# Youngs Moduli (GPa) = 91.09255 54.64619 49.96568
#
# Poissons Ratio (x) = -0.08945 0.34081
# Poissons Ratio (y) = -0.14911 0.49425
# Poissons Ratio (z) = 0.62134 0.54055
#
# Static dielectric constant tensor:
#      x y z
#    x 1.689790 0.026680 -0.024050 
#    y 0.026680 1.681650 -0.027920 
#    z -0.024050 -0.027920 1.683140 
# 
# From -- ./inp_files/21820.got.cif
#   From: 2010.05.17/outbox.cif.g08.bks.cpg/sg2_11_cif.got.tgz:21820.got - 2010.06.03 11:33:40.
