data_PCOD9055816
_publ_section_title
;
Structure prediction by ZEFSAII (Michael W. Deem and Ramdas Pophale) SiO2 
 PCOD9055816
Probable space group: P -1
;
_chemical_formula_sum "Si O2"
_cell_formula_units_Z 16
_cell_length_a 11.214956
_cell_length_b 11.479759
_cell_length_c 13.730473
_cell_angle_alpha 55.468170
_cell_angle_beta 147.487242
_cell_angle_gamma 112.613535
_cell_volume 765.077528
_symmetry_space_group_name_H-M "P -1"
_symmetry_group_IT_number 2
_symmetry_cell_setting 'triclinic'
loop_
_space_group_symop_operation_xyz
x,y,z
-x,-y,-z
loop_
_atom_site_type_symbol
_atom_site_label
_atom_site_fract_x
_atom_site_fract_y
_atom_site_fract_z
Si Si1 0.954980 0.592727 0.175091
Si Si2 0.288643 0.118131 0.837908
Si Si3 0.294227 0.637377 0.947078
Si Si4 0.158670 0.858566 0.126175
Si Si5 0.481461 0.213613 0.124785
Si Si6 0.789055 0.556303 0.400366
Si Si7 0.434978 0.052007 0.540661
Si Si8 0.079195 0.876158 0.839850
O O1 0.892718 0.459977 0.136658
O O2 0.040753 0.722919 0.121647
O O3 0.143973 0.532695 0.413998
O O4 0.712542 0.660846 0.024446
O O5 0.234317 0.273008 0.676238
O O6 0.081932 0.037685 0.728632
O O7 0.356706 0.152326 0.977934
O O8 0.500000 0.000000 0.000000
O O9 0.326980 0.716221 0.829382
O O10 0.221316 0.760453 0.919840
O O11 0.546584 0.547465 0.191290
O O12 0.395558 0.852235 0.346664
O O13 0.183486 0.872236 0.021273
O O14 0.000000 0.000000 0.000000
O O15 0.545885 0.087417 0.308680
O O16 0.000000 0.500000 0.500000
O O17 0.177900 0.139055 0.322771
O O18 0.500000 0.000000 0.500000
#
# Coordination Sequence:
#
# PCOD9055816 Si02
#       8
#     2   2   2   2   2   2   2   2
#     4  12  25  45  72 101 149 192 241 296 355 434
#     4  11  21  43  73 105 147 184 228 304 367 419
#     4  11  27  45  68 112 144 186 235 302 371 423
#     4  12  25  50  72 100 142 192 247 301 353 426
#     4  11  22  43  70 104 147 179 238 301 351 430
#     4  11  24  42  71 106 144 194 234 284 367 431
#     4  12  26  42  74 107 133 191 250 290 353 429
#     4  12  25  45  74 105 146 187 243 302 360 426
#
# _framework density 20.912911999999999
#
# number of rings (size 3 to 8) (size 9 to 14) (size 15 to 20)
#    0.000    0.500    8.750    0.375    1.750    5.000 
#    0.000    1.250    0.000    0.000    0.000    0.000 
#    0.000    0.000    0.000    0.000    0.000    0.000 
#
# Total GULP energy -89388.554383 kJ/mol
# GULP energy per Si atom -5586.784649 kJ/mol
# Density = 2.086531 g / cm^3
# Si number density = 20.912912 Si / 1000 Ang^3
#
#
#
# Elastic Constant Matrix: (Units=GPa)
#
#
# Indices 1 2 3 4 5 6 
#
# 1 62.0865 14.8314 11.1424 -8.7359 -0.4583 3.3560
# 2 14.8314 115.4206 3.5423 4.2340 -4.3471 21.1293
# 3 11.1424 3.5423 58.5937 6.8374 1.7005 5.3369
# 4 -8.7359 4.2340 6.8374 41.7029 8.6417 6.2856
# 5 -0.4583 -4.3471 1.7005 8.6417 35.0568 -0.3860
# 6 3.3560 21.1293 5.3369 6.2856 -0.3860 35.4964
#
#
#
# Elastic Compliance Matrix: (Units=1/GPa)
#
#
# Indices 1 2 3 4 5 6 
#
# 1 0.018063 -0.002308 -0.003783 0.004965 -0.001098 -0.000656
# 2 -0.002308 0.010070 0.000422 -0.001011 0.001385 -0.005645
# 3 -0.003783 0.000422 0.018359 -0.003531 -0.000039 -0.002029
# 4 0.004965 -0.001011 -0.003531 0.027758 -0.006779 -0.004325
# 5 -0.001098 0.001385 -0.000039 -0.006779 0.030365 0.000816
# 6 -0.000656 -0.005645 -0.002029 -0.004325 0.000816 0.032674
#
#
# Mechanical properties :
#
#
# Convention : Reuss Voigt Hill
#
# Bulk Modulus (GPa) = 28.44680 32.79255 30.61968
# Shear Modulus (GPa) = 31.18289 36.22354 33.70322
#
# Velocity S-wave (km/s) = 3.86564 4.16638 4.01883
# Velocity P-wave (km/s) = 5.79278 6.23374 6.01730
#
# Compressibility (1/GPa) = 0.03515334
#
# Stress axis : x y z
#
# Youngs Moduli (GPa) = 55.36234 99.30115 54.47045
#
# Poissons Ratio (x) = 0.22922 0.20607
# Poissons Ratio (y) = 0.12779 -0.02300
# Poissons Ratio (z) = 0.20944 -0.04192
#
# Static dielectric constant tensor:
#      x y z
#    x 1.782690 0.000960 0.011530 
#    y 0.000960 1.939350 -0.002780 
#    z 0.011530 -0.002780 1.744470 
# 
# From -- ./inp_files/278748.got.cif
#   From: 2010.05.17/outbox.cif.g08.bks.cpg/sg2_140_cif.got.tgz:278748.got - 2010.06.03 11:33:40.
