data_PCOD9055328
_publ_section_title
;
Structure prediction by ZEFSAII (Michael W. Deem and Ramdas Pophale) SiO2 
 PCOD9055328
Probable space group: P -1
;
_chemical_formula_sum "Si O2"
_cell_formula_units_Z 14
_cell_length_a 17.492888
_cell_length_b 9.060883
_cell_length_c 7.458765
_cell_angle_alpha 51.642350
_cell_angle_beta 139.470515
_cell_angle_gamma 133.508059
_cell_volume 545.196543
_symmetry_space_group_name_H-M "P -1"
_symmetry_group_IT_number 2
_symmetry_cell_setting 'triclinic'
loop_
_space_group_symop_operation_xyz
x,y,z
-x,-y,-z
loop_
_atom_site_type_symbol
_atom_site_label
_atom_site_fract_x
_atom_site_fract_y
_atom_site_fract_z
Si Si1 0.645878 0.555573 0.764049
Si Si2 0.346327 0.897330 0.279148
Si Si3 0.089813 0.620899 0.406969
Si Si4 0.095380 0.227596 0.557851
Si Si5 0.351784 0.856407 0.923752
Si Si6 0.826161 0.966985 0.862141
Si Si7 0.358910 0.495922 0.776620
O O1 0.500000 0.500000 0.500000
O O2 0.729984 0.795323 0.682306
O O3 0.667276 0.367748 0.860174
O O4 0.650796 0.509245 0.020047
O O5 0.268161 0.990119 0.195066
O O6 0.327320 0.674825 0.495414
O O7 0.500000 0.000000 0.500000
O O8 0.326240 0.943287 0.000605
O O9 0.072651 0.437086 0.374723
O O10 0.234607 0.777598 0.627904
O O11 0.059821 0.805972 0.137176
O O12 0.000000 0.500000 0.500000
O O13 0.231449 0.293235 0.648331
O O14 0.000000 0.000000 0.500000
O O15 0.112585 0.177144 0.832953
O O16 0.500000 0.000000 0.000000
O O17 0.500000 0.500000 0.000000
#
# Coordination Sequence:
#
# PCOD9055328 Si02
#       7
#     2   2   2   2   2   2   2
#     4  11  21  41  68 104 148 183 231 302 367 418
#     4  12  23  40  72 107 143 193 236 294 370 430
#     4  12  27  51  71 105 148 191 241 304 363 434
#     4  11  26  49  72 104 145 189 243 300 358 436
#     4  12  25  45  72 108 147 184 240 304 363 431
#     4  11  24  47  72 102 145 188 243 298 356 443
#     4  11  22  43  69 107 143 181 243 297 354 436
#
# _framework density 25.678809000000001
#
# number of rings (size 3 to 8) (size 9 to 14) (size 15 to 20)
#    0.000    0.571    4.286    6.000    2.000    2.286 
#    5.143    0.000    0.000    0.000    0.000    0.000 
#    0.000    0.000    0.000    0.000    0.000    0.000 
#
# Total GULP energy -77943.854282 kJ/mol
# GULP energy per Si atom -5567.418163 kJ/mol
# Density = 2.562036 g / cm^3
# Si number density = 25.678809 Si / 1000 Ang^3
#
#
#
# Elastic Constant Matrix: (Units=GPa)
#
#
# Indices 1 2 3 4 5 6 
#
# 1 105.1750 39.9788 -4.3880 -0.4754 -9.4524 5.7625
# 2 39.9788 213.2222 16.3621 -14.7587 7.7029 32.1479
# 3 -4.3880 16.3621 34.4713 -4.6723 -14.4952 -3.2178
# 4 -0.4754 -14.7587 -4.6723 59.5290 -1.9271 1.9095
# 5 -9.4524 7.7029 -14.4952 -1.9271 30.1655 -0.7274
# 6 5.7625 32.1479 -3.2178 1.9095 -0.7274 39.8379
#
#
#
# Elastic Compliance Matrix: (Units=1/GPa)
#
#
# Indices 1 2 3 4 5 6 
#
# 1 0.011549 -0.003140 0.006234 -0.000004 0.007452 0.001503
# 2 -0.003140 0.006971 -0.006627 0.001177 -0.006015 -0.005873
# 3 0.006234 -0.006627 0.044809 0.002481 0.025539 0.008413
# 4 -0.000004 0.001177 0.002481 0.017398 0.001964 -0.001547
# 5 0.007452 -0.006015 0.025539 0.001964 0.049579 0.006650
# 6 0.001503 -0.005873 0.008413 -0.001547 0.006650 0.030499
#
#
# Mechanical properties :
#
#
# Convention : Reuss Voigt Hill
#
# Bulk Modulus (GPa) = 17.77326 50.75269 34.26298
# Shear Modulus (GPa) = 26.79159 45.96753 36.37956
#
# Velocity S-wave (km/s) = 3.23357 4.23554 3.76801
# Velocity P-wave (km/s) = 4.56922 6.61265 5.68352
#
# Compressibility (1/GPa) = 0.05626429
#
# Stress axis : x y z
#
# Youngs Moduli (GPa) = 86.58784 143.44282 22.31686
#
# Poissons Ratio (x) = 0.45040 -0.13912
# Poissons Ratio (y) = 0.27188 0.14789
# Poissons Ratio (z) = -0.53978 0.95055
#
# Static dielectric constant tensor:
#      x y z
#    x 2.101550 0.013740 0.023590 
#    y 0.013740 1.899270 0.028740 
#    z 0.023590 0.028740 2.744660 
# 
# From -- ./inp_files/342499.got.cif
#   From: 2010.05.17/outbox.cif.g08.bks.cpg/sg2_172_cif.got.tgz:342499.got - 2010.06.03 11:33:40.
