data_PCOD9055886
_publ_section_title
;
Structure prediction by ZEFSAII (Michael W. Deem and Ramdas Pophale) SiO2 
 PCOD9055886
Probable space group: P -1
;
_chemical_formula_sum "Si O2"
_cell_formula_units_Z 14
_cell_length_a 11.712538
_cell_length_b 29.823308
_cell_length_c 14.996235
_cell_angle_alpha 161.111732
_cell_angle_beta 152.260295
_cell_angle_gamma 21.290215
_cell_volume 615.444201
_symmetry_space_group_name_H-M "P -1"
_symmetry_group_IT_number 2
_symmetry_cell_setting 'triclinic'
loop_
_space_group_symop_operation_xyz
x,y,z
-x,-y,-z
loop_
_atom_site_type_symbol
_atom_site_label
_atom_site_fract_x
_atom_site_fract_y
_atom_site_fract_z
Si Si1 0.275393 0.504092 0.727251
Si Si2 0.846501 0.105712 0.000552
Si Si3 0.761147 0.093301 0.727608
Si Si4 0.151453 0.393316 0.123167
Si Si5 0.459816 0.517703 0.693541
Si Si6 0.852725 0.246299 0.750431
Si Si7 0.069469 0.310954 0.602661
O O1 0.485429 0.456987 0.697493
O O2 0.493365 0.361217 0.685718
O O3 0.000000 0.500000 0.500000
O O4 0.147040 0.693066 0.035859
O O5 0.470783 0.237997 0.000714
O O6 0.969711 0.219714 0.298218
O O7 0.910533 0.007088 0.765859
O O8 0.000000 0.000000 0.000000
O O9 0.403988 0.165394 0.604939
O O10 0.722407 0.272393 0.036016
O O11 0.961380 0.956414 0.529072
O O12 0.269502 0.466716 0.413251
O O13 0.929085 0.551676 0.197788
O O14 0.009183 0.313906 0.926727
O O15 0.789014 0.420301 0.686237
#
# Coordination Sequence:
#
# PCOD9055886 Si02
#       7
#     2   2   2   2   2   2   2
#     4  11  25  49  72  91 129 185 235 277 332 398
#     4  11  24  38  60 102 145 175 214 270 335 400
#     4  12  25  42  68 108 138 173 219 285 342 394
#     4  11  21  44  68  98 139 182 219 266 338 417
#     4  11  22  44  71  95 138 186 220 273 333 403
#     4  11  27  43  70 104 128 175 235 280 334 394
#     4  11  23  42  68 104 140 180 222 260 346 421
#
# _framework density 22.747796000000001
#
# number of rings (size 3 to 8) (size 9 to 14) (size 15 to 20)
#    0.000    0.857    4.286    3.000    6.000    2.857 
#    0.000    0.714    0.000    0.000    0.000    0.000 
#    0.000    0.000    0.000    0.000    0.000    0.000 
#
# Total GULP energy -78345.176707 kJ/mol
# GULP energy per Si atom -5596.084050 kJ/mol
# Density = 2.269602 g / cm^3
# Si number density = 22.747796 Si / 1000 Ang^3
#
#
#
# Elastic Constant Matrix: (Units=GPa)
#
#
# Indices 1 2 3 4 5 6 
#
# 1 39.8716 -2.3821 5.4449 -7.7736 -19.7275 10.4784
# 2 -2.3821 76.2888 28.6729 -7.7730 -16.1944 3.5613
# 3 5.4449 28.6729 101.9307 0.5547 -37.3603 -11.7718
# 4 -7.7736 -7.7730 0.5547 37.0776 -0.8573 -0.7982
# 5 -19.7275 -16.1944 -37.3603 -0.8573 48.3149 -7.0348
# 6 10.4784 3.5613 -11.7718 -0.7982 -7.0348 29.9723
#
#
#
# Elastic Compliance Matrix: (Units=1/GPa)
#
#
# Indices 1 2 3 4 5 6 
#
# 1 0.038090 0.005643 0.001789 0.009360 0.017700 -0.008880
# 2 0.005643 0.016311 -0.003856 0.004666 0.004245 -0.004305
# 3 0.001789 -0.003856 0.017106 -0.000151 0.014098 0.009856
# 4 0.009360 0.004666 -0.000151 0.030003 0.005541 -0.001786
# 5 0.017700 0.004245 0.014098 0.005541 0.041623 0.008762
# 6 -0.008880 -0.004305 0.009856 -0.001786 0.008762 0.042860
#
#
# Mechanical properties :
#
#
# Convention : Reuss Voigt Hill
#
# Bulk Modulus (GPa) = 12.71326 31.28472 21.99899
# Shear Modulus (GPa) = 24.38291 35.49663 29.93977
#
# Velocity S-wave (km/s) = 3.27751 3.95453 3.63183
# Velocity P-wave (km/s) = 4.46360 5.88505 5.22290
#
# Compressibility (1/GPa) = 0.07865801
#
# Stress axis : x y z
#
# Youngs Moduli (GPa) = 26.25383 61.30786 58.45849
#
# Poissons Ratio (x) = -0.34593 -0.10460
# Poissons Ratio (y) = -0.14814 0.22543
# Poissons Ratio (z) = -0.04697 0.23642
#
# Static dielectric constant tensor:
#      x y z
#    x 1.875070 0.039030 0.006910 
#    y 0.039030 1.848860 0.006930 
#    z 0.006910 0.006930 1.871420 
# 
# From -- ./inp_files/304856.got.cif
#   From: 2010.05.17/outbox.cif.g08.bks.cpg/sg2_153_cif.got.tgz:304856.got - 2010.06.03 11:33:40.
