data_PCOD9055273
_publ_section_title
;
Structure prediction by ZEFSAII (Michael W. Deem and Ramdas Pophale) SiO2 
 PCOD9055273
Probable space group: P -1
;
_chemical_formula_sum "Si O2"
_cell_formula_units_Z 16
_cell_length_a 12.284338
_cell_length_b 12.885084
_cell_length_c 15.640932
_cell_angle_alpha 152.222012
_cell_angle_beta 138.730006
_cell_angle_gamma 43.931637
_cell_volume 748.698483
_symmetry_space_group_name_H-M "P -1"
_symmetry_group_IT_number 2
_symmetry_cell_setting 'triclinic'
loop_
_space_group_symop_operation_xyz
x,y,z
-x,-y,-z
loop_
_atom_site_type_symbol
_atom_site_label
_atom_site_fract_x
_atom_site_fract_y
_atom_site_fract_z
Si Si1 0.766275 0.248805 0.524772
Si Si2 0.975461 0.021076 0.641744
Si Si3 0.166008 0.367944 0.632729
Si Si4 0.468827 0.112024 0.321506
Si Si5 0.014663 0.390846 0.065851
Si Si6 0.071098 0.198487 0.140004
Si Si7 0.334274 0.395354 0.929073
Si Si8 0.465887 0.241874 0.609414
O O1 0.857233 0.128774 0.407598
O O2 0.825947 0.487714 0.743747
O O3 0.571002 0.243953 0.413119
O O4 0.850850 0.101703 0.548550
O O5 0.890139 0.863885 0.540176
O O6 0.010765 0.241083 0.871411
O O7 0.007635 0.568299 0.689159
O O8 0.290619 0.422019 0.821981
O O9 0.272961 0.345102 0.593296
O O10 0.548168 0.846553 0.166173
O O11 0.497703 0.199199 0.497508
O O12 0.270831 0.150230 0.220712
O O13 0.010092 0.233851 0.031871
O O14 0.847310 0.582473 0.115869
O O15 0.000000 0.000000 0.000000
O O16 0.418593 0.594055 0.162791
O O17 0.500000 0.000000 0.500000
#
# Coordination Sequence:
#
# PCOD9055273 Si02
#       8
#     2   2   2   2   2   2   2   2
#     4  11  21  43  69 104 135 167 228 283 332 392
#     4  11  21  42  73 104 132 172 225 282 337 391
#     4  11  22  44  66  97 134 179 222 274 337 396
#     4  12  26  43  66  99 136 178 221 281 334 390
#     4  11  24  43  72  99 134 183 221 272 340 401
#     4  11  27  47  65  96 140 184 221 274 334 403
#     4  11  21  41  65  99 130 166 227 278 335 385
#     4  12  24  37  69 102 132 173 224 283 337 397
#
# _framework density 21.370418000000001
#
# number of rings (size 3 to 8) (size 9 to 14) (size 15 to 20)
#    0.000    0.750    5.000    3.750    5.250    2.000 
#    2.250    0.625    0.000    0.000    0.000    0.000 
#    0.000    0.000    0.000    0.000    0.000    0.000 
#
# Total GULP energy -89554.465637 kJ/mol
# GULP energy per Si atom -5597.154102 kJ/mol
# Density = 2.132178 g / cm^3
# Si number density = 21.370418 Si / 1000 Ang^3
#
#
#
# Elastic Constant Matrix: (Units=GPa)
#
#
# Indices 1 2 3 4 5 6 
#
# 1 114.9030 19.4283 48.7411 -10.6008 13.8190 -17.4450
# 2 19.4283 58.5254 27.0730 9.7181 7.2138 -20.7813
# 3 48.7411 27.0730 121.9342 12.4702 -8.4295 -10.0303
# 4 -10.6008 9.7181 12.4702 21.2827 3.9245 7.3567
# 5 13.8190 7.2138 -8.4295 3.9245 42.2030 0.5540
# 6 -17.4450 -20.7813 -10.0303 7.3567 0.5540 31.0170
#
#
#
# Elastic Compliance Matrix: (Units=1/GPa)
#
#
# Indices 1 2 3 4 5 6 
#
# 1 0.014239 -0.002483 -0.006861 0.013115 -0.006843 0.001137
# 2 -0.002483 0.031659 -0.001942 -0.022455 -0.003221 0.024570
# 3 -0.006861 -0.001942 0.013199 -0.012071 0.006313 0.001859
# 4 0.013115 -0.022455 -0.012071 0.083515 -0.010224 -0.031198
# 5 -0.006843 -0.003221 0.006313 -0.010224 0.028725 -0.002053
# 6 0.001137 0.024570 0.001859 -0.031198 -0.002053 0.057380
#
#
# Mechanical properties :
#
#
# Convention : Reuss Voigt Hill
#
# Bulk Modulus (GPa) = 27.37888 53.98306 40.68097
# Shear Modulus (GPa) = 18.97799 32.24188 25.60994
#
# Velocity S-wave (km/s) = 2.98325 3.88843 3.46552
# Velocity P-wave (km/s) = 4.97049 6.74354 5.92373
#
# Compressibility (1/GPa) = 0.03652451
#
# Stress axis : x y z
#
# Youngs Moduli (GPa) = 70.22963 31.58635 75.76498
#
# Poissons Ratio (x) = 0.07844 0.51984
# Poissons Ratio (y) = 0.17441 0.14711
# Poissons Ratio (z) = 0.48186 0.06133
#
# Static dielectric constant tensor:
#      x y z
#    x 1.796810 -0.011070 0.017270 
#    y -0.011070 1.783120 -0.000220 
#    z 0.017270 -0.000220 1.758710 
# 
# From -- ./inp_files/519423.got.cif
#   From: 2010.05.17/outbox.cif.g08.bks.cpg/sg2_260_cif.got.tgz:519423.got - 2010.06.03 11:33:40.
