data_PCOD9055364
_publ_section_title
;
Structure prediction by ZEFSAII (Michael W. Deem and Ramdas Pophale) SiO2 
 PCOD9055364
Probable space group: P -1
;
_chemical_formula_sum "Si O2"
_cell_formula_units_Z 16
_cell_length_a 12.014393
_cell_length_b 23.468301
_cell_length_c 5.908474
_cell_angle_alpha 61.714068
_cell_angle_beta 57.777896
_cell_angle_gamma 31.165120
_cell_volume 728.762896
_symmetry_space_group_name_H-M "P -1"
_symmetry_group_IT_number 2
_symmetry_cell_setting 'triclinic'
loop_
_space_group_symop_operation_xyz
x,y,z
-x,-y,-z
loop_
_atom_site_type_symbol
_atom_site_label
_atom_site_fract_x
_atom_site_fract_y
_atom_site_fract_z
Si Si1 0.809220 0.622497 0.367801
Si Si2 0.125445 0.763187 0.450487
Si Si3 0.408052 0.195849 0.372460
Si Si4 0.524456 0.272836 0.833726
Si Si5 0.040834 0.677260 0.397261
Si Si6 0.702845 0.408617 0.118019
Si Si7 0.807483 0.485316 0.160908
Si Si8 0.400851 0.013832 0.329185
O O1 0.718188 0.710593 0.478617
O O2 0.583141 0.683661 0.383902
O O3 0.000000 0.500000 0.500000
O O4 0.951324 0.595479 0.055390
O O5 0.238028 0.788181 0.258162
O O6 0.286503 0.665005 0.643888
O O7 0.135923 0.705596 0.346798
O O8 0.866200 0.868651 0.600520
O O9 0.205848 0.235449 0.406038
O O10 0.560352 0.079230 0.530588
O O11 0.518930 0.202634 0.069692
O O12 0.343652 0.391713 0.928111
O O13 0.161088 0.561085 0.542958
O O14 0.063901 0.677453 0.106925
O O15 0.697330 0.469347 0.181864
O O16 0.500000 0.500000 0.000000
O O17 0.500000 0.000000 0.500000
O O18 0.500000 0.000000 0.000000
#
# Coordination Sequence:
#
# PCOD9055364 Si02
#       8
#     2   2   2   2   2   2   2   2
#     4  12  24  40  66 105 149 198 243 297 377 463
#     4  11  27  46  69 108 145 192 247 322 385 447
#     4  12  25  44  75 103 139 194 256 310 374 459
#     4  12  26  43  66 105 154 189 242 310 392 454
#     4  11  21  41  69  96 138 188 245 304 360 455
#     4  11  23  38  67 101 145 190 246 302 377 450
#     4  11  22  37  63 101 141 190 242 288 370 451
#     4  12  29  54  86 113 143 201 268 328 383 453
#
# _framework density 21.955013000000001
#
# number of rings (size 3 to 8) (size 9 to 14) (size 15 to 20)
#    0.000    0.500    5.000    3.375    5.250    3.500 
#    0.000    0.625    0.000    0.000    0.000    0.000 
#    0.000    0.000    0.000    0.000    0.000    0.000 
#
# Total GULP energy -89193.752553 kJ/mol
# GULP energy per Si atom -5574.609535 kJ/mol
# Density = 2.190504 g / cm^3
# Si number density = 21.955013 Si / 1000 Ang^3
#
#
#
# Elastic Constant Matrix: (Units=GPa)
#
#
# Indices 1 2 3 4 5 6 
#
# 1 115.0697 31.1956 35.3869 0.0256 -16.3369 -7.5680
# 2 31.1956 112.8916 22.6606 -13.6318 1.2575 7.5750
# 3 35.3869 22.6606 78.3577 -11.1958 -8.5174 7.9425
# 4 0.0256 -13.6318 -11.1958 35.8707 2.6082 -10.0153
# 5 -16.3369 1.2575 -8.5174 2.6082 27.9437 0.7665
# 6 -7.5680 7.5750 7.9425 -10.0153 0.7665 36.6472
#
#
#
# Elastic Compliance Matrix: (Units=1/GPa)
#
#
# Indices 1 2 3 4 5 6 
#
# 1 0.011926 -0.002919 -0.004540 -0.002014 0.005815 0.003378
# 2 -0.002919 0.010481 -0.001396 0.003341 -0.002875 -0.001493
# 3 -0.004540 -0.001396 0.016277 0.003485 0.002134 -0.003269
# 4 -0.002014 0.003341 0.003485 0.032469 -0.003491 0.007084
# 5 0.005815 -0.002875 0.002134 -0.003491 0.040305 -0.000464
# 6 0.003378 -0.001493 -0.003269 0.007084 -0.000464 0.030948
#
#
# Mechanical properties :
#
#
# Convention : Reuss Voigt Hill
#
# Bulk Modulus (GPa) = 47.67905 53.86726 50.77315
# Shear Modulus (GPa) = 29.92093 34.56402 32.24247
#
# Velocity S-wave (km/s) = 3.69566 3.97206 3.83635
# Velocity P-wave (km/s) = 6.32253 6.75462 6.54214
#
# Compressibility (1/GPa) = 0.02097357
#
# Stress axis : x y z
#
# Youngs Moduli (GPa) = 83.84966 95.41394 61.43493
#
# Poissons Ratio (x) = 0.27851 0.27891
# Poissons Ratio (y) = 0.24476 0.08579
# Poissons Ratio (z) = 0.38067 0.13324
#
# Static dielectric constant tensor:
#      x y z
#    x 1.887300 -0.043220 0.025690 
#    y -0.043220 1.830210 0.015510 
#    z 0.025690 0.015510 1.901320 
# 
# From -- ./inp_files/84203.got.cif
#   From: 2010.05.17/outbox.cif.g08.bks.cpg/sg2_43_cif.got.tgz:84203.got - 2010.06.03 11:33:40.
