data_PCOD9055887
_publ_section_title
;
Structure prediction by ZEFSAII (Michael W. Deem and Ramdas Pophale) SiO2 
 PCOD9055887
Probable space group: P -1
;
_chemical_formula_sum "Si O2"
_cell_formula_units_Z 14
_cell_length_a 21.465109
_cell_length_b 9.719968
_cell_length_c 9.715220
_cell_angle_alpha 136.662152
_cell_angle_beta 42.455569
_cell_angle_gamma 151.837788
_cell_volume 626.696985
_symmetry_space_group_name_H-M "P -1"
_symmetry_group_IT_number 2
_symmetry_cell_setting 'triclinic'
loop_
_space_group_symop_operation_xyz
x,y,z
-x,-y,-z
loop_
_atom_site_type_symbol
_atom_site_label
_atom_site_fract_x
_atom_site_fract_y
_atom_site_fract_z
Si Si1 0.892897 0.168710 0.872484
Si Si2 0.716680 0.245347 0.174206
Si Si3 0.341977 0.745145 0.027079
Si Si4 0.814668 0.797638 0.494265
Si Si5 0.269920 0.196186 0.855866
Si Si6 0.496956 0.353635 0.764186
Si Si7 0.841062 0.181501 0.507682
O O1 0.916758 0.047906 0.626043
O O2 0.787442 0.149979 0.953228
O O3 0.000000 0.500000 0.000000
O O4 0.815264 0.946096 0.966712
O O5 0.831129 0.588436 0.288624
O O6 0.602020 0.993564 0.288492
O O7 0.657192 0.240992 0.129292
O O8 0.256994 0.797260 0.263026
O O9 0.278036 0.433115 0.956793
O O10 0.500000 0.000000 0.000000
O O11 0.653337 0.546992 0.619795
O O12 0.824312 0.952561 0.457998
O O13 0.420950 0.352362 0.764816
O O14 0.198969 0.938959 0.671103
O O15 0.500000 0.500000 0.000000
O O16 0.000000 0.500000 0.500000
#
# Coordination Sequence:
#
# PCOD9055887 Si02
#       7
#     2   2   2   2   2   2   2
#     4  11  25  46  68  96 139 184 236 283 342 420
#     4  11  24  42  70 102 134 183 225 293 350 413
#     4  12  26  44  72 105 141 181 232 289 354 413
#     4  12  23  43  72  98 137 184 227 290 350 414
#     4  11  25  42  69 104 135 181 234 290 343 420
#     4  11  21  44  69 100 143 176 227 292 355 407
#     4  12  27  46  69 102 144 188 231 287 351 415
#
# _framework density 22.339345000000002
#
# number of rings (size 3 to 8) (size 9 to 14) (size 15 to 20)
#    0.000    0.571    5.714    3.000    2.000    5.714 
#    0.000    0.000    0.000    0.000    0.000    0.000 
#    0.000    0.000    0.000    0.000    0.000    0.000 
#
# Total GULP energy -78293.869354 kJ/mol
# GULP energy per Si atom -5592.419240 kJ/mol
# Density = 2.228850 g / cm^3
# Si number density = 22.339345 Si / 1000 Ang^3
#
#
#
# Elastic Constant Matrix: (Units=GPa)
#
#
# Indices 1 2 3 4 5 6 
#
# 1 114.4843 31.2499 30.2894 13.8555 10.1713 -13.8218
# 2 31.2499 86.9331 2.7878 26.3600 -6.9970 -16.0838
# 3 30.2894 2.7878 71.6952 27.3466 3.8599 -2.7800
# 4 13.8555 26.3600 27.3466 37.5853 4.6890 2.3065
# 5 10.1713 -6.9970 3.8599 4.6890 45.1200 9.0147
# 6 -13.8218 -16.0838 -2.7800 2.3065 9.0147 50.7500
#
#
#
# Elastic Compliance Matrix: (Units=1/GPa)
#
#
# Indices 1 2 3 4 5 6 
#
# 1 0.011834 -0.005318 -0.006123 0.004186 -0.003738 0.001676
# 2 -0.005318 0.020602 0.009043 -0.019985 0.004563 0.005674
# 3 -0.006123 0.009043 0.024808 -0.022626 0.002380 0.003163
# 4 0.004186 -0.019985 -0.022626 0.056828 -0.006440 -0.007872
# 5 -0.003738 0.004563 0.002380 -0.006440 0.024893 -0.003571
# 6 0.001676 0.005674 0.003163 -0.007872 -0.003571 0.023124
#
#
# Mechanical properties :
#
#
# Convention : Reuss Voigt Hill
#
# Bulk Modulus (GPa) = 19.06650 44.64076 31.85363
# Shear Modulus (GPa) = 27.11968 40.61008 33.86488
#
# Velocity S-wave (km/s) = 3.48801 4.26828 3.89772
# Velocity P-wave (km/s) = 4.97746 6.65713 5.87760
#
# Compressibility (1/GPa) = 0.05244800
#
# Stress axis : x y z
#
# Youngs Moduli (GPa) = 84.49998 48.53964 40.30986
#
# Poissons Ratio (x) = 0.25812 0.24682
# Poissons Ratio (y) = 0.44934 -0.36452
# Poissons Ratio (z) = 0.51741 -0.43894
#
# Static dielectric constant tensor:
#      x y z
#    x 1.809110 0.035750 -0.015240 
#    y 0.035750 1.842590 0.010420 
#    z -0.015240 0.010420 1.838080 
# 
# From -- ./inp_files/223298.got.cif
#   From: 2010.05.17/outbox.cif.g08.bks.cpg/sg2_112_cif.got.tgz:223298.got - 2010.06.03 11:33:40.
