data_PCOD9055869
_publ_section_title
;
Structure prediction by ZEFSAII (Michael W. Deem and Ramdas Pophale) SiO2 
 PCOD9055869
Probable space group: P -1
;
_chemical_formula_sum "Si O2"
_cell_formula_units_Z 16
_cell_length_a 12.708450
_cell_length_b 12.653373
_cell_length_c 7.890097
_cell_angle_alpha 67.730839
_cell_angle_beta 128.563790
_cell_angle_gamma 131.409366
_cell_volume 742.846806
_symmetry_space_group_name_H-M "P -1"
_symmetry_group_IT_number 2
_symmetry_cell_setting 'triclinic'
loop_
_space_group_symop_operation_xyz
x,y,z
-x,-y,-z
loop_
_atom_site_type_symbol
_atom_site_label
_atom_site_fract_x
_atom_site_fract_y
_atom_site_fract_z
Si Si1 0.125907 0.164576 0.964972
Si Si2 0.069530 0.583972 0.837501
Si Si3 0.456501 0.797115 0.172120
Si Si4 0.946821 0.758970 0.679809
Si Si5 0.620602 0.667215 0.567387
Si Si6 0.032060 0.695765 0.174197
Si Si7 0.372510 0.925906 0.271453
Si Si8 0.241234 0.066744 0.861370
O O1 0.276663 0.264945 0.191657
O O2 0.191812 0.156689 0.853940
O O3 0.018978 0.226953 0.802190
O O4 0.000000 0.000000 0.000000
O O5 0.982381 0.662288 0.666061
O O6 0.041951 0.463367 0.760203
O O7 0.267065 0.697311 0.981693
O O8 0.000000 0.500000 0.000000
O O9 0.504357 0.719553 0.396298
O O10 0.461970 0.918985 0.202215
O O11 0.594467 0.850732 0.135644
O O12 0.768428 0.729690 0.537343
O O13 0.968350 0.714812 0.917768
O O14 0.089017 0.925886 0.700372
O O15 0.500000 0.500000 0.500000
O O16 0.225481 0.773114 0.285380
O O17 0.500000 0.000000 0.500000
O O18 0.286495 0.001976 0.097654
#
# Coordination Sequence:
#
# PCOD9055869 Si02
#       8
#     2   2   2   2   2   2   2   2
#     4  11  19  40  62  83 127 165 207 249 306 378
#     4  10  17  36  59  84 113 164 204 239 299 378
#     4  12  23  35  64  95 123 154 204 267 312 359
#     4   9  18  35  56  81 123 156 197 248 306 361
#     4  11  23  38  61  96 119 162 218 257 294 369
#     4   9  18  33  60  83 108 162 210 237 292 371
#     4  11  21  35  59  91 121 155 205 259 303 360
#     4  11  22  39  59  93 126 163 198 258 324 367
#
# _framework density 21.53876
#
# number of rings (size 3 to 8) (size 9 to 14) (size 15 to 20)
#    0.000    1.500    7.500    3.375    0.000    0.500 
#    0.000    2.500    0.000    0.750    0.000    0.000 
#    0.000    0.000    0.000    0.000    0.000    0.000 
#
# Total GULP energy -89175.162980 kJ/mol
# GULP energy per Si atom -5573.447686 kJ/mol
# Density = 2.148974 g / cm^3
# Si number density = 21.538760 Si / 1000 Ang^3
#
#
#
# Elastic Constant Matrix: (Units=GPa)
#
#
# Indices 1 2 3 4 5 6 
#
# 1 162.8242 42.9206 5.1978 8.7429 0.7606 -16.7460
# 2 42.9206 61.9992 13.5665 18.1075 -14.8763 -13.1177
# 3 5.1978 13.5665 39.6732 10.3827 1.6961 0.0115
# 4 8.7429 18.1075 10.3827 22.9154 -4.9718 8.3707
# 5 0.7606 -14.8763 1.6961 -4.9718 27.0609 -1.5138
# 6 -16.7460 -13.1177 0.0115 8.3707 -1.5138 45.3276
#
#
#
# Elastic Compliance Matrix: (Units=1/GPa)
#
#
# Indices 1 2 3 4 5 6 
#
# 1 0.007931 -0.006699 0.001261 0.000588 -0.003834 0.000755
# 2 -0.006699 0.035802 -0.005718 -0.024287 0.016489 0.012923
# 3 0.001261 -0.005718 0.030311 -0.011500 -0.007153 0.000688
# 4 0.000588 -0.024287 -0.011500 0.075399 0.000046 -0.020731
# 5 -0.003834 0.016489 -0.007153 0.000046 0.046858 0.004914
# 6 0.000755 0.012923 0.000688 -0.020731 0.004914 0.030073
#
#
# Mechanical properties :
#
#
# Convention : Reuss Voigt Hill
#
# Bulk Modulus (GPa) = 19.32968 43.09624 31.21296
# Shear Modulus (GPa) = 18.80213 32.58157 25.69185
#
# Velocity S-wave (km/s) = 2.95777 3.89356 3.45747
# Velocity P-wave (km/s) = 4.54515 6.34548 5.51922
#
# Compressibility (1/GPa) = 0.05173391
#
# Stress axis : x y z
#
# Youngs Moduli (GPa) = 126.08737 27.93167 32.99126
#
# Poissons Ratio (x) = 0.18710 -0.04161
# Poissons Ratio (y) = 0.84461 0.18863
# Poissons Ratio (z) = -0.15903 0.15970
#
# Static dielectric constant tensor:
#      x y z
#    x 1.819700 -0.047330 0.001120 
#    y -0.047330 1.826650 0.076450 
#    z 0.001120 0.076450 1.728190 
# 
# From -- ./inp_files/262403.got.cif
#   From: 2010.05.17/outbox.cif.g08.bks.cpg/sg2_132_cif.got.tgz:262403.got - 2010.06.03 11:33:40.
