data_PCOD9055040
_publ_section_title
;
Structure prediction by ZEFSAII (Michael W. Deem and Ramdas Pophale) SiO2 
 PCOD9055040
Probable space group: P -1
;
_chemical_formula_sum "Si O2"
_cell_formula_units_Z 14
_cell_length_a 12.617927
_cell_length_b 9.206254
_cell_length_c 9.818178
_cell_angle_alpha 81.934197
_cell_angle_beta 145.688488
_cell_angle_gamma 87.054162
_cell_volume 607.274334
_symmetry_space_group_name_H-M "P -1"
_symmetry_group_IT_number 2
_symmetry_cell_setting 'triclinic'
loop_
_space_group_symop_operation_xyz
x,y,z
-x,-y,-z
loop_
_atom_site_type_symbol
_atom_site_label
_atom_site_fract_x
_atom_site_fract_y
_atom_site_fract_z
Si Si1 0.558651 0.707184 0.230580
Si Si2 0.031863 0.163672 0.050079
Si Si3 0.345116 0.603422 0.495712
Si Si4 0.875384 0.678609 0.341674
Si Si5 0.348995 0.027901 0.602364
Si Si6 0.749352 0.238970 0.324491
Si Si7 0.643464 0.764136 0.804740
O O1 0.624296 0.575610 0.429833
O O2 0.740190 0.707299 0.326172
O O3 0.504668 0.875869 0.215112
O O4 0.607152 0.321538 0.040248
O O5 0.141984 0.138689 0.314475
O O6 0.188180 0.203389 0.110193
O O7 0.829617 0.299313 0.798681
O O8 0.000000 0.000000 0.000000
O O9 0.291037 0.671157 0.585056
O O10 0.547298 0.636826 0.666666
O O11 0.000000 0.500000 0.500000
O O12 0.028618 0.775827 0.478661
O O13 0.735161 0.714008 0.057156
O O14 0.302666 0.918320 0.681906
O O15 0.457753 0.915055 0.611329
#
# Coordination Sequence:
#
# PCOD9055040 Si02
#       7
#     2   2   2   2   2   2   2
#     4  12  24  42  59  94 137 151 203 258 313 364
#     4  12  22  44  68  90 120 158 223 247 295 374
#     4  11  22  39  67  91 119 169 204 255 298 361
#     4  12  21  36  67  93 122 164 208 250 302 367
#     4  11  25  41  62  93 126 167 194 264 310 353
#     4  11  21  40  62  93 122 165 207 244 307 366
#     4  11  22  40  66  91 117 161 216 246 302 367
#
# _framework density 23.053829
#
# number of rings (size 3 to 8) (size 9 to 14) (size 15 to 20)
#    0.000    0.571    8.571    2.143    0.000    1.143 
#    2.571    0.714    0.000    0.000    0.000    0.000 
#    0.000    0.000    0.000    0.000    0.000    0.000 
#
# Total GULP energy -78352.813579 kJ/mol
# GULP energy per Si atom -5596.629541 kJ/mol
# Density = 2.300136 g / cm^3
# Si number density = 23.053829 Si / 1000 Ang^3
#
#
#
# Elastic Constant Matrix: (Units=GPa)
#
#
# Indices 1 2 3 4 5 6 
#
# 1 58.9842 21.8654 12.7165 5.0018 8.4793 31.4521
# 2 21.8654 79.7041 14.6626 -8.2757 7.0415 34.0071
# 3 12.7165 14.6626 134.6630 -6.1447 -5.8829 15.3652
# 4 5.0018 -8.2757 -6.1447 32.5284 16.8548 0.3532
# 5 8.4793 7.0415 -5.8829 16.8548 33.1453 12.5474
# 6 31.4521 34.0071 15.3652 0.3532 12.5474 33.7305
#
#
#
# Elastic Compliance Matrix: (Units=1/GPa)
#
#
# Indices 1 2 3 4 5 6 
#
# 1 0.039324 0.008243 0.001182 -0.009457 0.012106 -0.049922
# 2 0.008243 0.024992 0.000814 0.003475 0.004146 -0.034832
# 3 0.001182 0.000814 0.008184 -0.000333 0.003823 -0.007070
# 4 -0.009457 0.003475 -0.000333 0.047603 -0.028475 0.015560
# 5 0.012106 0.004146 0.003823 -0.028475 0.055580 -0.037586
# 6 -0.049922 -0.034832 -0.007070 0.015560 -0.037586 0.128354
#
#
# Mechanical properties :
#
#
# Convention : Reuss Voigt Hill
#
# Bulk Modulus (GPa) = 10.75498 41.31558 26.03528
# Shear Modulus (GPa) = 15.89570 34.82131 25.35851
#
# Velocity S-wave (km/s) = 2.62869 3.89065 3.32018
# Velocity P-wave (km/s) = 3.72674 6.17601 5.10058
#
# Compressibility (1/GPa) = 0.09298021
#
# Stress axis : x y z
#
# Youngs Moduli (GPa) = 25.42945 40.01345 122.18730
#
# Poissons Ratio (x) = -0.32983 -0.14448
# Poissons Ratio (y) = -0.20962 -0.09952
# Poissons Ratio (z) = -0.03007 -0.03259
#
# Static dielectric constant tensor:
#      x y z
#    x 1.893970 -0.052300 -0.015600 
#    y -0.052300 1.922380 0.005200 
#    z -0.015600 0.005200 1.868240 
# 
# From -- ./inp_files/447252.got.cif
#   From: 2010.05.17/outbox.cif.g08.bks.cpg/sg2_224_cif.got.tgz:447252.got - 2010.06.03 11:33:40.
