data_PCOD9055292
_publ_section_title
;
Structure prediction by ZEFSAII (Michael W. Deem and Ramdas Pophale) SiO2 
 PCOD9055292
Probable space group: P -1
;
_chemical_formula_sum "Si O2"
_cell_formula_units_Z 14
_cell_length_a 11.880799
_cell_length_b 9.244326
_cell_length_c 12.068699
_cell_angle_alpha 60.242608
_cell_angle_beta 35.906767
_cell_angle_gamma 72.841022
_cell_volume 659.790250
_symmetry_space_group_name_H-M "P -1"
_symmetry_group_IT_number 2
_symmetry_cell_setting 'triclinic'
loop_
_space_group_symop_operation_xyz
x,y,z
-x,-y,-z
loop_
_atom_site_type_symbol
_atom_site_label
_atom_site_fract_x
_atom_site_fract_y
_atom_site_fract_z
Si Si1 0.621095 0.316894 0.235285
Si Si2 0.490359 0.161790 0.184743
Si Si3 0.671332 0.642308 0.362673
Si Si4 0.793014 0.941832 0.973696
Si Si5 0.794654 0.094182 0.331048
Si Si6 0.005048 0.577173 0.809621
Si Si7 0.842063 0.832691 0.726440
O O1 0.573845 0.312887 0.145260
O O2 0.426747 0.309929 0.464625
O O3 0.706043 0.152272 0.267373
O O4 0.794749 0.478829 0.060628
O O5 0.342405 0.198802 0.195588
O O6 0.668587 0.086499 0.023530
O O7 0.364072 0.015797 0.420426
O O8 0.500000 0.500000 0.500000
O O9 0.718586 0.798471 0.180190
O O10 0.858952 0.558477 0.263755
O O11 0.775822 0.864984 0.892406
O O12 0.025142 0.999258 0.791013
O O13 0.885508 0.272669 0.253809
O O14 0.954622 0.677401 0.703953
O O15 0.000000 0.000000 0.500000
#
# Coordination Sequence:
#
# PCOD9055292 Si02
#       7
#     2   2   2   2   2   2   2
#     4  12  25  40  67 102 139 159 212 282 326 378
#     4  12  25  44  64  99 135 174 212 265 328 383
#     4  12  22  39  70 103 125 169 219 266 329 381
#     4  11  23  39  72  95 124 174 221 261 320 387
#     4  11  21  41  66  96 132 168 212 266 320 384
#     4  11  23  43  67  95 130 173 217 267 317 383
#     4  11  24  46  68  90 130 177 224 262 308 397
#
# _framework density 21.218865000000001
#
# number of rings (size 3 to 8) (size 9 to 14) (size 15 to 20)
#    0.000    0.571    7.143    3.000    0.000    2.286 
#    2.571    0.714    0.000    0.000    0.000    0.000 
#    0.000    0.000    0.000    0.000    0.000    0.000 
#
# Total GULP energy -78292.227584 kJ/mol
# GULP energy per Si atom -5592.301970 kJ/mol
# Density = 2.117057 g / cm^3
# Si number density = 21.218865 Si / 1000 Ang^3
#
#
#
# Elastic Constant Matrix: (Units=GPa)
#
#
# Indices 1 2 3 4 5 6 
#
# 1 130.2841 41.3643 15.1301 22.7622 -3.8034 -28.3805
# 2 41.3643 42.3541 15.0213 10.2887 -6.2245 -12.6131
# 3 15.1301 15.0213 79.3713 6.8015 -11.7062 -7.1516
# 4 22.7622 10.2887 6.8015 36.1919 -6.7336 -3.6673
# 5 -3.8034 -6.2245 -11.7062 -6.7336 27.7906 -2.4767
# 6 -28.3805 -12.6131 -7.1516 -3.6673 -2.4767 37.4145
#
#
#
# Elastic Compliance Matrix: (Units=1/GPa)
#
#
# Indices 1 2 3 4 5 6 
#
# 1 0.012914 -0.009862 0.000215 -0.004944 -0.001018 0.005960
# 2 -0.009862 0.037237 -0.003798 -0.002240 0.005247 0.004474
# 3 0.000215 -0.003798 0.014267 -0.000573 0.005219 0.001899
# 4 -0.004944 -0.002240 -0.000573 0.032571 0.006383 -0.001000
# 5 -0.001018 0.005247 0.005219 0.006383 0.041241 0.005350
# 6 0.005960 0.004474 0.001899 -0.001000 0.005350 0.033376
#
#
# Mechanical properties :
#
#
# Convention : Reuss Voigt Hill
#
# Bulk Modulus (GPa) = 26.64728 43.89344 35.27036
# Shear Modulus (GPa) = 23.69607 32.31232 28.00419
#
# Velocity S-wave (km/s) = 3.34540 3.90655 3.63682
# Velocity P-wave (km/s) = 5.24479 6.40930 5.85607
#
# Compressibility (1/GPa) = 0.03752728
#
# Stress axis : x y z
#
# Youngs Moduli (GPa) = 77.43386 26.85511 70.09306
#
# Poissons Ratio (x) = 0.26485 -0.01510
# Poissons Ratio (y) = 0.76367 0.26624
# Poissons Ratio (z) = -0.01668 0.10201
#
# Static dielectric constant tensor:
#      x y z
#    x 1.776500 0.013120 -0.003680 
#    y 0.013120 1.805010 0.005540 
#    z -0.003680 0.005540 1.762450 
# 
# From -- ./inp_files/412031.got.cif
#   From: 2010.05.17/outbox.cif.g08.bks.cpg/sg2_207_cif.got.tgz:412031.got - 2010.06.03 11:33:40.
