data_PCOD9055118
_publ_section_title
;
Structure prediction by ZEFSAII (Michael W. Deem and Ramdas Pophale) SiO2 
 PCOD9055118
Probable space group: P -1
;
_chemical_formula_sum "Si O2"
_cell_formula_units_Z 16
_cell_length_a 20.086306
_cell_length_b 7.819179
_cell_length_c 10.233169
_cell_angle_alpha 101.788176
_cell_angle_beta 27.997462
_cell_angle_gamma 112.468755
_cell_volume 663.541533
_symmetry_space_group_name_H-M "P -1"
_symmetry_group_IT_number 2
_symmetry_cell_setting 'triclinic'
loop_
_space_group_symop_operation_xyz
x,y,z
-x,-y,-z
loop_
_atom_site_type_symbol
_atom_site_label
_atom_site_fract_x
_atom_site_fract_y
_atom_site_fract_z
Si Si1 0.355284 0.917379 0.837615
Si Si2 0.466622 0.238200 0.871691
Si Si3 0.133205 0.052970 0.101890
Si Si4 0.214080 0.008668 0.656112
Si Si5 0.607230 0.574180 0.198650
Si Si6 0.589787 0.218790 0.059195
Si Si7 0.170669 0.223159 0.521136
Si Si8 0.213254 0.640354 0.515085
O O1 0.206549 0.931371 0.038014
O O2 0.340448 0.719275 0.895701
O O3 0.500000 0.000000 0.500000
O O4 0.400447 0.002608 0.925677
O O5 0.454449 0.283697 0.749072
O O6 0.639595 0.327099 0.640470
O O7 0.346193 0.274395 0.176449
O O8 0.188254 0.052328 0.856751
O O9 0.215222 0.271381 0.047561
O O10 0.946013 0.940658 0.401896
O O11 0.137060 0.776090 0.725932
O O12 0.402826 0.082621 0.325237
O O13 0.157708 0.124174 0.669302
O O14 0.500000 0.500000 0.500000
O O15 0.576571 0.427160 0.110638
O O16 0.715871 0.260223 0.730574
O O17 0.129567 0.406590 0.614181
#
# Coordination Sequence:
#
# PCOD9055118 Si02
#       8
#     2   2   2   2   2   2   2   2
#     4  11  21  40  67  95 130 171 223 278 332 387
#     4  11  21  40  67  95 132 173 218 279 328 384
#     4  11  26  45  62  98 139 179 216 275 339 402
#     4  12  23  44  72  97 135 170 227 284 330 393
#     4  11  22  38  66  94 128 169 221 272 328 391
#     4  12  20  40  67 102 123 163 232 284 320 384
#     4  12  26  44  65 100 141 177 219 271 342 401
#     4  12  24  42  71 102 130 175 228 280 330 391
#
# _framework density 24.113035
#
# number of rings (size 3 to 8) (size 9 to 14) (size 15 to 20)
#    0.000    0.500    6.250    3.375    0.000    2.500 
#    2.250    0.625    0.000    0.000    0.000    0.000 
#    0.000    0.000    0.000    0.000    0.000    0.000 
#
# Total GULP energy -89242.340678 kJ/mol
# GULP energy per Si atom -5577.646292 kJ/mol
# Density = 2.405815 g / cm^3
# Si number density = 24.113035 Si / 1000 Ang^3
#
#
#
# Elastic Constant Matrix: (Units=GPa)
#
#
# Indices 1 2 3 4 5 6 
#
# 1 121.1733 -19.0270 21.6018 -13.9946 10.7089 1.6287
# 2 -19.0270 108.2901 4.1574 -0.1263 0.5918 18.4423
# 3 21.6018 4.1574 51.1648 -0.7938 15.9648 -3.8971
# 4 -13.9946 -0.1263 -0.7938 31.4137 5.9933 -1.0556
# 5 10.7089 0.5918 15.9648 5.9933 39.1785 -2.5340
# 6 1.6287 18.4423 -3.8971 -1.0556 -2.5340 23.6114
#
#
#
# Elastic Compliance Matrix: (Units=1/GPa)
#
#
# Indices 1 2 3 4 5 6 
#
# 1 0.010140 0.002523 -0.004008 0.004717 -0.002115 -0.003347
# 2 0.002523 0.011399 -0.002519 0.000898 -0.000588 -0.009516
# 3 -0.004008 -0.002519 0.024553 0.000651 -0.008622 0.005400
# 4 0.004717 0.000898 0.000651 0.035282 -0.006971 -0.000090
# 5 -0.002115 -0.000588 -0.008622 -0.006971 0.030832 0.002180
# 6 -0.003347 -0.009516 0.005400 -0.000090 0.002180 0.051138
#
#
# Mechanical properties :
#
#
# Convention : Reuss Voigt Hill
#
# Bulk Modulus (GPa) = 26.25743 32.67694 29.46718
# Shear Modulus (GPa) = 27.16703 37.10045 32.13374
#
# Velocity S-wave (km/s) = 3.36021 3.92676 3.65448
# Velocity P-wave (km/s) = 5.09584 5.84297 5.48215
#
# Compressibility (1/GPa) = 0.03808446
#
# Stress axis : x y z
#
# Youngs Moduli (GPa) = 98.61996 87.72432 40.72784
#
# Poissons Ratio (x) = -0.22130 0.16324
# Poissons Ratio (y) = -0.24878 0.10258
# Poissons Ratio (z) = 0.39527 0.22095
#
# Static dielectric constant tensor:
#      x y z
#    x 1.932370 -0.022250 0.027560 
#    y -0.022250 2.176910 -0.042670 
#    z 0.027560 -0.042670 1.963180 
# 
# From -- ./inp_files/262813.got.cif
#   From: 2010.05.17/outbox.cif.g08.bks.cpg/sg2_132_cif.got.tgz:262813.got - 2010.06.03 11:33:40.
