data_PCOD9055484
_publ_section_title
;
Structure prediction by ZEFSAII (Michael W. Deem and Ramdas Pophale) SiO2 
 PCOD9055484
Probable space group: P -1
;
_chemical_formula_sum "Si O2"
_cell_formula_units_Z 16
_cell_length_a 8.082109
_cell_length_b 20.036848
_cell_length_c 23.393400
_cell_angle_alpha 20.676969
_cell_angle_beta 32.328680
_cell_angle_gamma 39.561990
_cell_volume 711.468848
_symmetry_space_group_name_H-M "P -1"
_symmetry_group_IT_number 2
_symmetry_cell_setting 'triclinic'
loop_
_space_group_symop_operation_xyz
x,y,z
-x,-y,-z
loop_
_atom_site_type_symbol
_atom_site_label
_atom_site_fract_x
_atom_site_fract_y
_atom_site_fract_z
Si Si1 0.158985 0.051305 0.049201
Si Si2 0.415053 0.438844 0.322200
Si Si3 0.158767 0.430543 0.678315
Si Si4 0.793923 0.995424 0.312699
Si Si5 0.225239 0.193988 0.124381
Si Si6 0.885432 0.963341 0.498745
Si Si7 0.765476 0.940033 0.166677
Si Si8 0.266032 0.647949 0.582541
O O1 0.174209 0.217021 0.865930
O O2 0.962747 0.085515 0.134864
O O3 0.500000 0.000000 0.000000
O O4 0.962910 0.881270 0.210085
O O5 0.545090 0.434462 0.353310
O O6 0.094130 0.529314 0.328072
O O7 0.332242 0.224368 0.491700
O O8 0.680427 0.587697 0.095335
O O9 0.500000 0.500000 0.500000
O O10 0.077659 0.519822 0.692561
O O11 0.484249 0.079234 0.357329
O O12 0.054021 0.056619 0.235510
O O13 0.549097 0.105680 0.112820
O O14 0.001229 0.150957 0.278161
O O15 0.051897 0.792628 0.558994
O O16 0.000000 0.000000 0.500000
O O17 0.513524 0.762725 0.376129
O O18 0.000000 0.000000 0.000000
#
# Coordination Sequence:
#
# PCOD9055484 Si02
#       8
#     2   2   2   2   2   2   2   2
#     4  12  24  45  70 100 142 193 237 298 373 439
#     4  12  24  46  73 109 148 191 250 311 367 444
#     4  12  27  46  72 110 150 190 250 310 365 449
#     4  12  24  47  75 102 148 195 246 304 374 442
#     4  11  25  43  69 107 137 190 249 298 373 441
#     4  11  23  48  74 100 147 195 239 308 375 438
#     4  11  21  42  66  95 139 185 233 296 366 432
#     4  11  25  46  72 103 145 190 246 300 374 438
#
# _framework density 22.488688
#
# number of rings (size 3 to 8) (size 9 to 14) (size 15 to 20)
#    0.000    0.500    3.750    5.625    0.000    1.000 
#    0.000    2.500    0.000    0.000    0.000    0.000 
#    0.000    0.000    0.000    0.000    0.000    0.000 
#
# Total GULP energy -89197.176650 kJ/mol
# GULP energy per Si atom -5574.823541 kJ/mol
# Density = 2.243750 g / cm^3
# Si number density = 22.488688 Si / 1000 Ang^3
#
#
#
# Elastic Constant Matrix: (Units=GPa)
#
#
# Indices 1 2 3 4 5 6 
#
# 1 125.1491 42.3911 37.7218 14.1837 4.2060 -9.3538
# 2 42.3911 96.5921 38.0137 24.7491 2.6537 -4.3539
# 3 37.7218 38.0137 120.5279 25.7641 19.1519 -1.0617
# 4 14.1837 24.7491 25.7641 47.2978 4.4748 -7.1696
# 5 4.2060 2.6537 19.1519 4.4748 37.1757 5.2069
# 6 -9.3538 -4.3539 -1.0617 -7.1696 5.2069 48.2246
#
#
#
# Elastic Compliance Matrix: (Units=1/GPa)
#
#
# Indices 1 2 3 4 5 6 
#
# 1 0.009888 -0.003536 -0.002000 0.000224 -0.000087 0.001597
# 2 -0.003536 0.014149 -0.002463 -0.005185 0.001336 -0.000378
# 3 -0.002000 -0.002463 0.011300 -0.003865 -0.004897 -0.000407
# 4 0.000224 -0.005185 -0.003865 0.026567 -0.001364 0.003587
# 5 -0.000087 0.001336 -0.004897 -0.001364 0.029983 -0.003444
# 6 0.001597 -0.000378 -0.000407 0.003587 -0.003444 0.021908
#
#
# Mechanical properties :
#
#
# Convention : Reuss Voigt Hill
#
# Bulk Modulus (GPa) = 51.70578 64.28026 57.99302
# Shear Modulus (GPa) = 36.70043 41.48246 39.09144
#
# Velocity S-wave (km/s) = 4.04412 4.29953 4.17378
# Velocity P-wave (km/s) = 6.69689 7.30023 7.00506
#
# Compressibility (1/GPa) = 0.01934020
#
# Stress axis : x y z
#
# Youngs Moduli (GPa) = 101.13671 70.67832 88.49285
#
# Poissons Ratio (x) = 0.24989 0.17695
# Poissons Ratio (y) = 0.35757 0.21797
# Poissons Ratio (z) = 0.20223 0.17409
#
# Static dielectric constant tensor:
#      x y z
#    x 1.953280 0.107800 -0.081930 
#    y 0.107800 1.782870 -0.158510 
#    z -0.081930 -0.158510 1.947190 
# 
# From -- ./inp_files/608627.got.cif
#   From: 2010.05.17/outbox.cif.g08.bks.cpg/sg2_305_cif.got.tgz:608627.got - 2010.06.03 11:33:40.
