data_PCOD9055580
_publ_section_title
;
Structure prediction by ZEFSAII (Michael W. Deem and Ramdas Pophale) SiO2 
 PCOD9055580
Probable space group: P -1
;
_chemical_formula_sum "Si O2"
_cell_formula_units_Z 15
_cell_length_a 8.982717
_cell_length_b 10.710026
_cell_length_c 16.188312
_cell_angle_alpha 33.242794
_cell_angle_beta 49.940963
_cell_angle_gamma 63.619296
_cell_volume 636.859298
_symmetry_space_group_name_H-M "P -1"
_symmetry_group_IT_number 2
_symmetry_cell_setting 'triclinic'
loop_
_space_group_symop_operation_xyz
x,y,z
-x,-y,-z
loop_
_atom_site_type_symbol
_atom_site_label
_atom_site_fract_x
_atom_site_fract_y
_atom_site_fract_z
Si Si1 0.485149 0.019946 0.735090
Si Si2 0.310990 0.816671 0.133702
Si Si3 0.640115 0.180921 0.411730
Si Si4 0.500000 0.500000 0.000000
Si Si5 0.622573 0.594183 0.073874
Si Si6 0.899333 0.892466 0.221276
Si Si7 0.224223 0.646918 0.438842
Si Si8 0.987605 0.001551 0.315919
O O1 0.563794 0.148381 0.550203
O O2 0.244803 0.967152 0.849030
O O3 0.578431 0.194761 0.678607
O O4 0.559779 0.780763 0.845257
O O5 0.408107 0.662722 0.122243
O O6 0.226090 0.667814 0.327251
O O7 0.135787 0.931985 0.099300
O O8 0.500000 0.000000 0.000000
O O9 0.647238 0.436092 0.231161
O O10 0.854769 0.117597 0.359276
O O11 0.500000 0.000000 0.500000
O O12 0.392812 0.555598 0.920957
O O13 0.809474 0.812754 0.882955
O O14 0.814227 0.622279 0.377138
O O15 0.880861 0.930216 0.305643
O O16 0.048874 0.774731 0.457739
#
# Coordination Sequence:
#
# PCOD9055580 Si02
#       8
#     2   2   2   1   2   2   2   2
#     4  12  25  47  68 108 142 182 229 293 348 409
#     4  11  21  42  70  99 132 184 228 273 348 422
#     4  12  25  41  73  99 135 184 237 275 344 417
#     4  12  24  46  72  96 152 174 220 302 344 394
#     4  12  24  45  70  99 141 183 229 286 344 413
#     4  11  23  41  71  97 141 176 231 286 343 409
#     4  11  24  42  70 101 144 177 228 295 343 410
#     4  11  22  44  69 101 134 183 234 282 346 412
#
# _framework density 23.553083000000001
#
# number of rings (size 3 to 8) (size 9 to 14) (size 15 to 20)
#    0.000    0.533    6.667    3.200    1.867    0.533 
#    2.400    2.667    2.933    0.000    0.000    0.000 
#    0.000    0.000    0.000    0.000    0.000    0.000 
#
# Total GULP energy -83682.502514 kJ/mol
# GULP energy per Si atom -5578.833501 kJ/mol
# Density = 2.349947 g / cm^3
# Si number density = 23.553083 Si / 1000 Ang^3
#
#
#
# Elastic Constant Matrix: (Units=GPa)
#
#
# Indices 1 2 3 4 5 6 
#
# 1 100.9160 25.1375 15.9852 7.6718 -8.9302 -3.3668
# 2 25.1375 71.8935 23.2487 13.4935 -6.3066 -9.4037
# 3 15.9852 23.2487 75.6585 -6.0902 1.5830 1.8876
# 4 7.6718 13.4935 -6.0902 35.1312 5.8702 -9.6029
# 5 -8.9302 -6.3066 1.5830 5.8702 40.3125 2.3844
# 6 -3.3668 -9.4037 1.8876 -9.6029 2.3844 50.4904
#
#
#
# Elastic Compliance Matrix: (Units=1/GPa)
#
#
# Indices 1 2 3 4 5 6 
#
# 1 0.011252 -0.002779 -0.001743 -0.002165 0.002455 -0.000230
# 2 -0.002779 0.018814 -0.005938 -0.007726 0.003573 0.001903
# 3 -0.001743 -0.005938 0.015943 0.005719 -0.002738 -0.000601
# 4 -0.002165 -0.007726 0.005719 0.035589 -0.007410 0.005322
# 5 0.002455 0.003573 -0.002738 -0.007410 0.027200 -0.001762
# 6 -0.000230 0.001903 -0.000601 0.005322 -0.001762 0.021263
#
#
# Mechanical properties :
#
#
# Convention : Reuss Voigt Hill
#
# Bulk Modulus (GPa) = 39.85995 41.91232 40.88614
# Shear Modulus (GPa) = 31.37883 37.45991 34.41937
#
# Velocity S-wave (km/s) = 3.65397 3.99237 3.82691
# Velocity P-wave (km/s) = 5.89595 6.25184 6.07650
#
# Compressibility (1/GPa) = 0.02508784
#
# Stress axis : x y z
#
# Youngs Moduli (GPa) = 88.87524 53.15285 62.72361
#
# Poissons Ratio (x) = 0.14770 0.10935
# Poissons Ratio (y) = 0.24696 0.37246
# Poissons Ratio (z) = 0.15494 0.31563
#
# Static dielectric constant tensor:
#      x y z
#    x 2.141430 0.000980 0.116780 
#    y 0.000980 1.970200 0.027150 
#    z 0.116780 0.027150 1.955250 
# 
# From -- ./inp_files/559514.got.cif
#   From: 2010.05.17/outbox.cif.g08.bks.cpg/sg2_280_cif.got.tgz:559514.got - 2010.06.03 11:33:40.
