data_PCOD9055325
_publ_section_title
;
Structure prediction by ZEFSAII (Michael W. Deem and Ramdas Pophale) SiO2 
 PCOD9055325
Probable space group: P -1
;
_chemical_formula_sum "Si O2"
_cell_formula_units_Z 16
_cell_length_a 9.940463
_cell_length_b 10.740736
_cell_length_c 9.352494
_cell_angle_alpha 92.305666
_cell_angle_beta 46.835000
_cell_angle_gamma 102.923611
_cell_volume 700.888906
_symmetry_space_group_name_H-M "P -1"
_symmetry_group_IT_number 2
_symmetry_cell_setting 'triclinic'
loop_
_space_group_symop_operation_xyz
x,y,z
-x,-y,-z
loop_
_atom_site_type_symbol
_atom_site_label
_atom_site_fract_x
_atom_site_fract_y
_atom_site_fract_z
Si Si1 0.672378 0.370974 0.414493
Si Si2 0.120402 0.799734 0.561945
Si Si3 0.939365 0.661793 0.257522
Si Si4 0.730903 0.679193 0.136656
Si Si5 0.672575 0.392828 0.076632
Si Si6 0.279677 0.973535 0.193589
Si Si7 0.081243 0.050372 0.095570
Si Si8 0.757120 0.749737 0.665845
O O1 0.765509 0.275477 0.429154
O O2 0.807370 0.513810 0.350798
O O3 0.462326 0.354409 0.631091
O O4 0.662072 0.351833 0.250451
O O5 0.083607 0.914203 0.690727
O O6 0.911180 0.715327 0.658739
O O7 0.221342 0.861011 0.346334
O O8 0.906682 0.704543 0.122037
O O9 0.841350 0.733579 0.447871
O O10 0.157208 0.656041 0.119971
O O11 0.725353 0.548953 0.048457
O O12 0.758269 0.812170 0.037128
O O13 0.461169 0.334114 0.164774
O O14 0.167693 0.955711 0.123549
O O15 0.237150 0.101936 0.298516
O O16 0.500000 0.000000 0.000000
O O17 0.000000 0.000000 0.000000
#
# Coordination Sequence:
#
# PCOD9055325 Si02
#       8
#     2   2   2   2   2   2   2   2
#     4  11  21  43  66 102 142 184 229 284 341 416
#     4  11  26  46  67  99 149 179 227 293 348 407
#     4  11  22  40  71 102 141 180 228 288 344 408
#     4  11  21  41  68 103 143 175 233 293 338 407
#     4  11  22  42  71 104 138 186 229 282 351 413
#     4  11  27  49  68 100 141 186 228 290 351 408
#     4  11  25  44  71  98 132 186 239 281 339 410
#     4  11  24  44  69 100 139 179 233 278 352 409
#
# _framework density 22.828153
#
# number of rings (size 3 to 8) (size 9 to 14) (size 15 to 20)
#    0.000    1.000    2.500    6.000    5.250    1.500 
#    0.000    5.000    0.000    0.000    0.000    0.000 
#    0.000    0.000    0.000    0.000    0.000    0.000 
#
# Total GULP energy -89581.257435 kJ/mol
# GULP energy per Si atom -5598.828590 kJ/mol
# Density = 2.277620 g / cm^3
# Si number density = 22.828153 Si / 1000 Ang^3
#
#
#
# Elastic Constant Matrix: (Units=GPa)
#
#
# Indices 1 2 3 4 5 6 
#
# 1 130.9128 36.7252 41.5958 -0.2530 -7.1069 -3.9505
# 2 36.7252 62.3184 28.6101 -2.8506 3.9042 -5.3585
# 3 41.5958 28.6101 132.8980 -7.3115 -13.5778 -1.4123
# 4 -0.2530 -2.8506 -7.3115 38.6673 -8.3948 7.7418
# 5 -7.1069 3.9042 -13.5778 -8.3948 45.7323 -0.5888
# 6 -3.9505 -5.3585 -1.4123 7.7418 -0.5888 42.2870
#
#
#
# Elastic Compliance Matrix: (Units=1/GPa)
#
#
# Indices 1 2 3 4 5 6 
#
# 1 0.009692 -0.004932 -0.001859 -0.000433 0.001300 0.000316
# 2 -0.004932 0.020858 -0.003305 -0.000308 -0.003558 0.002079
# 3 -0.001859 -0.003305 0.009261 0.002314 0.003159 -0.000663
# 4 -0.000433 -0.000308 0.002314 0.028569 0.005824 -0.005152
# 5 0.001300 -0.003558 0.003159 0.005824 0.024367 -0.000951
# 6 0.000316 0.002079 -0.000663 -0.005152 -0.000951 0.024849
#
#
# Mechanical properties :
#
#
# Convention : Reuss Voigt Hill
#
# Bulk Modulus (GPa) = 50.97312 59.99905 55.48609
# Shear Modulus (GPa) = 34.64298 39.95053 37.29676
#
# Velocity S-wave (km/s) = 3.89981 4.18790 4.04642
# Velocity P-wave (km/s) = 6.53112 7.05157 6.79633
#
# Compressibility (1/GPa) = 0.01961818
#
# Stress axis : x y z
#
# Youngs Moduli (GPa) = 103.17349 47.94285 107.97918
#
# Poissons Ratio (x) = 0.23647 0.20078
# Poissons Ratio (y) = 0.50888 0.35687
# Poissons Ratio (z) = 0.19185 0.15845
#
# Static dielectric constant tensor:
#      x y z
#    x 1.858520 0.020120 0.016420 
#    y 0.020120 1.873870 -0.008020 
#    z 0.016420 -0.008020 1.846570 
# 
# From -- ./inp_files/187346.got.cif
#   From: 2010.05.17/outbox.cif.g08.bks.cpg/sg2_94_cif.got.tgz:187346.got - 2010.06.03 11:33:40.
