data_PCOD9055945
_publ_section_title
;
Structure prediction by ZEFSAII (Michael W. Deem and Ramdas Pophale) SiO2 
 PCOD9055945
Probable space group: P -1
;
_chemical_formula_sum "Si O2"
_cell_formula_units_Z 14
_cell_length_a 5.601771
_cell_length_b 11.226270
_cell_length_c 8.832114
_cell_angle_alpha 90.142038
_cell_angle_beta 115.151964
_cell_angle_gamma 92.329072
_cell_volume 502.226615
_symmetry_space_group_name_H-M "P -1"
_symmetry_group_IT_number 2
_symmetry_cell_setting 'triclinic'
loop_
_space_group_symop_operation_xyz
x,y,z
-x,-y,-z
loop_
_atom_site_type_symbol
_atom_site_label
_atom_site_fract_x
_atom_site_fract_y
_atom_site_fract_z
Si Si1 0.356855 0.608921 0.182058
Si Si2 0.539625 0.799429 0.994715
Si Si3 0.897715 0.630964 0.510327
Si Si4 0.694790 0.653062 0.765637
Si Si5 0.728300 0.260354 0.573326
Si Si6 0.500000 0.000000 0.500000
Si Si7 0.098636 0.987633 0.853537
Si Si8 0.000000 0.000000 0.500000
O O1 0.608193 0.618853 0.361315
O O2 0.290317 0.470624 0.142034
O O3 0.161939 0.672010 0.246282
O O4 0.430740 0.684444 0.056722
O O5 0.677547 0.758480 0.878105
O O6 0.292670 0.880692 0.906817
O O7 0.752597 0.884981 0.137049
O O8 0.912174 0.651481 0.693227
O O9 0.000000 0.500000 0.500000
O O10 0.016261 0.751956 0.463215
O O11 0.433527 0.661955 0.591220
O O12 0.561710 0.143076 0.567002
O O13 0.692650 0.025299 0.391408
O O14 0.893585 0.972436 0.657409
O O15 0.000000 0.000000 0.000000
#
# Coordination Sequence:
#
# PCOD9055945 Si02
#       8
#     2   2   2   2   2   1   2   1
#     4  11  23  43  72 107 151 211 265 336 419 494
#     4  11  27  49  72 113 163 204 269 344 423 508
#     4  11  21  44  72 109 153 207 279 338 405 496
#     4  11  23  43  72 107 150 211 264 339 416 496
#     4  11  24  43  72 105 155 204 275 335 404 493
#     4  12  30  44  80 128 156 222 282 346 422 516
#     4  11  29  54  80 115 164 217 278 351 426 513
#     4  12  30  54  86 118 164 222 288 332 432 508
#
# _framework density 27.875865000000001
#
# number of rings (size 3 to 8) (size 9 to 14) (size 15 to 20)
#    0.000    0.857    2.857    3.000   14.000    1.143 
#    0.000    0.714    0.000    0.000    0.000    0.000 
#    0.000    0.000    0.000    0.000    0.000    0.000 
#
# Total GULP energy -78016.105818 kJ/mol
# GULP energy per Si atom -5572.578987 kJ/mol
# Density = 2.781242 g / cm^3
# Si number density = 27.875865 Si / 1000 Ang^3
#
#
#
# Elastic Constant Matrix: (Units=GPa)
#
#
# Indices 1 2 3 4 5 6 
#
# 1 60.3584 40.8393 31.0061 5.4758 -34.5148 -13.0415
# 2 40.8393 158.3896 39.5474 3.4037 -20.6645 -6.6661
# 3 31.0061 39.5474 134.4267 10.7647 -29.8867 -31.2601
# 4 5.4758 3.4037 10.7647 55.3680 -6.9181 -4.5499
# 5 -34.5148 -20.6645 -29.8867 -6.9181 55.9201 0.9589
# 6 -13.0415 -6.6661 -31.2601 -4.5499 0.9589 41.7597
#
#
#
# Elastic Compliance Matrix: (Units=1/GPa)
#
#
# Indices 1 2 3 4 5 6 
#
# 1 0.032518 -0.005732 0.000274 0.000069 0.017953 0.009041
# 2 -0.005732 0.007962 -0.001783 0.000087 -0.001507 -0.001810
# 3 0.000274 -0.001783 0.010902 -0.000761 0.005110 0.007762
# 4 0.000069 0.000087 -0.000761 0.018558 0.001939 0.001443
# 5 0.017953 -0.001507 0.005110 0.001939 0.031228 0.008685
# 6 0.009041 -0.001810 0.007762 0.001443 0.008685 0.032249
#
#
# Mechanical properties :
#
#
# Convention : Reuss Voigt Hill
#
# Bulk Modulus (GPa) = 27.09966 63.99560 45.54763
# Shear Modulus (GPa) = 31.21104 46.72836 38.96970
#
# Velocity S-wave (km/s) = 3.34974 4.09871 3.74300
# Velocity P-wave (km/s) = 4.97028 6.73843 5.92073
#
# Compressibility (1/GPa) = 0.03690083
#
# Stress axis : x y z
#
# Youngs Moduli (GPa) = 30.75207 125.59623 91.72372
#
# Poissons Ratio (x) = 0.71988 -0.02513
# Poissons Ratio (y) = 0.17626 0.16355
# Poissons Ratio (z) = -0.00843 0.22395
#
# Static dielectric constant tensor:
#      x y z
#    x 1.246330 0.472130 -0.341710 
#    y 0.472130 -0.260390 -0.759010 
#    z -0.341710 -0.759010 1.869730 
# 
# From -- ./inp_files/131647.got.cif
#   From: 2010.05.17/outbox.cif.g08.bks.cpg/sg2_66_cif.got.tgz:131647.got - 2010.06.03 11:33:40.
