data_PCOD9055761
_publ_section_title
;
Structure prediction by ZEFSAII (Michael W. Deem and Ramdas Pophale) SiO2 
 PCOD9055761
Probable space group: P -1
;
_chemical_formula_sum "Si O2"
_cell_formula_units_Z 16
_cell_length_a 11.718858
_cell_length_b 10.764649
_cell_length_c 12.996491
_cell_angle_alpha 82.680161
_cell_angle_beta 135.453402
_cell_angle_gamma 62.110659
_cell_volume 680.150030
_symmetry_space_group_name_H-M "P -1"
_symmetry_group_IT_number 2
_symmetry_cell_setting 'triclinic'
loop_
_space_group_symop_operation_xyz
x,y,z
-x,-y,-z
loop_
_atom_site_type_symbol
_atom_site_label
_atom_site_fract_x
_atom_site_fract_y
_atom_site_fract_z
Si Si1 0.464895 0.022166 0.853100
Si Si2 0.059593 0.100149 0.302460
Si Si3 0.609593 0.506535 0.469687
Si Si4 0.867208 0.332086 0.350961
Si Si5 0.376013 0.705727 0.660848
Si Si6 0.045848 0.384510 0.885776
Si Si7 0.396660 0.777727 0.113728
Si Si8 0.026834 0.306964 0.103703
O O1 0.573001 0.091768 0.878603
O O2 0.157846 0.188735 0.601304
O O3 0.500000 0.000000 0.000000
O O4 0.658260 0.793890 0.956050
O O5 0.900220 0.296066 0.253750
O O6 0.179709 0.105469 0.285434
O O7 0.863763 0.117598 0.123836
O O8 0.280041 0.897810 0.537544
O O9 0.500000 0.500000 0.500000
O O10 0.725030 0.330710 0.485931
O O11 0.412226 0.709070 0.246350
O O12 0.844059 0.451131 0.666712
O O13 0.760799 0.261240 0.327677
O O14 0.649665 0.564744 0.231978
O O15 0.701029 0.490302 0.891545
O O16 0.920854 0.589909 0.825589
O O17 0.073670 0.281118 0.015656
#
# Coordination Sequence:
#
# PCOD9055761 Si02
#       8
#     2   2   2   2   2   2   2   2
#     4  12  26  44  68 101 138 180 231 284 337 408
#     4  12  23  41  71 100 134 181 225 277 337 411
#     4  11  21  43  70  94 134 176 218 282 340 396
#     4  11  24  42  66 100 141 176 225 283 339 400
#     4  11  23  44  67 103 133 174 233 276 337 407
#     4  11  25  46  67  97 139 178 223 283 344 401
#     4  11  24  41  66 101 134 176 233 275 346 404
#     4  11  25  46  68 100 138 179 225 280 343 404
#
# _framework density 23.524221000000001
#
# number of rings (size 3 to 8) (size 9 to 14) (size 15 to 20)
#    0.000    0.750    3.750    4.875    3.500    1.000 
#    0.000    4.375    0.000    0.000    0.000    0.000 
#    0.000    0.000    0.000    0.000    0.000    0.000 
#
# Total GULP energy -89544.961124 kJ/mol
# GULP energy per Si atom -5596.560070 kJ/mol
# Density = 2.347068 g / cm^3
# Si number density = 23.524221 Si / 1000 Ang^3
#
#
#
# Elastic Constant Matrix: (Units=GPa)
#
#
# Indices 1 2 3 4 5 6 
#
# 1 72.7654 -3.0491 21.3619 5.9472 -17.8916 -2.8380
# 2 -3.0491 46.4209 17.3774 6.3049 -10.6472 1.3168
# 3 21.3619 17.3774 84.5848 17.7959 -9.0635 -2.0048
# 4 5.9472 6.3049 17.7959 35.4183 1.7315 -6.3116
# 5 -17.8916 -10.6472 -9.0635 1.7315 34.0957 2.8712
# 6 -2.8380 1.3168 -2.0048 -6.3116 2.8712 30.9628
#
#
#
# Elastic Compliance Matrix: (Units=1/GPa)
#
#
# Indices 1 2 3 4 5 6 
#
# 1 0.017814 0.005328 -0.003997 -0.002477 0.010099 -0.000294
# 2 0.005328 0.026740 -0.004924 -0.004177 0.010282 -0.002773
# 3 -0.003997 -0.004924 0.015225 -0.006231 0.000772 -0.000513
# 4 -0.002477 -0.004177 -0.006231 0.034114 -0.006592 0.007112
# 5 0.010099 0.010282 0.000772 -0.006592 0.038750 -0.004399
# 6 -0.000294 -0.002773 -0.000513 0.007112 -0.004399 0.034212
#
#
# Mechanical properties :
#
#
# Convention : Reuss Voigt Hill
#
# Bulk Modulus (GPa) = 19.01446 30.57238 24.79342
# Shear Modulus (GPa) = 26.09981 31.30076 28.70029
#
# Velocity S-wave (km/s) = 3.33451 3.65166 3.49668
# Velocity P-wave (km/s) = 4.78808 5.55012 5.18313
#
# Compressibility (1/GPa) = 0.05259155
#
# Stress axis : x y z
#
# Youngs Moduli (GPa) = 56.13658 37.39770 65.68135
#
# Poissons Ratio (x) = -0.19924 0.26252
# Poissons Ratio (y) = -0.29907 0.32342
# Poissons Ratio (z) = 0.22437 0.18415
#
# Static dielectric constant tensor:
#      x y z
#    x 1.953760 0.038960 -0.016710 
#    y 0.038960 1.884770 -0.031750 
#    z -0.016710 -0.031750 1.864900 
# 
# From -- ./inp_files/273461.got.cif
#   From: 2010.05.17/outbox.cif.g08.bks.cpg/sg2_137_cif.got.tgz:273461.got - 2010.06.03 11:33:40.
