data_PCOD9055822
_publ_section_title
;
Structure prediction by ZEFSAII (Michael W. Deem and Ramdas Pophale) SiO2 
 PCOD9055822
Probable space group: P -1
;
_chemical_formula_sum "Si O2"
_cell_formula_units_Z 16
_cell_length_a 8.834805
_cell_length_b 14.406424
_cell_length_c 14.219273
_cell_angle_alpha 56.014981
_cell_angle_beta 125.987025
_cell_angle_gamma 149.163642
_cell_volume 744.139187
_symmetry_space_group_name_H-M "P -1"
_symmetry_group_IT_number 2
_symmetry_cell_setting 'triclinic'
loop_
_space_group_symop_operation_xyz
x,y,z
-x,-y,-z
loop_
_atom_site_type_symbol
_atom_site_label
_atom_site_fract_x
_atom_site_fract_y
_atom_site_fract_z
Si Si1 0.666849 0.883067 0.970953
Si Si2 0.312661 0.924626 0.378341
Si Si3 0.223134 0.289830 0.231345
Si Si4 0.530816 0.962166 0.235435
Si Si5 0.261887 0.563339 0.120950
Si Si6 0.832409 0.436162 0.700376
Si Si7 0.466897 0.244314 0.203590
Si Si8 0.781536 0.500894 0.448433
O O1 0.605341 0.986137 0.885122
O O2 0.485298 0.739604 0.899523
O O3 0.556738 0.778194 0.086851
O O4 0.000000 0.000000 0.000000
O O5 0.988664 0.709013 0.389463
O O6 0.500000 0.000000 0.500000
O O7 0.495077 0.958290 0.337384
O O8 0.300736 0.050645 0.281208
O O9 0.294598 0.454374 0.156102
O O10 0.274573 0.253938 0.170864
O O11 0.473999 0.358223 0.356063
O O12 0.879963 0.115568 0.243451
O O13 0.333497 0.761939 0.247481
O O14 0.200910 0.526127 0.230522
O O15 0.000000 0.500000 0.000000
O O16 0.707659 0.450027 0.560419
O O17 0.192241 0.591699 0.724009
O O18 0.000000 0.500000 0.500000
#
# Coordination Sequence:
#
# PCOD9055822 Si02
#       8
#     2   2   2   2   2   2   2   2
#     4  11  27  47  71 101 139 185 239 293 360 422
#     4  11  21  43  73  95 142 187 231 284 346 419
#     4  12  27  45  71 108 147 184 241 290 356 419
#     4  11  26  45  68 107 144 180 240 296 348 424
#     4  12  26  50  70 101 144 183 237 306 350 413
#     4  12  25  47  73 102 147 188 237 288 360 421
#     4  11  24  44  71 106 136 191 235 285 359 426
#     4  12  24  46  72 107 144 188 234 286 351 431
#
# _framework density 21.501355
#
# number of rings (size 3 to 8) (size 9 to 14) (size 15 to 20)
#    0.000    0.500    6.250    0.750    7.000    3.000 
#    0.000    0.000    0.000    0.000    0.000    0.000 
#    0.000    0.000    0.000    0.000    0.000    0.000 
#
# Total GULP energy -89485.358471 kJ/mol
# GULP energy per Si atom -5592.834904 kJ/mol
# Density = 2.145242 g / cm^3
# Si number density = 21.501355 Si / 1000 Ang^3
#
#
#
# Elastic Constant Matrix: (Units=GPa)
#
#
# Indices 1 2 3 4 5 6 
#
# 1 81.1200 18.4379 26.4530 -28.4077 14.7624 -5.9678
# 2 18.4379 112.7911 14.4746 -21.8269 21.8189 9.6079
# 3 26.4530 14.4746 70.0590 -13.9183 2.0262 7.2245
# 4 -28.4077 -21.8269 -13.9183 35.9048 7.8926 1.7276
# 5 14.7624 21.8189 2.0262 7.8926 33.5193 0.5463
# 6 -5.9678 9.6079 7.2245 1.7276 0.5463 37.1906
#
#
#
# Elastic Compliance Matrix: (Units=1/GPa)
#
#
# Indices 1 2 3 4 5 6 
#
# 1 0.026051 0.005259 -0.005439 0.026122 -0.020767 0.002970
# 2 0.005259 0.014530 -0.000995 0.016164 -0.015467 -0.003240
# 3 -0.005439 -0.000995 0.017218 0.001589 0.001694 -0.004059
# 4 0.026122 0.016164 0.001589 0.067443 -0.037956 -0.002868
# 5 -0.020767 -0.015467 0.001694 -0.037956 0.057862 0.001248
# 6 0.002970 -0.003240 -0.004059 -0.002868 0.001248 0.029106
#
#
# Mechanical properties :
#
#
# Convention : Reuss Voigt Hill
#
# Bulk Modulus (GPa) = 18.03460 42.52236 30.27848
# Shear Modulus (GPa) = 21.45523 34.96325 28.20924
#
# Velocity S-wave (km/s) = 3.16231 4.03686 3.62605
# Velocity P-wave (km/s) = 4.66256 6.44576 5.62527
#
# Compressibility (1/GPa) = 0.05544898
#
# Stress axis : x y z
#
# Youngs Moduli (GPa) = 38.38581 68.82312 58.07790
#
# Poissons Ratio (x) = -0.36192 0.31589
# Poissons Ratio (y) = -0.20186 0.05778
# Poissons Ratio (z) = 0.20878 0.06847
#
# Static dielectric constant tensor:
#      x y z
#    x 1.782280 0.014860 -0.021150 
#    y 0.014860 1.831620 0.054270 
#    z -0.021150 0.054270 1.829880 
# 
# From -- ./inp_files/505390.got.cif
#   From: 2010.05.17/outbox.cif.g08.bks.cpg/sg2_253_cif.got.tgz:505390.got - 2010.06.03 11:33:40.
