data_PCOD9055255
_publ_section_title
;
Structure prediction by ZEFSAII (Michael W. Deem and Ramdas Pophale) SiO2 
 PCOD9055255
Probable space group: P -1
;
_chemical_formula_sum "Si O2"
_cell_formula_units_Z 15
_cell_length_a 14.618128
_cell_length_b 8.863466
_cell_length_c 11.638625
_cell_angle_alpha 71.928141
_cell_angle_beta 29.336060
_cell_angle_gamma 86.246569
_cell_volume 630.697140
_symmetry_space_group_name_H-M "P -1"
_symmetry_group_IT_number 2
_symmetry_cell_setting 'triclinic'
loop_
_space_group_symop_operation_xyz
x,y,z
-x,-y,-z
loop_
_atom_site_type_symbol
_atom_site_label
_atom_site_fract_x
_atom_site_fract_y
_atom_site_fract_z
Si Si1 0.364242 0.314840 0.126742
Si Si2 0.138454 0.782712 0.503945
Si Si3 0.486303 0.471033 0.705232
Si Si4 0.959750 0.648097 0.082374
Si Si5 0.127722 0.832729 0.247337
Si Si6 0.500000 0.000000 0.000000
Si Si7 0.189424 0.623124 0.042421
Si Si8 0.842016 0.841480 0.979947
O O1 0.120972 0.250654 0.441361
O O2 0.500000 0.500000 0.000000
O O3 0.395755 0.367915 0.946524
O O4 0.429992 0.156115 0.102197
O O5 0.223043 0.879216 0.262147
O O6 0.999947 0.576104 0.697764
O O7 0.993063 0.853080 0.705831
O O8 0.366827 0.853567 0.285607
O O9 0.729980 0.551407 0.409172
O O10 0.397989 0.616507 0.774292
O O11 0.368615 0.336251 0.763724
O O12 0.118714 0.713742 0.997681
O O13 0.957267 0.804324 0.969739
O O14 0.000000 0.500000 0.000000
O O15 0.195022 0.696626 0.145358
O O16 0.194011 0.989667 0.046159
#
# Coordination Sequence:
#
# PCOD9055255 Si02
#       8
#     2   2   2   2   2   1   2   2
#     4  12  25  41  68 103 143 179 226 286 348 423
#     4  11  21  41  64  98 132 175 222 274 344 407
#     4  11  24  44  69 101 128 178 238 276 342 411
#     4  12  24  45  72  95 129 178 241 280 332 411
#     4  12  23  43  65 100 142 175 215 281 361 405
#     4  12  24  36  64 102 142 174 228 278 344 420
#     4  11  25  43  70  98 136 183 225 282 342 409
#     4  11  23  42  69  96 133 182 225 284 334 410
#
# _framework density 23.783204000000001
#
# number of rings (size 3 to 8) (size 9 to 14) (size 15 to 20)
#    0.000    0.533    6.667    4.400    1.867    0.533 
#    0.000    0.667    0.000    0.000    0.000    0.000 
#    0.000    0.000    0.000    0.000    0.000    0.000 
#
# Total GULP energy -83664.189641 kJ/mol
# GULP energy per Si atom -5577.612643 kJ/mol
# Density = 2.372907 g / cm^3
# Si number density = 23.783204 Si / 1000 Ang^3
#
#
#
# Elastic Constant Matrix: (Units=GPa)
#
#
# Indices 1 2 3 4 5 6 
#
# 1 97.6098 30.8349 9.5162 1.9555 4.0858 -12.1217
# 2 30.8349 91.8790 25.8181 7.4648 -7.8315 3.8633
# 3 9.5162 25.8181 107.5541 24.4025 -18.9000 -0.6506
# 4 1.9555 7.4648 24.4025 29.0130 -11.1803 3.2007
# 5 4.0858 -7.8315 -18.9000 -11.1803 33.7736 0.4176
# 6 -12.1217 3.8633 -0.6506 3.2007 0.4176 38.1843
#
#
#
# Elastic Compliance Matrix: (Units=1/GPa)
#
#
# Indices 1 2 3 4 5 6 
#
# 1 0.012389 -0.004438 -0.000292 -0.001150 -0.003128 0.004508
# 2 -0.004438 0.013371 -0.002454 0.000140 0.002346 -0.002841
# 3 -0.000292 -0.002454 0.012501 -0.008590 0.003606 0.001049
# 4 -0.001150 0.000140 -0.008590 0.046386 0.010776 -0.004532
# 5 -0.003128 0.002346 0.003606 0.010776 0.036147 -0.002468
# 6 0.004508 -0.002841 0.001049 -0.004532 -0.002468 0.028332
#
#
# Mechanical properties :
#
#
# Convention : Reuss Voigt Hill
#
# Bulk Modulus (GPa) = 41.85359 47.70902 44.78130
# Shear Modulus (GPa) = 29.16134 35.58576 32.37355
#
# Velocity S-wave (km/s) = 3.50542 3.87234 3.69344
# Velocity P-wave (km/s) = 5.83267 6.33221 6.08757
#
# Compressibility (1/GPa) = 0.02389281
#
# Stress axis : x y z
#
# Youngs Moduli (GPa) = 80.71522 74.78885 79.99074
#
# Poissons Ratio (x) = 0.33195 0.02338
# Poissons Ratio (y) = 0.35825 0.19627
# Poissons Ratio (z) = 0.02359 0.18351
#
# Static dielectric constant tensor:
#      x y z
#    x 2.131550 0.002450 -0.109430 
#    y 0.002450 1.992490 -0.073980 
#    z -0.109430 -0.073980 1.994930 
# 
# From -- ./inp_files/447053.got.cif
#   From: 2010.05.17/outbox.cif.g08.bks.cpg/sg2_224_cif.got.tgz:447053.got - 2010.06.03 11:33:40.
