data_PCOD9055125
_publ_section_title
;
Structure prediction by ZEFSAII (Michael W. Deem and Ramdas Pophale) SiO2 
 PCOD9055125
Probable space group: P -1
;
_chemical_formula_sum "Si O2"
_cell_formula_units_Z 14
_cell_length_a 10.095347
_cell_length_b 7.083704
_cell_length_c 17.276685
_cell_angle_alpha 138.825772
_cell_angle_beta 127.738852
_cell_angle_gamma 54.145191
_cell_volume 624.413986
_symmetry_space_group_name_H-M "P -1"
_symmetry_group_IT_number 2
_symmetry_cell_setting 'triclinic'
loop_
_space_group_symop_operation_xyz
x,y,z
-x,-y,-z
loop_
_atom_site_type_symbol
_atom_site_label
_atom_site_fract_x
_atom_site_fract_y
_atom_site_fract_z
Si Si1 0.737790 0.120449 0.072422
Si Si2 0.482381 0.764178 0.818696
Si Si3 0.904396 0.148207 0.930949
Si Si4 0.080023 0.773161 0.392532
Si Si5 0.666645 0.800818 0.661552
Si Si6 0.775873 0.649392 0.143114
Si Si7 0.563808 0.332917 0.582973
O O1 0.714121 0.397228 0.091197
O O2 0.627429 0.244959 0.146318
O O3 0.657882 0.861491 0.929665
O O4 0.940524 0.974416 0.110930
O O5 0.366970 0.050511 0.822796
O O6 0.520688 0.461502 0.692077
O O7 0.737799 0.044239 0.808304
O O8 0.840753 0.490332 0.035848
O O9 0.000000 0.000000 0.000000
O O10 0.163858 0.464716 0.369570
O O11 0.433757 0.164033 0.444471
O O12 0.936786 0.719164 0.266505
O O13 0.000000 0.000000 0.500000
O O14 0.550056 0.647639 0.628809
O O15 0.759779 0.164395 0.580317
#
# Coordination Sequence:
#
# PCOD9055125 Si02
#       7
#     2   2   2   2   2   2   2
#     4  10  21  38  57  84 124 151 188 244 280 340
#     4  11  22  36  58  90 115 157 189 233 296 335
#     4  10  17  36  56  82 116 154 189 238 290 326
#     4  10  18  33  58  86 110 149 193 238 282 341
#     4   9  17  31  56  82 109 158 187 234 290 336
#     4  11  21  35  62  88 112 151 200 232 283 348
#     4   9  18  34  54  82 119 150 189 239 289 340
#
# _framework density 22.421019999999999
#
# number of rings (size 3 to 8) (size 9 to 14) (size 15 to 20)
#    0.857    1.143    2.857    3.857    0.000    0.571 
#    0.000    0.714    0.000    0.857    0.000    0.000 
#    0.000    0.000    0.000    0.000    0.000    0.000 
#
# Total GULP energy -78100.046859 kJ/mol
# GULP energy per Si atom -5578.574776 kJ/mol
# Density = 2.236999 g / cm^3
# Si number density = 22.421020 Si / 1000 Ang^3
#
#
#
# Elastic Constant Matrix: (Units=GPa)
#
#
# Indices 1 2 3 4 5 6 
#
# 1 101.0961 12.1508 88.8631 23.5493 -17.7227 -3.8669
# 2 12.1508 73.8109 13.4591 3.9137 12.6409 -8.4697
# 3 88.8631 13.4591 246.7388 24.0756 -22.4442 -12.6876
# 4 23.5493 3.9137 24.0756 35.4572 -29.7088 0.1462
# 5 -17.7227 12.6409 -22.4442 -29.7088 49.7640 -2.1165
# 6 -3.8669 -8.4697 -12.6876 0.1462 -2.1165 29.7467
#
#
#
# Elastic Compliance Matrix: (Units=1/GPa)
#
#
# Indices 1 2 3 4 5 6 
#
# 1 0.016187 -0.001179 -0.005100 -0.008039 -0.001054 -0.000442
# 2 -0.001179 0.016462 -0.000292 -0.009372 -0.010170 0.003732
# 3 -0.005100 -0.000292 0.006088 0.000376 0.001311 0.001942
# 4 -0.008039 -0.009372 0.000376 0.068083 0.040289 -0.001021
# 5 -0.001054 -0.010170 0.001311 0.040289 0.046974 0.000671
# 6 -0.000442 0.003732 0.001942 -0.001021 0.000671 0.035503
#
#
# Mechanical properties :
#
#
# Convention : Reuss Voigt Hill
#
# Bulk Modulus (GPa) = 39.06866 72.28799 55.67832
# Shear Modulus (GPa) = 23.70007 43.47178 33.58592
#
# Velocity S-wave (km/s) = 3.25475 4.40805 3.87456
# Velocity P-wave (km/s) = 5.62027 7.63014 6.70099
#
# Compressibility (1/GPa) = 0.02559596
#
# Stress axis : x y z
#
# Youngs Moduli (GPa) = 61.77914 60.74506 164.26228
#
# Poissons Ratio (x) = 0.07160 0.83766
# Poissons Ratio (y) = 0.07282 0.04799
# Poissons Ratio (z) = 0.31504 0.01775
#
# Static dielectric constant tensor:
#      x y z
#    x 1.878880 0.068940 -0.008030 
#    y 0.068940 1.885420 -0.042780 
#    z -0.008030 -0.042780 1.854840 
# 
# From -- ./inp_files/565596.got.cif
#   From: 2010.05.17/outbox.cif.g08.bks.cpg/sg2_283_cif.got.tgz:565596.got - 2010.06.03 11:33:40.
