data_PCOD9055429
_publ_section_title
;
Structure prediction by ZEFSAII (Michael W. Deem and Ramdas Pophale) SiO2 
 PCOD9055429
Probable space group: P -1
;
_chemical_formula_sum "Si O2"
_cell_formula_units_Z 12
_cell_length_a 9.139557
_cell_length_b 12.422331
_cell_length_c 8.244107
_cell_angle_alpha 67.329257
_cell_angle_beta 52.653108
_cell_angle_gamma 40.203855
_cell_volume 474.753364
_symmetry_space_group_name_H-M "P -1"
_symmetry_group_IT_number 2
_symmetry_cell_setting 'triclinic'
loop_
_space_group_symop_operation_xyz
x,y,z
-x,-y,-z
loop_
_atom_site_type_symbol
_atom_site_label
_atom_site_fract_x
_atom_site_fract_y
_atom_site_fract_z
Si Si1 0.103559 0.911457 0.238032
Si Si2 0.078707 0.433001 0.803511
Si Si3 0.555721 0.778363 0.785752
Si Si4 0.116058 0.218799 0.653270
Si Si5 0.661983 0.276296 0.483925
Si Si6 0.542935 0.546509 0.772454
O O1 0.952226 0.886897 0.239854
O O2 0.249341 0.766403 0.362813
O O3 0.329142 0.883966 0.013000
O O4 0.892956 0.090639 0.360568
O O5 0.369044 0.354924 0.629423
O O6 0.828176 0.603270 0.779961
O O7 0.114582 0.285674 0.788968
O O8 0.000000 0.500000 0.000000
O O9 0.467589 0.713929 0.765763
O O10 0.638853 0.853464 0.583975
O O11 0.858710 0.392307 0.634631
O O12 0.624057 0.402365 0.309545
O O13 0.500000 0.500000 0.000000
#
# Coordination Sequence:
#
# PCOD9055429 Si02
#       6
#     2   2   2   2   2   2
#     4  11  26  45  72 105 150 187 232 294 369 424
#     4  11  21  41  73 100 140 186 237 296 349 414
#     4  11  21  43  70 102 143 182 236 299 350 420
#     4  11  23  44  71 106 139 184 245 294 348 432
#     4  11  24  47  68 106 150 186 234 302 355 423
#     4  11  21  42  70 101 137 184 241 287 350 420
#
# _framework density 25.276281999999998
#
# number of rings (size 3 to 8) (size 9 to 14) (size 15 to 20)
#    0.000    1.000    6.667    1.000    0.000    2.000 
#    6.000    5.000    0.000    0.000    0.000    0.000 
#    0.000    0.000    0.000    0.000    0.000    0.000 
#
# Total GULP energy -67020.747503 kJ/mol
# GULP energy per Si atom -5585.062292 kJ/mol
# Density = 2.521875 g / cm^3
# Si number density = 25.276282 Si / 1000 Ang^3
#
#
#
# Elastic Constant Matrix: (Units=GPa)
#
#
# Indices 1 2 3 4 5 6 
#
# 1 111.3084 26.7673 65.0145 -2.5679 11.6191 -13.3236
# 2 26.7673 97.0276 57.6436 -2.4291 -1.9184 -12.5192
# 3 65.0145 57.6436 215.2987 22.5184 -3.9644 -0.8583
# 4 -2.5679 -2.4291 22.5184 46.5571 -15.7698 8.4073
# 5 11.6191 -1.9184 -3.9644 -15.7698 49.8867 -5.7563
# 6 -13.3236 -12.5192 -0.8583 8.4073 -5.7563 43.8769
#
#
#
# Elastic Compliance Matrix: (Units=1/GPa)
#
#
# Indices 1 2 3 4 5 6 
#
# 1 0.011831 -0.000866 -0.003475 0.000961 -0.002441 0.002773
# 2 -0.000866 0.013080 -0.003434 0.002232 0.001503 0.003172
# 3 -0.003475 -0.003434 0.006978 -0.003534 -0.000026 -0.001225
# 4 0.000961 0.002232 -0.003534 0.026510 0.007589 -0.003225
# 5 -0.002441 0.001503 -0.000026 0.007589 0.023216 0.001279
# 6 0.002773 0.003172 -0.001225 -0.003225 0.001279 0.025300
#
#
# Mechanical properties :
#
#
# Convention : Reuss Voigt Hill
#
# Bulk Modulus (GPa) = 61.20156 80.27619 70.73887
# Shear Modulus (GPa) = 39.08967 46.34477 42.71722
#
# Velocity S-wave (km/s) = 3.93682 4.28662 4.11544
# Velocity P-wave (km/s) = 6.70301 7.50523 7.11544
#
# Compressibility (1/GPa) = 0.01633945
#
# Stress axis : x y z
#
# Youngs Moduli (GPa) = 84.52322 76.45312 143.31385
#
# Poissons Ratio (x) = 0.06618 0.49806
# Poissons Ratio (y) = 0.07317 0.49210
# Poissons Ratio (z) = 0.29374 0.26252
#
# Static dielectric constant tensor:
#      x y z
#    x 2.103390 -0.000970 0.106860 
#    y -0.000970 2.024980 -0.028470 
#    z 0.106860 -0.028470 2.134910 
# 
# From -- ./inp_files/175687.got.cif
#   From: 2010.05.17/outbox.cif.g08.bks.cpg/sg2_88_cif.got.tgz:175687.got - 2010.06.03 11:33:40.
