data_PCOD9055594
_publ_section_title
;
Structure prediction by ZEFSAII (Michael W. Deem and Ramdas Pophale) SiO2 
 PCOD9055594
Probable space group: P -1
;
_chemical_formula_sum "Si O2"
_cell_formula_units_Z 14
_cell_length_a 12.693278
_cell_length_b 14.972894
_cell_length_c 9.296212
_cell_angle_alpha 115.045162
_cell_angle_beta 54.697434
_cell_angle_gamma 151.373236
_cell_volume 674.718315
_symmetry_space_group_name_H-M "P -1"
_symmetry_group_IT_number 2
_symmetry_cell_setting 'triclinic'
loop_
_space_group_symop_operation_xyz
x,y,z
-x,-y,-z
loop_
_atom_site_type_symbol
_atom_site_label
_atom_site_fract_x
_atom_site_fract_y
_atom_site_fract_z
Si Si1 0.666438 0.186644 0.583055
Si Si2 0.259379 0.573714 0.791067
Si Si3 0.489056 0.506304 0.182180
Si Si4 0.056229 0.246196 0.816576
Si Si5 0.758939 0.777250 0.576824
Si Si6 0.488325 0.889350 0.016886
Si Si7 0.772898 0.457305 0.536587
O O1 0.590461 0.143537 0.780089
O O2 0.644509 0.280047 0.592750
O O3 0.960458 0.351680 0.465952
O O4 0.500000 0.000000 0.500000
O O5 0.072423 0.374472 0.877013
O O6 0.522212 0.686311 0.653419
O O7 0.184923 0.543293 0.664418
O O8 0.311596 0.700647 0.937655
O O9 0.768119 0.673516 0.138032
O O10 0.311793 0.309580 0.268212
O O11 0.386086 0.547154 0.329164
O O12 0.500000 0.500000 0.000000
O O13 0.192188 0.288819 0.599644
O O14 0.768762 0.027860 0.896409
O O15 0.000000 0.000000 0.500000
O O16 0.500000 0.000000 0.000000
#
# Coordination Sequence:
#
# PCOD9055594 Si02
#       7
#     2   2   2   2   2   2   2
#     4  11  28  46  66  97 138 182 228 282 342 420
#     4  11  22  43  70  97 133 174 229 284 338 404
#     4  11  25  42  70 103 138 181 225 285 352 406
#     4  11  23  44  69 102 135 178 227 279 346 411
#     4  11  21  42  71 102 136 178 228 283 343 412
#     4  12  27  43  69 103 133 177 236 282 336 408
#     4  11  24  46  70  94 137 184 222 278 357 400
#
# _framework density 20.749399
#
# number of rings (size 3 to 8) (size 9 to 14) (size 15 to 20)
#    0.000    0.857    4.286    2.571    6.000    4.571 
#    0.000    1.429    0.000    0.000    0.000    0.000 
#    0.000    0.000    0.000    0.000    0.000    0.000 
#
# Total GULP energy -78274.427650 kJ/mol
# GULP energy per Si atom -5591.030546 kJ/mol
# Density = 2.070217 g / cm^3
# Si number density = 20.749399 Si / 1000 Ang^3
#
#
#
# Elastic Constant Matrix: (Units=GPa)
#
#
# Indices 1 2 3 4 5 6 
#
# 1 130.2886 49.3587 43.7194 8.7722 17.1791 -9.8518
# 2 49.3587 135.5022 36.9694 25.6284 6.9049 -3.4534
# 3 43.7194 36.9694 102.2400 23.3789 16.3180 1.4525
# 4 8.7722 25.6284 23.3789 39.3822 6.6075 -6.8526
# 5 17.1791 6.9049 16.3180 6.6075 40.4040 3.5983
# 6 -9.8518 -3.4534 1.4525 -6.8526 3.5983 26.6721
#
#
#
# Elastic Compliance Matrix: (Units=1/GPa)
#
#
# Indices 1 2 3 4 5 6 
#
# 1 0.010777 -0.003243 -0.003722 0.003403 -0.003537 0.005115
# 2 -0.003243 0.009790 -0.001070 -0.005456 0.001158 -0.001430
# 3 -0.003722 -0.001070 0.013763 -0.006901 -0.002333 -0.003721
# 4 0.003403 -0.005456 -0.006901 0.034833 -0.004356 0.010463
# 5 -0.003537 0.001158 -0.002333 -0.004356 0.028241 -0.005958
# 6 0.005115 -0.001430 -0.003721 0.010463 -0.005958 0.042891
#
#
# Mechanical properties :
#
#
# Convention : Reuss Voigt Hill
#
# Bulk Modulus (GPa) = 54.76704 69.79175 62.27939
# Shear Modulus (GPa) = 30.77858 37.15722 33.96790
#
# Velocity S-wave (km/s) = 3.85560 4.23633 4.05044
# Velocity P-wave (km/s) = 6.80241 7.59192 7.20798
#
# Compressibility (1/GPa) = 0.01825916
#
# Stress axis : x y z
#
# Youngs Moduli (GPa) = 92.79181 102.14737 72.66103
#
# Poissons Ratio (x) = 0.33128 0.27044
# Poissons Ratio (y) = 0.30094 0.07774
# Poissons Ratio (z) = 0.34537 0.10928
#
# Static dielectric constant tensor:
#      x y z
#    x 1.740400 0.012210 -0.016200 
#    y 0.012210 1.793540 0.006360 
#    z -0.016200 0.006360 1.734380 
# 
# From -- ./inp_files/188616.got.cif
#   From: 2010.05.17/outbox.cif.g08.bks.cpg/sg2_95_cif.got.tgz:188616.got - 2010.06.03 11:33:40.
