data_PCOD9055740
_publ_section_title
;
Structure prediction by ZEFSAII (Michael W. Deem and Ramdas Pophale) SiO2 
 PCOD9055740
Probable space group: P -1
;
_chemical_formula_sum "Si O2"
_cell_formula_units_Z 14
_cell_length_a 13.643976
_cell_length_b 26.145410
_cell_length_c 14.750907
_cell_angle_alpha 21.001989
_cell_angle_beta 29.615532
_cell_angle_gamma 20.435735
_cell_volume 657.856456
_symmetry_space_group_name_H-M "P -1"
_symmetry_group_IT_number 2
_symmetry_cell_setting 'triclinic'
loop_
_space_group_symop_operation_xyz
x,y,z
-x,-y,-z
loop_
_atom_site_type_symbol
_atom_site_label
_atom_site_fract_x
_atom_site_fract_y
_atom_site_fract_z
Si Si1 0.914156 0.825146 0.227272
Si Si2 0.379379 0.926188 0.770645
Si Si3 0.266221 0.854575 0.641172
Si Si4 0.517427 0.537757 0.317275
Si Si5 0.880525 0.540083 0.631901
Si Si6 0.983558 0.074687 0.680708
Si Si7 0.215484 0.107680 0.104680
O O1 0.226971 0.661024 0.292133
O O2 0.868542 0.698016 0.428034
O O3 0.707466 0.972735 0.229608
O O4 0.865089 0.975152 0.945541
O O5 0.500000 0.000000 0.500000
O O6 0.108320 0.027764 0.759128
O O7 0.558135 0.688935 0.027305
O O8 0.568525 0.635803 0.735996
O O9 0.017208 0.867000 0.805122
O O10 0.222955 0.941638 0.632066
O O11 0.252544 0.992003 0.354283
O O12 0.500000 0.500000 0.500000
O O13 0.761527 0.314125 0.448506
O O14 0.000000 0.500000 0.500000
O O15 0.084817 0.326713 0.870098
O O16 0.500000 0.000000 0.000000
#
# Coordination Sequence:
#
# PCOD9055740 Si02
#       7
#     2   2   2   2   2   2   2
#     4  11  24  40  69  99 136 181 236 285 345 427
#     4  11  23  42  63  99 141 173 234 287 341 430
#     4  11  26  44  72 103 139 181 232 296 348 420
#     4  11  21  43  69  94 133 189 228 282 354 412
#     4  12  25  45  72 100 139 187 230 289 361 408
#     4  11  23  42  68 101 135 177 232 285 351 417
#     4  11  25  47  70 102 139 178 240 289 347 426
#
# _framework density 21.281237999999998
#
# number of rings (size 3 to 8) (size 9 to 14) (size 15 to 20)
#    0.000    0.857    4.286    3.000    2.000    4.000 
#    2.571    0.000    0.000    0.000    0.000    0.000 
#    0.000    0.000    0.000    0.000    0.000    0.000 
#
# Total GULP energy -78157.958022 kJ/mol
# GULP energy per Si atom -5582.711287 kJ/mol
# Density = 2.123280 g / cm^3
# Si number density = 21.281238 Si / 1000 Ang^3
#
#
#
# Elastic Constant Matrix: (Units=GPa)
#
#
# Indices 1 2 3 4 5 6 
#
# 1 68.5132 31.5364 25.3317 3.2063 -16.4632 15.1690
# 2 31.5364 141.1352 65.2524 2.5570 -1.5392 15.1377
# 3 25.3317 65.2524 168.4001 -14.4519 -27.7555 2.8026
# 4 3.2063 2.5570 -14.4519 45.7262 -2.1113 4.0817
# 5 -16.4632 -1.5392 -27.7555 -2.1113 25.8865 3.1644
# 6 15.1690 15.1377 2.8026 4.0817 3.1644 33.7963
#
#
#
# Elastic Compliance Matrix: (Units=1/GPa)
#
#
# Indices 1 2 3 4 5 6 
#
# 1 0.022212 -0.004344 0.001286 0.000725 0.016500 -0.009763
# 2 -0.004344 0.010320 -0.004667 -0.001954 -0.007144 -0.001381
# 3 0.001286 -0.004667 0.009787 0.003867 0.011451 -0.000838
# 4 0.000725 -0.001954 0.003867 0.023758 0.006830 -0.003280
# 5 0.016500 -0.007144 0.011451 0.006830 0.062986 -0.011878
# 6 -0.009763 -0.001381 -0.000838 -0.003280 -0.011878 0.036167
#
#
# Mechanical properties :
#
#
# Convention : Reuss Voigt Hill
#
# Bulk Modulus (GPa) = 37.21941 69.14326 53.18134
# Shear Modulus (GPa) = 26.36629 38.14366 32.25498
#
# Velocity S-wave (km/s) = 3.52368 4.23822 3.89736
# Velocity P-wave (km/s) = 5.83801 7.51737 6.73028
#
# Compressibility (1/GPa) = 0.02686770
#
# Stress axis : x y z
#
# Youngs Moduli (GPa) = 45.02057 96.90336 102.18062
#
# Poissons Ratio (x) = 0.42094 -0.13142
# Poissons Ratio (y) = 0.19557 0.47692
# Poissons Ratio (z) = -0.05790 0.45229
#
# Static dielectric constant tensor:
#      x y z
#    x 1.840330 -0.022670 -0.019270 
#    y -0.022670 1.660000 -0.043500 
#    z -0.019270 -0.043500 1.816020 
# 
# From -- ./inp_files/535592.got.cif
#   From: 2010.05.17/outbox.cif.g08.bks.cpg/sg2_268_cif.got.tgz:535592.got - 2010.06.03 11:33:40.
