data_PCOD9055793
_publ_section_title
;
Structure prediction by ZEFSAII (Michael W. Deem and Ramdas Pophale) SiO2 
 PCOD9055793
Probable space group: P -1
;
_chemical_formula_sum "Si O2"
_cell_formula_units_Z 16
_cell_length_a 8.852741
_cell_length_b 8.552117
_cell_length_c 15.154383
_cell_angle_alpha 83.095398
_cell_angle_beta 40.549998
_cell_angle_gamma 93.377262
_cell_volume 720.137978
_symmetry_space_group_name_H-M "P -1"
_symmetry_group_IT_number 2
_symmetry_cell_setting 'triclinic'
loop_
_space_group_symop_operation_xyz
x,y,z
-x,-y,-z
loop_
_atom_site_type_symbol
_atom_site_label
_atom_site_fract_x
_atom_site_fract_y
_atom_site_fract_z
Si Si1 0.129600 0.663851 0.982811
Si Si2 0.743564 0.447486 0.877666
Si Si3 0.414029 0.325208 0.595373
Si Si4 0.442909 0.855865 0.704959
Si Si5 0.278311 0.160073 0.835742
Si Si6 0.582920 0.119883 0.870126
Si Si7 0.912976 0.906692 0.375285
Si Si8 0.148954 0.755803 0.674216
O O1 0.159618 0.616485 0.072351
O O2 0.982319 0.805479 0.034653
O O3 0.390938 0.744586 0.821967
O O4 0.000000 0.500000 0.000000
O O5 0.678572 0.300258 0.850514
O O6 0.944886 0.602529 0.750099
O O7 0.500000 0.500000 0.000000
O O8 0.500000 0.500000 0.500000
O O9 0.379754 0.317167 0.716301
O O10 0.185826 0.227747 0.647495
O O11 0.624269 0.235789 0.488395
O O12 0.706908 0.883215 0.543643
O O13 0.256827 0.753138 0.723863
O O14 0.349237 0.017741 0.755875
O O15 0.382769 0.131602 0.886684
O O16 0.815765 0.087088 0.719019
O O17 0.500000 0.000000 0.000000
O O18 0.931029 0.079163 0.310714
#
# Coordination Sequence:
#
# PCOD9055793 Si02
#       8
#     2   2   2   2   2   2   2   2
#     4  12  25  43  72 104 136 181 240 294 346 419
#     4  12  26  48  69 103 143 186 233 293 363 422
#     4  11  22  42  72 104 135 182 235 296 352 414
#     4  11  23  43  72 106 135 182 238 292 345 420
#     4  12  25  45  70 103 141 183 243 282 352 430
#     4  12  28  47  70 104 146 194 232 292 363 423
#     4  11  23  45  73 103 140 183 237 291 363 418
#     4  11  21  43  72 100 138 178 231 295 350 421
#
# _framework density 22.217965
#
# number of rings (size 3 to 8) (size 9 to 14) (size 15 to 20)
#    0.000    0.500    3.750    5.625    3.500    0.500 
#    2.250    1.250    0.000    0.000    0.000    0.000 
#    0.000    0.000    0.000    0.000    0.000    0.000 
#
# Total GULP energy -89371.366814 kJ/mol
# GULP energy per Si atom -5585.710426 kJ/mol
# Density = 2.216740 g / cm^3
# Si number density = 22.217965 Si / 1000 Ang^3
#
#
#
# Elastic Constant Matrix: (Units=GPa)
#
#
# Indices 1 2 3 4 5 6 
#
# 1 96.3612 24.7196 33.7407 1.7463 -5.8208 -9.7037
# 2 24.7196 90.6701 29.4754 -8.8308 -1.3368 4.9435
# 3 33.7407 29.4754 108.7177 -8.6028 2.6495 -6.1325
# 4 1.7463 -8.8308 -8.6028 45.4960 -10.2043 -4.2568
# 5 -5.8208 -1.3368 2.6495 -10.2043 38.0034 3.9168
# 6 -9.7037 4.9435 -6.1325 -4.2568 3.9168 37.7335
#
#
#
# Elastic Compliance Matrix: (Units=1/GPa)
#
#
# Indices 1 2 3 4 5 6 
#
# 1 0.012539 -0.002625 -0.003137 -0.000988 0.001494 0.002792
# 2 -0.002625 0.012997 -0.002721 0.002100 0.001087 -0.002696
# 3 -0.003137 -0.002721 0.011157 0.001612 -0.001092 0.001658
# 4 -0.000988 0.002100 0.001612 0.024279 0.006140 0.001834
# 5 0.001494 0.001087 -0.001092 0.006140 0.028533 -0.002205
# 6 0.002792 -0.002696 0.001658 0.001834 -0.002205 0.028278
#
#
# Mechanical properties :
#
#
# Convention : Reuss Voigt Hill
#
# Bulk Modulus (GPa) = 50.69367 52.40225 51.54796
# Shear Modulus (GPa) = 35.37953 38.10081 36.74017
#
# Velocity S-wave (km/s) = 3.99480 4.14559 4.07089
# Velocity P-wave (km/s) = 6.64409 6.82285 6.73406
#
# Compressibility (1/GPa) = 0.01972633
#
# Stress axis : x y z
#
# Youngs Moduli (GPa) = 79.75315 76.94118 89.62861
#
# Poissons Ratio (x) = 0.20198 0.28114
# Poissons Ratio (y) = 0.20936 0.24391
# Poissons Ratio (z) = 0.25016 0.20938
#
# Static dielectric constant tensor:
#      x y z
#    x 1.456980 -0.662230 0.216250 
#    y -0.662230 0.681930 0.371520 
#    z 0.216250 0.371520 1.773190 
# 
# From -- ./inp_files/417871.got.cif
#   From: 2010.05.17/outbox.cif.g08.bks.cpg/sg2_209_cif.got.tgz:417871.got - 2010.06.03 11:33:40.
