data_PCOD9055123
_publ_section_title
;
Structure prediction by ZEFSAII (Michael W. Deem and Ramdas Pophale) SiO2 
 PCOD9055123
Probable space group: P -1
;
_chemical_formula_sum "Si O2"
_cell_formula_units_Z 16
_cell_length_a 15.835031
_cell_length_b 11.776424
_cell_length_c 9.048676
_cell_angle_alpha 126.613582
_cell_angle_beta 52.043165
_cell_angle_gamma 141.457872
_cell_volume 805.832504
_symmetry_space_group_name_H-M "P -1"
_symmetry_group_IT_number 2
_symmetry_cell_setting 'triclinic'
loop_
_space_group_symop_operation_xyz
x,y,z
-x,-y,-z
loop_
_atom_site_type_symbol
_atom_site_label
_atom_site_fract_x
_atom_site_fract_y
_atom_site_fract_z
Si Si1 0.570723 0.685288 0.168317
Si Si2 0.707820 0.935183 0.943199
Si Si3 0.362733 0.416306 0.686513
Si Si4 0.156418 0.200480 0.478889
Si Si5 0.622598 0.223787 0.565008
Si Si6 0.607233 0.251770 0.941706
Si Si7 0.123207 0.492809 0.681251
Si Si8 0.176882 0.713242 0.075151
O O1 0.631728 0.675589 0.245142
O O2 0.449185 0.692124 0.343835
O O3 0.500000 0.500000 0.000000
O O4 0.682756 0.868652 0.088138
O O5 0.742787 0.819385 0.734107
O O6 0.819335 0.145859 0.926048
O O7 0.560606 0.879859 0.008096
O O8 0.500000 0.500000 0.500000
O O9 0.226222 0.274106 0.621815
O O10 0.361145 0.573891 0.874008
O O11 0.147442 0.346614 0.527925
O O12 0.000000 0.000000 0.500000
O O13 0.662354 0.279889 0.737039
O O14 0.763459 0.324183 0.396317
O O15 0.500000 0.000000 0.500000
O O16 0.680586 0.193349 0.913736
O O17 0.958886 0.388181 0.751630
O O18 0.152757 0.562828 0.872976
#
# Coordination Sequence:
#
# PCOD9055123 Si02
#       8
#     2   2   2   2   2   2   2   2
#     4  11  21  40  67  99 133 171 221 284 341 388
#     4  11  22  41  66  98 134 167 223 289 333 396
#     4  12  22  41  69 102 127 178 230 280 336 406
#     4  12  24  42  67  99 136 174 233 278 342 400
#     4  11  24  42  66 102 135 173 222 282 344 397
#     4  11  23  40  68  99 130 175 230 280 333 401
#     4  11  23  42  66  89 136 184 215 269 344 409
#     4  11  24  41  65  95 132 181 221 270 340 402
#
# _framework density 19.855243000000002
#
# number of rings (size 3 to 8) (size 9 to 14) (size 15 to 20)
#    0.000    0.750    6.250    3.375    0.000    1.500 
#    0.000    0.625    5.500    0.000    0.000    0.000 
#    0.000    0.000    0.000    0.000    0.000    0.000 
#
# Total GULP energy -89295.658616 kJ/mol
# GULP energy per Si atom -5580.978663 kJ/mol
# Density = 1.981005 g / cm^3
# Si number density = 19.855243 Si / 1000 Ang^3
#
#
#
# Elastic Constant Matrix: (Units=GPa)
#
#
# Indices 1 2 3 4 5 6 
#
# 1 94.8313 33.2240 34.4664 -11.8947 11.1647 -10.0898
# 2 33.2240 116.0013 39.4912 -19.1857 4.5260 -6.9367
# 3 34.4664 39.4912 97.5004 -16.4969 -3.9445 -4.7880
# 4 -11.8947 -19.1857 -16.4969 33.7351 -0.9454 -1.5688
# 5 11.1647 4.5260 -3.9445 -0.9454 30.3367 7.6300
# 6 -10.0898 -6.9367 -4.7880 -1.5688 7.6300 28.6766
#
#
#
# Elastic Compliance Matrix: (Units=1/GPa)
#
#
# Indices 1 2 3 4 5 6 
#
# 1 0.014329 -0.001765 -0.003970 0.002187 -0.006947 0.005920
# 2 -0.001765 0.011093 -0.003119 0.004214 -0.001849 0.002264
# 3 -0.003970 -0.003119 0.013655 0.003581 0.004000 -0.000740
# 4 0.002187 0.004214 0.003581 0.034745 -0.001033 0.004562
# 5 -0.006947 -0.001849 0.004000 -0.001033 0.039501 -0.012790
# 6 0.005920 0.002264 -0.000740 0.004562 -0.012790 0.041031
#
#
# Mechanical properties :
#
#
# Convention : Reuss Voigt Hill
#
# Bulk Modulus (GPa) = 46.80444 58.07734 52.44089
# Shear Modulus (GPa) = 27.90413 31.95978 29.93195
#
# Velocity S-wave (km/s) = 3.75290 4.01638 3.88688
# Velocity P-wave (km/s) = 6.51176 7.12898 6.82735
#
# Compressibility (1/GPa) = 0.02136549
#
# Stress axis : x y z
#
# Youngs Moduli (GPa) = 69.79050 90.14933 73.23444
#
# Poissons Ratio (x) = 0.15915 0.29077
# Poissons Ratio (y) = 0.12321 0.22845
# Poissons Ratio (z) = 0.27709 0.28122
#
# Static dielectric constant tensor:
#      x y z
#    x 1.687130 -0.000400 -0.011870 
#    y -0.000400 1.745290 -0.007790 
#    z -0.011870 -0.007790 1.708760 
# 
# From -- ./inp_files/239738.got.cif
#   From: 2010.05.17/outbox.cif.g08.bks.cpg/sg2_120_cif.got.tgz:239738.got - 2010.06.03 11:33:40.
