data_PCOD9055145
_publ_section_title
;
Structure prediction by ZEFSAII (Michael W. Deem and Ramdas Pophale) SiO2 
 PCOD9055145
Probable space group: P -1
;
_chemical_formula_sum "Si O2"
_cell_formula_units_Z 16
_cell_length_a 16.808343
_cell_length_b 7.393416
_cell_length_c 21.398526
_cell_angle_alpha 47.766556
_cell_angle_beta 153.927082
_cell_angle_gamma 144.171044
_cell_volume 667.689710
_symmetry_space_group_name_H-M "P -1"
_symmetry_group_IT_number 2
_symmetry_cell_setting 'triclinic'
loop_
_space_group_symop_operation_xyz
x,y,z
-x,-y,-z
loop_
_atom_site_type_symbol
_atom_site_label
_atom_site_fract_x
_atom_site_fract_y
_atom_site_fract_z
Si Si1 0.822537 0.785960 0.590749
Si Si2 0.488981 0.088323 0.810614
Si Si3 0.077809 0.135221 0.952219
Si Si4 0.196465 0.488837 0.167832
Si Si5 0.034912 0.740514 0.519318
Si Si6 0.460223 0.800076 0.404009
Si Si7 0.503532 0.367442 0.259448
Si Si8 0.734397 0.162258 0.084141
O O1 0.703443 0.891485 0.527947
O O2 0.629403 0.405331 0.548855
O O3 0.082759 0.899145 0.759622
O O4 0.845178 0.925203 0.506787
O O5 0.576496 0.191152 0.778045
O O6 0.541444 0.405589 0.797709
O O7 0.213417 0.801013 0.683706
O O8 0.636273 0.049480 0.970475
O O9 0.117392 0.456788 0.895814
O O10 0.337130 0.232469 0.112015
O O11 0.896327 0.851633 0.843077
O O12 0.000000 0.000000 0.000000
O O13 0.257023 0.544685 0.270142
O O14 0.000000 0.500000 0.000000
O O15 0.000000 0.500000 0.500000
O O16 0.778563 0.594788 0.391175
O O17 0.453026 0.084540 0.330301
O O18 0.500000 0.000000 0.000000
#
# Coordination Sequence:
#
# PCOD9055145 Si02
#       8
#     2   2   2   2   2   2   2   2
#     4  11  23  43  66  94 141 172 211 284 340 388
#     4  11  24  43  70 100 125 180 229 267 326 406
#     4  11  21  40  68  98 130 176 222 273 328 395
#     4  12  21  38  68 102 131 169 231 271 322 398
#     4  12  24  46  68  94 132 177 227 269 329 405
#     4  11  23  41  66 101 133 175 216 281 342 383
#     4  11  21  41  69  96 130 173 222 272 329 401
#     4  11  24  45  66  98 141 173 220 280 340 391
#
# _framework density 23.963227
#
# number of rings (size 3 to 8) (size 9 to 14) (size 15 to 20)
#    0.000    0.750    6.250    3.375    0.000    0.000 
#    2.250    4.375    0.000    0.000    0.000    0.000 
#    0.000    0.000    0.000    0.000    0.000    0.000 
#
# Total GULP energy -89340.166845 kJ/mol
# GULP energy per Si atom -5583.760428 kJ/mol
# Density = 2.390869 g / cm^3
# Si number density = 23.963227 Si / 1000 Ang^3
#
#
#
# Elastic Constant Matrix: (Units=GPa)
#
#
# Indices 1 2 3 4 5 6 
#
# 1 23.5203 14.7755 2.6199 10.8328 -2.9016 0.7258
# 2 14.7755 55.8552 13.8464 0.6656 -11.2806 2.9468
# 3 2.6199 13.8464 166.3247 5.7441 12.2491 -4.9600
# 4 10.8328 0.6656 5.7441 43.3282 -0.4799 8.2070
# 5 -2.9016 -11.2806 12.2491 -0.4799 31.0578 4.2945
# 6 0.7258 2.9468 -4.9600 8.2070 4.2945 37.8182
#
#
#
# Elastic Compliance Matrix: (Units=1/GPa)
#
#
# Indices 1 2 3 4 5 6 
#
# 1 0.059512 -0.016389 0.001199 -0.015533 -0.001638 0.003849
# 2 -0.016389 0.024968 -0.002799 0.004971 0.009290 -0.004132
# 3 0.001199 -0.002799 0.006612 -0.001520 -0.003788 0.001823
# 4 -0.015533 0.004971 -0.001520 0.028386 0.002321 -0.006712
# 5 -0.001638 0.009290 -0.003788 0.002321 0.037776 -0.005983
# 6 0.003849 -0.004132 0.001823 -0.006712 -0.005983 0.029065
#
#
# Mechanical properties :
#
#
# Convention : Reuss Voigt Hill
#
# Bulk Modulus (GPa) = 18.14445 34.24264 26.19355
# Shear Modulus (GPa) = 20.77543 36.73806 28.75674
#
# Velocity S-wave (km/s) = 2.94763 3.91973 3.46791
# Velocity P-wave (km/s) = 4.37869 5.89970 5.19516
#
# Compressibility (1/GPa) = 0.05511326
#
# Stress axis : x y z
#
# Youngs Moduli (GPa) = 16.80335 40.05180 151.23222
#
# Poissons Ratio (x) = 0.65640 -0.18129
# Poissons Ratio (y) = 0.27539 0.42336
# Poissons Ratio (z) = -0.02014 0.11212
#
# Static dielectric constant tensor:
#      x y z
#    x 2.225360 -0.013620 0.165810 
#    y -0.013620 1.928630 0.016430 
#    z 0.165810 0.016430 2.038280 
# 
# From -- ./inp_files/392898.got.cif
#   From: 2010.05.17/outbox.cif.g08.bks.cpg/sg2_197_cif.got.tgz:392898.got - 2010.06.03 11:33:40.
