data_PCOD9055286
_publ_section_title
;
Structure prediction by ZEFSAII (Michael W. Deem and Ramdas Pophale) SiO2 
 PCOD9055286
Probable space group: P -1
;
_chemical_formula_sum "Si O2"
_cell_formula_units_Z 16
_cell_length_a 14.444438
_cell_length_b 10.981703
_cell_length_c 11.944254
_cell_angle_alpha 63.162121
_cell_angle_beta 150.238818
_cell_angle_gamma 128.152428
_cell_volume 721.898088
_symmetry_space_group_name_H-M "P -1"
_symmetry_group_IT_number 2
_symmetry_cell_setting 'triclinic'
loop_
_space_group_symop_operation_xyz
x,y,z
-x,-y,-z
loop_
_atom_site_type_symbol
_atom_site_label
_atom_site_fract_x
_atom_site_fract_y
_atom_site_fract_z
Si Si1 0.513105 0.843268 0.865883
Si Si2 0.659272 0.183016 0.783805
Si Si3 0.282439 0.842745 0.815941
Si Si4 0.036698 0.785503 0.095329
Si Si5 0.822823 0.486411 0.413236
Si Si6 0.846872 0.971376 0.684017
Si Si7 0.127819 0.562517 0.909816
Si Si8 0.109748 0.178698 0.661351
O O1 0.300702 0.823377 0.711753
O O2 0.402054 0.680411 0.748433
O O3 0.633128 0.016229 0.866108
O O4 0.681657 0.836319 0.130165
O O5 0.412894 0.144608 0.551427
O O6 0.757436 0.206887 0.753261
O O7 0.827678 0.337347 0.969957
O O8 0.298620 0.705662 0.952279
O O9 0.067546 0.850610 0.607931
O O10 0.500000 0.000000 0.000000
O O11 0.866884 0.597753 0.006911
O O12 0.942826 0.870805 0.883533
O O13 0.107689 0.885111 0.242961
O O14 0.798629 0.635829 0.293857
O O15 0.000000 0.500000 0.500000
O O16 0.921743 0.512028 0.632263
O O17 0.976914 0.055014 0.672847
#
# Coordination Sequence:
#
# PCOD9055286 Si02
#       8
#     2   2   2   2   2   2   2   2
#     4  12  22  38  68  93 128 170 211 263 318 379
#     4  12  23  44  66  93 133 171 214 263 325 384
#     4  11  22  42  64  97 133 166 205 263 328 385
#     4  11  25  43  66  93 129 168 224 264 313 384
#     4  11  21  41  66  93 133 169 210 269 320 380
#     4  11  23  43  69  95 125 172 218 270 315 376
#     4  11  23  42  67  94 133 173 207 266 329 380
#     4  11  22  39  65  97 130 162 216 262 320 383
#
# _framework density 22.163792000000001
#
# number of rings (size 3 to 8) (size 9 to 14) (size 15 to 20)
#    0.000    0.750    6.250    2.625    0.000    1.000 
#    0.000    1.250    0.000    0.000    0.000    0.000 
#    0.000    0.000    0.000    0.000    0.000    0.000 
#
# Total GULP energy -89098.410029 kJ/mol
# GULP energy per Si atom -5568.650627 kJ/mol
# Density = 2.211335 g / cm^3
# Si number density = 22.163792 Si / 1000 Ang^3
#
#
#
# Elastic Constant Matrix: (Units=GPa)
#
#
# Indices 1 2 3 4 5 6 
#
# 1 49.1436 16.6581 18.2724 3.0084 1.4571 4.0824
# 2 16.6581 172.7651 37.9776 12.7205 -13.7139 -5.4106
# 3 18.2724 37.9776 74.5696 6.8971 7.0858 -19.5116
# 4 3.0084 12.7205 6.8971 39.9065 -5.6972 -12.4745
# 5 1.4571 -13.7139 7.0858 -5.6972 24.1556 -0.4334
# 6 4.0824 -5.4106 -19.5116 -12.4745 -0.4334 18.2714
#
#
#
# Elastic Compliance Matrix: (Units=1/GPa)
#
#
# Indices 1 2 3 4 5 6 
#
# 1 0.027524 -0.000178 -0.012352 -0.007631 -0.000379 -0.024612
# 2 -0.000178 0.007377 -0.005240 -0.002180 0.005137 -0.004738
# 3 -0.012352 -0.005240 0.028929 0.008158 -0.008119 0.037478
# 4 -0.007631 -0.002180 0.008158 0.036732 0.006121 0.034994
# 5 -0.000379 0.005137 -0.008119 0.006121 0.048131 -0.001744
# 6 -0.024612 -0.004738 0.037478 0.034994 -0.001744 0.122699
#
#
# Mechanical properties :
#
#
# Convention : Reuss Voigt Hill
#
# Bulk Modulus (GPa) = 35.34638 49.14383 42.24510
# Shear Modulus (GPa) = 15.80473 31.37138 23.58806
#
# Velocity S-wave (km/s) = 2.67327 3.76631 3.26584
# Velocity P-wave (km/s) = 5.05083 6.41362 5.77259
#
# Compressibility (1/GPa) = 0.02829144
#
# Stress axis : x y z
#
# Youngs Moduli (GPa) = 36.33145 135.55634 34.56767
#
# Poissons Ratio (x) = 0.02408 0.42698
# Poissons Ratio (y) = 0.00646 0.18112
# Poissons Ratio (z) = 0.44877 0.71026
#
# Static dielectric constant tensor:
#      x y z
#    x 1.864520 -0.017230 -0.074860 
#    y -0.017230 1.703070 0.129450 
#    z -0.074860 0.129450 1.791410 
# 
# From -- ./inp_files/451302.got.cif
#   From: 2010.05.17/outbox.cif.g08.bks.cpg/sg2_226_cif.got.tgz:451302.got - 2010.06.03 11:33:40.
