data_PCOD9055892
_publ_section_title
;
Structure prediction by ZEFSAII (Michael W. Deem and Ramdas Pophale) SiO2 
 PCOD9055892
Probable space group: P -1
;
_chemical_formula_sum "Si O2"
_cell_formula_units_Z 16
_cell_length_a 27.724045
_cell_length_b 8.866536
_cell_length_c 6.797718
_cell_angle_alpha 92.301810
_cell_angle_beta 85.942933
_cell_angle_gamma 30.744803
_cell_volume 835.223805
_symmetry_space_group_name_H-M "P -1"
_symmetry_group_IT_number 2
_symmetry_cell_setting 'triclinic'
loop_
_space_group_symop_operation_xyz
x,y,z
-x,-y,-z
loop_
_atom_site_type_symbol
_atom_site_label
_atom_site_fract_x
_atom_site_fract_y
_atom_site_fract_z
Si Si1 0.615047 0.807711 0.492219
Si Si2 0.175999 0.630233 0.484393
Si Si3 0.484910 0.142971 0.201460
Si Si4 0.622096 0.278512 0.903902
Si Si5 0.832851 0.628676 0.802609
Si Si6 0.924684 0.308595 0.157286
Si Si7 0.500566 0.397232 0.689226
Si Si8 0.999011 0.684457 0.527513
O O1 0.719724 0.590870 0.493943
O O2 0.592782 0.718154 0.617656
O O3 0.586029 0.874377 0.275869
O O4 0.533321 0.143318 0.610492
O O5 0.180229 0.504226 0.291120
O O6 0.129889 0.652204 0.671086
O O7 0.103714 0.963256 0.478074
O O8 0.442676 0.414617 0.153725
O O9 0.500000 0.000000 0.000000
O O10 0.581311 0.240556 0.807329
O O11 0.734586 0.985410 0.815149
O O12 0.597756 0.334233 0.145004
O O13 0.922255 0.462943 0.656197
O O14 0.854561 0.560864 0.023298
O O15 0.971684 0.317930 0.271282
O O16 0.000000 0.000000 0.000000
O O17 0.500000 0.500000 0.500000
O O18 0.000000 0.500000 0.500000
#
# Coordination Sequence:
#
# PCOD9055892 Si02
#       8
#     2   2   2   2   2   2   2   2
#     4  11  24  41  66  90 127 172 209 261 322 377
#     4  11  23  42  69  95 122 168 217 263 321 382
#     4  11  24  45  59  88 136 170 207 262 322 381
#     4  11  24  38  65  92 124 165 211 259 312 377
#     4  11  23  42  67  96 125 168 214 265 317 381
#     4  11  21  44  69  90 129 171 214 265 320 380
#     4  11  22  39  62  91 124 159 213 265 305 366
#     4  11  25  44  64  96 137 163 209 274 323 380
#
# _framework density 19.156542999999999
#
# number of rings (size 3 to 8) (size 9 to 14) (size 15 to 20)
#    0.000    1.000    6.250    0.750    3.500    1.500 
#    2.250    0.000    0.000    0.000    0.000    0.000 
#    0.000    0.000    0.000    0.000    0.000    0.000 
#
# Total GULP energy -89328.783768 kJ/mol
# GULP energy per Si atom -5583.048985 kJ/mol
# Density = 1.911294 g / cm^3
# Si number density = 19.156543 Si / 1000 Ang^3
#
#
#
# Elastic Constant Matrix: (Units=GPa)
#
#
# Indices 1 2 3 4 5 6 
#
# 1 109.9994 42.4481 41.1730 -9.0828 17.8707 1.1642
# 2 42.4481 86.7157 38.8790 -5.7516 7.8534 -10.6320
# 3 41.1730 38.8790 115.5202 -10.7364 18.3405 1.8384
# 4 -9.0828 -5.7516 -10.7364 25.3193 0.6684 -0.8072
# 5 17.8707 7.8534 18.3405 0.6684 32.9655 -4.2919
# 6 1.1642 -10.6320 1.8384 -0.8072 -4.2919 31.3349
#
#
#
# Elastic Compliance Matrix: (Units=1/GPa)
#
#
# Indices 1 2 3 4 5 6 
#
# 1 0.012838 -0.005212 -0.001697 0.002750 -0.005192 -0.002786
# 2 -0.005212 0.016535 -0.004095 0.000299 0.001982 0.006323
# 3 -0.001697 -0.004095 0.011817 0.003523 -0.005092 -0.002626
# 4 0.002750 0.000299 0.003523 0.042167 -0.004340 0.000285
# 5 -0.005192 0.001982 -0.005092 -0.004340 0.036384 0.006036
# 6 -0.002786 0.006323 -0.002626 0.000285 0.006036 0.035151
#
#
# Mechanical properties :
#
#
# Convention : Reuss Voigt Hill
#
# Bulk Modulus (GPa) = 52.13319 61.91505 57.02412
# Shear Modulus (GPa) = 27.27868 30.57296 28.92582
#
# Velocity S-wave (km/s) = 3.77767 3.99927 3.89005
# Velocity P-wave (km/s) = 6.80449 7.32914 7.07168
#
# Compressibility (1/GPa) = 0.01918164
#
# Stress axis : x y z
#
# Youngs Moduli (GPa) = 77.89630 60.47822 84.62295
#
# Poissons Ratio (x) = 0.31523 0.14361
# Poissons Ratio (y) = 0.40601 0.34650
# Poissons Ratio (z) = 0.13220 0.24764
#
# Static dielectric constant tensor:
#      x y z
#    x 1.695760 0.022620 -0.012100 
#    y 0.022620 1.668910 -0.020390 
#    z -0.012100 -0.020390 1.709310 
# 
# From -- ./inp_files/90392.got.cif
#   From: 2010.05.17/outbox.cif.g08.bks.cpg/sg2_46_cif.got.tgz:90392.got - 2010.06.03 11:33:40.
