data_PCOD9055700
_publ_section_title
;
Structure prediction by ZEFSAII (Michael W. Deem and Ramdas Pophale) SiO2 
 PCOD9055700
Probable space group: P -1
;
_chemical_formula_sum "Si O2"
_cell_formula_units_Z 16
_cell_length_a 11.917996
_cell_length_b 12.168362
_cell_length_c 9.971057
_cell_angle_alpha 38.869361
_cell_angle_beta 92.464787
_cell_angle_gamma 65.979289
_cell_volume 645.068333
_symmetry_space_group_name_H-M "P -1"
_symmetry_group_IT_number 2
_symmetry_cell_setting 'triclinic'
loop_
_space_group_symop_operation_xyz
x,y,z
-x,-y,-z
loop_
_atom_site_type_symbol
_atom_site_label
_atom_site_fract_x
_atom_site_fract_y
_atom_site_fract_z
Si Si1 0.062075 0.967431 0.384697
Si Si2 0.112914 0.059128 0.828766
Si Si3 0.997829 0.562152 0.092912
Si Si4 0.370453 0.755827 0.676630
Si Si5 0.190868 0.419903 0.711356
Si Si6 0.536917 0.094128 0.706381
Si Si7 0.685516 0.949494 0.348314
Si Si8 0.653830 0.455726 0.543444
O O1 0.247926 0.749530 0.619271
O O2 0.000000 0.000000 0.500000
O O3 0.973744 0.948810 0.289333
O O4 0.044184 0.190170 0.133242
O O5 0.262526 0.986238 0.833469
O O6 0.192994 0.833059 0.146918
O O7 0.973635 0.344634 0.599546
O O8 0.173121 0.344193 0.361945
O O9 0.881544 0.561301 0.168246
O O10 0.000000 0.500000 0.000000
O O11 0.418458 0.825037 0.488954
O O12 0.307670 0.949628 0.608903
O O13 0.500000 0.500000 0.000000
O O14 0.297680 0.474516 0.644016
O O15 0.316095 0.120843 0.984139
O O16 0.473320 0.983623 0.744459
O O17 0.395336 0.343848 0.540422
O O18 0.500000 0.500000 0.500000
#
# Coordination Sequence:
#
# PCOD9055700 Si02
#       8
#     2   2   2   2   2   2   2   2
#     4  12  23  42  72 103 150 181 239 293 370 441
#     4  11  25  46  73 108 139 192 243 305 364 427
#     4  11  21  43  67 102 137 184 234 297 364 428
#     4  12  26  41  68 110 146 192 236 295 371 441
#     4  11  25  46  72 102 140 188 244 300 357 426
#     4  12  26  47  71 103 146 193 242 299 370 435
#     4  11  23  44  68 102 145 184 234 295 370 437
#     4  12  28  51  73 103 145 193 254 306 360 427
#
# _framework density 24.803574000000001
#
# number of rings (size 3 to 8) (size 9 to 14) (size 15 to 20)
#    0.000    0.500    3.750    4.125    5.250    0.000 
#    0.000    6.250    0.000    0.000    0.000    0.000 
#    0.000    0.000    0.000    0.000    0.000    0.000 
#
# Total GULP energy -89455.589891 kJ/mol
# GULP energy per Si atom -5590.974368 kJ/mol
# Density = 2.474712 g / cm^3
# Si number density = 24.803574 Si / 1000 Ang^3
#
#
#
# Elastic Constant Matrix: (Units=GPa)
#
#
# Indices 1 2 3 4 5 6 
#
# 1 150.0388 54.0770 45.4230 18.2422 -8.4454 -22.3808
# 2 54.0770 91.2543 31.0702 -1.8146 -7.3616 -5.1317
# 3 45.4230 31.0702 185.4310 3.5519 -13.0309 -16.3047
# 4 18.2422 -1.8146 3.5519 33.5047 -10.9992 -9.8114
# 5 -8.4454 -7.3616 -13.0309 -10.9992 32.7475 5.7879
# 6 -22.3808 -5.1317 -16.3047 -9.8114 5.7879 44.1366
#
#
#
# Elastic Compliance Matrix: (Units=1/GPa)
#
#
# Indices 1 2 3 4 5 6 
#
# 1 0.010067 -0.005587 -0.001267 -0.005246 -0.001458 0.003012
# 2 -0.005587 0.014944 -0.001074 0.004781 0.003248 -0.000855
# 3 -0.001267 -0.001074 0.006131 0.001059 0.001966 0.001475
# 4 -0.005246 0.004781 0.001059 0.038353 0.012102 0.005226
# 5 -0.001458 0.003248 0.001966 0.012102 0.036033 -0.001671
# 6 0.003012 -0.000855 0.001475 0.005226 -0.001671 0.026011
#
#
# Mechanical properties :
#
#
# Convention : Reuss Voigt Hill
#
# Bulk Modulus (GPa) = 65.41933 76.42940 70.92436
# Shear Modulus (GPa) = 32.78914 41.82137 37.30525
#
# Velocity S-wave (km/s) = 3.63981 4.11067 3.88239
# Velocity P-wave (km/s) = 6.64052 7.30828 6.98239
#
# Compressibility (1/GPa) = 0.01528600
#
# Stress axis : x y z
#
# Youngs Moduli (GPa) = 99.33152 66.91710 163.11202
#
# Poissons Ratio (x) = 0.37387 0.20667
# Poissons Ratio (y) = 0.55497 0.17516
# Poissons Ratio (z) = 0.12586 0.07186
#
# Static dielectric constant tensor:
#      x y z
#    x 1.970560 0.023810 0.097350 
#    y 0.023810 1.963390 -0.299560 
#    z 0.097350 -0.299560 0.737060 
# 
# From -- ./inp_files/433673.got.cif
#   From: 2010.05.17/outbox.cif.g08.bks.cpg/sg2_217_cif.got.tgz:433673.got - 2010.06.03 11:33:40.
