data_PCOD9055320
_publ_section_title
;
Structure prediction by ZEFSAII (Michael W. Deem and Ramdas Pophale) SiO2 
 PCOD9055320
Probable space group: P -1
;
_chemical_formula_sum "Si O2"
_cell_formula_units_Z 14
_cell_length_a 14.268876
_cell_length_b 19.337945
_cell_length_c 8.896440
_cell_angle_alpha 80.351102
_cell_angle_beta 66.866983
_cell_angle_gamma 19.151169
_cell_volume 546.683590
_symmetry_space_group_name_H-M "P -1"
_symmetry_group_IT_number 2
_symmetry_cell_setting 'triclinic'
loop_
_space_group_symop_operation_xyz
x,y,z
-x,-y,-z
loop_
_atom_site_type_symbol
_atom_site_label
_atom_site_fract_x
_atom_site_fract_y
_atom_site_fract_z
Si Si1 0.609679 0.818115 0.640634
Si Si2 0.592806 0.673642 0.222175
Si Si3 0.173837 0.863871 0.197472
Si Si4 0.670681 0.143172 0.144387
Si Si5 0.293915 0.614349 0.932008
Si Si6 0.586268 0.830942 0.297544
Si Si7 0.119493 0.250367 0.267279
O O1 0.607675 0.832202 0.459321
O O2 0.839290 0.715341 0.649047
O O3 0.646404 0.709801 0.694248
O O4 0.120448 0.155067 0.869567
O O5 0.214355 0.899493 0.277976
O O6 0.539852 0.780226 0.308888
O O7 0.726143 0.525232 0.310687
O O8 0.989327 0.425566 0.955148
O O9 0.799865 0.086063 0.246835
O O10 0.366511 0.667844 0.232325
O O11 0.449427 0.713875 0.940870
O O12 0.082117 0.828311 0.930244
O O13 0.500000 0.500000 0.000000
O O14 0.195705 0.129449 0.356849
O O15 0.500000 0.000000 0.000000
#
# Coordination Sequence:
#
# PCOD9055320 Si02
#       7
#     2   2   2   2   2   2   2
#     4  10  20  38  57  85 115 140 188 241 267 329
#     4  10  23  36  58  82 109 157 185 222 281 342
#     4  10  17  36  57  83 110 145 189 224 274 339
#     4   8  20  32  57  87 105 143 186 235 275 313
#     4   8  16  31  54  80 104 136 180 224 267 322
#     4  10  22  38  54  84 116 147 185 230 282 323
#     4  10  21  37  56  84 114 149 181 225 286 329
#
# _framework density 25.608967
#
# number of rings (size 3 to 8) (size 9 to 14) (size 15 to 20)
#    0.857    1.714    0.000    2.143    6.000    0.571 
#    2.571    0.714    0.000    0.857    0.000    0.000 
#    0.000    0.000    0.000    0.000    0.000    0.000 
#
# Total GULP energy -78105.774227 kJ/mol
# GULP energy per Si atom -5578.983873 kJ/mol
# Density = 2.555068 g / cm^3
# Si number density = 25.608967 Si / 1000 Ang^3
#
#
#
# Elastic Constant Matrix: (Units=GPa)
#
#
# Indices 1 2 3 4 5 6 
#
# 1 108.8756 46.1776 16.6992 0.8378 16.5310 -19.9026
# 2 46.1776 129.1846 9.8259 -28.9604 7.7122 -8.2028
# 3 16.6992 9.8259 80.4738 -12.2737 11.3827 -5.6246
# 4 0.8378 -28.9604 -12.2737 20.5456 -4.3211 5.0320
# 5 16.5310 7.7122 11.3827 -4.3211 42.2075 -6.4893
# 6 -19.9026 -8.2028 -5.6246 5.0320 -6.4893 48.8247
#
#
#
# Elastic Compliance Matrix: (Units=1/GPa)
#
#
# Indices 1 2 3 4 5 6 
#
# 1 0.014993 -0.008198 -0.003657 -0.016582 -0.004246 0.005458
# 2 -0.008198 0.015922 0.003260 0.025738 0.001638 -0.002726
# 3 -0.003657 0.003260 0.015072 0.013545 -0.001974 -0.000865
# 4 -0.016582 0.025738 0.013545 0.097566 0.006581 -0.010056
# 5 -0.004246 0.001638 -0.001974 0.006581 0.026440 0.001153
# 6 0.005458 -0.002726 -0.000865 -0.010056 0.001153 0.023338
#
#
# Mechanical properties :
#
#
# Convention : Reuss Voigt Hill
#
# Bulk Modulus (GPa) = 34.72599 51.54883 43.13741
# Shear Modulus (GPa) = 22.71480 38.70430 30.70955
#
# Velocity S-wave (km/s) = 2.98146 3.89184 3.46666
# Velocity P-wave (km/s) = 5.04398 6.35359 5.73628
#
# Compressibility (1/GPa) = 0.02879688
#
# Stress axis : x y z
#
# Youngs Moduli (GPa) = 66.69814 62.80448 66.34859
#
# Poissons Ratio (x) = 0.51490 0.24265
# Poissons Ratio (y) = 0.54682 -0.21632
# Poissons Ratio (z) = 0.24392 -0.20477
#
# Static dielectric constant tensor:
#      x y z
#    x 1.980470 0.032780 -0.018700 
#    y 0.032780 2.067140 0.152840 
#    z -0.018700 0.152840 2.160190 
# 
# From -- ./inp_files/318700.got.cif
#   From: 2010.05.17/outbox.cif.g08.bks.cpg/sg2_160_cif.got.tgz:318700.got - 2010.06.03 11:33:40.
