data_PCOD9055753
_publ_section_title
;
Structure prediction by ZEFSAII (Michael W. Deem and Ramdas Pophale) SiO2 
 PCOD9055753
Probable space group: P -1
;
_chemical_formula_sum "Si O2"
_cell_formula_units_Z 14
_cell_length_a 16.651407
_cell_length_b 9.706434
_cell_length_c 7.285694
_cell_angle_alpha 69.288691
_cell_angle_beta 100.540315
_cell_angle_gamma 146.829285
_cell_volume 587.744630
_symmetry_space_group_name_H-M "P -1"
_symmetry_group_IT_number 2
_symmetry_cell_setting 'triclinic'
loop_
_space_group_symop_operation_xyz
x,y,z
-x,-y,-z
loop_
_atom_site_type_symbol
_atom_site_label
_atom_site_fract_x
_atom_site_fract_y
_atom_site_fract_z
Si Si1 0.530249 0.217224 0.397593
Si Si2 0.511251 0.694005 0.278476
Si Si3 0.139530 0.860057 0.730915
Si Si4 0.297417 0.534100 0.000552
Si Si5 0.906693 0.034955 0.708508
Si Si6 0.915054 0.555117 0.117125
Si Si7 0.378293 0.249818 0.204660
O O1 0.544231 0.313691 0.554636
O O2 0.391276 0.097587 0.310413
O O3 0.500000 0.000000 0.500000
O O4 0.663754 0.448922 0.201224
O O5 0.446050 0.709499 0.091189
O O6 0.421021 0.407102 0.330761
O O7 0.686789 0.912686 0.244570
O O8 0.090904 0.624834 0.748561
O O9 0.105211 0.924309 0.523100
O O10 0.212329 0.045759 0.188770
O O11 0.036635 0.748707 0.912972
O O12 0.159585 0.228541 0.168079
O O13 0.244159 0.622104 0.941745
O O14 0.054092 0.296355 0.761769
O O15 0.500000 0.500000 0.000000
#
# Coordination Sequence:
#
# PCOD9055753 Si02
#       7
#     2   2   2   2   2   2   2
#     4  12  25  41  67 106 139 172 219 285 349 391
#     4  11  24  44  75  99 137 175 230 281 336 407
#     4  11  25  42  71  96 129 182 226 270 337 401
#     4  11  27  44  67 103 135 174 225 280 343 393
#     4  11  23  42  70  92 131 178 226 270 325 410
#     4  11  26  46  62  97 140 177 220 276 335 401
#     4  11  21  43  70 104 131 176 226 279 340 402
#
# _framework density 23.819869000000001
#
# number of rings (size 3 to 8) (size 9 to 14) (size 15 to 20)
#    0.000    0.857    4.286    3.000    2.000    4.000 
#    2.571    0.000    0.000    0.000    0.000    0.000 
#    0.000    0.000    0.000    0.000    0.000    0.000 
#
# Total GULP energy -78162.804722 kJ/mol
# GULP energy per Si atom -5583.057480 kJ/mol
# Density = 2.376565 g / cm^3
# Si number density = 23.819869 Si / 1000 Ang^3
#
#
#
# Elastic Constant Matrix: (Units=GPa)
#
#
# Indices 1 2 3 4 5 6 
#
# 1 117.4446 4.4194 22.8540 7.2501 7.4004 -7.6028
# 2 4.4194 49.2076 17.4707 4.5460 7.0711 -3.6808
# 3 22.8540 17.4707 88.2269 8.6949 -5.4409 -5.0149
# 4 7.2501 4.5460 8.6949 28.0954 -8.9565 8.3583
# 5 7.4004 7.0711 -5.4409 -8.9565 35.4812 -7.5894
# 6 -7.6028 -3.6808 -5.0149 8.3583 -7.5894 46.3505
#
#
#
# Elastic Compliance Matrix: (Units=1/GPa)
#
#
# Indices 1 2 3 4 5 6 
#
# 1 0.009430 0.000840 -0.002396 -0.003215 -0.003005 0.001442
# 2 0.000840 0.023416 -0.004687 -0.005038 -0.006548 0.001326
# 3 -0.002396 -0.004687 0.013394 -0.002206 0.003277 0.001618
# 4 -0.003215 -0.005038 -0.002206 0.043510 0.010769 -0.007249
# 5 -0.003005 -0.006548 0.003277 0.010769 0.033970 0.002962
# 6 0.001442 0.001326 0.001618 -0.007249 0.002962 0.023884
#
#
# Mechanical properties :
#
#
# Convention : Reuss Voigt Hill
#
# Bulk Modulus (GPa) = 29.62336 38.26303 33.94319
# Shear Modulus (GPa) = 29.18154 35.99442 32.58798
#
# Velocity S-wave (km/s) = 3.50393 3.89152 3.70280
# Velocity P-wave (km/s) = 5.36968 6.02414 5.70630
#
# Compressibility (1/GPa) = 0.03375714
#
# Stress axis : x y z
#
# Youngs Moduli (GPa) = 106.04005 42.70563 74.65773
#
# Poissons Ratio (x) = -0.03589 0.17886
# Poissons Ratio (y) = -0.08911 0.34988
# Poissons Ratio (z) = 0.25404 0.20014
#
# Static dielectric constant tensor:
#      x y z
#    x 1.903530 0.030200 0.021100 
#    y 0.030200 1.958370 0.044450 
#    z 0.021100 0.044450 2.014610 
# 
# From -- ./inp_files/106710.got.cif
#   From: 2010.05.17/outbox.cif.g08.bks.cpg/sg2_54_cif.got.tgz:106710.got - 2010.06.03 11:33:40.
