data_PCOD9055189
_publ_section_title
;
Structure prediction by ZEFSAII (Michael W. Deem and Ramdas Pophale) SiO2 
 PCOD9055189
Probable space group: P -1
;
_chemical_formula_sum "Si O2"
_cell_formula_units_Z 16
_cell_length_a 12.312931
_cell_length_b 9.049912
_cell_length_c 19.214697
_cell_angle_alpha 28.525819
_cell_angle_beta 47.221403
_cell_angle_gamma 54.439071
_cell_volume 749.795558
_symmetry_space_group_name_H-M "P -1"
_symmetry_group_IT_number 2
_symmetry_cell_setting 'triclinic'
loop_
_space_group_symop_operation_xyz
x,y,z
-x,-y,-z
loop_
_atom_site_type_symbol
_atom_site_label
_atom_site_fract_x
_atom_site_fract_y
_atom_site_fract_z
Si Si1 0.231997 0.248417 0.168751
Si Si2 0.009151 0.457703 0.931985
Si Si3 0.357968 0.406434 0.779324
Si Si4 0.844470 0.174073 0.506196
Si Si5 0.542532 0.211909 0.550508
Si Si6 0.448211 0.535708 0.845034
Si Si7 0.301419 0.710026 0.075801
Si Si8 0.027166 0.157457 0.847495
O O1 0.290107 0.493435 0.101794
O O2 0.071795 0.319961 0.177588
O O3 0.213363 0.923849 0.351226
O O4 0.339432 0.312746 0.030880
O O5 0.180606 0.448004 0.840213
O O6 0.000000 0.500000 0.000000
O O7 0.918456 0.130462 0.098522
O O8 0.438773 0.641381 0.594404
O O9 0.415667 0.465743 0.807750
O O10 0.373298 0.054536 0.890749
O O11 0.703509 0.094885 0.552029
O O12 0.874617 0.534303 0.327945
O O13 0.000000 0.000000 0.500000
O O14 0.500000 0.500000 0.500000
O O15 0.439285 0.897789 0.720857
O O16 0.609343 0.436903 0.840210
O O17 0.131265 0.755504 0.149580
O O18 0.000000 0.000000 0.000000
#
# Coordination Sequence:
#
# PCOD9055189 Si02
#       8
#     2   2   2   2   2   2   2   2
#     4  12  23  41  70  95 137 174 228 280 335 401
#     4  11  23  43  68 100 133 178 225 278 340 401
#     4  11  25  43  71  95 138 181 225 277 341 405
#     4  12  23  43  68 103 131 173 231 287 333 394
#     4  12  27  43  68 104 135 178 234 280 335 407
#     4  12  25  44  64  97 143 180 215 278 349 403
#     4  11  22  41  68  98 127 175 226 271 334 404
#     4  11  21  40  70  96 125 173 228 280 330 396
#
# _framework density 21.339148999999999
#
# number of rings (size 3 to 8) (size 9 to 14) (size 15 to 20)
#    0.000    0.500    5.000    4.125    3.500    0.000 
#    0.000    0.625    0.000    0.000    0.000    0.000 
#    0.000    0.000    0.000    0.000    0.000    0.000 
#
# Total GULP energy -89323.744962 kJ/mol
# GULP energy per Si atom -5582.734060 kJ/mol
# Density = 2.129058 g / cm^3
# Si number density = 21.339149 Si / 1000 Ang^3
#
#
#
# Elastic Constant Matrix: (Units=GPa)
#
#
# Indices 1 2 3 4 5 6 
#
# 1 147.8578 17.3222 36.8002 5.2668 14.7273 5.9237
# 2 17.3222 32.7628 28.8872 2.0759 4.2743 15.5859
# 3 36.8002 28.8872 159.8045 0.2511 16.9692 12.6433
# 4 5.2668 2.0759 0.2511 29.3207 2.5769 1.4475
# 5 14.7273 4.2743 16.9692 2.5769 28.7283 8.0197
# 6 5.9237 15.5859 12.6433 1.4475 8.0197 35.7845
#
#
#
# Elastic Compliance Matrix: (Units=1/GPa)
#
#
# Indices 1 2 3 4 5 6 
#
# 1 0.007686 -0.003387 -0.000921 -0.000918 -0.003166 0.001275
# 2 -0.003387 0.046344 -0.006583 -0.002071 0.003969 -0.018104
# 3 -0.000921 -0.006583 0.007963 0.000831 -0.003600 0.000979
# 4 -0.000918 -0.002071 0.000831 0.034658 -0.002819 -0.000010
# 5 -0.003166 0.003969 -0.003600 -0.002819 0.040717 -0.008944
# 6 0.001275 -0.018104 0.000979 -0.000010 -0.008944 0.037278
#
#
# Mechanical properties :
#
#
# Convention : Reuss Voigt Hill
#
# Bulk Modulus (GPa) = 24.86920 56.27156 40.57038
# Shear Modulus (GPa) = 23.82850 35.92774 29.87812
#
# Velocity S-wave (km/s) = 3.34527 4.10769 3.74592
# Velocity P-wave (km/s) = 5.15758 6.99463 6.14514
#
# Compressibility (1/GPa) = 0.04021038
#
# Stress axis : x y z
#
# Youngs Moduli (GPa) = 130.10258 21.57796 125.57693
#
# Poissons Ratio (x) = 0.07309 0.11565
# Poissons Ratio (y) = 0.44067 0.82670
# Poissons Ratio (z) = 0.11982 0.14205
#
# Static dielectric constant tensor:
#      x y z
#    x 1.747960 -0.032070 -0.027880 
#    y -0.032070 1.850580 -0.025080 
#    z -0.027880 -0.025080 1.792000 
# 
# From -- ./inp_files/566359.got.cif
#   From: 2010.05.17/outbox.cif.g08.bks.cpg/sg2_284_cif.got.tgz:566359.got - 2010.06.03 11:33:40.
