data_PCOD9055877
_publ_section_title
;
Structure prediction by ZEFSAII (Michael W. Deem and Ramdas Pophale) SiO2 
 PCOD9055877
Probable space group: P -1
;
_chemical_formula_sum "Si O2"
_cell_formula_units_Z 14
_cell_length_a 12.677184
_cell_length_b 9.827966
_cell_length_c 9.297364
_cell_angle_alpha 44.934116
_cell_angle_beta 70.946212
_cell_angle_gamma 61.985607
_cell_volume 722.250366
_symmetry_space_group_name_H-M "P -1"
_symmetry_group_IT_number 2
_symmetry_cell_setting 'triclinic'
loop_
_space_group_symop_operation_xyz
x,y,z
-x,-y,-z
loop_
_atom_site_type_symbol
_atom_site_label
_atom_site_fract_x
_atom_site_fract_y
_atom_site_fract_z
Si Si1 0.834269 0.577952 0.758469
Si Si2 0.394333 0.161999 0.517315
Si Si3 0.098147 0.813191 0.178485
Si Si4 0.485437 0.524553 0.657641
Si Si5 0.045248 0.101256 0.534951
Si Si6 0.349776 0.823678 0.968375
Si Si7 0.735145 0.304864 0.183498
O O1 0.716668 0.732944 0.616800
O O2 0.892184 0.396274 0.752165
O O3 0.916044 0.707043 0.666912
O O4 0.795756 0.468593 0.990847
O O5 0.440973 0.334805 0.427519
O O6 0.500000 0.000000 0.500000
O O7 0.358164 0.038364 0.753290
O O8 0.053613 0.822241 0.353830
O O9 0.225678 0.840210 0.086640
O O10 0.000000 0.000000 0.000000
O O11 0.500000 0.500000 0.500000
O O12 0.348875 0.632558 0.688041
O O13 0.542533 0.309735 0.878866
O O14 0.161913 0.918374 0.681531
O O15 0.000000 0.000000 0.500000
O O16 0.347169 0.704428 0.909141
#
# Coordination Sequence:
#
# PCOD9055877 Si02
#       7
#     2   2   2   2   2   2   2
#     4  11  22  42  72  95 124 183 225 262 328 391
#     4  12  21  40  72  96 126 179 223 260 323 403
#     4  11  21  44  67  94 129 172 231 265 312 405
#     4  12  26  42  64 102 136 166 213 284 332 372
#     4  12  26  42  66  99 137 169 215 284 330 382
#     4  11  22  41  69  93 128 172 226 260 315 394
#     4  11  22  44  67  94 131 173 229 259 323 404
#
# _framework density 19.383859000000001
#
# number of rings (size 3 to 8) (size 9 to 14) (size 15 to 20)
#    0.000    0.571    8.571    1.714    2.000    1.143 
#    2.571    0.000    0.000    0.000    0.000    0.000 
#    0.000    0.000    0.000    0.000    0.000    0.000 
#
# Total GULP energy -78272.308053 kJ/mol
# GULP energy per Si atom -5590.879147 kJ/mol
# Density = 1.933974 g / cm^3
# Si number density = 19.383859 Si / 1000 Ang^3
#
#
#
# Elastic Constant Matrix: (Units=GPa)
#
#
# Indices 1 2 3 4 5 6 
#
# 1 52.6891 38.0606 18.7729 2.9487 -19.5142 6.5428
# 2 38.0606 99.0757 30.2498 17.1039 -11.5015 -11.3244
# 3 18.7729 30.2498 93.6002 -2.1577 -32.2064 5.4953
# 4 2.9487 17.1039 -2.1577 44.4909 -3.1109 1.4397
# 5 -19.5142 -11.5015 -32.2064 -3.1109 45.5047 -5.5838
# 6 6.5428 -11.3244 5.4953 1.4397 -5.5838 33.0348
#
#
#
# Elastic Compliance Matrix: (Units=1/GPa)
#
#
# Indices 1 2 3 4 5 6 
#
# 1 0.033822 -0.014394 0.002630 0.004576 0.011779 -0.010279
# 2 -0.014394 0.019220 -0.005662 -0.007353 -0.004607 0.009923
# 3 0.002630 -0.005662 0.016007 0.003649 0.010852 -0.003449
# 4 0.004576 -0.007353 0.003649 0.025594 0.003885 -0.004493
# 5 0.011779 -0.004607 0.010852 0.003885 0.033787 -0.000176
# 6 -0.010279 0.009923 -0.003449 -0.004493 -0.000176 0.036448
#
#
# Mechanical properties :
#
#
# Convention : Reuss Voigt Hill
#
# Bulk Modulus (GPa) = 29.24093 46.61461 37.92777
# Shear Modulus (GPa) = 23.68220 35.15821 29.42020
#
# Velocity S-wave (km/s) = 3.49914 4.26348 3.90008
# Velocity P-wave (km/s) = 5.60743 6.95246 6.31585
#
# Compressibility (1/GPa) = 0.03419864
#
# Stress axis : x y z
#
# Youngs Moduli (GPa) = 29.56613 52.02883 62.47391
#
# Poissons Ratio (x) = 0.74888 -0.16432
# Poissons Ratio (y) = 0.42556 0.35373
# Poissons Ratio (z) = -0.07776 0.29459
#
# Static dielectric constant tensor:
#      x y z
#    x 1.669350 -0.015900 -0.013780 
#    y -0.015900 1.660020 -0.007800 
#    z -0.013780 -0.007800 1.684780 
# 
# From -- ./inp_files/175730.got.cif
#   From: 2010.05.17/outbox.cif.g08.bks.cpg/sg2_88_cif.got.tgz:175730.got - 2010.06.03 11:33:40.
