data_PCOD9055410
_publ_section_title
;
Structure prediction by ZEFSAII (Michael W. Deem and Ramdas Pophale) SiO2 
 PCOD9055410
Probable space group: P -1
;
_chemical_formula_sum "Si O2"
_cell_formula_units_Z 14
_cell_length_a 6.937213
_cell_length_b 17.543861
_cell_length_c 9.292785
_cell_angle_alpha 134.568025
_cell_angle_beta 87.931099
_cell_angle_gamma 119.448394
_cell_volume 608.461655
_symmetry_space_group_name_H-M "P -1"
_symmetry_group_IT_number 2
_symmetry_cell_setting 'triclinic'
loop_
_space_group_symop_operation_xyz
x,y,z
-x,-y,-z
loop_
_atom_site_type_symbol
_atom_site_label
_atom_site_fract_x
_atom_site_fract_y
_atom_site_fract_z
Si Si1 0.699257 0.344793 0.307685
Si Si2 0.628979 0.298606 0.651779
Si Si3 0.217918 0.529897 0.836622
Si Si4 0.078385 0.786045 0.844170
Si Si5 0.406876 0.369093 0.524418
Si Si6 0.774501 0.983836 0.067016
Si Si7 0.506642 0.008982 0.339941
O O1 0.720405 0.378041 0.184412
O O2 0.912257 0.337734 0.338112
O O3 0.669832 0.440246 0.530173
O O4 0.458679 0.183273 0.144935
O O5 0.424793 0.289398 0.547589
O O6 0.265049 0.980374 0.723289
O O7 0.549609 0.146899 0.472440
O O8 0.652963 0.364964 0.892154
O O9 0.345625 0.460411 0.716030
O O10 0.916738 0.408966 0.724074
O O11 0.232815 0.870776 0.097350
O O12 0.232120 0.910407 0.886322
O O13 0.207234 0.286240 0.287094
O O14 0.000000 0.000000 0.000000
O O15 0.500000 0.000000 0.500000
#
# Coordination Sequence:
#
# PCOD9055410 Si02
#       7
#     2   2   2   2   2   2   2
#     4  11  23  41  68  99 137 176 232 290 340 410
#     4  11  25  46  70  96 145 187 228 284 352 422
#     4  11  26  46  67  99 140 191 233 282 345 412
#     4  11  24  43  72 104 138 182 233 292 363 419
#     4  12  23  42  71 103 135 182 239 287 340 415
#     4  11  21  41  71 104 135 180 234 289 351 424
#     4  11  24  46  74 105 144 184 228 296 369 419
#
# _framework density 23.008845999999998
#
# number of rings (size 3 to 8) (size 9 to 14) (size 15 to 20)
#    0.000    0.857    1.429    7.714    0.000    3.429 
#    0.000    3.571    0.000    0.000    0.000    0.000 
#    0.000    0.000    0.000    0.000    0.000    0.000 
#
# Total GULP energy -78054.375364 kJ/mol
# GULP energy per Si atom -5575.312526 kJ/mol
# Density = 2.295648 g / cm^3
# Si number density = 23.008846 Si / 1000 Ang^3
#
#
#
# Elastic Constant Matrix: (Units=GPa)
#
#
# Indices 1 2 3 4 5 6 
#
# 1 148.0650 65.2446 52.1914 0.9978 -26.6093 -16.7644
# 2 65.2446 126.5676 33.7561 -25.0781 -16.5708 -5.0757
# 3 52.1914 33.7561 129.0288 -28.7508 -14.2546 -1.9036
# 4 0.9978 -25.0781 -28.7508 48.5448 5.0550 3.4797
# 5 -26.6093 -16.5708 -14.2546 5.0550 42.5949 2.7295
# 6 -16.7644 -5.0757 -1.9036 3.4797 2.7295 39.7857
#
#
#
# Elastic Compliance Matrix: (Units=1/GPa)
#
#
# Indices 1 2 3 4 5 6 
#
# 1 0.012081 -0.005606 -0.004310 -0.006474 0.004408 0.004433
# 2 -0.005606 0.011974 0.000691 0.006743 0.000679 -0.001438
# 3 -0.004310 0.000691 0.010897 0.006979 0.000514 -0.001852
# 4 -0.006474 0.006743 0.006979 0.028864 -0.002261 -0.003903
# 5 0.004408 0.000679 0.000514 -0.002261 0.026915 0.000320
# 6 0.004433 -0.001438 -0.001852 -0.003903 0.000320 0.027050
#
#
# Mechanical properties :
#
#
# Convention : Reuss Voigt Hill
#
# Bulk Modulus (GPa) = 60.59807 78.44952 69.52379
# Shear Modulus (GPa) = 35.27797 43.01638 39.14717
#
# Velocity S-wave (km/s) = 3.91990 4.32853 4.12927
# Velocity P-wave (km/s) = 6.84701 7.69097 7.28123
#
# Compressibility (1/GPa) = 0.01650218
#
# Stress axis : x y z
#
# Youngs Moduli (GPa) = 82.77391 83.51698 91.76561
#
# Poissons Ratio (x) = 0.46819 0.39554
# Poissons Ratio (y) = 0.46403 -0.06344
# Poissons Ratio (z) = 0.35678 -0.05774
#
# Static dielectric constant tensor:
#      x y z
#    x 1.933920 0.013740 0.028340 
#    y 0.013740 1.849950 0.019140 
#    z 0.028340 0.019140 1.932840 
# 
# From -- ./inp_files/209042.got.cif
#   From: 2010.05.17/outbox.cif.g08.bks.cpg/sg2_105_cif.got.tgz:209042.got - 2010.06.03 11:33:40.
