data_PCOD9055170
_publ_section_title
;
Structure prediction by ZEFSAII (Michael W. Deem and Ramdas Pophale) SiO2 
 PCOD9055170
Probable space group: P -1
;
_chemical_formula_sum "Si O2"
_cell_formula_units_Z 16
_cell_length_a 6.309758
_cell_length_b 16.884694
_cell_length_c 14.758619
_cell_angle_alpha 31.657267
_cell_angle_beta 108.830157
_cell_angle_gamma 98.022959
_cell_volume 751.593529
_symmetry_space_group_name_H-M "P -1"
_symmetry_group_IT_number 2
_symmetry_cell_setting 'triclinic'
loop_
_space_group_symop_operation_xyz
x,y,z
-x,-y,-z
loop_
_atom_site_type_symbol
_atom_site_label
_atom_site_fract_x
_atom_site_fract_y
_atom_site_fract_z
Si Si1 0.632449 0.615490 0.856976
Si Si2 0.349287 0.766087 0.208620
Si Si3 0.323073 0.840120 0.471224
Si Si4 0.122192 0.884990 0.885945
Si Si5 0.963316 0.393798 0.386405
Si Si6 0.257371 0.483602 0.585543
Si Si7 0.581677 0.869549 0.292082
Si Si8 0.914701 0.398331 0.952376
O O1 0.483264 0.784272 0.635017
O O2 0.738950 0.517213 0.877943
O O3 0.500000 0.500000 0.000000
O O4 0.840312 0.642250 0.920991
O O5 0.325108 0.628089 0.406557
O O6 0.563417 0.678633 0.258716
O O7 0.401247 0.893922 0.159805
O O8 0.139636 0.826079 0.050474
O O9 0.166435 0.718032 0.572078
O O10 0.469997 0.826013 0.411765
O O11 0.135221 0.007733 0.277242
O O12 0.305819 0.989228 0.808672
O O13 0.172606 0.746231 0.954972
O O14 0.778355 0.486261 0.343023
O O15 0.202028 0.274597 0.571288
O O16 0.043348 0.511598 0.218739
O O17 0.000000 0.500000 0.500000
#
# Coordination Sequence:
#
# PCOD9055170 Si02
#       8
#     2   2   2   2   2   2   2   2
#     4  11  24  45  78 100 126 168 222 278 343 400
#     4  11  24  40  62 100 134 185 228 272 320 390
#     4  11  24  45  68  97 133 183 212 270 343 400
#     4  11  28  42  64 100 143 176 220 273 332 394
#     4  11  21  40  69  97 132 173 225 278 326 388
#     4  11  22  36  65  98 131 173 233 283 320 371
#     4  11  23  44  64  93 143 183 219 267 328 398
#     4  11  25  44  70 106 129 163 228 285 327 403
#
# _framework density 21.288103
#
# number of rings (size 3 to 8) (size 9 to 14) (size 15 to 20)
#    0.000    1.000    5.000    1.125    3.500    4.000 
#    0.000    1.250    0.000    0.000    0.000    0.000 
#    0.000    0.000    0.000    0.000    0.000    0.000 
#
# Total GULP energy -89352.480876 kJ/mol
# GULP energy per Si atom -5584.530055 kJ/mol
# Density = 2.123965 g / cm^3
# Si number density = 21.288103 Si / 1000 Ang^3
#
#
#
# Elastic Constant Matrix: (Units=GPa)
#
#
# Indices 1 2 3 4 5 6 
#
# 1 55.9743 8.9476 19.1946 -10.4113 -4.0814 0.6510
# 2 8.9476 97.9181 39.2642 -7.6544 2.9800 19.0824
# 3 19.1946 39.2642 97.5553 10.3487 1.3721 -1.6885
# 4 -10.4113 -7.6544 10.3487 24.0114 5.4064 2.7335
# 5 -4.0814 2.9800 1.3721 5.4064 21.8333 3.8648
# 6 0.6510 19.0824 -1.6885 2.7335 3.8648 19.4564
#
#
#
# Elastic Compliance Matrix: (Units=1/GPa)
#
#
# Indices 1 2 3 4 5 6 
#
# 1 0.022881 0.003470 -0.007611 0.014702 0.001930 -0.007279
# 2 0.003470 0.019694 -0.010584 0.015144 -0.001187 -0.022242
# 3 -0.007611 -0.010584 0.017964 -0.016131 0.000340 0.014393
# 4 0.014702 0.015144 -0.016131 0.064796 -0.010130 -0.023836
# 5 0.001930 -0.001187 0.000340 -0.010130 0.050122 -0.007404
# 6 -0.007279 -0.022242 0.014393 -0.023836 -0.007404 0.079524
#
#
# Mechanical properties :
#
#
# Convention : Reuss Voigt Hill
#
# Bulk Modulus (GPa) = 32.16661 42.91782 37.54222
# Shear Modulus (GPa) = 16.96106 25.32962 21.14534
#
# Velocity S-wave (km/s) = 2.82572 3.45316 3.15508
# Velocity P-wave (km/s) = 5.07831 6.00860 5.56294
#
# Compressibility (1/GPa) = 0.03108814
#
# Stress axis : x y z
#
# Youngs Moduli (GPa) = 43.70514 50.77675 55.66817
#
# Poissons Ratio (x) = -0.17621 0.42371
# Poissons Ratio (y) = -0.15167 0.58919
# Poissons Ratio (z) = 0.33265 0.53742
#
# Static dielectric constant tensor:
#      x y z
#    x 1.763930 0.069740 0.075920 
#    y 0.069740 1.576820 -0.169770 
#    z 0.075920 -0.169770 1.647120 
# 
# From -- ./inp_files/37571.got.cif
#   From: 2010.05.17/outbox.cif.g08.bks.cpg/sg2_19_cif.got.tgz:37571.got - 2010.06.03 11:33:40.
