data_PCOD9055387
_publ_section_title
;
Structure prediction by ZEFSAII (Michael W. Deem and Ramdas Pophale) SiO2 
 PCOD9055387
Probable space group: P -1
;
_chemical_formula_sum "Si O2"
_cell_formula_units_Z 16
_cell_length_a 16.104610
_cell_length_b 24.648954
_cell_length_c 23.906359
_cell_angle_alpha 168.248508
_cell_angle_beta 157.384851
_cell_angle_gamma 23.035319
_cell_volume 726.542928
_symmetry_space_group_name_H-M "P -1"
_symmetry_group_IT_number 2
_symmetry_cell_setting 'triclinic'
loop_
_space_group_symop_operation_xyz
x,y,z
-x,-y,-z
loop_
_atom_site_type_symbol
_atom_site_label
_atom_site_fract_x
_atom_site_fract_y
_atom_site_fract_z
Si Si1 0.357849 0.943580 0.407006
Si Si2 0.612745 0.720865 0.566492
Si Si3 0.359182 0.266264 0.275143
Si Si4 0.147935 0.692837 0.203650
Si Si5 0.127657 0.830930 0.649136
Si Si6 0.563151 0.551811 0.967447
Si Si7 0.869064 0.263231 0.576136
Si Si8 0.772054 0.181790 0.062180
O O1 0.500000 0.000000 0.500000
O O2 0.373320 0.177113 0.697025
O O3 0.454749 0.649483 0.196438
O O4 0.095334 0.989591 0.281259
O O5 0.668983 0.790884 0.734719
O O6 0.361653 0.674302 0.357274
O O7 0.771110 0.432809 0.357068
O O8 0.638734 0.969078 0.792284
O O9 0.200070 0.543354 0.435007
O O10 0.608016 0.307157 0.465163
O O11 0.311306 0.012481 0.954009
O O12 0.258151 0.615467 0.133001
O O13 0.998375 0.989521 0.408904
O O14 0.981668 0.491837 0.903842
O O15 0.095564 0.770015 0.502455
O O16 0.347345 0.658734 0.904606
O O17 0.000000 0.000000 0.000000
#
# Coordination Sequence:
#
# PCOD9055387 Si02
#       8
#     2   2   2   2   2   2   2   2
#     4  12  25  41  67  99 129 173 223 274 338 384
#     4  11  25  44  65 103 139 171 225 281 350 382
#     4  12  27  43  66  99 144 180 212 290 338 407
#     4  11  21  41  70  94 128 175 225 285 317 406
#     4  12  24  45  65  96 140 179 229 272 336 403
#     4  11  21  43  64  94 131 167 218 280 327 385
#     4  12  23  42  72  97 128 182 237 264 344 400
#     4  11  24  43  72  97 130 181 228 270 335 416
#
# _framework density 22.022099000000001
#
# number of rings (size 3 to 8) (size 9 to 14) (size 15 to 20)
#    0.000    0.500    2.500    7.500    0.000    4.000 
#    0.000    0.000    0.000    0.000    0.000    0.000 
#    0.000    0.000    0.000    0.000    0.000    0.000 
#
# Total GULP energy -89536.905742 kJ/mol
# GULP energy per Si atom -5596.056609 kJ/mol
# Density = 2.197198 g / cm^3
# Si number density = 22.022099 Si / 1000 Ang^3
#
#
#
# Elastic Constant Matrix: (Units=GPa)
#
#
# Indices 1 2 3 4 5 6 
#
# 1 84.8616 9.8195 34.9642 15.1738 31.3916 7.9095
# 2 9.8195 87.4278 13.4291 19.1164 -2.4585 -6.4885
# 3 34.9642 13.4291 174.0769 33.8594 23.2623 14.5142
# 4 15.1738 19.1164 33.8594 44.1402 12.9622 1.3534
# 5 31.3916 -2.4585 23.2623 12.9622 48.7384 2.9991
# 6 7.9095 -6.4885 14.5142 1.3534 2.9991 29.8141
#
#
#
# Elastic Compliance Matrix: (Units=1/GPa)
#
#
# Indices 1 2 3 4 5 6 
#
# 1 0.016646 -0.001975 -0.001481 -0.000783 -0.009715 -0.003112
# 2 -0.001975 0.013373 -0.000202 -0.006076 0.003446 0.003462
# 3 -0.001481 -0.000202 0.007352 -0.004613 -0.001160 -0.002904
# 4 -0.000783 -0.006076 -0.004613 0.030790 -0.005809 0.000318
# 5 -0.009715 0.003446 -0.001160 -0.005809 0.028971 0.001241
# 6 -0.003112 0.003462 -0.002904 0.000318 0.001241 0.036395
#
#
# Mechanical properties :
#
#
# Convention : Reuss Voigt Hill
#
# Bulk Modulus (GPa) = 33.27322 51.42133 42.34727
# Shear Modulus (GPa) = 33.14264 43.74878 38.44571
#
# Velocity S-wave (km/s) = 3.88361 4.46195 4.18278
# Velocity P-wave (km/s) = 5.93731 7.06724 6.52677
#
# Compressibility (1/GPa) = 0.03005420
#
# Stress axis : x y z
#
# Youngs Moduli (GPa) = 60.07331 74.77619 136.01457
#
# Poissons Ratio (x) = 0.14769 0.20147
# Poissons Ratio (y) = 0.11865 0.02752
# Poissons Ratio (z) = 0.08898 0.01513
#
# Static dielectric constant tensor:
#      x y z
#    x 1.818050 -0.004500 -0.007780 
#    y -0.004500 1.770760 -0.012900 
#    z -0.007780 -0.012900 1.763470 
# 
# From -- ./inp_files/477195.got.cif
#   From: 2010.05.17/outbox.cif.g08.bks.cpg/sg2_239_cif.got.tgz:477195.got - 2010.06.03 11:33:40.
