data_PCOD9055282
_publ_section_title
;
Structure prediction by ZEFSAII (Michael W. Deem and Ramdas Pophale) SiO2 
 PCOD9055282
Probable space group: P -1
;
_chemical_formula_sum "Si O2"
_cell_formula_units_Z 14
_cell_length_a 12.184585
_cell_length_b 10.005451
_cell_length_c 9.495748
_cell_angle_alpha 43.875986
_cell_angle_beta 106.735566
_cell_angle_gamma 115.280233
_cell_volume 725.158059
_symmetry_space_group_name_H-M "P -1"
_symmetry_group_IT_number 2
_symmetry_cell_setting 'triclinic'
loop_
_space_group_symop_operation_xyz
x,y,z
-x,-y,-z
loop_
_atom_site_type_symbol
_atom_site_label
_atom_site_fract_x
_atom_site_fract_y
_atom_site_fract_z
Si Si1 0.460800 0.797819 0.542035
Si Si2 0.269104 0.494002 0.895424
Si Si3 0.861661 0.618411 0.563736
Si Si4 0.864676 0.197736 0.414959
Si Si5 0.709921 0.740428 0.638514
Si Si6 0.771255 0.189638 0.706790
Si Si7 0.134466 0.143062 0.901151
O O1 0.387496 0.611689 0.758190
O O2 0.579519 0.764994 0.547875
O O3 0.364254 0.817714 0.376288
O O4 0.500000 0.000000 0.500000
O O5 0.206262 0.661327 0.785771
O O6 0.177759 0.331350 0.881711
O O7 0.295350 0.375496 0.127772
O O8 0.754919 0.620786 0.626721
O O9 0.839467 0.395150 0.660451
O O10 0.863310 0.768068 0.320569
O O11 0.991593 0.703733 0.623545
O O12 0.834965 0.194814 0.573889
O O13 0.808522 0.967152 0.515679
O O14 0.779517 0.993799 0.940849
O O15 0.000000 0.000000 0.000000
#
# Coordination Sequence:
#
# PCOD9055282 Si02
#       7
#     2   2   2   2   2   2   2
#     4  11  21  44  69  87 126 169 223 255 298 391
#     4  11  22  40  70  92 117 175 220 248 312 380
#     4  12  25  40  62 100 135 157 206 278 321 359
#     4  11  21  41  66  92 129 167 216 256 309 386
#     4  12  25  41  64  97 129 167 207 269 322 363
#     4  11  22  40  65  93 124 168 218 251 308 374
#     4  12  21  39  69  97 124 170 214 252 315 386
#
# _framework density 19.306135000000001
#
# number of rings (size 3 to 8) (size 9 to 14) (size 15 to 20)
#    0.000    0.571    8.571    2.143    0.000    2.286 
#    0.000    0.714    0.000    0.000    0.000    0.000 
#    0.000    0.000    0.000    0.000    0.000    0.000 
#
# Total GULP energy -78290.104972 kJ/mol
# GULP energy per Si atom -5592.150355 kJ/mol
# Density = 1.926219 g / cm^3
# Si number density = 19.306135 Si / 1000 Ang^3
#
#
#
# Elastic Constant Matrix: (Units=GPa)
#
#
# Indices 1 2 3 4 5 6 
#
# 1 43.6815 -18.0448 -10.4305 16.2751 9.0520 -3.6389
# 2 -18.0448 49.2043 6.6527 -15.6467 -9.9925 6.1484
# 3 -10.4305 6.6527 39.6051 -9.9902 19.5375 9.5185
# 4 16.2751 -15.6467 -9.9902 25.2643 -0.2702 3.6606
# 5 9.0520 -9.9925 19.5375 -0.2702 28.7540 0.9298
# 6 -3.6389 6.1484 9.5185 3.6606 0.9298 23.7206
#
#
#
# Elastic Compliance Matrix: (Units=1/GPa)
#
#
# Indices 1 2 3 4 5 6 
#
# 1 0.039337 0.001107 0.016068 -0.019005 -0.023197 0.003142
# 2 0.001107 0.031325 -0.005538 0.017971 0.014763 -0.009080
# 3 0.016068 -0.005538 0.063477 0.013950 -0.049278 -0.021792
# 4 -0.019005 0.017971 0.013950 0.072059 0.004218 -0.024457
# 5 -0.023197 0.014763 -0.049278 0.004218 0.080456 0.008584
# 6 0.003142 -0.009080 -0.021792 -0.024457 0.008584 0.057175
#
#
# Mechanical properties :
#
#
# Convention : Reuss Voigt Hill
#
# Bulk Modulus (GPa) = 6.35273 9.87174 8.11224
# Shear Modulus (GPa) = 13.40386 25.83533 19.61960
#
# Velocity S-wave (km/s) = 2.63778 3.66210 3.19130
# Velocity P-wave (km/s) = 3.54610 4.79642 4.21785
#
# Compressibility (1/GPa) = 0.15741263
#
# Stress axis : x y z
#
# Youngs Moduli (GPa) = 25.42156 31.92289 15.75377
#
# Poissons Ratio (x) = -0.03532 -0.25314
# Poissons Ratio (y) = -0.02813 0.08725
# Poissons Ratio (z) = -0.40848 0.17679
#
# Static dielectric constant tensor:
#      x y z
#    x 1.675270 0.009060 0.014580 
#    y 0.009060 1.653220 -0.004890 
#    z 0.014580 -0.004890 1.665130 
# 
# From -- ./inp_files/71215.got.cif
#   From: 2010.05.17/outbox.cif.g08.bks.cpg/sg2_36_cif.got.tgz:71215.got - 2010.06.03 11:33:40.
