data_PCOD9055949
_publ_section_title
;
Structure prediction by ZEFSAII (Michael W. Deem and Ramdas Pophale) SiO2 
 PCOD9055949
Probable space group: P -1
;
_chemical_formula_sum "Si O2"
_cell_formula_units_Z 14
_cell_length_a 7.487387
_cell_length_b 6.962541
_cell_length_c 20.584989
_cell_angle_alpha 48.714469
_cell_angle_beta 125.365405
_cell_angle_gamma 101.845339
_cell_volume 629.674191
_symmetry_space_group_name_H-M "P -1"
_symmetry_group_IT_number 2
_symmetry_cell_setting 'triclinic'
loop_
_space_group_symop_operation_xyz
x,y,z
-x,-y,-z
loop_
_atom_site_type_symbol
_atom_site_label
_atom_site_fract_x
_atom_site_fract_y
_atom_site_fract_z
Si Si1 0.732859 0.932047 0.127131
Si Si2 0.213460 0.099125 0.995358
Si Si3 0.398255 0.513804 0.547390
Si Si4 0.751324 0.521575 0.969500
Si Si5 0.090492 0.288736 0.655430
Si Si6 0.442298 0.950161 0.713985
Si Si7 0.747303 0.201957 0.420214
O O1 0.835091 0.795008 0.111877
O O2 0.477702 0.902047 0.093049
O O3 0.901180 0.843192 0.243028
O O4 0.709123 0.240523 0.036999
O O5 0.253620 0.324843 0.999156
O O6 0.412626 0.292678 0.158928
O O7 0.000000 0.000000 0.000000
O O8 0.500000 0.500000 0.500000
O O9 0.139249 0.542743 0.464570
O O10 0.363691 0.753624 0.539773
O O11 0.519596 0.221958 0.668393
O O12 0.000000 0.500000 0.000000
O O13 0.227434 0.503270 0.649526
O O14 0.206689 0.058083 0.680386
O O15 0.412681 0.868391 0.652392
O O16 0.000000 0.000000 0.500000
#
# Coordination Sequence:
#
# PCOD9055949 Si02
#       7
#     2   2   2   2   2   2   2
#     4  11  26  43  70 100 139 190 231 284 355 417
#     4  11  24  45  67  98 139 181 238 289 343 415
#     4  11  25  43  66 103 140 171 224 295 352 407
#     4  12  26  45  68 102 144 184 237 290 345 416
#     4  11  23  43  70  97 135 178 228 286 347 423
#     4  11  24  44  70  94 135 184 227 284 347 417
#     4  11  21  44  72  97 128 181 235 274 347 427
#
# _framework density 22.233720000000002
#
# number of rings (size 3 to 8) (size 9 to 14) (size 15 to 20)
#    0.000    0.857    5.714    1.286    6.000    0.571 
#    2.571    0.000    0.000    0.000    0.000    0.000 
#    0.000    0.000    0.000    0.000    0.000    0.000 
#
# Total GULP energy -77979.551601 kJ/mol
# GULP energy per Si atom -5569.967972 kJ/mol
# Density = 2.218312 g / cm^3
# Si number density = 22.233720 Si / 1000 Ang^3
#
#
#
# Elastic Constant Matrix: (Units=GPa)
#
#
# Indices 1 2 3 4 5 6 
#
# 1 99.8302 22.4575 17.5364 2.8100 -10.9257 -15.1573
# 2 22.4575 169.3294 26.7675 19.6826 -9.8521 -34.2226
# 3 17.5364 26.7675 107.6513 2.8859 -7.0836 -3.8700
# 4 2.8100 19.6826 2.8859 30.1079 -6.9402 -13.7311
# 5 -10.9257 -9.8521 -7.0836 -6.9402 19.1642 10.3033
# 6 -15.1573 -34.2226 -3.8700 -13.7311 10.3033 41.9585
#
#
#
# Elastic Compliance Matrix: (Units=1/GPa)
#
#
# Indices 1 2 3 4 5 6 
#
# 1 0.011300 -0.000653 -0.001312 0.001912 0.004763 0.002884
# 2 -0.000653 0.007524 -0.001562 -0.002553 -0.000751 0.005106
# 3 -0.001312 -0.001562 0.010032 0.000196 0.003037 -0.001504
# 4 0.001912 -0.002553 0.000196 0.041365 0.009551 0.009818
# 5 0.004763 -0.000751 0.003037 0.009551 0.065283 -0.011517
# 6 0.002884 0.005106 -0.001504 0.009818 -0.011517 0.034942
#
#
# Mechanical properties :
#
#
# Convention : Reuss Voigt Hill
#
# Bulk Modulus (GPa) = 45.87052 56.70374 51.28713
# Shear Modulus (GPa) = 27.06095 38.91609 32.98852
#
# Velocity S-wave (km/s) = 3.49250 4.18822 3.85608
# Velocity P-wave (km/s) = 6.07777 6.99622 6.55310
#
# Compressibility (1/GPa) = 0.02180049
#
# Stress axis : x y z
#
# Youngs Moduli (GPa) = 88.49648 132.90524 99.68210
#
# Poissons Ratio (x) = 0.08684 0.13083
# Poissons Ratio (y) = 0.05782 0.15569
# Poissons Ratio (z) = 0.11615 0.20758
#
# Static dielectric constant tensor:
#      x y z
#    x 3.400840 -1.434450 0.203090 
#    y -1.434450 3.145740 -0.210330 
#    z 0.203090 -0.210330 1.868320 
# 
# From -- ./inp_files/55939.got.cif
#   From: 2010.05.17/outbox.cif.g08.bks.cpg/sg2_28_cif.got.tgz:55939.got - 2010.06.03 11:33:40.
