data_PCOD9055529
_publ_section_title
;
Structure prediction by ZEFSAII (Michael W. Deem and Ramdas Pophale) SiO2 
 PCOD9055529
Probable space group: P -1
;
_chemical_formula_sum "Si O2"
_cell_formula_units_Z 16
_cell_length_a 6.782021
_cell_length_b 13.696744
_cell_length_c 23.967922
_cell_angle_alpha 149.123798
_cell_angle_beta 124.365114
_cell_angle_gamma 75.672775
_cell_volume 781.705804
_symmetry_space_group_name_H-M "P -1"
_symmetry_group_IT_number 2
_symmetry_cell_setting 'triclinic'
loop_
_space_group_symop_operation_xyz
x,y,z
-x,-y,-z
loop_
_atom_site_type_symbol
_atom_site_label
_atom_site_fract_x
_atom_site_fract_y
_atom_site_fract_z
Si Si1 0.177843 0.579701 0.832912
Si Si2 0.766881 0.609871 0.943691
Si Si3 0.764523 0.219897 0.682575
Si Si4 0.797905 0.178983 0.339777
Si Si5 0.785651 0.726141 0.131142
Si Si6 0.816708 0.563183 0.571419
Si Si7 0.190561 0.964484 0.094584
Si Si8 0.843196 0.175286 0.143197
O O1 0.483475 0.613126 0.893704
O O2 0.068773 0.592968 0.761336
O O3 0.974242 0.373018 0.740308
O O4 0.202503 0.796459 0.971615
O O5 0.698637 0.378802 0.788139
O O6 0.836337 0.651557 0.041667
O O7 0.030304 0.816322 0.052017
O O8 0.951889 0.181244 0.737855
O O9 0.500000 0.000000 0.500000
O O10 0.835399 0.344256 0.476851
O O11 0.076884 0.328756 0.419649
O O12 0.735565 0.930073 0.216645
O O13 0.521298 0.151544 0.252498
O O14 0.500000 0.500000 0.000000
O O15 0.500000 0.500000 0.500000
O O16 0.047312 0.761907 0.745865
O O17 0.012288 0.065363 0.094898
O O18 0.500000 0.000000 0.000000
#
# Coordination Sequence:
#
# PCOD9055529 Si02
#       8
#     2   2   2   2   2   2   2   2
#     4  11  23  42  64  98 134 177 228 282 339 420
#     4  11  22  44  73  96 135 180 239 284 344 418
#     4  11  27  46  64 100 140 177 227 295 352 405
#     4  11  24  43  72  99 142 176 232 293 339 412
#     4  12  23  47  75 101 132 185 243 285 347 417
#     4  11  25  45  65 101 144 182 223 282 352 416
#     4  11  21  42  69 100 137 174 230 291 338 408
#     4  12  23  40  69 100 134 184 226 275 353 415
#
# _framework density 20.468057999999999
#
# number of rings (size 3 to 8) (size 9 to 14) (size 15 to 20)
#    0.000    0.750    5.000    3.000    0.000    2.500 
#    2.250    0.000    0.000    0.000    0.000    0.000 
#    0.000    0.000    0.000    0.000    0.000    0.000 
#
# Total GULP energy -89273.535930 kJ/mol
# GULP energy per Si atom -5579.595996 kJ/mol
# Density = 2.042147 g / cm^3
# Si number density = 20.468058 Si / 1000 Ang^3
#
#
#
# Elastic Constant Matrix: (Units=GPa)
#
#
# Indices 1 2 3 4 5 6 
#
# 1 136.6524 51.1137 50.0319 1.5604 9.2050 -11.9516
# 2 51.1137 99.3961 36.5995 -2.4915 2.7061 -8.0748
# 3 50.0319 36.5995 118.2106 -5.4009 0.3490 -9.5770
# 4 1.5604 -2.4915 -5.4009 34.4853 -1.0699 0.5983
# 5 9.2050 2.7061 0.3490 -1.0699 36.3912 -4.4536
# 6 -11.9516 -8.0748 -9.5770 0.5983 -4.4536 37.9360
#
#
#
# Elastic Compliance Matrix: (Units=1/GPa)
#
#
# Indices 1 2 3 4 5 6 
#
# 1 0.010196 -0.003994 -0.003021 -0.001313 -0.002124 0.001371
# 2 -0.003994 0.013028 -0.002231 0.000762 0.000203 0.000963
# 3 -0.003021 -0.002231 0.010610 0.001646 0.001042 0.001348
# 4 -0.001313 0.000762 0.001646 0.029407 0.001103 -0.000170
# 5 -0.002124 0.000203 0.001042 0.001103 0.028385 0.002952
# 6 0.001371 0.000963 0.001348 -0.000170 0.002952 0.027687
#
#
# Mechanical properties :
#
#
# Convention : Reuss Voigt Hill
#
# Bulk Modulus (GPa) = 65.18354 69.97215 67.57785
# Shear Modulus (GPa) = 34.98450 36.19676 35.59063
#
# Velocity S-wave (km/s) = 4.13876 4.20986 4.17446
# Velocity P-wave (km/s) = 7.39964 7.60860 7.50485
#
# Compressibility (1/GPa) = 0.01534130
#
# Stress axis : x y z
#
# Youngs Moduli (GPa) = 98.07710 76.75702 94.24817
#
# Poissons Ratio (x) = 0.30660 0.28476
# Poissons Ratio (y) = 0.39177 0.21025
# Poissons Ratio (z) = 0.29632 0.17123
#
# Static dielectric constant tensor:
#      x y z
#    x 1.818530 0.060070 -0.134160 
#    y 0.060070 1.797800 -0.050530 
#    z -0.134160 -0.050530 1.842540 
# 
# From -- ./inp_files/542208.got.cif
#   From: 2010.05.17/outbox.cif.g08.bks.cpg/sg2_272_cif.got.tgz:542208.got - 2010.06.03 11:33:40.
