data_PCOD9055426
_publ_section_title
;
Structure prediction by ZEFSAII (Michael W. Deem and Ramdas Pophale) SiO2 
 PCOD9055426
Probable space group: P -1
;
_chemical_formula_sum "Si O2"
_cell_formula_units_Z 9
_cell_length_a 12.719743
_cell_length_b 7.671626
_cell_length_c 11.895091
_cell_angle_alpha 38.413993
_cell_angle_beta 32.772042
_cell_angle_gamma 26.935051
_cell_volume 281.872249
_symmetry_space_group_name_H-M "P -1"
_symmetry_group_IT_number 2
_symmetry_cell_setting 'triclinic'
loop_
_space_group_symop_operation_xyz
x,y,z
-x,-y,-z
loop_
_atom_site_type_symbol
_atom_site_label
_atom_site_fract_x
_atom_site_fract_y
_atom_site_fract_z
Si Si1 0.698071 0.391979 0.947320
Si Si2 0.790011 0.466020 0.393263
Si Si3 0.500000 0.500000 0.500000
Si Si4 0.228512 0.331481 0.436635
Si Si5 0.194546 0.487525 0.979414
O O1 0.424169 0.423015 0.166317
O O2 0.640889 0.613894 0.003471
O O3 0.936985 0.410111 0.665995
O O4 0.914788 0.940345 0.010195
O O5 0.772847 0.176569 0.504906
O O6 0.762271 0.588833 0.482206
O O7 0.469496 0.850097 0.443246
O O8 0.063998 0.314797 0.176431
O O9 0.319682 0.473532 0.761497
#
# Coordination Sequence:
#
# PCOD9055426 Si02
#       5
#     2   2   1   2   2
#     4  11  21  41  72  99 126 167 230 280 322 387
#     4  11  24  43  68  98 134 177 219 272 333 393
#     4  12  26  44  64  96 146 178 212 274 334 402
#     4  11  21  41  72  99 126 167 230 280 322 387
#     4  11  24  43  68  98 134 177 219 272 333 393
#
# _framework density 31.929358000000001
#
# number of rings (size 3 to 8) (size 9 to 14) (size 15 to 20)
#    0.000    0.889    4.444    3.333    6.222    0.000 
#    0.000   11.111    0.000    0.000    0.000    0.000 
#    0.000    0.000    0.000    0.000    0.000    0.000 
#
# Total GULP energy -50280.433476 kJ/mol
# GULP energy per Si atom -5586.714831 kJ/mol
# Density = 3.185669 g / cm^3
# Si number density = 31.929358 Si / 1000 Ang^3
#
#
#
# Elastic Constant Matrix: (Units=GPa)
#
#
# Indices 1 2 3 4 5 6 
#
# 1 301.9484 91.9787 145.6531 25.7670 -61.4422 38.3743
# 2 91.9787 94.3427 41.1097 11.0069 -27.3788 -6.9076
# 3 145.6531 41.1097 309.5866 19.2535 -27.2662 11.5919
# 4 25.7670 11.0069 19.2535 55.0169 8.4560 3.0761
# 5 -61.4422 -27.3788 -27.2662 8.4560 86.9579 -8.9515
# 6 38.3743 -6.9076 11.5919 3.0761 -8.9515 59.6949
#
#
#
# Elastic Compliance Matrix: (Units=1/GPa)
#
#
# Indices 1 2 3 4 5 6 
#
# 1 0.007253 -0.005555 -0.002196 -0.001636 0.002390 -0.004436
# 2 -0.005555 0.017148 0.000429 -0.001676 0.002381 0.005915
# 3 -0.002196 0.000429 0.004220 -0.000577 0.000032 0.000677
# 4 -0.001636 -0.001676 -0.000577 0.020113 -0.003887 -0.000649
# 5 0.002390 0.002381 0.000032 -0.003887 0.014439 0.001099
# 6 -0.004436 0.005915 0.000677 -0.000649 0.001099 0.020355
#
#
# Mechanical properties :
#
#
# Convention : Reuss Voigt Hill
#
# Bulk Modulus (GPa) = 71.55179 140.37342 105.96261
# Shear Modulus (GPa) = 48.62330 68.80968 58.71649
#
# Velocity S-wave (km/s) = 3.90659 4.64730 4.29295
# Velocity P-wave (km/s) = 6.54268 8.53555 7.60468
#
# Compressibility (1/GPa) = 0.01397589
#
# Stress axis : x y z
#
# Youngs Moduli (GPa) = 137.87253 58.31673 236.97189
#
# Poissons Ratio (x) = 0.32393 0.52050
# Poissons Ratio (y) = 0.76583 -0.10159
# Poissons Ratio (z) = 0.30283 -0.02500
#
# Static dielectric constant tensor:
#      x y z
#    x 2.566940 -0.135280 -0.211090 
#    y -0.135280 2.609780 -0.183190 
#    z -0.211090 -0.183190 2.934290 
# 
# From -- ./inp_files/330244.got.cif
#   From: 2010.05.17/outbox.cif.g08.bks.cpg/sg2_166_cif.got.tgz:330244.got - 2010.06.03 11:33:40.
