data_PCOD9055063
_publ_section_title
;
Structure prediction by ZEFSAII (Michael W. Deem and Ramdas Pophale) SiO2 
 PCOD9055063
Probable space group: P -1
;
_chemical_formula_sum "Si O2"
_cell_formula_units_Z 16
_cell_length_a 10.864052
_cell_length_b 5.397723
_cell_length_c 22.143526
_cell_angle_alpha 114.225342
_cell_angle_beta 34.018432
_cell_angle_gamma 107.582732
_cell_volume 660.654414
_symmetry_space_group_name_H-M "P -1"
_symmetry_group_IT_number 2
_symmetry_cell_setting 'triclinic'
loop_
_space_group_symop_operation_xyz
x,y,z
-x,-y,-z
loop_
_atom_site_type_symbol
_atom_site_label
_atom_site_fract_x
_atom_site_fract_y
_atom_site_fract_z
Si Si1 0.809162 0.746888 0.092408
Si Si2 0.055569 0.402964 0.340796
Si Si3 0.561320 0.403251 0.532248
Si Si4 0.067358 0.256427 0.083335
Si Si5 0.844322 0.802882 0.263012
Si Si6 0.492185 0.978855 0.664997
Si Si7 0.038433 0.962140 0.552287
Si Si8 0.254608 0.108530 0.123694
O O1 0.581133 0.821607 0.229624
O O2 0.756812 0.722062 0.040072
O O3 0.939810 0.003941 0.086192
O O4 0.000000 0.500000 0.000000
O O5 0.024903 0.725883 0.372212
O O6 0.236806 0.298141 0.208413
O O7 0.815992 0.292366 0.411791
O O8 0.083309 0.265927 0.383144
O O9 0.500000 0.500000 0.500000
O O10 0.352434 0.236040 0.615319
O O11 0.563499 0.656002 0.605205
O O12 0.164023 0.226993 0.108165
O O13 0.894336 0.517818 0.179685
O O14 0.726494 0.015207 0.285967
O O15 0.085783 0.883937 0.188564
O O16 0.695950 0.098366 0.558829
O O17 0.000000 0.000000 0.500000
O O18 0.500000 0.000000 0.000000
#
# Coordination Sequence:
#
# PCOD9055063 Si02
#       8
#     2   2   2   2   2   2   2   2
#     4  11  21  40  65 100 139 183 234 298 364 424
#     4  11  26  48  76 109 145 195 249 304 380 444
#     4  11  23  39  71 108 142 181 236 307 373 433
#     4  11  23  41  67  99 140 187 242 300 357 437
#     4  12  21  43  71  98 144 180 243 303 364 434
#     4  11  22  40  67 106 138 182 236 305 361 432
#     4  11  26  50  75 108 150 193 249 306 372 451
#     4  12  29  48  67 104 150 193 245 300 371 452
#
# _framework density 24.218411
#
# number of rings (size 3 to 8) (size 9 to 14) (size 15 to 20)
#    0.000    0.750    5.000    1.875    5.250    2.500 
#    4.500    0.000    0.000    0.000    0.000    0.000 
#    0.000    0.000    0.000    0.000    0.000    0.000 
#
# Total GULP energy -89187.144280 kJ/mol
# GULP energy per Si atom -5574.196517 kJ/mol
# Density = 2.416329 g / cm^3
# Si number density = 24.218411 Si / 1000 Ang^3
#
#
#
# Elastic Constant Matrix: (Units=GPa)
#
#
# Indices 1 2 3 4 5 6 
#
# 1 56.1219 -12.7266 19.7218 -6.8498 9.7993 -20.4887
# 2 -12.7266 63.8774 33.3633 20.9348 -2.7275 -11.0687
# 3 19.7218 33.3633 202.6474 7.6452 14.8761 -10.2592
# 4 -6.8498 20.9348 7.6452 39.8683 -4.4886 6.7774
# 5 9.7993 -2.7275 14.8761 -4.4886 41.5049 -9.0382
# 6 -20.4887 -11.0687 -10.2592 6.7774 -9.0382 26.3625
#
#
#
# Elastic Compliance Matrix: (Units=1/GPa)
#
#
# Indices 1 2 3 4 5 6 
#
# 1 0.035721 0.018820 -0.004483 -0.008966 0.001436 0.036717
# 2 0.018820 0.034524 -0.005468 -0.018991 0.005050 0.033608
# 3 -0.004483 -0.005468 0.006159 0.001430 -0.002346 -0.004556
# 4 -0.008966 -0.018991 0.001430 0.037265 -0.000900 -0.024274
# 5 0.001436 0.005050 -0.002346 -0.000900 0.027434 0.011960
# 6 0.036717 0.033608 -0.004556 -0.024274 0.011960 0.089148
#
#
# Mechanical properties :
#
#
# Convention : Reuss Voigt Hill
#
# Bulk Modulus (GPa) = 10.62231 44.81818 27.72025
# Shear Modulus (GPa) = 20.50071 40.36636 30.43354
#
# Velocity S-wave (km/s) = 2.91261 4.08703 3.54874
# Velocity P-wave (km/s) = 3.96316 6.38888 5.31622
#
# Compressibility (1/GPa) = 0.09414148
#
# Stress axis : x y z
#
# Youngs Moduli (GPa) = 27.99471 28.96530 162.36684
#
# Poissons Ratio (x) = -0.54514 0.72794
# Poissons Ratio (y) = -0.52687 0.88788
# Poissons Ratio (z) = 0.12551 0.15839
#
# Static dielectric constant tensor:
#      x y z
#    x 2.096160 -0.049530 0.026660 
#    y -0.049530 2.044660 0.002520 
#    z 0.026660 0.002520 2.016520 
# 
# From -- ./inp_files/369486.got.cif
#   From: 2010.05.17/outbox.cif.g08.bks.cpg/sg2_185_cif.got.tgz:369486.got - 2010.06.03 11:33:40.
