data_PCOD9055703
_publ_section_title
;
Structure prediction by ZEFSAII (Michael W. Deem and Ramdas Pophale) SiO2 
 PCOD9055703
Probable space group: P -1
;
_chemical_formula_sum "Si O2"
_cell_formula_units_Z 16
_cell_length_a 11.295257
_cell_length_b 13.525437
_cell_length_c 8.120132
_cell_angle_alpha 104.630318
_cell_angle_beta 98.878608
_cell_angle_gamma 32.009743
_cell_volume 631.898421
_symmetry_space_group_name_H-M "P -1"
_symmetry_group_IT_number 2
_symmetry_cell_setting 'triclinic'
loop_
_space_group_symop_operation_xyz
x,y,z
-x,-y,-z
loop_
_atom_site_type_symbol
_atom_site_label
_atom_site_fract_x
_atom_site_fract_y
_atom_site_fract_z
Si Si1 0.718013 0.342592 0.811799
Si Si2 0.867020 0.368372 0.124083
Si Si3 0.689786 0.009632 0.089400
Si Si4 0.471891 0.707302 0.385318
Si Si5 0.312096 0.750723 0.721873
Si Si6 0.754241 0.648861 0.060873
Si Si7 0.034045 0.150838 0.484399
Si Si8 0.712770 0.857316 0.368294
O O1 0.641418 0.281801 0.771968
O O2 0.506442 0.558386 0.788859
O O3 0.911578 0.213745 0.658760
O O4 0.794871 0.316470 0.998318
O O5 0.733866 0.505328 0.311602
O O6 0.769867 0.517724 0.032370
O O7 0.135462 0.166812 0.078691
O O8 0.693593 0.939716 0.229317
O O9 0.739726 0.095981 0.161919
O O10 0.442314 0.181783 0.033512
O O11 0.428993 0.686394 0.542694
O O12 0.298117 0.926529 0.440319
O O13 0.108960 0.815571 0.663137
O O14 0.732493 0.727001 0.256709
O O15 0.000000 0.500000 0.000000
O O16 0.074422 0.243906 0.536778
O O17 0.500000 0.000000 0.500000
#
# Coordination Sequence:
#
# PCOD9055703 Si02
#       8
#     2   2   2   2   2   2   2   2
#     4  11  21  43  67 105 144 187 232 288 365 431
#     4  12  24  45  69 102 146 186 234 296 351 428
#     4  12  25  50  76 102 146 190 234 297 368 418
#     4  11  22  39  67 103 143 183 231 290 356 425
#     4  11  23  43  72 108 138 189 234 293 366 428
#     4  12  26  49  73 102 140 195 244 286 357 428
#     4  11  21  43  71  99 144 184 232 291 356 419
#     4  12  26  47  75 103 140 189 242 294 348 421
#
# _framework density 25.320525
#
# number of rings (size 3 to 8) (size 9 to 14) (size 15 to 20)
#    0.000    0.500    5.000    5.250    0.000    0.000 
#    9.000    1.875    0.000    0.000    0.000    0.000 
#    0.000    0.000    0.000    0.000    0.000    0.000 
#
# Total GULP energy -89298.627326 kJ/mol
# GULP energy per Si atom -5581.164208 kJ/mol
# Density = 2.526289 g / cm^3
# Si number density = 25.320525 Si / 1000 Ang^3
#
#
#
# Elastic Constant Matrix: (Units=GPa)
#
#
# Indices 1 2 3 4 5 6 
#
# 1 86.9978 28.4015 27.8633 -0.8939 10.4438 -28.0326
# 2 28.4015 154.1259 57.4470 14.0229 -4.4922 -31.0234
# 3 27.8633 57.4470 108.5846 37.4319 -1.9980 -29.6384
# 4 -0.8939 14.0229 37.4319 47.3589 -11.1118 3.3767
# 5 10.4438 -4.4922 -1.9980 -11.1118 36.3592 8.5516
# 6 -28.0326 -31.0234 -29.6384 3.3767 8.5516 40.7831
#
#
#
# Elastic Compliance Matrix: (Units=1/GPa)
#
#
# Indices 1 2 3 4 5 6 
#
# 1 0.017028 -0.000554 0.000661 -0.003185 -0.009178 0.013952
# 2 -0.000554 0.008601 -0.003331 -0.000165 0.000111 0.003732
# 3 0.000661 -0.003331 0.022649 -0.020519 -0.009897 0.018154
# 4 -0.003185 -0.000165 -0.020519 0.043524 0.018900 -0.024793
# 5 -0.009178 0.000111 -0.009897 0.018900 0.040928 -0.023564
# 6 0.013952 0.003732 0.018154 -0.024793 -0.023564 0.057136
#
#
# Mechanical properties :
#
#
# Convention : Reuss Voigt Hill
#
# Bulk Modulus (GPa) = 23.90612 64.12577 44.01594
# Shear Modulus (GPa) = 23.78041 40.63333 32.20687
#
# Velocity S-wave (km/s) = 3.06792 4.01029 3.57033
# Velocity P-wave (km/s) = 4.69163 6.84279 5.86665
#
# Compressibility (1/GPa) = 0.04183029
#
# Stress axis : x y z
#
# Youngs Moduli (GPa) = 58.72570 116.26330 44.15275
#
# Poissons Ratio (x) = 0.06435 -0.02916
# Poissons Ratio (y) = 0.03251 0.14707
# Poissons Ratio (z) = -0.03879 0.38727
#
# Static dielectric constant tensor:
#      x y z
#    x 2.144840 -0.023470 0.001430 
#    y -0.023470 2.001970 -0.012220 
#    z 0.001430 -0.012220 2.016370 
# 
# From -- ./inp_files/273763.got.cif
#   From: 2010.05.17/outbox.cif.g08.bks.cpg/sg2_137_cif.got.tgz:273763.got - 2010.06.03 11:33:40.
