data_PCOD9055722
_publ_section_title
;
Structure prediction by ZEFSAII (Michael W. Deem and Ramdas Pophale) SiO2 
 PCOD9055722
Probable space group: P -1
;
_chemical_formula_sum "Si O2"
_cell_formula_units_Z 16
_cell_length_a 9.250369
_cell_length_b 15.041460
_cell_length_c 24.815164
_cell_angle_alpha 26.314432
_cell_angle_beta 149.646743
_cell_angle_gamma 133.955352
_cell_volume 723.230958
_symmetry_space_group_name_H-M "P -1"
_symmetry_group_IT_number 2
_symmetry_cell_setting 'triclinic'
loop_
_space_group_symop_operation_xyz
x,y,z
-x,-y,-z
loop_
_atom_site_type_symbol
_atom_site_label
_atom_site_fract_x
_atom_site_fract_y
_atom_site_fract_z
Si Si1 0.907629 0.976315 0.283487
Si Si2 0.170605 0.861709 0.216997
Si Si3 0.105802 0.818237 0.541521
Si Si4 0.756480 0.791796 0.031318
Si Si5 0.282233 0.347778 0.422848
Si Si6 0.219794 0.958559 0.905237
Si Si7 0.284894 0.496223 0.129632
Si Si8 0.581546 0.836026 0.549343
O O1 0.960292 0.814797 0.437819
O O2 0.240363 0.993684 0.370904
O O3 0.849313 0.896292 0.249868
O O4 0.601791 0.172137 0.095836
O O5 0.458509 0.669656 0.439324
O O6 0.908065 0.805430 0.130931
O O7 0.030684 0.991908 0.155463
O O8 0.252190 0.013386 0.117243
O O9 0.414946 0.614229 0.750241
O O10 0.878918 0.811357 0.518906
O O11 0.198465 0.027611 0.458728
O O12 0.005268 0.575123 0.205903
O O13 0.422244 0.271740 0.450900
O O14 0.266025 0.724797 0.023190
O O15 0.500000 0.000000 0.000000
O O16 0.315463 0.343778 0.274132
O O17 0.000000 0.500000 0.000000
#
# Coordination Sequence:
#
# PCOD9055722 Si02
#       8
#     2   2   2   2   2   2   2   2
#     4  11  21  43  68  92 137 179 222 283 345 406
#     4  11  24  44  68  94 146 179 223 290 349 406
#     4  11  24  43  68  96 137 183 229 286 346 413
#     4  11  24  44  68  99 129 189 227 271 354 430
#     4  12  24  43  68 100 137 176 231 287 350 405
#     4  12  23  41  69 104 138 177 232 294 343 404
#     4  11  24  45  71 100 138 185 236 279 349 427
#     4  11  24  44  68  99 136 181 230 291 344 405
#
# _framework density 22.122948000000001
#
# number of rings (size 3 to 8) (size 9 to 14) (size 15 to 20)
#    0.000    0.750    3.750    5.250    0.000    0.000 
#    0.000    3.750    0.000    0.000    0.000    0.000 
#    0.000    0.000    0.000    0.000    0.000    0.000 
#
# Total GULP energy -89303.191518 kJ/mol
# GULP energy per Si atom -5581.449470 kJ/mol
# Density = 2.207259 g / cm^3
# Si number density = 22.122948 Si / 1000 Ang^3
#
#
#
# Elastic Constant Matrix: (Units=GPa)
#
#
# Indices 1 2 3 4 5 6 
#
# 1 103.4776 21.8083 48.7410 11.3347 4.3373 -18.2523
# 2 21.8083 85.2704 39.7360 11.8143 1.5371 -12.4652
# 3 48.7410 39.7360 136.8450 27.5268 3.6726 -4.7190
# 4 11.3347 11.8143 27.5268 32.9734 -11.0179 0.7571
# 5 4.3373 1.5371 3.6726 -11.0179 38.2561 6.7849
# 6 -18.2523 -12.4652 -4.7190 0.7571 6.7849 32.2526
#
#
#
# Elastic Compliance Matrix: (Units=1/GPa)
#
#
# Indices 1 2 3 4 5 6 
#
# 1 0.013251 -0.000069 -0.003827 -0.002592 -0.003236 0.007654
# 2 -0.000069 0.014611 -0.003291 -0.003340 -0.002232 0.005674
# 3 -0.003827 -0.003291 0.011200 -0.007675 -0.002527 -0.001087
# 4 -0.002592 -0.003340 -0.007675 0.044128 0.015317 -0.008139
# 5 -0.003236 -0.002232 -0.002527 0.015317 0.033092 -0.010385
# 6 0.007654 0.005674 -0.001087 -0.008139 -0.010385 0.039746
#
#
# Mechanical properties :
#
#
# Convention : Reuss Voigt Hill
#
# Bulk Modulus (GPa) = 40.50500 60.68485 50.59493
# Shear Modulus (GPa) = 27.99060 35.05029 31.52045
#
# Velocity S-wave (km/s) = 3.56087 3.98470 3.77873
# Velocity P-wave (km/s) = 5.93760 6.97572 6.47749
#
# Compressibility (1/GPa) = 0.02468831
#
# Stress axis : x y z
#
# Youngs Moduli (GPa) = 75.46643 68.44166 89.28256
#
# Poissons Ratio (x) = 0.00473 0.34172
# Poissons Ratio (y) = 0.00521 0.29379
# Poissons Ratio (z) = 0.28884 0.22521
#
# Static dielectric constant tensor:
#      x y z
#    x 1.819710 0.031460 -0.008060 
#    y 0.031460 1.827050 0.008550 
#    z -0.008060 0.008550 1.866770 
# 
# From -- ./inp_files/608183.got.cif
#   From: 2010.05.17/outbox.cif.g08.bks.cpg/sg2_305_cif.got.tgz:608183.got - 2010.06.03 11:33:40.
