data_PCOD9055228
_publ_section_title
;
Structure prediction by ZEFSAII (Michael W. Deem and Ramdas Pophale) SiO2 
 PCOD9055228
Probable space group: P -1
;
_chemical_formula_sum "Si O2"
_cell_formula_units_Z 16
_cell_length_a 18.169026
_cell_length_b 20.506054
_cell_length_c 12.241220
_cell_angle_alpha 37.382736
_cell_angle_beta 27.216458
_cell_angle_gamma 19.521759
_cell_volume 668.108761
_symmetry_space_group_name_H-M "P -1"
_symmetry_group_IT_number 2
_symmetry_cell_setting 'triclinic'
loop_
_space_group_symop_operation_xyz
x,y,z
-x,-y,-z
loop_
_atom_site_type_symbol
_atom_site_label
_atom_site_fract_x
_atom_site_fract_y
_atom_site_fract_z
Si Si1 0.651378 0.164385 0.241042
Si Si2 0.037169 0.189113 0.011110
Si Si3 0.829155 0.811006 0.756880
Si Si4 0.292099 0.351211 0.692601
Si Si5 0.237743 0.850569 0.485930
Si Si6 0.120222 0.549140 0.312157
Si Si7 0.306851 0.098921 0.428765
Si Si8 0.156245 0.598282 0.799903
O O1 0.471476 0.280177 0.439455
O O2 0.472689 0.333788 0.161140
O O3 0.635769 0.046026 0.392944
O O4 0.000000 0.000000 0.000000
O O5 0.936068 0.123751 0.228545
O O6 0.855723 0.337444 0.156132
O O7 0.954414 0.314348 0.855397
O O8 0.388576 0.003974 0.826206
O O9 0.773799 0.885408 0.609753
O O10 0.035774 0.585191 0.756669
O O11 0.049602 0.735895 0.658092
O O12 0.500000 0.000000 0.000000
O O13 0.550875 0.192742 0.656974
O O14 0.096253 0.354542 0.925043
O O15 0.518314 0.633654 0.344127
O O16 0.000000 0.000000 0.500000
O O17 0.000000 0.500000 0.500000
O O18 0.952890 0.683313 0.463703
#
# Coordination Sequence:
#
# PCOD9055228 Si02
#       8
#     2   2   2   2   2   2   2   2
#     4  12  28  47  76 112 150 203 266 322 381 456
#     4  12  26  45  75 110 155 197 258 312 396 459
#     4  11  21  40  75 108 141 191 259 311 369 453
#     4  11  24  48  72 109 153 204 254 316 387 462
#     4  11  28  43  71 114 154 192 250 321 389 458
#     4  12  27  51  76 108 155 207 257 326 385 458
#     4  12  26  46  78 112 148 203 263 311 392 468
#     4  11  24  46  72 104 147 200 253 307 389 465
#
# _framework density 23.948194999999998
#
# number of rings (size 3 to 8) (size 9 to 14) (size 15 to 20)
#    0.000    0.500    5.000    2.250    5.250    4.500 
#    0.000    0.000    0.000    0.000    0.000    0.000 
#    0.000    0.000    0.000    0.000    0.000    0.000 
#
# Total GULP energy -89386.567467 kJ/mol
# GULP energy per Si atom -5586.660467 kJ/mol
# Density = 2.389369 g / cm^3
# Si number density = 23.948195 Si / 1000 Ang^3
#
#
#
# Elastic Constant Matrix: (Units=GPa)
#
#
# Indices 1 2 3 4 5 6 
#
# 1 98.0788 36.7508 37.9625 10.5088 7.6073 -12.4960
# 2 36.7508 101.6371 25.8656 21.7725 16.0170 -30.6752
# 3 37.9625 25.8656 119.0745 10.7720 -12.2028 -8.2376
# 4 10.5088 21.7725 10.7720 40.2369 -6.0531 0.2861
# 5 7.6073 16.0170 -12.2028 -6.0531 33.4816 1.3275
# 6 -12.4960 -30.6752 -8.2376 0.2861 1.3275 54.8853
#
#
#
# Elastic Compliance Matrix: (Units=1/GPa)
#
#
# Indices 1 2 3 4 5 6 
#
# 1 0.013210 -0.002615 -0.003783 -0.001549 -0.003452 0.001070
# 2 -0.002615 0.018399 -0.002737 -0.010332 -0.011454 0.009608
# 3 -0.003783 -0.002737 0.010722 0.000540 0.006211 -0.000935
# 4 -0.001549 -0.010332 0.000540 0.032498 0.011624 -0.006496
# 5 -0.003452 -0.011454 0.006211 0.011624 0.040786 -0.007302
# 6 0.001070 0.009608 -0.000935 -0.006496 -0.007302 0.023903
#
#
# Mechanical properties :
#
#
# Convention : Reuss Voigt Hill
#
# Bulk Modulus (GPa) = 41.56332 57.77204 49.66768
# Shear Modulus (GPa) = 30.15505 40.26820 35.21162
#
# Velocity S-wave (km/s) = 3.55234 4.10502 3.83864
# Velocity P-wave (km/s) = 5.84967 6.82967 6.35858
#
# Compressibility (1/GPa) = 0.02405968
#
# Stress axis : x y z
#
# Youngs Moduli (GPa) = 75.69968 54.35006 93.26759
#
# Poissons Ratio (x) = 0.14214 0.35284
# Poissons Ratio (y) = 0.19797 0.25532
# Poissons Ratio (z) = 0.28638 0.14878
#
# Static dielectric constant tensor:
#      x y z
#    x 1.958600 0.021080 -0.028160 
#    y 0.021080 2.007600 -0.092620 
#    z -0.028160 -0.092620 2.015260 
# 
# From -- ./inp_files/467091.got.cif
#   From: 2010.05.17/outbox.cif.g08.bks.cpg/sg2_234_cif.got.tgz:467091.got - 2010.06.03 11:33:40.
