data_PCOD9055120
_publ_section_title
;
Structure prediction by ZEFSAII (Michael W. Deem and Ramdas Pophale) SiO2 
 PCOD9055120
Probable space group: P -1
;
_chemical_formula_sum "Si O2"
_cell_formula_units_Z 16
_cell_length_a 27.194698
_cell_length_b 8.987746
_cell_length_c 11.946296
_cell_angle_alpha 129.774050
_cell_angle_beta 160.036712
_cell_angle_gamma 48.848932
_cell_volume 748.078002
_symmetry_space_group_name_H-M "P -1"
_symmetry_group_IT_number 2
_symmetry_cell_setting 'triclinic'
loop_
_space_group_symop_operation_xyz
x,y,z
-x,-y,-z
loop_
_atom_site_type_symbol
_atom_site_label
_atom_site_fract_x
_atom_site_fract_y
_atom_site_fract_z
Si Si1 0.667276 0.236442 0.656034
Si Si2 0.403409 0.815118 0.872377
Si Si3 0.735151 0.772091 0.547700
Si Si4 0.773125 0.524419 0.716374
Si Si5 0.608666 0.466698 0.871158
Si Si6 0.952987 0.363674 0.237109
Si Si7 0.789508 0.791140 0.429484
Si Si8 0.527037 0.176979 0.721123
O O1 0.617780 0.330449 0.715473
O O2 0.543787 0.366406 0.373427
O O3 0.683791 0.001959 0.583411
O O4 0.822840 0.274406 0.967206
O O5 0.294026 0.666558 0.549207
O O6 0.340008 0.013816 0.763540
O O7 0.573700 0.717507 0.157292
O O8 0.408265 0.875943 0.042649
O O9 0.817974 0.626816 0.749839
O O10 0.828226 0.769866 0.632808
O O11 0.633663 0.685630 0.539188
O O12 0.889370 0.481051 0.044509
O O13 0.620721 0.314688 0.925338
O O14 0.732295 0.593227 0.185063
O O15 0.000000 0.500000 0.500000
O O16 0.087024 0.199694 0.393866
O O17 0.500000 0.000000 0.500000
#
# Coordination Sequence:
#
# PCOD9055120 Si02
#       8
#     2   2   2   2   2   2   2   2
#     4  11  23  41  68  95 134 173 225 279 330 395
#     4  11  23  42  68 108 139 172 224 286 338 397
#     4  11  23  42  69 106 130 171 230 283 334 398
#     4  11  24  44  69  94 146 180 214 285 343 395
#     4  11  21  40  67  98 127 177 226 274 328 392
#     4  12  27  47  66  97 140 185 222 278 344 407
#     4  12  25  41  71  99 136 177 229 273 337 409
#     4  11  23  38  70 105 137 171 225 282 342 394
#
# _framework density 21.388145000000002
#
# number of rings (size 3 to 8) (size 9 to 14) (size 15 to 20)
#    0.000    0.750    3.750    5.625    3.500    2.500 
#    0.000    1.875    0.000    0.000    0.000    0.000 
#    0.000    0.000    0.000    0.000    0.000    0.000 
#
# Total GULP energy -89447.155264 kJ/mol
# GULP energy per Si atom -5590.447204 kJ/mol
# Density = 2.133946 g / cm^3
# Si number density = 21.388145 Si / 1000 Ang^3
#
#
#
# Elastic Constant Matrix: (Units=GPa)
#
#
# Indices 1 2 3 4 5 6 
#
# 1 101.7299 26.4599 26.9584 7.8935 -9.5734 8.3855
# 2 26.4599 83.5142 24.2655 25.0368 -21.0290 5.5669
# 3 26.9584 24.2655 71.8451 9.3405 -10.5468 2.1226
# 4 7.8935 25.0368 9.3405 29.9776 -3.9546 -3.2732
# 5 -9.5734 -21.0290 -10.5468 -3.9546 42.7863 0.8050
# 6 8.3855 5.5669 2.1226 -3.2732 0.8050 41.9226
#
#
#
# Elastic Compliance Matrix: (Units=1/GPa)
#
#
# Indices 1 2 3 4 5 6 
#
# 1 0.011560 -0.002361 -0.003377 -0.000141 0.000616 -0.001851
# 2 -0.002361 0.019967 -0.002791 -0.014582 0.007312 -0.003317
# 3 -0.003377 -0.002791 0.016616 -0.001715 0.001809 0.000036
# 4 -0.000141 -0.014582 -0.001715 0.046279 -0.003452 0.005731
# 5 0.000616 0.007312 0.001809 -0.003452 0.027268 -0.001979
# 6 -0.001851 -0.003317 0.000036 0.005731 -0.001979 0.025148
#
#
# Mechanical properties :
#
#
# Convention : Reuss Voigt Hill
#
# Bulk Modulus (GPa) = 32.16884 45.82854 38.99869
# Shear Modulus (GPa) = 28.69332 34.89765 31.79549
#
# Velocity S-wave (km/s) = 3.66669 4.04373 3.85982
# Velocity P-wave (km/s) = 5.74451 6.57845 6.17557
#
# Compressibility (1/GPa) = 0.03108598
#
# Stress axis : x y z
#
# Youngs Moduli (GPa) = 86.50261 50.08337 60.18288
#
# Poissons Ratio (x) = 0.11824 0.20324
# Poissons Ratio (y) = 0.20422 0.16795
# Poissons Ratio (z) = 0.29212 0.13977
#
# Static dielectric constant tensor:
#      x y z
#    x 1.817760 0.001320 0.000470 
#    y 0.001320 1.751340 0.002340 
#    z 0.000470 0.002340 1.809230 
# 
# From -- ./inp_files/243705.got.cif
#   From: 2010.05.17/outbox.cif.g08.bks.cpg/sg2_122_cif.got.tgz:243705.got - 2010.06.03 11:33:40.
