data_PCOD9055707
_publ_section_title
;
Structure prediction by ZEFSAII (Michael W. Deem and Ramdas Pophale) SiO2 
 PCOD9055707
Probable space group: P -1
;
_chemical_formula_sum "Si O2"
_cell_formula_units_Z 16
_cell_length_a 16.988664
_cell_length_b 8.893278
_cell_length_c 19.647035
_cell_angle_alpha 45.792120
_cell_angle_beta 20.976689
_cell_angle_gamma 55.239311
_cell_volume 722.869401
_symmetry_space_group_name_H-M "P -1"
_symmetry_group_IT_number 2
_symmetry_cell_setting 'triclinic'
loop_
_space_group_symop_operation_xyz
x,y,z
-x,-y,-z
loop_
_atom_site_type_symbol
_atom_site_label
_atom_site_fract_x
_atom_site_fract_y
_atom_site_fract_z
Si Si1 0.019787 0.798598 0.335177
Si Si2 0.993568 0.603361 0.861832
Si Si3 0.658081 0.507518 0.804717
Si Si4 0.281242 0.543278 0.007164
Si Si5 0.482664 0.926734 0.354741
Si Si6 0.636306 0.762869 0.140372
Si Si7 0.807542 0.764877 0.233014
Si Si8 0.175123 0.434950 0.570203
O O1 0.188735 0.651338 0.258669
O O2 0.840191 0.744393 0.560423
O O3 0.868331 0.707228 0.418210
O O4 0.195043 0.035613 0.101488
O O5 0.206877 0.829193 0.614790
O O6 0.110450 0.409724 0.822735
O O7 0.834515 0.559866 0.936567
O O8 0.803402 0.612343 0.068411
O O9 0.470522 0.444159 0.915590
O O10 0.500000 0.500000 0.000000
O O11 0.401717 0.808904 0.817574
O O12 0.062330 0.507651 0.245404
O O13 0.557441 0.849833 0.246250
O O14 0.582698 0.805119 0.370780
O O15 0.407199 0.640563 0.321141
O O16 0.794461 0.691568 0.345259
O O17 0.000000 0.000000 0.000000
#
# Coordination Sequence:
#
# PCOD9055707 Si02
#       8
#     2   2   2   2   2   2   2   2
#     4  11  24  44  68 100 135 173 216 278 338 393
#     4  11  25  40  66  96 131 180 219 275 326 396
#     4  11  22  42  75  98 128 172 223 272 334 408
#     4  11  21  44  68  95 134 180 217 272 339 389
#     4  12  22  43  69  94 139 179 225 276 326 385
#     4  12  24  42  67 100 136 177 223 273 334 390
#     4  11  21  43  67  95 134 182 224 271 329 384
#     4  11  22  42  68  92 141 177 213 281 327 387
#
# _framework density 22.134012999999999
#
# number of rings (size 3 to 8) (size 9 to 14) (size 15 to 20)
#    0.000    0.750    7.500    1.875    0.000    0.500 
#    0.000    8.125    0.000    0.000    0.000    0.000 
#    0.000    0.000    0.000    0.000    0.000    0.000 
#
# Total GULP energy -89404.703738 kJ/mol
# GULP energy per Si atom -5587.793984 kJ/mol
# Density = 2.208363 g / cm^3
# Si number density = 22.134013 Si / 1000 Ang^3
#
#
#
# Elastic Constant Matrix: (Units=GPa)
#
#
# Indices 1 2 3 4 5 6 
#
# 1 97.3749 37.4765 51.1319 -5.0017 -23.4200 -5.4849
# 2 37.4765 57.7012 41.7184 -1.0035 -10.4521 -1.9661
# 3 51.1319 41.7184 181.5528 -5.3450 -17.9170 4.4386
# 4 -5.0017 -1.0035 -5.3450 39.7275 7.2500 -5.4025
# 5 -23.4200 -10.4521 -17.9170 7.2500 40.1499 3.0024
# 6 -5.4849 -1.9661 4.4386 -5.4025 3.0024 30.2828
#
#
#
# Elastic Compliance Matrix: (Units=1/GPa)
#
#
# Indices 1 2 3 4 5 6 
#
# 1 0.015964 -0.007602 -0.002185 0.000724 0.006059 0.002246
# 2 -0.007602 0.024963 -0.003577 -0.000837 0.000577 0.000562
# 3 -0.002185 -0.003577 0.007098 0.000158 0.001064 -0.001746
# 4 0.000724 -0.000837 0.000158 0.026899 -0.004982 0.005346
# 5 0.006059 0.000577 0.001064 -0.004982 0.030183 -0.002902
# 6 0.002246 0.000562 -0.001746 0.005346 -0.002902 0.034963
#
#
# Mechanical properties :
#
#
# Convention : Reuss Voigt Hill
#
# Bulk Modulus (GPa) = 46.95360 66.36474 56.65917
# Shear Modulus (GPa) = 28.75310 35.78553 32.26931
#
# Velocity S-wave (km/s) = 3.60814 4.02527 3.82240
# Velocity P-wave (km/s) = 6.21431 7.18693 6.71824
#
# Compressibility (1/GPa) = 0.02129762
#
# Stress axis : x y z
#
# Youngs Moduli (GPa) = 62.64267 40.05911 140.89446
#
# Poissons Ratio (x) = 0.30453 0.30782
# Poissons Ratio (y) = 0.47620 0.50392
# Poissons Ratio (z) = 0.13686 0.14328
#
# Static dielectric constant tensor:
#      x y z
#    x 1.857770 -0.023300 0.047020 
#    y -0.023300 1.889920 0.016490 
#    z 0.047020 0.016490 1.831510 
# 
# From -- ./inp_files/599442.got.cif
#   From: 2010.05.17/outbox.cif.g08.bks.cpg/sg2_300_cif.got.tgz:599442.got - 2010.06.03 11:33:40.
