data_PCOD9055928
_publ_section_title
;
Structure prediction by ZEFSAII (Michael W. Deem and Ramdas Pophale) SiO2 
 PCOD9055928
Probable space group: P -1
;
_chemical_formula_sum "Si O2"
_cell_formula_units_Z 16
_cell_length_a 10.035425
_cell_length_b 20.147750
_cell_length_c 12.035281
_cell_angle_alpha 149.954556
_cell_angle_beta 130.881265
_cell_angle_gamma 39.749523
_cell_volume 778.611719
_symmetry_space_group_name_H-M "P -1"
_symmetry_group_IT_number 2
_symmetry_cell_setting 'triclinic'
loop_
_space_group_symop_operation_xyz
x,y,z
-x,-y,-z
loop_
_atom_site_type_symbol
_atom_site_label
_atom_site_fract_x
_atom_site_fract_y
_atom_site_fract_z
Si Si1 0.447597 0.432457 0.978019
Si Si2 0.757489 0.715320 0.708803
Si Si3 0.983451 0.633272 0.103020
Si Si4 0.256073 0.079512 0.450513
Si Si5 0.394365 0.175990 0.983880
Si Si6 0.808955 0.382952 0.263087
Si Si7 0.794966 0.138876 0.032740
Si Si8 0.601826 0.827797 0.536544
O O1 0.463129 0.275136 0.716701
O O2 0.500000 0.500000 0.000000
O O3 0.213634 0.557229 0.070504
O O4 0.611649 0.407508 0.124553
O O5 0.612870 0.822572 0.884945
O O6 0.788075 0.547812 0.511205
O O7 0.680875 0.757433 0.600583
O O8 0.974618 0.708923 0.820281
O O9 0.894732 0.790531 0.355874
O O10 0.000000 0.500000 0.000000
O O11 0.815212 0.684860 0.986629
O O12 0.232715 0.165689 0.444583
O O13 0.500000 0.000000 0.500000
O O14 0.221463 0.939180 0.203739
O O15 0.589709 0.181859 0.052715
O O16 0.428780 0.010460 0.724477
O O17 0.818199 0.284083 0.230901
O O18 0.000000 0.000000 0.000000
#
# Coordination Sequence:
#
# PCOD9055928 Si02
#       8
#     2   2   2   2   2   2   2   2
#     4  12  24  43  67 104 138 171 232 280 338 398
#     4  11  25  45  70  95 139 189 224 267 357 416
#     4  12  24  40  71 103 130 182 227 279 338 405
#     4  11  21  44  71  98 136 178 225 282 341 397
#     4  11  25  44  70 101 136 181 231 275 344 413
#     4  11  24  43  67  99 137 180 219 292 338 396
#     4  11  24  42  69 101 135 175 225 286 340 394
#     4  11  22  44  73  95 137 181 219 282 341 408
#
# _framework density 20.549395000000001
#
# number of rings (size 3 to 8) (size 9 to 14) (size 15 to 20)
#    0.000    0.750    5.000    4.125    1.750    2.500 
#    2.250    1.250    0.000    0.000    0.000    0.000 
#    0.000    0.000    0.000    0.000    0.000    0.000 
#
# Total GULP energy -89364.287888 kJ/mol
# GULP energy per Si atom -5585.267993 kJ/mol
# Density = 2.050262 g / cm^3
# Si number density = 20.549395 Si / 1000 Ang^3
#
#
#
# Elastic Constant Matrix: (Units=GPa)
#
#
# Indices 1 2 3 4 5 6 
#
# 1 140.3124 61.3010 48.0952 10.2826 -6.8586 -12.4218
# 2 61.3010 138.5504 22.2861 -9.5242 5.4095 -10.4932
# 3 48.0952 22.2861 81.0682 4.1861 -7.5051 -14.0082
# 4 10.2826 -9.5242 4.1861 27.8329 5.2194 4.9134
# 5 -6.8586 5.4095 -7.5051 5.2194 39.2718 -1.2580
# 6 -12.4218 -10.4932 -14.0082 4.9134 -1.2580 35.8061
#
#
#
# Elastic Compliance Matrix: (Units=1/GPa)
#
#
# Indices 1 2 3 4 5 6 
#
# 1 0.011510 -0.004721 -0.004691 -0.005948 0.002608 0.001682
# 2 -0.004721 0.009909 -0.000468 0.005742 -0.003036 0.000188
# 3 -0.004691 -0.000468 0.016521 -0.002356 0.002880 0.005123
# 4 -0.005948 0.005742 -0.002356 0.043329 -0.008280 -0.007539
# 5 0.002608 -0.003036 0.002880 -0.008280 0.028093 0.003265
# 6 0.001682 0.000188 0.005123 -0.007539 0.003265 0.031721
#
#
# Mechanical properties :
#
#
# Convention : Reuss Voigt Hill
#
# Bulk Modulus (GPa) = 55.01008 69.25506 62.13257
# Shear Modulus (GPa) = 29.95747 35.79872 32.87809
#
# Velocity S-wave (km/s) = 3.82229 4.17835 4.00428
# Velocity P-wave (km/s) = 6.80498 7.55335 7.18891
#
# Compressibility (1/GPa) = 0.01817849
#
# Stress axis : x y z
#
# Youngs Moduli (GPa) = 86.88081 100.91526 60.53011
#
# Poissons Ratio (x) = 0.47645 0.28397
# Poissons Ratio (y) = 0.41019 0.02834
# Poissons Ratio (z) = 0.40759 0.04724
#
# Static dielectric constant tensor:
#      x y z
#    x 1.718540 0.008880 0.020540 
#    y 0.008880 1.685330 0.093010 
#    z 0.020540 0.093010 1.609970 
# 
# From -- ./inp_files/405726.got.cif
#   From: 2010.05.17/outbox.cif.g08.bks.cpg/sg2_203_cif.got.tgz:405726.got - 2010.06.03 11:33:40.
