data_PCOD9055608
_publ_section_title
;
Structure prediction by ZEFSAII (Michael W. Deem and Ramdas Pophale) SiO2 
 PCOD9055608
Probable space group: P -1
;
_chemical_formula_sum "Si O2"
_cell_formula_units_Z 14
_cell_length_a 16.575983
_cell_length_b 15.506921
_cell_length_c 7.734656
_cell_angle_alpha 124.398532
_cell_angle_beta 111.686486
_cell_angle_gamma 23.918166
_cell_volume 597.537874
_symmetry_space_group_name_H-M "P -1"
_symmetry_group_IT_number 2
_symmetry_cell_setting 'triclinic'
loop_
_space_group_symop_operation_xyz
x,y,z
-x,-y,-z
loop_
_atom_site_type_symbol
_atom_site_label
_atom_site_fract_x
_atom_site_fract_y
_atom_site_fract_z
Si Si1 0.762367 0.214046 0.344027
Si Si2 0.780970 0.681503 0.598996
Si Si3 0.688500 0.360478 0.076638
Si Si4 0.517565 0.773334 0.531315
Si Si5 0.007370 0.377048 0.788072
Si Si6 0.156211 0.710433 0.218688
Si Si7 0.418301 0.258162 0.043301
O O1 0.500000 0.500000 0.500000
O O2 0.781866 0.196756 0.132019
O O3 0.831786 0.242107 0.536791
O O4 0.896285 0.970946 0.270173
O O5 0.653184 0.717057 0.476002
O O6 0.000000 0.500000 0.500000
O O7 0.877622 0.531376 0.683052
O O8 0.587540 0.981636 0.806932
O O9 0.612597 0.556015 0.313676
O O10 0.500000 0.500000 0.000000
O O11 0.829041 0.233192 0.875348
O O12 0.528886 0.776302 0.753215
O O13 0.258664 0.065992 0.611952
O O14 0.841239 0.488384 0.889981
O O15 0.000000 0.500000 0.000000
O O16 0.389119 0.389053 0.043539
#
# Coordination Sequence:
#
# PCOD9055608 Si02
#       7
#     2   2   2   2   2   2   2
#     4  11  24  49  72  99 143 188 243 302 363 426
#     4  11  25  44  68 107 149 184 241 299 360 440
#     4  12  26  48  74 106 146 191 245 305 360 430
#     4  11  24  46  71 102 147 192 243 300 359 437
#     4  11  21  42  71  96 138 196 234 287 365 432
#     4  11  26  44  73 105 140 191 238 302 369 424
#     4  11  23  44  70 105 142 191 245 290 366 445
#
# _framework density 23.429476999999999
#
# number of rings (size 3 to 8) (size 9 to 14) (size 15 to 20)
#    0.000    0.857    5.714    1.286    4.000    1.714 
#    7.714    0.000    0.000    0.000    0.000    0.000 
#    0.000    0.000    0.000    0.000    0.000    0.000 
#
# Total GULP energy -77996.943542 kJ/mol
# GULP energy per Si atom -5571.210253 kJ/mol
# Density = 2.337615 g / cm^3
# Si number density = 23.429477 Si / 1000 Ang^3
#
#
#
# Elastic Constant Matrix: (Units=GPa)
#
#
# Indices 1 2 3 4 5 6 
#
# 1 32.9232 31.7552 15.9131 6.4321 3.1602 12.7508
# 2 31.7552 167.5707 27.6233 16.7741 9.3730 20.1021
# 3 15.9131 27.6233 62.5112 4.9383 16.0598 0.9264
# 4 6.4321 16.7741 4.9383 46.2347 6.9274 0.3889
# 5 3.1602 9.3730 16.0598 6.9274 36.6361 0.0606
# 6 12.7508 20.1021 0.9264 0.3889 0.0606 40.5901
#
#
#
# Elastic Compliance Matrix: (Units=1/GPa)
#
#
# Indices 1 2 3 4 5 6 
#
# 1 0.044814 -0.005418 -0.009138 -0.003530 0.002212 -0.011155
# 2 -0.005418 0.007735 -0.001765 -0.001787 -0.000396 -0.002071
# 3 -0.009138 -0.001765 0.021086 0.000856 -0.008171 0.003267
# 4 -0.003530 -0.001787 0.000856 0.023264 -0.004015 0.001758
# 5 0.002212 -0.000396 -0.008171 -0.004015 0.031548 -0.000321
# 6 -0.011155 -0.002071 0.003267 0.001758 -0.000321 0.029075
#
#
# Mechanical properties :
#
#
# Convention : Reuss Voigt Hill
#
# Bulk Modulus (GPa) = 24.39437 45.95427 35.17432
# Shear Modulus (GPa) = 24.53041 37.20640 30.86841
#
# Velocity S-wave (km/s) = 3.23923 3.98932 3.63368
# Velocity P-wave (km/s) = 4.94212 6.39343 5.71404
#
# Compressibility (1/GPa) = 0.04099306
#
# Stress axis : x y z
#
# Youngs Moduli (GPa) = 22.31439 129.28561 47.42392
#
# Poissons Ratio (x) = 0.70050 0.43336
# Poissons Ratio (y) = 0.12090 0.08370
# Poissons Ratio (z) = 0.20391 0.22818
#
# Static dielectric constant tensor:
#      x y z
#    x 1.557580 -0.017350 -0.100080 
#    y -0.017350 2.104120 0.367600 
#    z -0.100080 0.367600 2.253190 
# 
# From -- ./inp_files/336598.got.cif
#   From: 2010.05.17/outbox.cif.g08.bks.cpg/sg2_169_cif.got.tgz:336598.got - 2010.06.03 11:33:40.
