data_PCOD9055477
_publ_section_title
;
Structure prediction by ZEFSAII (Michael W. Deem and Ramdas Pophale) SiO2 
 PCOD9055477
Probable space group: P -1
;
_chemical_formula_sum "Si O2"
_cell_formula_units_Z 16
_cell_length_a 8.908107
_cell_length_b 12.164989
_cell_length_c 9.960832
_cell_angle_alpha 82.365995
_cell_angle_beta 127.909649
_cell_angle_gamma 89.328586
_cell_volume 838.063021
_symmetry_space_group_name_H-M "P -1"
_symmetry_group_IT_number 2
_symmetry_cell_setting 'triclinic'
loop_
_space_group_symop_operation_xyz
x,y,z
-x,-y,-z
loop_
_atom_site_type_symbol
_atom_site_label
_atom_site_fract_x
_atom_site_fract_y
_atom_site_fract_z
Si Si1 0.920267 0.409144 0.065872
Si Si2 0.720046 0.764038 0.748626
Si Si3 0.393756 0.735394 0.762681
Si Si4 0.180433 0.990048 0.198115
Si Si5 0.490069 0.661293 0.124880
Si Si6 0.812600 0.025971 0.481561
Si Si7 0.838047 0.466738 0.317185
Si Si8 0.549377 0.827351 0.364028
O O1 0.919523 0.446600 0.214934
O O2 0.067053 0.297475 0.143034
O O3 0.702128 0.387096 0.921529
O O4 0.000000 0.500000 0.000000
O O5 0.593786 0.708737 0.797873
O O6 0.730394 0.892571 0.773620
O O7 0.612629 0.764683 0.547034
O O8 0.302608 0.857399 0.646475
O O9 0.246913 0.646050 0.666256
O O10 0.432506 0.725984 0.944336
O O11 0.136165 0.969809 0.333301
O O12 0.336579 0.890417 0.252815
O O13 0.000000 0.000000 0.000000
O O14 0.657131 0.562281 0.200753
O O15 0.560567 0.743431 0.260302
O O16 0.685355 0.924850 0.408718
O O17 0.000000 0.000000 0.500000
O O18 0.000000 0.500000 0.500000
#
# Coordination Sequence:
#
# PCOD9055477 Si02
#       8
#     2   2   2   2   2   2   2   2
#     4  11  23  42  67  92 124 166 218 261 318 373
#     4  11  21  42  66  90 127 170 205 264 316 373
#     4  11  23  44  65  91 133 164 213 267 315 372
#     4  11  23  42  63  95 132 166 212 255 313 382
#     4  11  25  41  66  96 129 167 212 264 316 375
#     4  11  25  41  66  95 128 172 209 261 321 372
#     4  11  25  44  64  94 128 168 212 265 317 373
#     4  11  23  43  63  95 130 167 212 254 317 382
#
# _framework density 19.091645
#
# number of rings (size 3 to 8) (size 9 to 14) (size 15 to 20)
#    0.000    1.000    2.500    5.250   10.500    2.500 
#    2.250    2.500    0.000    0.000    0.000    0.000 
#    0.000    0.000    0.000    0.000    0.000    0.000 
#
# Total GULP energy -89466.019449 kJ/mol
# GULP energy per Si atom -5591.626216 kJ/mol
# Density = 1.904819 g / cm^3
# Si number density = 19.091645 Si / 1000 Ang^3
#
#
#
# Elastic Constant Matrix: (Units=GPa)
#
#
# Indices 1 2 3 4 5 6 
#
# 1 129.0679 24.2433 23.2356 -3.7797 -6.4735 4.0354
# 2 24.2433 67.1268 21.0062 5.0479 -20.5495 0.5218
# 3 23.2356 21.0062 78.3020 10.2654 -0.9883 21.3199
# 4 -3.7797 5.0479 10.2654 34.7991 -6.1535 3.4160
# 5 -6.4735 -20.5495 -0.9883 -6.1535 27.2177 -11.1621
# 6 4.0354 0.5218 21.3199 3.4160 -11.1621 31.0432
#
#
#
# Elastic Compliance Matrix: (Units=1/GPa)
#
#
# Indices 1 2 3 4 5 6 
#
# 1 0.008697 -0.002193 -0.002464 0.002112 0.001115 0.000767
# 2 -0.002193 0.027205 -0.011243 0.002252 0.027112 0.017050
# 3 -0.002464 -0.011243 0.022893 -0.006569 -0.018381 -0.021099
# 4 0.002112 0.002252 -0.006569 0.032087 0.011135 0.004672
# 5 0.001115 0.027112 -0.018381 0.011135 0.074781 0.037687
# 6 0.000767 0.017050 -0.021099 0.004672 0.037687 0.059354
#
#
# Mechanical properties :
#
#
# Convention : Reuss Voigt Hill
#
# Bulk Modulus (GPa) = 37.04481 45.71852 41.38166
# Shear Modulus (GPa) = 18.80996 32.34611 25.57804
#
# Velocity S-wave (km/s) = 3.14227 4.12060 3.66423
# Velocity P-wave (km/s) = 5.71060 6.82920 6.29480
#
# Compressibility (1/GPa) = 0.02699434
#
# Stress axis : x y z
#
# Youngs Moduli (GPa) = 114.97930 36.75734 43.68235
#
# Poissons Ratio (x) = 0.08062 0.10764
# Poissons Ratio (y) = 0.25219 0.49112
# Poissons Ratio (z) = 0.28331 0.41326
#
# Static dielectric constant tensor:
#      x y z
#    x 1.657630 -0.001010 0.008800 
#    y -0.001010 1.647710 -0.013520 
#    z 0.008800 -0.013520 1.644820 
# 
# From -- ./inp_files/187036.got.cif
#   From: 2010.05.17/outbox.cif.g08.bks.cpg/sg2_94_cif.got.tgz:187036.got - 2010.06.03 11:33:40.
