data_PCOD9055857
_publ_section_title
;
Structure prediction by ZEFSAII (Michael W. Deem and Ramdas Pophale) SiO2 
 PCOD9055857
Probable space group: P -1
;
_chemical_formula_sum "Si O2"
_cell_formula_units_Z 16
_cell_length_a 13.868892
_cell_length_b 11.563524
_cell_length_c 8.566920
_cell_angle_alpha 101.405125
_cell_angle_beta 145.736682
_cell_angle_gamma 60.647976
_cell_volume 611.053274
_symmetry_space_group_name_H-M "P -1"
_symmetry_group_IT_number 2
_symmetry_cell_setting 'triclinic'
loop_
_space_group_symop_operation_xyz
x,y,z
-x,-y,-z
loop_
_atom_site_type_symbol
_atom_site_label
_atom_site_fract_x
_atom_site_fract_y
_atom_site_fract_z
Si Si1 0.143066 0.352789 0.937890
Si Si2 0.290600 0.025684 0.036766
Si Si3 0.219254 0.936401 0.595872
Si Si4 0.303208 0.345432 0.822723
Si Si5 0.214222 0.162679 0.438072
Si Si6 0.329151 0.475738 0.608329
Si Si7 0.153510 0.753035 0.255668
Si Si8 0.419411 0.770184 0.345321
O O1 0.169997 0.400600 0.816820
O O2 0.912126 0.472741 0.728510
O O3 0.344564 0.311549 0.293699
O O4 0.170455 0.199605 0.918162
O O5 0.539453 0.952643 0.310275
O O6 0.323785 0.933813 0.211317
O O7 0.207475 0.977750 0.771009
O O8 0.097859 0.875452 0.342078
O O9 0.160843 0.075008 0.455250
O O10 0.465503 0.800614 0.861688
O O11 0.212018 0.283483 0.566547
O O12 0.335184 0.454178 0.798127
O O13 0.047276 0.228179 0.090243
O O14 0.310900 0.602223 0.518744
O O15 0.529914 0.323418 0.768909
O O16 0.277405 0.764276 0.281751
#
# Coordination Sequence:
#
# PCOD9055857 Si02
#       8
#     2   2   2   2   2   2   2   2
#     4  12  24  45  76 114 136 188 249 301 355 430
#     4  11  22  46  79 108 139 187 244 305 356 423
#     4  11  21  46  76 105 147 183 237 301 367 418
#     4  11  22  47  76 105 139 190 242 296 352 428
#     4  11  21  43  80 103 143 180 242 303 359 412
#     4  12  28  47  70 106 151 195 240 294 355 436
#     4  12  28  45  69 109 149 197 235 292 364 433
#     4  12  25  47  72 103 150 194 241 296 361 426
#
# _framework density 26.184294999999999
#
# number of rings (size 3 to 8) (size 9 to 14) (size 15 to 20)
#    0.000    0.500    6.250    3.375    1.750    2.500 
#    2.250    1.250    0.000    0.000    0.000    0.000 
#    0.000    0.000    0.000    0.000    0.000    0.000 
#
# Total GULP energy -89670.501497 kJ/mol
# GULP energy per Si atom -5604.406344 kJ/mol
# Density = 2.612470 g / cm^3
# Si number density = 26.184295 Si / 1000 Ang^3
#
#
#
# Elastic Constant Matrix: (Units=GPa)
#
#
# Indices 1 2 3 4 5 6 
#
# 1 148.2285 28.0344 8.3361 -8.1245 -24.9072 15.8388
# 2 28.0344 77.4672 16.2773 -21.4435 -18.4335 12.1611
# 3 8.3361 16.2773 143.1086 1.5017 -18.0576 -2.4595
# 4 -8.1245 -21.4435 1.5017 41.1992 5.4757 -10.7406
# 5 -24.9072 -18.4335 -18.0576 5.4757 37.2603 -17.5597
# 6 15.8388 12.1611 -2.4595 -10.7406 -17.5597 56.9539
#
#
#
# Elastic Compliance Matrix: (Units=1/GPa)
#
#
# Indices 1 2 3 4 5 6 
#
# 1 0.007839 -0.001839 0.000282 -0.000113 0.004255 -0.000485
# 2 -0.001839 0.017377 -0.001250 0.007979 0.005575 -0.000029
# 3 0.000282 -0.001250 0.007683 -0.001010 0.004209 0.001627
# 4 -0.000113 0.007979 -0.001010 0.029383 0.001014 0.004138
# 5 0.004255 0.005575 0.004209 0.001014 0.039065 0.010043
# 6 -0.000485 -0.000029 0.001627 0.004138 0.010043 0.021646
#
#
# Mechanical properties :
#
#
# Convention : Reuss Voigt Hill
#
# Bulk Modulus (GPa) = 36.64957 52.67776 44.66367
# Shear Modulus (GPa) = 36.31035 48.15979 42.23507
#
# Velocity S-wave (km/s) = 3.72791 4.29331 4.02056
# Velocity P-wave (km/s) = 5.70587 6.68868 6.21673
#
# Compressibility (1/GPa) = 0.02728545
#
# Stress axis : x y z
#
# Youngs Moduli (GPa) = 127.56970 57.54870 130.15527
#
# Poissons Ratio (x) = 0.10582 -0.03675
# Poissons Ratio (y) = 0.23458 0.16270
# Poissons Ratio (z) = -0.03602 0.07194
#
# Static dielectric constant tensor:
#      x y z
#    x 2.067020 0.002720 0.044160 
#    y 0.002720 2.004170 0.040980 
#    z 0.044160 0.040980 2.080690 
# 
# From -- ./inp_files/307845.got.cif
#   From: 2010.05.17/outbox.cif.g08.bks.cpg/sg2_154_cif.got.tgz:307845.got - 2010.06.03 11:33:40.
