data_PCOD9055684
_publ_section_title
;
Structure prediction by ZEFSAII (Michael W. Deem and Ramdas Pophale) SiO2 
 PCOD9055684
Probable space group: P -1
;
_chemical_formula_sum "Si O2"
_cell_formula_units_Z 16
_cell_length_a 14.707275
_cell_length_b 8.631925
_cell_length_c 9.928305
_cell_angle_alpha 68.972488
_cell_angle_beta 60.801842
_cell_angle_gamma 41.267910
_cell_volume 725.647750
_symmetry_space_group_name_H-M "P -1"
_symmetry_group_IT_number 2
_symmetry_cell_setting 'triclinic'
loop_
_space_group_symop_operation_xyz
x,y,z
-x,-y,-z
loop_
_atom_site_type_symbol
_atom_site_label
_atom_site_fract_x
_atom_site_fract_y
_atom_site_fract_z
Si Si1 0.889573 0.471061 0.868481
Si Si2 0.111241 0.900997 0.134569
Si Si3 0.590136 0.359063 0.346213
Si Si4 0.602866 0.360368 0.837750
Si Si5 0.199277 0.590520 0.783498
Si Si6 0.208906 0.082298 0.799437
Si Si7 0.577430 0.879311 0.340766
Si Si8 0.392079 0.016627 0.168603
O O1 0.895582 0.275775 0.867014
O O2 0.769467 0.718302 0.804350
O O3 0.057443 0.344366 0.789841
O O4 0.839749 0.504859 0.048787
O O5 0.234838 0.764861 0.201546
O O6 0.950355 0.143120 0.222546
O O7 0.164084 0.979105 0.961303
O O8 0.500000 0.500000 0.500000
O O9 0.476071 0.450026 0.282399
O O10 0.686323 0.413298 0.227040
O O11 0.711989 0.078210 0.341351
O O12 0.611278 0.164211 0.834152
O O13 0.500000 0.500000 0.000000
O O14 0.293684 0.404318 0.654402
O O15 0.330348 0.061385 0.786621
O O16 0.500000 0.000000 0.500000
O O17 0.463789 0.950438 0.285585
O O18 0.500000 0.000000 0.000000
#
# Coordination Sequence:
#
# PCOD9055684 Si02
#       8
#     2   2   2   2   2   2   2   2
#     4  11  22  41  69 100 134 162 223 281 324 381
#     4  11  22  40  69 100 130 165 223 282 320 382
#     4  12  23  42  67  93 131 178 221 263 321 393
#     4  12  24  41  66 100 130 170 223 272 324 387
#     4  11  21  43  65  93 133 173 218 273 325 380
#     4  11  23  40  69  96 127 177 219 266 332 383
#     4  12  27  45  65  96 138 177 218 265 329 401
#     4  12  24  42  65  98 133 171 218 275 327 382
#
# _framework density 22.049265999999999
#
# number of rings (size 3 to 8) (size 9 to 14) (size 15 to 20)
#    0.000    0.500    6.250    3.000    3.500    1.000 
#    0.000    2.500    0.000    0.000    0.000    0.000 
#    0.000    0.000    0.000    0.000    0.000    0.000 
#
# Total GULP energy -89458.462671 kJ/mol
# GULP energy per Si atom -5591.153917 kJ/mol
# Density = 2.199908 g / cm^3
# Si number density = 22.049266 Si / 1000 Ang^3
#
#
#
# Elastic Constant Matrix: (Units=GPa)
#
#
# Indices 1 2 3 4 5 6 
#
# 1 108.5202 50.1409 31.5826 7.8152 14.7559 -18.9735
# 2 50.1409 168.5922 51.0837 40.2124 8.0042 -23.9740
# 3 31.5826 51.0837 95.7124 32.8640 21.0948 -16.3872
# 4 7.8152 40.2124 32.8640 33.9700 8.4721 0.8922
# 5 14.7559 8.0042 21.0948 8.4721 29.2485 -0.5702
# 6 -18.9735 -23.9740 -16.3872 0.8922 -0.5702 50.7404
#
#
#
# Elastic Compliance Matrix: (Units=1/GPa)
#
#
# Indices 1 2 3 4 5 6 
#
# 1 0.012207 -0.003557 -0.002405 0.004881 -0.004826 0.001967
# 2 -0.003557 0.010297 -0.000150 -0.011980 0.002627 0.003727
# 3 -0.002405 -0.000150 0.019720 -0.016477 -0.008086 0.005598
# 4 0.004881 -0.011980 -0.016477 0.059917 -0.004856 -0.010265
# 5 -0.004826 0.002627 -0.008086 -0.004856 0.043093 -0.002605
# 6 0.001967 0.003727 0.005598 -0.010265 -0.002605 0.024164
#
#
# Mechanical properties :
#
#
# Convention : Reuss Voigt Hill
#
# Bulk Modulus (GPa) = 33.33309 70.93768 52.13538
# Shear Modulus (GPa) = 26.09301 38.79296 32.44299
#
# Velocity S-wave (km/s) = 3.44378 4.19904 3.84003
# Velocity P-wave (km/s) = 5.56446 7.46669 6.58463
#
# Compressibility (1/GPa) = 0.03000022
#
# Stress axis : x y z
#
# Youngs Moduli (GPa) = 81.92056 97.11219 50.71050
#
# Poissons Ratio (x) = 0.34544 0.12196
# Poissons Ratio (y) = 0.29140 0.00760
# Poissons Ratio (z) = 0.19702 0.01455
#
# Static dielectric constant tensor:
#      x y z
#    x 1.831910 0.038050 -0.017130 
#    y 0.038050 1.866480 0.005220 
#    z -0.017130 0.005220 1.809460 
# 
# From -- ./inp_files/243699.got.cif
#   From: 2010.05.17/outbox.cif.g08.bks.cpg/sg2_122_cif.got.tgz:243699.got - 2010.06.03 11:33:40.
