data_PCOD9055770
_publ_section_title
;
Structure prediction by ZEFSAII (Michael W. Deem and Ramdas Pophale) SiO2 
 PCOD9055770
Probable space group: P -1
;
_chemical_formula_sum "Si O2"
_cell_formula_units_Z 16
_cell_length_a 8.373269
_cell_length_b 14.283544
_cell_length_c 13.887942
_cell_angle_alpha 34.287210
_cell_angle_beta 101.801062
_cell_angle_gamma 78.194223
_cell_volume 673.730689
_symmetry_space_group_name_H-M "P -1"
_symmetry_group_IT_number 2
_symmetry_cell_setting 'triclinic'
loop_
_space_group_symop_operation_xyz
x,y,z
-x,-y,-z
loop_
_atom_site_type_symbol
_atom_site_label
_atom_site_fract_x
_atom_site_fract_y
_atom_site_fract_z
Si Si1 0.709606 0.344670 0.584487
Si Si2 0.790539 0.500380 0.270102
Si Si3 0.097020 0.658797 0.010709
Si Si4 0.063981 0.558593 0.366107
Si Si5 0.942319 0.085747 0.533825
Si Si6 0.395636 0.153373 0.193900
Si Si7 0.560235 0.724810 0.474873
Si Si8 0.483938 0.341240 0.194458
O O1 0.500000 0.500000 0.500000
O O2 0.713410 0.462376 0.390543
O O3 0.910960 0.268976 0.741113
O O4 0.671526 0.194924 0.655540
O O5 0.948269 0.269048 0.421827
O O6 0.901290 0.598969 0.231609
O O7 0.602996 0.693599 0.011009
O O8 0.262016 0.517297 0.242287
O O9 0.243190 0.492943 0.080959
O O10 0.859384 0.730317 0.920387
O O11 0.066316 0.873624 0.799134
O O12 0.305416 0.327865 0.560104
O O13 0.000000 0.500000 0.500000
O O14 0.680910 0.223219 0.394553
O O15 0.000000 0.000000 0.500000
O O16 0.516035 0.151421 0.300786
O O17 0.524611 0.908817 0.377518
O O18 0.500000 0.500000 0.000000
#
# Coordination Sequence:
#
# PCOD9055770 Si02
#       8
#     2   2   2   2   2   2   2   2
#     4   9  20  42  70  97 134 176 224 285 342 414
#     4  11  21  43  70  99 141 177 229 284 344 407
#     4  12  25  45  68  98 142 184 232 286 339 406
#     4   9  20  42  73  96 135 177 223 288 340 411
#     4  12  26  44  71 103 139 187 236 280 342 413
#     4  12  26  42  69 103 138 183 233 282 345 410
#     4  11  24  43  71 100 137 179 225 283 352 407
#     4  12  25  44  65 100 139 185 230 282 337 402
#
# _framework density 23.748360999999999
#
# number of rings (size 3 to 8) (size 9 to 14) (size 15 to 20)
#    0.000    1.000    3.750    2.625    1.750    3.000 
#    0.000    6.250   11.000    0.000    0.000    0.000 
#    0.000    0.000    0.000    0.000    0.000    0.000 
#
# Total GULP energy -89225.332386 kJ/mol
# GULP energy per Si atom -5576.583274 kJ/mol
# Density = 2.369431 g / cm^3
# Si number density = 23.748361 Si / 1000 Ang^3
#
#
#
# Elastic Constant Matrix: (Units=GPa)
#
#
# Indices 1 2 3 4 5 6 
#
# 1 97.8199 41.3890 9.2663 4.8399 -0.2185 2.2895
# 2 41.3890 110.5180 31.7532 -1.9759 -11.5928 19.0628
# 3 9.2663 31.7532 90.2494 -11.4552 -10.3138 0.6966
# 4 4.8399 -1.9759 -11.4552 17.5630 1.8487 -5.8629
# 5 -0.2185 -11.5928 -10.3138 1.8487 25.0553 3.4234
# 6 2.2895 19.0628 0.6966 -5.8629 3.4234 56.8504
#
#
#
# Elastic Compliance Matrix: (Units=1/GPa)
#
#
# Indices 1 2 3 4 5 6 
#
# 1 0.012554 -0.005103 -0.000212 -0.003616 -0.002204 0.000968
# 2 -0.005103 0.013387 -0.003748 -0.001679 0.005377 -0.004734
# 3 -0.000212 -0.003748 0.013899 0.008992 0.003071 0.001837
# 4 -0.003616 -0.001679 0.008992 0.066482 -0.003056 0.007639
# 5 -0.002204 0.005377 0.003071 -0.003056 0.044519 -0.004748
# 6 0.000968 -0.004734 0.001837 0.007639 -0.004748 0.020190
#
#
# Mechanical properties :
#
#
# Convention : Reuss Voigt Hill
#
# Bulk Modulus (GPa) = 46.05501 51.48935 48.77218
# Shear Modulus (GPa) = 25.45899 34.30567 29.88233
#
# Velocity S-wave (km/s) = 3.27774 3.80485 3.55109
# Velocity P-wave (km/s) = 5.81032 6.40553 6.11517
#
# Compressibility (1/GPa) = 0.02171316
#
# Stress axis : x y z
#
# Youngs Moduli (GPa) = 79.65858 74.69920 71.94767
#
# Poissons Ratio (x) = 0.38121 0.01524
# Poissons Ratio (y) = 0.40652 0.26967
# Poissons Ratio (z) = 0.01687 0.27998
#
# Static dielectric constant tensor:
#      x y z
#    x 1.962820 -0.018440 -0.002430 
#    y -0.018440 2.005540 0.017350 
#    z -0.002430 0.017350 1.904090 
# 
# From -- ./inp_files/505057.got.cif
#   From: 2010.05.17/outbox.cif.g08.bks.cpg/sg2_253_cif.got.tgz:505057.got - 2010.06.03 11:33:40.
