data_PCOD9055042
_publ_section_title
;
Structure prediction by ZEFSAII (Michael W. Deem and Ramdas Pophale) SiO2 
 PCOD9055042
Probable space group: P -1
;
_chemical_formula_sum "Si O2"
_cell_formula_units_Z 14
_cell_length_a 11.181228
_cell_length_b 10.364666
_cell_length_c 11.595082
_cell_angle_alpha 126.595838
_cell_angle_beta 71.547883
_cell_angle_gamma 68.212175
_cell_volume 693.774629
_symmetry_space_group_name_H-M "P -1"
_symmetry_group_IT_number 2
_symmetry_cell_setting 'triclinic'
loop_
_space_group_symop_operation_xyz
x,y,z
-x,-y,-z
loop_
_atom_site_type_symbol
_atom_site_label
_atom_site_fract_x
_atom_site_fract_y
_atom_site_fract_z
Si Si1 0.849427 0.531152 0.392892
Si Si2 0.067509 0.087705 0.945095
Si Si3 0.489306 0.692603 0.648389
Si Si4 0.947261 0.994954 0.362133
Si Si5 0.493800 0.821092 0.954617
Si Si6 0.314609 0.604072 0.176021
Si Si7 0.919580 0.784714 0.617314
O O1 0.636070 0.674499 0.535528
O O2 0.889821 0.680423 0.471906
O O3 0.945429 0.386008 0.407832
O O4 0.941119 0.353732 0.164475
O O5 0.069759 0.043694 0.785910
O O6 0.276666 0.940107 0.833387
O O7 0.000000 0.000000 0.000000
O O8 0.500000 0.500000 0.500000
O O9 0.536224 0.663109 0.752047
O O10 0.132716 0.743850 0.226731
O O11 0.002130 0.129506 0.412972
O O12 0.760856 0.186191 0.599024
O O13 0.625879 0.623193 0.906703
O O14 0.500000 0.000000 0.000000
O O15 0.282825 0.996983 0.151816
O O16 0.500000 0.500000 0.000000
#
# Coordination Sequence:
#
# PCOD9055042 Si02
#       7
#     2   2   2   2   2   2   2
#     4  11  23  35  59  99 136 170 215 282 334 388
#     4  12  22  38  62  96 136 174 222 279 339 399
#     4  12  22  35  59  96 134 169 214 276 337 390
#     4  11  24  44  68  97 133 183 227 271 339 406
#     4  12  23  40  68 103 133 173 229 282 333 392
#     4  11  25  43  69  99 136 178 227 281 333 405
#     4  11  21  40  62  98 138 170 222 278 336 397
#
# _framework density 20.179465
#
# number of rings (size 3 to 8) (size 9 to 14) (size 15 to 20)
#    0.000    0.571    7.143    1.714    2.000    1.143 
#    0.000    0.000    0.000   10.286    0.000    0.000 
#    0.000    0.000    0.000    0.000    0.000    0.000 
#
# Total GULP energy -78085.085055 kJ/mol
# GULP energy per Si atom -5577.506075 kJ/mol
# Density = 2.013354 g / cm^3
# Si number density = 20.179465 Si / 1000 Ang^3
#
#
#
# Elastic Constant Matrix: (Units=GPa)
#
#
# Indices 1 2 3 4 5 6 
#
# 1 81.8859 18.8323 46.9903 -3.4414 -4.7765 -0.8160
# 2 18.8323 81.9305 19.5272 4.0790 -6.5350 -9.7030
# 3 46.9903 19.5272 135.9275 -21.6802 -14.7614 -2.7188
# 4 -3.4414 4.0790 -21.6802 32.7959 -9.9651 4.0313
# 5 -4.7765 -6.5350 -14.7614 -9.9651 51.5857 6.5868
# 6 -0.8160 -9.7030 -2.7188 4.0313 6.5868 21.5567
#
#
#
# Elastic Compliance Matrix: (Units=1/GPa)
#
#
# Indices 1 2 3 4 5 6 
#
# 1 0.015784 -0.002355 -0.005494 -0.001815 -0.000682 -0.000607
# 2 -0.002355 0.014184 -0.001844 -0.004308 -0.000685 0.007078
# 3 -0.005494 -0.001844 0.011383 0.008895 0.004573 -0.002663
# 4 -0.001815 -0.004308 0.008895 0.041690 0.011440 -0.012178
# 5 -0.000682 -0.000685 0.004573 0.011440 0.023930 -0.009208
# 6 -0.000607 0.007078 -0.002663 -0.012178 -0.009208 0.054307
#
#
# Mechanical properties :
#
#
# Convention : Reuss Voigt Hill
#
# Bulk Modulus (GPa) = 45.52312 52.27150 48.89731
# Shear Modulus (GPa) = 26.59780 35.48061 31.03920
#
# Velocity S-wave (km/s) = 3.63445 4.19770 3.92619
# Velocity P-wave (km/s) = 6.34196 7.03234 6.69605
#
# Compressibility (1/GPa) = 0.02196686
#
# Stress axis : x y z
#
# Youngs Moduli (GPa) = 63.35397 70.50113 87.84928
#
# Poissons Ratio (x) = 0.16600 0.48266
# Poissons Ratio (y) = 0.14918 0.16196
# Poissons Ratio (z) = 0.34808 0.12997
#
# Static dielectric constant tensor:
#      x y z
#    x 1.688380 0.015340 0.015000 
#    y 0.015340 1.855020 -0.075990 
#    z 0.015000 -0.075990 1.902850 
# 
# From -- ./inp_files/428910.got.cif
#   From: 2010.05.17/outbox.cif.g08.bks.cpg/sg2_215_cif.got.tgz:428910.got - 2010.06.03 11:33:40.
