data_PCOD9055959
_publ_section_title
;
Structure prediction by ZEFSAII (Michael W. Deem and Ramdas Pophale) SiO2 
 PCOD9055959
Probable space group: P -1
;
_chemical_formula_sum "Si O2"
_cell_formula_units_Z 16
_cell_length_a 11.759357
_cell_length_b 8.865893
_cell_length_c 9.881758
_cell_angle_alpha 48.581298
_cell_angle_beta 97.956515
_cell_angle_gamma 99.401527
_cell_volume 761.556114
_symmetry_space_group_name_H-M "P -1"
_symmetry_group_IT_number 2
_symmetry_cell_setting 'triclinic'
loop_
_space_group_symop_operation_xyz
x,y,z
-x,-y,-z
loop_
_atom_site_type_symbol
_atom_site_label
_atom_site_fract_x
_atom_site_fract_y
_atom_site_fract_z
Si Si1 0.615787 0.588575 0.893618
Si Si2 0.053733 0.039297 0.629919
Si Si3 0.395482 0.421679 0.428661
Si Si4 0.913086 0.093038 0.827358
Si Si5 0.595165 0.923818 0.187357
Si Si6 0.780932 0.285967 0.045886
Si Si7 0.148276 0.506014 0.339576
Si Si8 0.650948 0.924271 0.915693
O O1 0.595512 0.579934 0.732530
O O2 0.642312 0.801678 0.847028
O O3 0.500000 0.500000 0.000000
O O4 0.720505 0.451981 0.023076
O O5 0.108571 0.272421 0.498291
O O6 0.950853 0.020521 0.732110
O O7 0.139554 0.870405 0.780983
O O8 0.000000 0.000000 0.500000
O O9 0.500000 0.500000 0.500000
O O10 0.283867 0.533193 0.381933
O O11 0.368162 0.190022 0.607285
O O12 0.923256 0.335759 0.689920
O O13 0.781124 0.024756 0.883880
O O14 0.000000 0.000000 0.000000
O O15 0.669818 0.139903 0.060918
O O16 0.459704 0.946720 0.168454
O O17 0.626749 0.806140 0.125595
O O18 0.850345 0.414981 0.862985
#
# Coordination Sequence:
#
# PCOD9055959 Si02
#       8
#     2   2   2   2   2   2   2   2
#     4  11  24  44  67 104 149 184 232 295 360 430
#     4  12  28  48  72 103 142 186 244 300 352 410
#     4  11  24  40  71 106 142 183 234 287 364 433
#     4  12  25  47  72 101 142 190 245 289 344 430
#     4  11  21  44  73 101 146 181 231 292 361 426
#     4  11  23  47  71 101 142 189 228 294 367 417
#     4  11  24  47  73 100 138 189 238 290 352 427
#     4  11  24  41  74 105 139 191 233 291 362 423
#
# _framework density 21.009616000000001
#
# number of rings (size 3 to 8) (size 9 to 14) (size 15 to 20)
#    0.000    0.750    5.000    1.875    7.000    2.000 
#    6.750    0.000    0.000    0.000    0.000    0.000 
#    0.000    0.000    0.000    0.000    0.000    0.000 
#
# Total GULP energy -89230.020699 kJ/mol
# GULP energy per Si atom -5576.876294 kJ/mol
# Density = 2.096180 g / cm^3
# Si number density = 21.009616 Si / 1000 Ang^3
#
#
#
# Elastic Constant Matrix: (Units=GPa)
#
#
# Indices 1 2 3 4 5 6 
#
# 1 134.5101 47.5458 58.6977 2.4857 10.1311 -23.4482
# 2 47.5458 84.4636 33.2293 13.4547 7.7775 -24.6713
# 3 58.6977 33.2293 129.9218 -2.5400 7.5128 -22.4171
# 4 2.4857 13.4547 -2.5400 29.8193 -3.2214 -2.7319
# 5 10.1311 7.7775 7.5128 -3.2214 34.0872 -1.9995
# 6 -23.4482 -24.6713 -22.4171 -2.7319 -1.9995 36.3952
#
#
#
# Elastic Compliance Matrix: (Units=1/GPa)
#
#
# Indices 1 2 3 4 5 6 
#
# 1 0.010824 -0.004156 -0.003381 0.000729 -0.001334 0.002055
# 2 -0.004156 0.018699 -0.001443 -0.007767 -0.002957 0.008364
# 3 -0.003381 -0.001443 0.010228 0.002046 -0.000535 0.003268
# 4 0.000729 -0.007767 0.002046 0.037612 0.004632 -0.000457
# 5 -0.001334 -0.002957 -0.000535 0.004632 0.030896 -0.001148
# 6 0.002055 0.008364 0.003268 -0.000457 -0.001148 0.036385
#
#
# Mechanical properties :
#
#
# Convention : Reuss Voigt Hill
#
# Bulk Modulus (GPa) = 45.88870 69.76011 57.82440
# Shear Modulus (GPa) = 29.43461 34.02185 31.72823
#
# Velocity S-wave (km/s) = 3.74706 4.02848 3.89031
# Velocity P-wave (km/s) = 6.37258 7.41041 6.91100
#
# Compressibility (1/GPa) = 0.02179186
#
# Stress axis : x y z
#
# Youngs Moduli (GPa) = 92.38553 53.47921 97.76741
#
# Poissons Ratio (x) = 0.22225 0.33059
# Poissons Ratio (y) = 0.38393 0.14105
# Poissons Ratio (z) = 0.31239 0.07715
#
# Static dielectric constant tensor:
#      x y z
#    x 1.760030 0.032060 -0.007620 
#    y 0.032060 1.844090 -0.038940 
#    z -0.007620 -0.038940 1.788410 
# 
# From -- ./inp_files/242142.got.cif
#   From: 2010.05.17/outbox.cif.g08.bks.cpg/sg2_122_cif.got.tgz:242142.got - 2010.06.03 11:33:40.
