data_PCOD9055315
_publ_section_title
;
Structure prediction by ZEFSAII (Michael W. Deem and Ramdas Pophale) SiO2 
 PCOD9055315
Probable space group: P -1
;
_chemical_formula_sum "Si O2"
_cell_formula_units_Z 16
_cell_length_a 15.373478
_cell_length_b 6.420186
_cell_length_c 14.823210
_cell_angle_alpha 124.472812
_cell_angle_beta 37.253011
_cell_angle_gamma 112.198879
_cell_volume 722.327994
_symmetry_space_group_name_H-M "P -1"
_symmetry_group_IT_number 2
_symmetry_cell_setting 'triclinic'
loop_
_space_group_symop_operation_xyz
x,y,z
-x,-y,-z
loop_
_atom_site_type_symbol
_atom_site_label
_atom_site_fract_x
_atom_site_fract_y
_atom_site_fract_z
Si Si1 0.005750 0.669174 0.185221
Si Si2 0.268578 0.585227 0.654879
Si Si3 0.922040 0.279094 0.657648
Si Si4 0.890175 0.833191 0.828281
Si Si5 0.579228 0.573583 0.318783
Si Si6 0.392898 0.896131 0.948115
Si Si7 0.602805 0.250893 0.883573
Si Si8 0.801178 0.840595 0.111604
O O1 0.845783 0.603372 0.321115
O O2 0.082412 0.711951 0.227684
O O3 0.015539 0.934685 0.192122
O O4 0.091884 0.412303 0.004957
O O5 0.406275 0.600806 0.480802
O O6 0.341567 0.484585 0.664908
O O7 0.180982 0.872865 0.805071
O O8 0.973348 0.554361 0.663660
O O9 0.766941 0.284330 0.740214
O O10 0.000000 0.000000 0.500000
O O11 0.821455 0.825336 0.983175
O O12 0.751318 0.899055 0.893655
O O13 0.626140 0.326117 0.158800
O O14 0.642964 0.798838 0.268915
O O15 0.537078 0.017472 0.835649
O O16 0.408912 0.791512 0.010047
O O17 0.500000 0.500000 0.000000
#
# Coordination Sequence:
#
# PCOD9055315 Si02
#       8
#     2   2   2   2   2   2   2   2
#     4  11  24  43  68  97 138 184 231 280 347 422
#     4  11  25  42  65 103 141 180 226 286 351 411
#     4  11  25  43  67  99 140 178 228 294 353 414
#     4  11  21  43  71  97 134 181 232 286 340 418
#     4  11  24  42  67  97 140 176 231 289 346 405
#     4  11  21  41  67  97 130 180 238 283 333 413
#     4  11  23  40  70  99 130 177 239 286 340 409
#     4  11  21  41  69  95 132 183 232 283 332 411
#
# _framework density 22.150601000000002
#
# number of rings (size 3 to 8) (size 9 to 14) (size 15 to 20)
#    0.000    1.000    5.000    1.500    1.750    4.500 
#    0.000    0.000    0.000    0.000    0.000    0.000 
#    0.000    0.000    0.000    0.000    0.000    0.000 
#
# Total GULP energy -89336.714947 kJ/mol
# GULP energy per Si atom -5583.544684 kJ/mol
# Density = 2.210018 g / cm^3
# Si number density = 22.150601 Si / 1000 Ang^3
#
#
#
# Elastic Constant Matrix: (Units=GPa)
#
#
# Indices 1 2 3 4 5 6 
#
# 1 48.2249 33.7686 1.4856 1.7048 -15.7169 8.0843
# 2 33.7686 183.9449 54.0586 0.7757 -13.3103 17.7859
# 3 1.4856 54.0586 74.7218 13.8456 -18.0406 3.6555
# 4 1.7048 0.7757 13.8456 41.3122 0.7189 -10.7891
# 5 -15.7169 -13.3103 -18.0406 0.7189 25.7108 -5.6115
# 6 8.0843 17.7859 3.6555 -10.7891 -5.6115 38.5104
#
#
#
# Elastic Compliance Matrix: (Units=1/GPa)
#
#
# Indices 1 2 3 4 5 6 
#
# 1 0.035082 -0.007990 0.012709 -0.006797 0.025755 -0.003032
# 2 -0.007990 0.009064 -0.008362 0.002566 -0.006557 -0.001952
# 3 0.012709 -0.008362 0.026355 -0.009804 0.022022 -0.000845
# 4 -0.006797 0.002566 -0.009804 0.030048 -0.008730 0.008318
# 5 0.025755 -0.006557 0.022022 -0.008730 0.067580 0.002933
# 6 -0.003032 -0.001952 -0.000845 0.008318 0.002933 0.030343
#
#
# Mechanical properties :
#
#
# Convention : Reuss Voigt Hill
#
# Bulk Modulus (GPa) = 15.81912 53.94635 34.88274
# Shear Modulus (GPa) = 22.04313 35.61195 28.82754
#
# Velocity S-wave (km/s) = 3.15802 4.01399 3.61145
# Velocity P-wave (km/s) = 4.52267 6.77422 5.75954
#
# Compressibility (1/GPa) = 0.06321465
#
# Stress axis : x y z
#
# Youngs Moduli (GPa) = 28.50505 110.32708 37.94412
#
# Poissons Ratio (x) = 0.88148 -0.48222
# Poissons Ratio (y) = 0.22775 0.31727
# Poissons Ratio (z) = -0.36226 0.92251
#
# Static dielectric constant tensor:
#      x y z
#    x 1.777300 -0.019040 0.029570 
#    y -0.019040 1.870870 0.026920 
#    z 0.029570 0.026920 1.738890 
# 
# From -- ./inp_files/525981.got.cif
#   From: 2010.05.17/outbox.cif.g08.bks.cpg/sg2_263_cif.got.tgz:525981.got - 2010.06.03 11:33:40.
