data_PCOD9055771
_publ_section_title
;
Structure prediction by ZEFSAII (Michael W. Deem and Ramdas Pophale) SiO2 
 PCOD9055771
Probable space group: P -1
;
_chemical_formula_sum "Si O2"
_cell_formula_units_Z 12
_cell_length_a 14.200241
_cell_length_b 7.080519
_cell_length_c 13.765214
_cell_angle_alpha 70.877643
_cell_angle_beta 150.479702
_cell_angle_gamma 123.241203
_cell_volume 531.556289
_symmetry_space_group_name_H-M "P -1"
_symmetry_group_IT_number 2
_symmetry_cell_setting 'triclinic'
loop_
_space_group_symop_operation_xyz
x,y,z
-x,-y,-z
loop_
_atom_site_type_symbol
_atom_site_label
_atom_site_fract_x
_atom_site_fract_y
_atom_site_fract_z
Si Si1 0.350215 0.331498 0.483143
Si Si2 0.145896 0.894520 0.614057
Si Si3 0.105251 0.720821 0.979065
Si Si4 0.602369 0.381656 0.883732
Si Si5 0.445236 0.938563 0.574677
Si Si6 0.993760 0.593545 0.327746
O O1 0.500000 0.500000 0.500000
O O2 0.095937 0.265875 0.249744
O O3 0.406150 0.131187 0.799929
O O4 0.369304 0.107395 0.521809
O O5 0.105295 0.680427 0.682524
O O6 0.069245 0.763065 0.462028
O O7 0.000000 0.000000 0.500000
O O8 0.215945 0.684694 0.442510
O O9 0.000000 0.500000 0.000000
O O10 0.231485 0.663682 0.021649
O O11 0.309409 0.968196 0.171853
O O12 0.471140 0.442076 0.676758
O O13 0.782248 0.582703 0.086610
O O14 0.500000 0.000000 0.500000
#
# Coordination Sequence:
#
# PCOD9055771 Si02
#       6
#     2   2   2   2   2   2
#     4  11  23  42  69 105 147 199 239 288 374 434
#     4  11  26  50  77 107 145 193 250 305 369 439
#     4  11  21  43  70  99 155 193 229 307 360 430
#     4  11  24  45  73 106 148 190 247 305 364 433
#     4  11  24  43  68 111 147 184 246 301 365 441
#     4  11  25  49  74 109 149 187 248 307 366 434
#
# _framework density 22.575218
#
# number of rings (size 3 to 8) (size 9 to 14) (size 15 to 20)
#    0.000    1.000    6.667    1.500    2.333    1.333 
#    3.000    0.000    0.000    0.000    0.000    0.000 
#    0.000    0.000    0.000    0.000    0.000    0.000 
#
# Total GULP energy -67080.676402 kJ/mol
# GULP energy per Si atom -5590.056367 kJ/mol
# Density = 2.252384 g / cm^3
# Si number density = 22.575218 Si / 1000 Ang^3
#
#
#
# Elastic Constant Matrix: (Units=GPa)
#
#
# Indices 1 2 3 4 5 6 
#
# 1 133.7381 40.4709 58.2512 8.1706 14.7331 32.5029
# 2 40.4709 62.7639 41.0536 10.1011 7.5200 15.2441
# 3 58.2512 41.0536 224.9313 23.3798 12.8128 9.0707
# 4 8.1706 10.1011 23.3798 39.8013 -0.9095 9.6079
# 5 14.7331 7.5200 12.8128 -0.9095 44.8958 -2.0240
# 6 32.5029 15.2441 9.0707 9.6079 -2.0240 47.7765
#
#
#
# Elastic Compliance Matrix: (Units=1/GPa)
#
#
# Indices 1 2 3 4 5 6 
#
# 1 0.011411 -0.004484 -0.001867 0.001367 -0.002720 -0.006368
# 2 -0.004484 0.021674 -0.002314 -0.002538 -0.001684 -0.002986
# 3 -0.001867 -0.002314 0.005606 -0.002688 -0.000588 0.001460
# 4 0.001367 -0.002538 -0.002688 0.028364 0.001081 -0.005268
# 5 -0.002720 -0.001684 -0.000588 0.001081 0.023787 0.003290
# 6 -0.006368 -0.002986 0.001460 -0.005268 0.003290 0.027138
#
#
# Mechanical properties :
#
#
# Convention : Reuss Voigt Hill
#
# Bulk Modulus (GPa) = 46.81811 77.88720 62.35266
# Shear Modulus (GPa) = 35.10496 45.27191 40.18843
#
# Velocity S-wave (km/s) = 3.94765 4.48301 4.22382
# Velocity P-wave (km/s) = 6.44689 7.83406 7.17408
#
# Compressibility (1/GPa) = 0.02135926
#
# Stress axis : x y z
#
# Youngs Moduli (GPa) = 87.63171 46.13900 178.38760
#
# Poissons Ratio (x) = 0.20690 0.33308
# Poissons Ratio (y) = 0.39297 0.41284
# Poissons Ratio (z) = 0.16362 0.10678
#
# Static dielectric constant tensor:
#      x y z
#    x 1.801540 0.085220 -0.114710 
#    y 0.085220 2.033580 0.085360 
#    z -0.114710 0.085360 1.804280 
# 
# From -- ./inp_files/40992.got.cif
#   From: 2010.05.17/outbox.cif.g08.bks.cpg/sg2_21_cif.got.tgz:40992.got - 2010.06.03 11:33:40.
