data_PCOD9055693
_publ_section_title
;
Structure prediction by ZEFSAII (Michael W. Deem and Ramdas Pophale) SiO2 
 PCOD9055693
Probable space group: P -1
;
_chemical_formula_sum "Si O2"
_cell_formula_units_Z 16
_cell_length_a 7.396390
_cell_length_b 15.780346
_cell_length_c 9.974405
_cell_angle_alpha 38.511008
_cell_angle_beta 94.565284
_cell_angle_gamma 89.326809
_cell_volume 717.441299
_symmetry_space_group_name_H-M "P -1"
_symmetry_group_IT_number 2
_symmetry_cell_setting 'triclinic'
loop_
_space_group_symop_operation_xyz
x,y,z
-x,-y,-z
loop_
_atom_site_type_symbol
_atom_site_label
_atom_site_fract_x
_atom_site_fract_y
_atom_site_fract_z
Si Si1 0.248228 0.860038 0.825327
Si Si2 0.831287 0.188189 0.819873
Si Si3 0.048765 0.376017 0.258183
Si Si4 0.206819 0.845992 0.540946
Si Si5 0.791689 0.951461 0.940929
Si Si6 0.893040 0.473235 0.393073
Si Si7 0.644511 0.839985 0.575879
Si Si8 0.357875 0.246708 0.020143
O O1 0.149192 0.862576 0.672879
O O2 0.427302 0.749606 0.957163
O O3 0.312161 0.011472 0.653568
O O4 0.166534 0.818846 0.010843
O O5 0.786205 0.341524 0.576034
O O6 0.718935 0.076097 0.881679
O O7 0.043338 0.136438 0.862290
O O8 0.882928 0.283563 0.354796
O O9 0.040988 0.437076 0.330117
O O10 0.231706 0.279796 0.346414
O O11 0.000000 0.500000 0.000000
O O12 0.427394 0.832903 0.560687
O O13 0.140083 0.969277 0.283719
O O14 0.670225 0.845908 0.997171
O O15 0.000000 0.500000 0.500000
O O16 0.759805 0.607671 0.179659
O O17 0.692757 0.825689 0.754847
#
# Coordination Sequence:
#
# PCOD9055693 Si02
#       8
#     2   2   2   2   2   2   2   2
#     4  11  24  41  71 105 129 174 232 282 350 403
#     4  11  26  40  64 102 136 181 230 273 341 417
#     4  12  27  45  70 100 134 190 231 274 348 406
#     4  11  23  44  72 102 136 175 228 296 335 395
#     4  11  21  43  66  93 137 177 221 284 335 388
#     4  12  26  46  64  95 144 183 222 279 340 415
#     4  11  23  44  73 108 133 168 237 294 336 402
#     4  11  22  44  69  95 139 174 220 292 337 396
#
# _framework density 22.301476999999998
#
# number of rings (size 3 to 8) (size 9 to 14) (size 15 to 20)
#    0.000    0.750    6.250    1.500    5.250    2.500 
#    2.250    0.000    0.000    0.000    0.000    0.000 
#    0.000    0.000    0.000    0.000    0.000    0.000 
#
# Total GULP energy -89437.814735 kJ/mol
# GULP energy per Si atom -5589.863421 kJ/mol
# Density = 2.225072 g / cm^3
# Si number density = 22.301477 Si / 1000 Ang^3
#
#
#
# Elastic Constant Matrix: (Units=GPa)
#
#
# Indices 1 2 3 4 5 6 
#
# 1 41.4294 12.5441 15.9829 -7.4851 11.5856 -4.0580
# 2 12.5441 119.4417 14.1478 19.8648 6.6379 -9.8403
# 3 15.9829 14.1478 99.8652 -4.0225 8.0559 -9.6544
# 4 -7.4851 19.8648 -4.0225 42.3433 -2.3630 1.5847
# 5 11.5856 6.6379 8.0559 -2.3630 28.7177 -3.2531
# 6 -4.0580 -9.8403 -9.6544 1.5847 -3.2531 31.0232
#
#
#
# Elastic Compliance Matrix: (Units=1/GPa)
#
#
# Indices 1 2 3 4 5 6 
#
# 1 0.030303 -0.003179 -0.003297 0.005955 -0.010011 0.000576
# 2 -0.003179 0.009984 -0.000790 -0.005474 -0.000950 0.002685
# 3 -0.003297 -0.000790 0.011030 0.000670 -0.001233 0.002587
# 4 0.005955 -0.005474 0.000670 0.027418 0.000696 -0.002077
# 5 -0.010011 -0.000950 -0.001233 0.000696 0.039725 0.002135
# 6 0.000576 0.002685 0.002587 -0.002077 0.002135 0.034296
#
#
# Mechanical properties :
#
#
# Convention : Reuss Voigt Hill
#
# Bulk Modulus (GPa) = 27.18368 38.45400 32.81884
# Shear Modulus (GPa) = 27.84768 34.95429 31.40098
#
# Velocity S-wave (km/s) = 3.53752 3.96328 3.75643
# Velocity P-wave (km/s) = 5.37597 6.18253 5.79330
#
# Compressibility (1/GPa) = 0.03678677
#
# Stress axis : x y z
#
# Youngs Moduli (GPa) = 32.99969 100.15843 90.66524
#
# Poissons Ratio (x) = 0.31837 0.29888
# Poissons Ratio (y) = 0.10489 0.07162
# Poissons Ratio (z) = 0.10878 0.07912
#
# Static dielectric constant tensor:
#      x y z
#    x 1.839260 -0.007720 -0.023060 
#    y -0.007720 1.866410 0.007890 
#    z -0.023060 0.007890 1.793450 
# 
# From -- ./inp_files/205219.got.cif
#   From: 2010.05.17/outbox.cif.g08.bks.cpg/sg2_103_cif.got.tgz:205219.got - 2010.06.03 11:33:40.
