data_PCOD9055052
_publ_section_title
;
Structure prediction by ZEFSAII (Michael W. Deem and Ramdas Pophale) SiO2 
 PCOD9055052
Probable space group: P -1
;
_chemical_formula_sum "Si O2"
_cell_formula_units_Z 16
_cell_length_a 9.741545
_cell_length_b 14.065343
_cell_length_c 13.642657
_cell_angle_alpha 30.094440
_cell_angle_beta 93.176470
_cell_angle_gamma 73.366482
_cell_volume 696.855472
_symmetry_space_group_name_H-M "P -1"
_symmetry_group_IT_number 2
_symmetry_cell_setting 'triclinic'
loop_
_space_group_symop_operation_xyz
x,y,z
-x,-y,-z
loop_
_atom_site_type_symbol
_atom_site_label
_atom_site_fract_x
_atom_site_fract_y
_atom_site_fract_z
Si Si1 0.574720 0.102459 0.737978
Si Si2 0.362021 0.352987 0.880550
Si Si3 0.689388 0.326484 0.225590
Si Si4 0.015570 0.262783 0.191270
Si Si5 0.325629 0.940579 0.002763
Si Si6 0.804562 0.362602 0.702877
Si Si7 0.047770 0.104565 0.119167
Si Si8 0.017706 0.707281 0.433086
O O1 0.733331 0.088711 0.713766
O O2 0.384204 0.382632 0.491247
O O3 0.565785 0.918522 0.839224
O O4 0.624572 0.008878 0.937578
O O5 0.355545 0.524173 0.807165
O O6 0.154770 0.496255 0.706645
O O7 0.499307 0.271931 0.867877
O O8 0.846446 0.310082 0.194592
O O9 0.500000 0.500000 0.000000
O O10 0.794453 0.026737 0.513963
O O11 0.994774 0.256834 0.079500
O O12 0.000000 0.500000 0.000000
O O13 0.225524 0.836702 0.122363
O O14 0.177583 0.188468 0.707886
O O15 0.861558 0.376266 0.585815
O O16 0.959159 0.271026 0.869565
O O17 0.978651 0.952263 0.256796
#
# Coordination Sequence:
#
# PCOD9055052 Si02
#       8
#     2   2   2   2   2   2   2   2
#     4  12  23  37  59  98 135 168 217 264 324 408
#     4  12  26  40  62  93 133 176 210 271 341 397
#     4  11  28  49  73 104 140 181 240 300 353 418
#     4  11  26  49  77 103 136 182 240 300 358 414
#     4  11  22  37  61  91 129 174 212 258 319 396
#     4  11  22  37  63  94 131 171 220 263 314 407
#     4  11  22  41  67  92 124 172 217 270 335 395
#     4  11  21  40  64  90 130 177 215 257 327 398
#
# _framework density 22.960286
#
# number of rings (size 3 to 8) (size 9 to 14) (size 15 to 20)
#    0.000    0.750    5.000    3.000    3.500    3.000 
#    0.000    0.000    0.000    0.000    0.000    0.000 
#    0.000    0.000    0.000    0.000    0.000    0.000 
#
# Total GULP energy -89493.537200 kJ/mol
# GULP energy per Si atom -5593.346075 kJ/mol
# Density = 2.290803 g / cm^3
# Si number density = 22.960286 Si / 1000 Ang^3
#
#
#
# Elastic Constant Matrix: (Units=GPa)
#
#
# Indices 1 2 3 4 5 6 
#
# 1 69.3747 34.5776 29.8242 -7.7089 6.1913 5.3122
# 2 34.5776 154.1423 49.6043 -22.5116 0.8753 12.1056
# 3 29.8242 49.6043 112.9780 -17.6173 15.0855 24.2381
# 4 -7.7089 -22.5116 -17.6173 31.8081 -0.3809 -7.1029
# 5 6.1913 0.8753 15.0855 -0.3809 34.4714 -11.3591
# 6 5.3122 12.1056 24.2381 -7.1029 -11.3591 30.5255
#
#
#
# Elastic Compliance Matrix: (Units=1/GPa)
#
#
# Indices 1 2 3 4 5 6 
#
# 1 0.017335 -0.002832 -0.003021 0.000499 -0.001720 -0.000019
# 2 -0.002832 0.008536 -0.002847 0.004029 0.001918 0.001019
# 3 -0.003021 -0.002847 0.015904 0.002697 -0.011083 -0.014470
# 4 0.000499 0.004029 0.002697 0.037042 0.000702 0.005054
# 5 -0.001720 0.001918 -0.011083 0.000702 0.042091 0.024165
# 6 -0.000019 0.001019 -0.014470 0.005054 0.024165 0.054016
#
#
# Mechanical properties :
#
#
# Convention : Reuss Voigt Hill
#
# Bulk Modulus (GPa) = 41.02656 62.72302 51.87479
# Shear Modulus (GPa) = 24.94384 34.19359 29.56871
#
# Velocity S-wave (km/s) = 3.29962 3.86327 3.59251
# Velocity P-wave (km/s) = 5.69420 6.87584 6.31273
#
# Compressibility (1/GPa) = 0.02437446
#
# Stress axis : x y z
#
# Youngs Moduli (GPa) = 57.68561 117.14407 62.87861
#
# Poissons Ratio (x) = 0.33180 0.18997
# Poissons Ratio (y) = 0.16339 0.17901
# Poissons Ratio (z) = 0.17428 0.33350
#
# Static dielectric constant tensor:
#      x y z
#    x 1.989280 -0.027480 0.037410 
#    y -0.027480 1.819930 -0.004780 
#    z 0.037410 -0.004780 1.961140 
# 
# From -- ./inp_files/427424.got.cif
#   From: 2010.05.17/outbox.cif.g08.bks.cpg/sg2_214_cif.got.tgz:427424.got - 2010.06.03 11:33:40.
