data_PCOD9055879
_publ_section_title
;
Structure prediction by ZEFSAII (Michael W. Deem and Ramdas Pophale) SiO2 
 PCOD9055879
Probable space group: P -1
;
_chemical_formula_sum "Si O2"
_cell_formula_units_Z 12
_cell_length_a 11.957400
_cell_length_b 14.500685
_cell_length_c 6.310812
_cell_angle_alpha 76.266548
_cell_angle_beta 70.338265
_cell_angle_gamma 26.618063
_cell_volume 456.435421
_symmetry_space_group_name_H-M "P -1"
_symmetry_group_IT_number 2
_symmetry_cell_setting 'triclinic'
loop_
_space_group_symop_operation_xyz
x,y,z
-x,-y,-z
loop_
_atom_site_type_symbol
_atom_site_label
_atom_site_fract_x
_atom_site_fract_y
_atom_site_fract_z
Si Si1 0.240366 0.658845 0.701062
Si Si2 0.762377 0.892286 0.227855
Si Si3 0.287846 0.910293 0.199575
Si Si4 0.331753 0.247813 0.644139
Si Si5 0.692277 0.247110 0.059984
Si Si6 0.803457 0.464454 0.520457
O O1 0.500000 0.500000 0.500000
O O2 0.294319 0.655394 0.908667
O O3 0.171696 0.604578 0.683450
O O4 0.003168 0.892319 0.633095
O O5 0.759866 0.787928 0.188040
O O6 0.997123 0.723766 0.338728
O O7 0.501419 0.098240 0.414180
O O8 0.770994 0.970429 0.012486
O O9 0.484034 0.823945 0.275289
O O10 0.386804 0.742939 0.120398
O O11 0.129899 0.472560 0.583694
O O12 0.488610 0.341233 0.301585
O O13 0.000000 0.000000 0.000000
#
# Coordination Sequence:
#
# PCOD9055879 Si02
#       6
#     2   2   2   2   2   2
#     4   9  20  40  66  97 131 168 218 266 321 387
#     4  11  24  43  67  98 132 172 217 269 324 385
#     4  11  21  44  67  97 132 171 215 266 327 383
#     4  11  24  43  67  97 134 171 215 271 328 379
#     4   9  20  40  66  97 131 168 218 266 321 387
#     4  11  21  44  67  97 132 171 215 266 327 383
#
# _framework density 26.290683999999999
#
# number of rings (size 3 to 8) (size 9 to 14) (size 15 to 20)
#    0.000    1.667    3.333    1.000    0.000    1.333 
#    0.000   35.000    0.000    0.000    0.000    0.000 
#    0.000    0.000    0.000    0.000    0.000    0.000 
#
# Total GULP energy -67062.017645 kJ/mol
# GULP energy per Si atom -5588.501470 kJ/mol
# Density = 2.623085 g / cm^3
# Si number density = 26.290684 Si / 1000 Ang^3
#
#
#
# Elastic Constant Matrix: (Units=GPa)
#
#
# Indices 1 2 3 4 5 6 
#
# 1 167.7891 33.4116 47.2258 7.9468 35.5779 32.3281
# 2 33.4116 93.5531 43.2264 -1.1168 3.2082 17.1797
# 3 47.2258 43.2264 62.3020 9.1525 14.4191 12.9861
# 4 7.9468 -1.1168 9.1525 52.5191 9.8128 8.7851
# 5 35.5779 3.2082 14.4191 9.8128 53.6391 0.4797
# 6 32.3281 17.1797 12.9861 8.7851 0.4797 60.9558
#
#
#
# Elastic Compliance Matrix: (Units=1/GPa)
#
#
# Indices 1 2 3 4 5 6 
#
# 1 0.009127 0.000013 -0.005162 0.001066 -0.004828 -0.003860
# 2 0.000013 0.016537 -0.011717 0.002496 0.001718 -0.002544
# 3 -0.005162 -0.011717 0.029304 -0.004081 -0.003010 0.000409
# 4 0.001066 0.002496 -0.004081 0.020872 -0.003548 -0.003380
# 5 -0.004828 0.001718 -0.003010 -0.003548 0.023173 0.003046
# 6 -0.003860 -0.002544 0.000409 -0.003380 0.003046 0.019546
#
#
# Mechanical properties :
#
#
# Convention : Reuss Voigt Hill
#
# Bulk Modulus (GPa) = 47.09220 63.48575 55.28898
# Shear Modulus (GPa) = 31.37357 46.74149 39.05753
#
# Velocity S-wave (km/s) = 3.45821 4.22106 3.85853
# Velocity P-wave (km/s) = 5.82208 6.92506 6.39739
#
# Compressibility (1/GPa) = 0.02123494
#
# Stress axis : x y z
#
# Youngs Moduli (GPa) = 109.56377 60.47194 34.12491
#
# Poissons Ratio (x) = -0.00076 0.17615
# Poissons Ratio (y) = -0.00138 0.39984
# Poissons Ratio (z) = 0.56557 0.70855
#
# Static dielectric constant tensor:
#      x y z
#    x 2.089780 -0.057220 -0.026540 
#    y -0.057220 2.195780 -0.013760 
#    z -0.026540 -0.013760 2.112510 
# 
# From -- ./inp_files/46437.got.cif
#   From: 2010.05.17/outbox.cif.g08.bks.cpg/sg2_24_cif.got.tgz:46437.got - 2010.06.03 11:33:40.
