data_PCOD9055084
_publ_section_title
;
Structure prediction by ZEFSAII (Michael W. Deem and Ramdas Pophale) SiO2 
 PCOD9055084
Probable space group: P -1
;
_chemical_formula_sum "Si O2"
_cell_formula_units_Z 16
_cell_length_a 8.252318
_cell_length_b 12.365609
_cell_length_c 16.418478
_cell_angle_alpha 115.763099
_cell_angle_beta 54.063431
_cell_angle_gamma 148.172970
_cell_volume 707.297025
_symmetry_space_group_name_H-M "P -1"
_symmetry_group_IT_number 2
_symmetry_cell_setting 'triclinic'
loop_
_space_group_symop_operation_xyz
x,y,z
-x,-y,-z
loop_
_atom_site_type_symbol
_atom_site_label
_atom_site_fract_x
_atom_site_fract_y
_atom_site_fract_z
Si Si1 0.552642 0.076338 0.175929
Si Si2 0.693848 0.888523 0.612577
Si Si3 0.669377 0.497586 0.881297
Si Si4 0.845136 0.960480 0.343693
Si Si5 0.402665 0.170547 0.958184
Si Si6 0.576876 0.753175 0.838605
Si Si7 0.211952 0.705125 0.550347
Si Si8 0.512710 0.462954 0.731008
O O1 0.319493 0.991466 0.296357
O O2 0.516062 0.165950 0.150366
O O3 0.935195 0.272573 0.162919
O O4 0.515117 0.929669 0.098947
O O5 0.364669 0.728609 0.598230
O O6 0.000000 0.000000 0.500000
O O7 0.804615 0.857669 0.645120
O O8 0.622840 0.342425 0.879696
O O9 0.513536 0.433370 0.817108
O O10 0.500000 0.500000 0.000000
O O11 0.541387 0.887383 0.452675
O O12 0.697417 0.750180 0.317568
O O13 0.008071 0.060475 0.239639
O O14 0.483300 0.264787 0.053544
O O15 0.000000 0.000000 0.000000
O O16 0.392394 0.542487 0.790220
O O17 0.000000 0.500000 0.500000
O O18 0.909702 0.651653 0.642326
#
# Coordination Sequence:
#
# PCOD9055084 Si02
#       8
#     2   2   2   2   2   2   2   2
#     4  11  24  41  64  95 131 170 219 264 332 387
#     4   9  18  39  66  91 131 168 210 269 323 384
#     4  12  23  41  65  92 128 175 215 275 319 382
#     4   9  21  37  64  93 129 172 214 270 331 379
#     4  12  24  41  64  92 129 170 221 266 324 381
#     4  11  24  40  63  93 133 172 215 269 319 399
#     4   9  18  36  66  95 126 168 216 274 319 386
#     4  11  21  40  66  93 133 169 223 267 323 386
#
# _framework density 22.621328999999999
#
# number of rings (size 3 to 8) (size 9 to 14) (size 15 to 20)
#    0.000    1.500    3.750    1.125    0.000    3.000 
#    0.000    0.000   11.000   19.500    0.000    0.000 
#    0.000    0.000    0.000    0.000    0.000    0.000 
#
# Total GULP energy -89118.857699 kJ/mol
# GULP energy per Si atom -5569.928606 kJ/mol
# Density = 2.256984 g / cm^3
# Si number density = 22.621329 Si / 1000 Ang^3
#
#
#
# Elastic Constant Matrix: (Units=GPa)
#
#
# Indices 1 2 3 4 5 6 
#
# 1 78.0637 29.1710 30.1922 25.2081 -5.3224 -8.9694
# 2 29.1710 68.4281 19.0591 18.2491 -10.7735 -10.4838
# 3 30.1922 19.0591 124.7866 14.8731 -4.1137 -7.7023
# 4 25.2081 18.2491 14.8731 37.6798 -6.3727 -5.4629
# 5 -5.3224 -10.7735 -4.1137 -6.3727 35.2512 2.2105
# 6 -8.9694 -10.4838 -7.7023 -5.4629 2.2105 45.1765
#
#
#
# Elastic Compliance Matrix: (Units=1/GPa)
#
#
# Indices 1 2 3 4 5 6 
#
# 1 0.018607 -0.004709 -0.002656 -0.009071 -0.000648 0.001083
# 2 -0.004709 0.019167 -0.000935 -0.004708 0.004025 0.002588
# 3 -0.002656 -0.000935 0.008986 -0.001207 0.000104 0.000637
# 4 -0.009071 -0.004708 -0.001207 0.036118 0.003511 0.001096
# 5 -0.000648 0.004025 0.000104 0.003511 0.030161 -0.000228
# 6 0.001083 0.002588 0.000637 0.001096 -0.000228 0.023203
#
#
# Mechanical properties :
#
#
# Convention : Reuss Voigt Hill
#
# Bulk Modulus (GPa) = 33.15600 47.56922 40.36261
# Shear Modulus (GPa) = 30.69474 36.47857 33.58665
#
# Velocity S-wave (km/s) = 3.68760 4.02004 3.85740
# Velocity P-wave (km/s) = 5.72887 6.52854 6.14173
#
# Compressibility (1/GPa) = 0.03016046
#
# Stress axis : x y z
#
# Youngs Moduli (GPa) = 53.74449 52.17216 111.28827
#
# Poissons Ratio (x) = 0.24568 0.29557
# Poissons Ratio (y) = 0.25308 0.10401
# Poissons Ratio (z) = 0.14274 0.04876
#
# Static dielectric constant tensor:
#      x y z
#    x 1.839840 -0.010100 0.008620 
#    y -0.010100 1.864390 -0.009360 
#    z 0.008620 -0.009360 1.958350 
# 
# From -- ./inp_files/559869.got.cif
#   From: 2010.05.17/outbox.cif.g08.bks.cpg/sg2_280_cif.got.tgz:559869.got - 2010.06.03 11:33:40.
