data_PCOD9055662
_publ_section_title
;
Structure prediction by ZEFSAII (Michael W. Deem and Ramdas Pophale) SiO2 
 PCOD9055662
Probable space group: P -1
;
_chemical_formula_sum "Si O2"
_cell_formula_units_Z 12
_cell_length_a 9.151136
_cell_length_b 14.341234
_cell_length_c 5.676081
_cell_angle_alpha 90.122317
_cell_angle_beta 94.995554
_cell_angle_gamma 41.801273
_cell_volume 492.424536
_symmetry_space_group_name_H-M "P -1"
_symmetry_group_IT_number 2
_symmetry_cell_setting 'triclinic'
loop_
_space_group_symop_operation_xyz
x,y,z
-x,-y,-z
loop_
_atom_site_type_symbol
_atom_site_label
_atom_site_fract_x
_atom_site_fract_y
_atom_site_fract_z
Si Si1 0.894954 0.407295 0.036262
Si Si2 0.516282 0.714763 0.037863
Si Si3 0.641857 0.857138 0.160743
Si Si4 0.057426 0.208446 0.436722
Si Si5 0.657595 0.373364 0.703995
Si Si6 0.937387 0.077661 0.242132
O O1 0.761413 0.566539 0.990771
O O2 0.953154 0.350856 0.309916
O O3 0.718933 0.414298 0.922417
O O4 0.122765 0.281278 0.929918
O O5 0.519071 0.816709 0.144238
O O6 0.444622 0.673381 0.221506
O O7 0.330486 0.792092 0.810806
O O8 0.715599 0.868839 0.415436
O O9 0.500000 0.000000 0.000000
O O10 0.891595 0.247739 0.609641
O O11 0.050583 0.126381 0.253312
O O12 0.500000 0.500000 0.500000
O O13 0.000000 0.000000 0.500000
O O14 0.000000 0.000000 0.000000
#
# Coordination Sequence:
#
# PCOD9055662 Si02
#       6
#     2   2   2   2   2   2
#     4  11  24  46  73 107 149 196 255 318 388 457
#     4  12  24  47  78 115 146 201 264 316 384 463
#     4  11  28  49  71 105 156 202 252 317 392 467
#     4  11  24  47  72 103 154 195 250 322 387 458
#     4  11  21  42  75 110 150 190 254 327 387 451
#     4  12  27  47  77 115 156 206 263 321 393 472
#
# _framework density 24.369218
#
# number of rings (size 3 to 8) (size 9 to 14) (size 15 to 20)
#    0.000    0.667    3.333    4.000    4.667    1.333 
#    9.000    0.000    0.000    0.000    0.000    0.000 
#    0.000    0.000    0.000    0.000    0.000    0.000 
#
# Total GULP energy -67156.287865 kJ/mol
# GULP energy per Si atom -5596.357322 kJ/mol
# Density = 2.431375 g / cm^3
# Si number density = 24.369218 Si / 1000 Ang^3
#
#
#
# Elastic Constant Matrix: (Units=GPa)
#
#
# Indices 1 2 3 4 5 6 
#
# 1 143.6207 51.0784 47.6250 -16.4943 31.3518 22.7446
# 2 51.0784 158.6456 58.4424 -20.3205 17.0392 2.2065
# 3 47.6250 58.4424 140.2130 -46.0694 28.9413 8.3769
# 4 -16.4943 -20.3205 -46.0694 58.3989 -5.7613 -3.1559
# 5 31.3518 17.0392 28.9413 -5.7613 47.1045 11.2188
# 6 22.7446 2.2065 8.3769 -3.1559 11.2188 48.7756
#
#
#
# Elastic Compliance Matrix: (Units=1/GPa)
#
#
# Indices 1 2 3 4 5 6 
#
# 1 0.009545 -0.002096 -0.001194 0.000453 -0.004046 -0.003191
# 2 -0.002096 0.007951 -0.002579 0.000187 -0.000137 0.001104
# 3 -0.001194 -0.002579 0.012206 0.007927 -0.004852 0.000206
# 4 0.000453 0.000187 0.007927 0.023350 -0.002504 0.000506
# 5 -0.004046 -0.000137 -0.004852 -0.002504 0.027545 -0.003772
# 6 -0.003191 0.001104 0.000206 0.000506 -0.003772 0.022805
#
#
# Mechanical properties :
#
#
# Convention : Reuss Voigt Hill
#
# Bulk Modulus (GPa) = 55.66373 84.08567 69.87470
# Shear Modulus (GPa) = 41.27884 49.87803 45.57844
#
# Velocity S-wave (km/s) = 4.12016 4.52903 4.32942
# Velocity P-wave (km/s) = 6.74727 7.86951 7.32990
#
# Compressibility (1/GPa) = 0.01796502
#
# Stress axis : x y z
#
# Youngs Moduli (GPa) = 104.76994 125.76250 81.92756
#
# Poissons Ratio (x) = 0.26365 0.09778
# Poissons Ratio (y) = 0.21964 0.21126
# Poissons Ratio (z) = 0.12505 0.32429
#
# Static dielectric constant tensor:
#      x y z
#    x 1.933540 -0.020110 -0.013920 
#    y -0.020110 2.052880 0.069460 
#    z -0.013920 0.069460 1.951380 
# 
# From -- ./inp_files/38857.got.cif
#   From: 2010.05.17/outbox.cif.g08.bks.cpg/sg2_20_cif.got.tgz:38857.got - 2010.06.03 11:33:40.
