data_PCOD9055953
_publ_section_title
;
Structure prediction by ZEFSAII (Michael W. Deem and Ramdas Pophale) SiO2 
 PCOD9055953
Probable space group: P -1
;
_chemical_formula_sum "Si O2"
_cell_formula_units_Z 15
_cell_length_a 5.137597
_cell_length_b 7.746769
_cell_length_c 17.621118
_cell_angle_alpha 58.281067
_cell_angle_beta 81.695131
_cell_angle_gamma 74.697997
_cell_volume 575.402934
_symmetry_space_group_name_H-M "P -1"
_symmetry_group_IT_number 2
_symmetry_cell_setting 'triclinic'
loop_
_space_group_symop_operation_xyz
x,y,z
-x,-y,-z
loop_
_atom_site_type_symbol
_atom_site_label
_atom_site_fract_x
_atom_site_fract_y
_atom_site_fract_z
Si Si1 0.463090 0.234127 0.422503
Si Si2 0.500000 0.500000 0.500000
Si Si3 0.070663 0.749845 0.363126
Si Si4 0.510082 0.795866 0.214410
Si Si5 0.169115 0.028246 0.059961
Si Si6 0.290272 0.455931 0.956962
Si Si7 0.930517 0.451889 0.331119
Si Si8 0.234181 0.875440 0.801379
O O1 0.381276 0.369656 0.470467
O O2 0.735590 0.295285 0.371832
O O3 0.229897 0.314722 0.351863
O O4 0.500000 0.000000 0.500000
O O5 0.242004 0.708367 0.441435
O O6 0.305785 0.711150 0.297134
O O7 0.879723 0.591262 0.380793
O O8 0.897049 0.981384 0.297030
O O9 0.803611 0.640254 0.236475
O O10 0.374023 0.830512 0.131366
O O11 0.533923 0.013805 0.202407
O O12 0.969448 0.084763 0.127497
O O13 0.324768 0.211709 0.997924
O O14 0.000000 0.000000 0.000000
O O15 0.298894 0.625734 0.851100
O O16 0.500000 0.500000 0.000000
O O17 0.000000 0.500000 0.000000
#
# Coordination Sequence:
#
# PCOD9055953 Si02
#       8
#     2   1   2   2   2   2   2   2
#     4  11  23  39  63  92 125 159 209 262 315 372
#     4  10  20  40  64  92 122 158 216 252 314 368
#     4   9  19  34  61  90 114 160 207 256 300 375
#     4  10  17  36  59  87 119 160 210 242 318 370
#     4  10  21  35  58  92 122 158 209 257 307 374
#     4  10  19  37  58  85 116 157 199 245 302 365
#     4  10  19  38  60  87 118 164 202 249 316 370
#     4   9  19  34  60  81 119 164 200 248 311 369
#
# _framework density 26.068691999999999
#
# number of rings (size 3 to 8) (size 9 to 14) (size 15 to 20)
#    0.000    2.133    4.000    0.400    0.000    2.667 
#    0.000    1.333    0.000    0.000    0.000    0.000 
#    0.000    0.000    0.000    0.000    0.000    0.000 
#
# Total GULP energy -83624.944887 kJ/mol
# GULP energy per Si atom -5574.996326 kJ/mol
# Density = 2.600936 g / cm^3
# Si number density = 26.068692 Si / 1000 Ang^3
#
#
#
# Elastic Constant Matrix: (Units=GPa)
#
#
# Indices 1 2 3 4 5 6 
#
# 1 132.9880 27.3828 58.1156 -9.4141 39.5046 38.6906
# 2 27.3828 70.4454 44.0668 -22.2512 -0.6570 25.0972
# 3 58.1156 44.0668 179.9546 -35.7916 45.0252 25.7245
# 4 -9.4141 -22.2512 -35.7916 56.0560 2.3682 -12.8584
# 5 39.5046 -0.6570 45.0252 2.3682 63.0781 6.4633
# 6 38.6906 25.0972 25.7245 -12.8584 6.4633 33.8723
#
#
#
# Elastic Compliance Matrix: (Units=1/GPa)
#
#
# Indices 1 2 3 4 5 6 
#
# 1 0.014047 -0.000153 -0.001104 -0.001437 -0.006481 -0.014402
# 2 -0.000153 0.022488 -0.004093 0.003104 0.004473 -0.013055
# 3 -0.001104 -0.004093 0.009335 0.004427 -0.006187 0.000066
# 4 -0.001437 0.003104 0.004427 0.023056 -0.003650 0.005428
# 5 -0.006481 0.004473 -0.006187 -0.003650 0.024228 0.002780
# 6 -0.014402 -0.013055 0.000066 0.005428 0.002780 0.057126
#
#
# Mechanical properties :
#
#
# Convention : Reuss Voigt Hill
#
# Bulk Modulus (GPa) = 28.43329 71.39094 49.91211
# Shear Modulus (GPa) = 28.95134 47.52280 38.23707
#
# Velocity S-wave (km/s) = 3.33615 4.27427 3.83401
# Velocity P-wave (km/s) = 5.07648 7.19753 6.22796
#
# Compressibility (1/GPa) = 0.03517005
#
# Stress axis : x y z
#
# Youngs Moduli (GPa) = 71.18892 44.46781 107.12340
#
# Poissons Ratio (x) = 0.00679 0.11831
# Poissons Ratio (y) = 0.01086 0.43847
# Poissons Ratio (z) = 0.07862 0.18201
#
# Static dielectric constant tensor:
#      x y z
#    x 1.892930 -0.005550 0.124040 
#    y -0.005550 2.139870 -0.177260 
#    z 0.124040 -0.177260 2.173900 
# 
# From -- ./inp_files/140083.got.cif
#   From: 2010.05.17/outbox.cif.g08.bks.cpg/sg2_71_cif.got.tgz:140083.got - 2010.06.03 11:33:40.
