data_PCOD9055008
_publ_section_title
;
Structure prediction by ZEFSAII (Michael W. Deem and Ramdas Pophale) SiO2 
 PCOD9055008
Probable space group: P -1
;
_chemical_formula_sum "Si O2"
_cell_formula_units_Z 16
_cell_length_a 7.313883
_cell_length_b 15.531708
_cell_length_c 14.203006
_cell_angle_alpha 28.097745
_cell_angle_beta 119.833116
_cell_angle_gamma 130.227732
_cell_volume 568.331260
_symmetry_space_group_name_H-M "P -1"
_symmetry_group_IT_number 2
_symmetry_cell_setting 'triclinic'
loop_
_space_group_symop_operation_xyz
x,y,z
-x,-y,-z
loop_
_atom_site_type_symbol
_atom_site_label
_atom_site_fract_x
_atom_site_fract_y
_atom_site_fract_z
Si Si1 0.136128 0.894494 0.584013
Si Si2 0.351570 0.394670 0.471995
Si Si3 0.856932 0.461179 0.825580
Si Si4 0.256290 0.451159 0.832083
Si Si5 0.976818 0.200728 0.823541
Si Si6 0.431040 0.015169 0.858287
Si Si7 0.594204 0.862482 0.772768
Si Si8 0.129272 0.731947 0.435641
O O1 0.941798 0.656292 0.732602
O O2 0.347389 0.870069 0.712927
O O3 0.278524 0.042359 0.387107
O O4 0.000000 0.000000 0.500000
O O5 0.500000 0.500000 0.500000
O O6 0.431525 0.550309 0.255958
O O7 0.091199 0.397145 0.408165
O O8 0.318165 0.165921 0.675706
O O9 0.133834 0.482864 0.862797
O O10 0.717304 0.204469 0.018958
O O11 0.045729 0.281413 0.867648
O O12 0.319704 0.658715 0.585983
O O13 0.420552 0.357127 0.996983
O O14 0.083765 0.367434 0.605280
O O15 0.708791 0.145466 0.764635
O O16 0.000000 0.000000 0.000000
O O17 0.500000 0.000000 0.000000
O O18 0.782469 0.034465 0.729702
#
# Coordination Sequence:
#
# PCOD9055008 Si02
#       8
#     2   2   2   2   2   2   2   2
#     4  11  27  54  81 110 148 199 269 340 389 457
#     4  11  21  39  71 102 144 200 235 293 376 457
#     4  11  24  44  72 105 145 197 250 309 386 452
#     4  11  22  44  75 109 149 203 241 306 390 468
#     4  12  24  41  66 110 158 197 246 301 364 475
#     4  12  22  40  67 101 147 197 244 293 373 458
#     4  11  24  51  82 106 151 197 258 329 401 447
#     4  11  23  45  69 110 154 198 249 305 382 457
#
# _framework density 28.152595000000002
#
# number of rings (size 3 to 8) (size 9 to 14) (size 15 to 20)
#    0.000    0.750    6.250    2.625    0.000    1.500 
#    2.250    0.625    2.750    0.000    0.000    0.000 
#    0.000    0.000    0.000    0.000    0.000    0.000 
#
# Total GULP energy -89187.704204 kJ/mol
# GULP energy per Si atom -5574.231513 kJ/mol
# Density = 2.808852 g / cm^3
# Si number density = 28.152595 Si / 1000 Ang^3
#
#
#
# Elastic Constant Matrix: (Units=GPa)
#
#
# Indices 1 2 3 4 5 6 
#
# 1 126.8420 49.2544 56.6477 -2.6846 35.8442 -12.3880
# 2 49.2544 132.9913 57.2964 -28.9433 20.6305 -14.9551
# 3 56.6477 57.2964 210.8191 -28.6041 66.0146 -10.2544
# 4 -2.6846 -28.9433 -28.6041 61.6996 -6.2633 4.7365
# 5 35.8442 20.6305 66.0146 -6.2633 62.0024 -2.8879
# 6 -12.3880 -14.9551 -10.2544 4.7365 -2.8879 40.0036
#
#
#
# Elastic Compliance Matrix: (Units=1/GPa)
#
#
# Indices 1 2 3 4 5 6 
#
# 1 0.010909 -0.003213 -0.000846 -0.002021 -0.004453 0.001878
# 2 -0.003213 0.010355 -0.001462 0.003928 0.000462 0.002070
# 3 -0.000846 -0.001462 0.007960 0.002197 -0.007257 0.000448
# 4 -0.002021 0.003928 0.002197 0.018988 -0.000601 -0.000886
# 5 -0.004453 0.000462 -0.007257 -0.000601 0.026163 -0.001107
# 6 0.001878 0.002070 0.000448 -0.000886 -0.001107 0.026493
#
#
# Mechanical properties :
#
#
# Convention : Reuss Voigt Hill
#
# Bulk Modulus (GPa) = 55.00362 88.56105 71.78234
# Shear Modulus (GPa) = 42.38308 53.23805 47.81056
#
# Velocity S-wave (km/s) = 3.88426 4.35334 4.12547
# Velocity P-wave (km/s) = 6.30053 7.53622 6.94591
#
# Compressibility (1/GPa) = 0.01818062
#
# Stress axis : x y z
#
# Youngs Moduli (GPa) = 91.67137 96.56988 125.62146
#
# Poissons Ratio (x) = 0.31032 0.10634
# Poissons Ratio (y) = 0.29458 0.18364
# Poissons Ratio (z) = 0.07760 0.14117
#
# Static dielectric constant tensor:
#      x y z
#    x 35.904680 -8.982710 -8.030940 
#    y -8.982710 4.569210 2.227530 
#    z -8.030940 2.227530 4.122280 
# 
# From -- ./inp_files/502548.got.cif
#   From: 2010.05.17/outbox.cif.g08.bks.cpg/sg2_252_cif.got.tgz:502548.got - 2010.06.03 11:33:40.
