data_PCOD9055586
_publ_section_title
;
Structure prediction by ZEFSAII (Michael W. Deem and Ramdas Pophale) SiO2 
 PCOD9055586
Probable space group: P -1
;
_chemical_formula_sum "Si O2"
_cell_formula_units_Z 16
_cell_length_a 15.487050
_cell_length_b 17.942102
_cell_length_c 7.804451
_cell_angle_alpha 107.904790
_cell_angle_beta 132.118919
_cell_angle_gamma 34.374630
_cell_volume 734.837044
_symmetry_space_group_name_H-M "P -1"
_symmetry_group_IT_number 2
_symmetry_cell_setting 'triclinic'
loop_
_space_group_symop_operation_xyz
x,y,z
-x,-y,-z
loop_
_atom_site_type_symbol
_atom_site_label
_atom_site_fract_x
_atom_site_fract_y
_atom_site_fract_z
Si Si1 0.749634 0.950273 0.910778
Si Si2 0.994152 0.727361 0.786488
Si Si3 0.108890 0.801072 0.771041
Si Si4 0.457432 0.402421 0.377806
Si Si5 0.357515 0.151422 0.816747
Si Si6 0.437962 0.820727 0.767651
Si Si7 0.217509 0.894043 0.850262
Si Si8 0.265996 0.637202 0.519819
O O1 0.770971 0.889658 0.721391
O O2 0.514086 0.077967 0.802422
O O3 0.986368 0.782836 0.211191
O O4 0.797975 0.014860 0.007126
O O5 0.110330 0.739573 0.883141
O O6 0.895275 0.734113 0.503748
O O7 0.198518 0.562173 0.048698
O O8 0.213104 0.826902 0.931682
O O9 0.257220 0.673497 0.724462
O O10 0.822007 0.982867 0.468724
O O11 0.531639 0.268244 0.386397
O O12 0.416046 0.472528 0.549550
O O13 0.640986 0.347296 0.469301
O O14 0.365855 0.225947 0.992060
O O15 0.500000 0.000000 0.000000
O O16 0.430530 0.781604 0.916005
O O17 0.000000 0.000000 0.500000
#
# Coordination Sequence:
#
# PCOD9055586 Si02
#       8
#     2   2   2   2   2   2   2   2
#     4  10  19  35  58  86 116 147 196 245 279 336
#     4  11  24  35  53  92 119 151 186 245 294 332
#     4  11  18  35  63  83 114 151 203 228 275 358
#     4  10  22  34  57  87 124 146 185 236 304 341
#     4  11  20  38  63  83 107 158 206 238 275 343
#     4  10  18  35  61  84 106 155 199 236 272 349
#     4   9  15  29  57  83 105 145 190 230 274 328
#     4  10  17  36  58  83 114 159 186 219 292 363
#
# _framework density 21.773534000000001
#
# number of rings (size 3 to 8) (size 9 to 14) (size 15 to 20)
#    0.000    1.750    6.250    1.125    0.000    1.500 
#    0.000    0.000    2.750    6.750    0.000    0.000 
#    0.000    0.000    0.000    0.000    0.000    0.000 
#
# Total GULP energy -89252.253466 kJ/mol
# GULP energy per Si atom -5578.265842 kJ/mol
# Density = 2.172398 g / cm^3
# Si number density = 21.773534 Si / 1000 Ang^3
#
#
#
# Elastic Constant Matrix: (Units=GPa)
#
#
# Indices 1 2 3 4 5 6 
#
# 1 52.5907 18.3252 8.3977 6.8709 10.4013 19.9075
# 2 18.3252 127.5707 20.5808 24.5469 4.6689 10.7465
# 3 8.3977 20.5808 75.7771 4.1414 12.3009 23.5223
# 4 6.8709 24.5469 4.1414 27.2711 9.5039 6.0831
# 5 10.4013 4.6689 12.3009 9.5039 19.2302 7.9403
# 6 19.9075 10.7465 23.5223 6.0831 7.9403 25.5996
#
#
#
# Elastic Compliance Matrix: (Units=1/GPa)
#
#
# Indices 1 2 3 4 5 6 
#
# 1 0.031138 -0.003902 0.007692 0.004705 -0.011971 -0.027049
# 2 -0.003902 0.010610 -0.003660 -0.010716 0.006099 0.002598
# 3 0.007692 -0.003660 0.021830 0.007057 -0.011369 -0.022654
# 4 0.004705 -0.010716 0.007057 0.056087 -0.027918 -0.010312
# 5 -0.011971 0.006099 -0.011369 -0.027918 0.078248 -0.000441
# 6 -0.027049 0.002598 -0.022654 -0.010312 -0.000441 0.082410
#
#
# Mechanical properties :
#
#
# Convention : Reuss Voigt Hill
#
# Bulk Modulus (GPa) = 15.66505 38.94954 27.30729
# Shear Modulus (GPa) = 16.59233 28.32914 22.46074
#
# Velocity S-wave (km/s) = 2.76350 3.61096 3.21528
# Velocity P-wave (km/s) = 4.17046 5.94245 5.13349
#
# Compressibility (1/GPa) = 0.06383639
#
# Stress axis : x y z
#
# Youngs Moduli (GPa) = 32.11488 94.25362 45.80779
#
# Poissons Ratio (x) = 0.36781 -0.35233
# Poissons Ratio (y) = 0.12532 0.16766
# Poissons Ratio (z) = -0.24701 0.34498
#
# Static dielectric constant tensor:
#      x y z
#    x 1.802240 -0.010030 -0.007590 
#    y -0.010030 1.830490 0.003840 
#    z -0.007590 0.003840 1.843900 
# 
# From -- ./inp_files/337773.got.cif
#   From: 2010.05.17/outbox.cif.g08.bks.cpg/sg2_169_cif.got.tgz:337773.got - 2010.06.03 11:33:40.
