data_PCOD9055244
_publ_section_title
;
Structure prediction by ZEFSAII (Michael W. Deem and Ramdas Pophale) SiO2 
 PCOD9055244
Probable space group: P -1
;
_chemical_formula_sum "Si O2"
_cell_formula_units_Z 14
_cell_length_a 15.241063
_cell_length_b 7.936948
_cell_length_c 11.321607
_cell_angle_alpha 103.983892
_cell_angle_beta 48.085410
_cell_angle_gamma 67.292350
_cell_volume 644.855359
_symmetry_space_group_name_H-M "P -1"
_symmetry_group_IT_number 2
_symmetry_cell_setting 'triclinic'
loop_
_space_group_symop_operation_xyz
x,y,z
-x,-y,-z
loop_
_atom_site_type_symbol
_atom_site_label
_atom_site_fract_x
_atom_site_fract_y
_atom_site_fract_z
Si Si1 0.951497 0.075002 0.918400
Si Si2 0.435624 0.576474 0.705185
Si Si3 0.123179 0.446621 0.980882
Si Si4 0.810034 0.720052 0.469594
Si Si5 0.473147 0.149514 0.705958
Si Si6 0.490536 0.183379 0.958367
Si Si7 0.286785 0.549635 0.406544
O O1 0.124430 0.855873 0.642540
O O2 0.882075 0.345479 0.008785
O O3 0.000000 0.000000 0.000000
O O4 0.779227 0.149758 0.053484
O O5 0.500000 0.500000 0.500000
O O6 0.478573 0.338686 0.682069
O O7 0.549669 0.591200 0.675491
O O8 0.008442 0.542052 0.219134
O O9 0.336049 0.175550 0.764933
O O10 0.000000 0.500000 0.000000
O O11 0.796020 0.547994 0.512184
O O12 0.676466 0.858330 0.498363
O O13 0.700048 0.978367 0.695379
O O14 0.400618 0.246503 0.923194
O O15 0.378982 0.447302 0.177882
O O16 0.500000 0.000000 0.000000
#
# Coordination Sequence:
#
# PCOD9055244 Si02
#       7
#     2   2   2   2   2   2   2
#     4  11  23  39  58  90 127 156 204 258 302 367
#     4  11  23  39  62  90 125 165 200 253 313 369
#     4  11  23  39  61  91 124 162 205 250 312 372
#     4   9  21  40  62  88 119 161 206 255 300 358
#     4   9  22  43  61  91 123 159 210 253 304 366
#     4   8  19  43  63  87 123 160 211 257 300 365
#     4  11  21  41  63  89 122 162 204 255 312 360
#
# _framework density 21.710294999999999
#
# number of rings (size 3 to 8) (size 9 to 14) (size 15 to 20)
#    0.857    1.143    1.429    1.714    2.000    3.429 
#    2.571    2.857    0.000    0.000    0.000    0.000 
#    0.000    0.000    0.000    0.000    0.000    0.000 
#
# Total GULP energy -78029.642566 kJ/mol
# GULP energy per Si atom -5573.545898 kJ/mol
# Density = 2.166088 g / cm^3
# Si number density = 21.710295 Si / 1000 Ang^3
#
#
#
# Elastic Constant Matrix: (Units=GPa)
#
#
# Indices 1 2 3 4 5 6 
#
# 1 55.2358 -9.5860 24.2039 -8.7486 0.8121 -8.2207
# 2 -9.5860 48.3582 -9.3492 -15.4594 -1.0511 -4.9676
# 3 24.2039 -9.3492 105.3020 -5.9920 -13.9540 -4.1177
# 4 -8.7486 -15.4594 -5.9920 33.7592 -4.7683 2.5940
# 5 0.8121 -1.0511 -13.9540 -4.7683 37.7458 -3.6833
# 6 -8.2207 -4.9676 -4.1177 2.5940 -3.6833 17.6919
#
#
#
# Elastic Compliance Matrix: (Units=1/GPa)
#
#
# Indices 1 2 3 4 5 6 
#
# 1 0.024199 0.007913 -0.003877 0.008391 0.000441 0.011426
# 2 0.007913 0.029011 0.002704 0.015624 0.004698 0.011140
# 3 -0.003877 0.002704 0.011539 0.002814 0.005002 0.002272
# 4 0.008391 0.015624 0.002814 0.040065 0.006793 0.004481
# 5 0.000441 0.004698 0.005002 0.006793 0.030098 0.007958
# 6 0.011426 0.011140 0.002272 0.004481 0.007958 0.066488
#
#
# Mechanical properties :
#
#
# Convention : Reuss Voigt Hill
#
# Bulk Modulus (GPa) = 12.78261 24.38149 18.58205
# Shear Modulus (GPa) = 23.36466 31.41455 27.38961
#
# Velocity S-wave (km/s) = 3.28411 3.80806 3.55575
# Velocity P-wave (km/s) = 4.50345 5.53081 5.04336
#
# Compressibility (1/GPa) = 0.07823129
#
# Stress axis : x y z
#
# Youngs Moduli (GPa) = 41.32339 34.46910 86.65916
#
# Poissons Ratio (x) = -0.27277 0.33597
# Poissons Ratio (y) = -0.32701 -0.23433
# Poissons Ratio (z) = 0.16021 -0.09321
#
# Static dielectric constant tensor:
#      x y z
#    x 1.835730 0.003870 0.001340 
#    y 0.003870 1.759180 -0.012620 
#    z 0.001340 -0.012620 1.847360 
# 
# From -- ./inp_files/247969.got.cif
#   From: 2010.05.17/outbox.cif.g08.bks.cpg/sg2_124_cif.got.tgz:247969.got - 2010.06.03 11:33:40.
