data_PCOD9055137
_publ_section_title
;
Structure prediction by ZEFSAII (Michael W. Deem and Ramdas Pophale) SiO2 
 PCOD9055137
Probable space group: P -1
;
_chemical_formula_sum "Si O2"
_cell_formula_units_Z 16
_cell_length_a 9.751779
_cell_length_b 11.411464
_cell_length_c 18.502888
_cell_angle_alpha 42.915066
_cell_angle_beta 74.962400
_cell_angle_gamma 40.794304
_cell_volume 685.667559
_symmetry_space_group_name_H-M "P -1"
_symmetry_group_IT_number 2
_symmetry_cell_setting 'triclinic'
loop_
_space_group_symop_operation_xyz
x,y,z
-x,-y,-z
loop_
_atom_site_type_symbol
_atom_site_label
_atom_site_fract_x
_atom_site_fract_y
_atom_site_fract_z
Si Si1 0.931302 0.741146 0.201663
Si Si2 0.045834 0.349534 0.488990
Si Si3 0.473754 0.330693 0.605974
Si Si4 0.192731 0.180237 0.334023
Si Si5 0.490318 0.298253 0.359693
Si Si6 0.288770 0.561355 0.757859
Si Si7 0.244541 0.074777 0.100982
Si Si8 0.282830 0.439191 0.965447
O O1 0.963909 0.561310 0.339651
O O2 0.042233 0.519026 0.216776
O O3 0.160206 0.645642 0.233833
O O4 0.610179 0.132022 0.071629
O O5 0.000000 0.500000 0.500000
O O6 0.842193 0.400122 0.485495
O O7 0.361377 0.958010 0.610290
O O8 0.500000 0.500000 0.500000
O O9 0.658104 0.007183 0.677941
O O10 0.575967 0.193398 0.735565
O O11 0.948924 0.290756 0.320374
O O12 0.422376 0.894799 0.492709
O O13 0.637905 0.327007 0.329376
O O14 0.582943 0.154201 0.890126
O O15 0.199205 0.645247 0.815970
O O16 0.251489 0.273510 0.018278
O O17 0.932771 0.327396 0.043656
#
# Coordination Sequence:
#
# PCOD9055137 Si02
#       8
#     2   2   2   2   2   2   2   2
#     4  11  23  43  62  90 128 175 214 258 317 396
#     4  11  22  41  63  94 127 169 210 263 326 392
#     4  12  22  37  65 102 129 158 212 277 330 374
#     4  11  21  40  68  95 126 169 212 268 332 379
#     4  11  24  42  63  96 133 163 215 271 329 381
#     4  12  23  42  69  96 129 172 212 273 327 368
#     4  11  23  42  65  99 128 167 220 268 314 383
#     4  11  24  43  66  92 133 171 227 253 317 387
#
# _framework density 23.334921000000001
#
# number of rings (size 3 to 8) (size 9 to 14) (size 15 to 20)
#    0.000    0.750    3.750    6.000    0.000    0.500 
#    2.250    0.625    0.000    0.000    0.000    0.000 
#    0.000    0.000    0.000    0.000    0.000    0.000 
#
# Total GULP energy -89533.379577 kJ/mol
# GULP energy per Si atom -5595.836224 kJ/mol
# Density = 2.328181 g / cm^3
# Si number density = 23.334921 Si / 1000 Ang^3
#
#
#
# Elastic Constant Matrix: (Units=GPa)
#
#
# Indices 1 2 3 4 5 6 
#
# 1 81.0184 3.8776 18.9732 -8.3650 19.3987 -28.8347
# 2 3.8776 91.9953 2.3505 -17.2276 18.0117 -6.7192
# 3 18.9732 2.3505 63.5723 -9.4809 18.1175 -12.7696
# 4 -8.3650 -17.2276 -9.4809 33.6388 -21.0417 4.0922
# 5 19.3987 18.0117 18.1175 -21.0417 36.9911 -9.5027
# 6 -28.8347 -6.7192 -12.7696 4.0922 -9.5027 39.6499
#
#
#
# Elastic Compliance Matrix: (Units=1/GPa)
#
#
# Indices 1 2 3 4 5 6 
#
# 1 0.018299 0.001322 -0.001292 -0.001083 -0.007273 0.011484
# 2 0.001322 0.012604 0.001503 0.003964 -0.004792 0.002024
# 3 -0.001292 0.001503 0.019193 0.000122 -0.008500 0.003446
# 4 -0.001083 0.003964 0.000122 0.047629 0.025989 0.001236
# 5 -0.007273 -0.004792 -0.008500 0.025989 0.052393 0.001036
# 6 0.011484 0.002024 0.003446 0.001236 0.001036 0.035146
#
#
# Mechanical properties :
#
#
# Convention : Reuss Voigt Hill
#
# Bulk Modulus (GPa) = 18.81096 31.88761 25.34928
# Shear Modulus (GPa) = 25.00996 36.14826 30.57911
#
# Velocity S-wave (km/s) = 3.27736 3.94014 3.62393
# Velocity P-wave (km/s) = 4.73289 5.86468 5.32892
#
# Compressibility (1/GPa) = 0.05316050
#
# Stress axis : x y z
#
# Youngs Moduli (GPa) = 54.64763 79.33817 52.10222
#
# Poissons Ratio (x) = -0.10485 0.06733
# Poissons Ratio (y) = -0.07222 -0.07830
# Poissons Ratio (z) = 0.07062 -0.11923
#
# Static dielectric constant tensor:
#      x y z
#    x 1.895870 0.023350 0.026280 
#    y 0.023350 1.917360 -0.031910 
#    z 0.026280 -0.031910 1.890670 
# 
# From -- ./inp_files/436395.got.cif
#   From: 2010.05.17/outbox.cif.g08.bks.cpg/sg2_219_cif.got.tgz:436395.got - 2010.06.03 11:33:40.
