data_PCOD9055194
_publ_section_title
;
Structure prediction by ZEFSAII (Michael W. Deem and Ramdas Pophale) SiO2 
 PCOD9055194
Probable space group: P -1
;
_chemical_formula_sum "Si O2"
_cell_formula_units_Z 16
_cell_length_a 8.463754
_cell_length_b 16.728311
_cell_length_c 11.059567
_cell_angle_alpha 37.950622
_cell_angle_beta 136.954282
_cell_angle_gamma 135.662363
_cell_volume 620.249929
_symmetry_space_group_name_H-M "P -1"
_symmetry_group_IT_number 2
_symmetry_cell_setting 'triclinic'
loop_
_space_group_symop_operation_xyz
x,y,z
-x,-y,-z
loop_
_atom_site_type_symbol
_atom_site_label
_atom_site_fract_x
_atom_site_fract_y
_atom_site_fract_z
Si Si1 0.737717 0.937402 0.581341
Si Si2 0.506567 0.543059 0.748646
Si Si3 0.176214 0.171087 0.505084
Si Si4 0.472439 0.157413 0.914591
Si Si5 0.797428 0.665572 0.364498
Si Si6 0.808573 0.458684 0.207951
Si Si7 0.057234 0.775341 0.042043
Si Si8 0.250568 0.888306 0.264308
O O1 0.783284 0.885301 0.535445
O O2 0.446528 0.894478 0.471963
O O3 0.894520 0.099538 0.472812
O O4 0.864360 0.858345 0.837059
O O5 0.698640 0.665559 0.635102
O O6 0.300502 0.441037 0.671740
O O7 0.375575 0.604212 0.707970
O O8 0.652447 0.458144 0.002580
O O9 0.321076 0.118827 0.751372
O O10 0.436674 0.302777 0.752341
O O11 0.749610 0.172966 0.020356
O O12 0.358892 0.040939 0.088446
O O13 0.974688 0.603527 0.612057
O O14 0.982184 0.817664 0.252854
O O15 0.921350 0.617223 0.124242
O O16 0.210184 0.797515 0.225665
#
# Coordination Sequence:
#
# PCOD9055194 Si02
#       8
#     2   2   2   2   2   2   2   2
#     4  11  23  41  73 107 128 178 242 286 341 388
#     4  11  24  45  70 103 137 180 234 285 343 405
#     4  11  21  40  70  99 140 172 225 291 333 403
#     4  12  26  46  68 106 143 181 228 285 352 408
#     4  12  28  47  68 102 146 188 220 279 356 417
#     4  11  25  43  72 103 136 182 232 282 339 419
#     4  12  23  44  76 103 136 177 237 292 332 408
#     4  12  25  46  74 101 137 186 233 285 337 410
#
# _framework density 25.796053000000001
#
# number of rings (size 3 to 8) (size 9 to 14) (size 15 to 20)
#    0.000    0.500    5.000    4.125    1.750    2.000 
#    4.500    1.875    0.000    0.000    0.000    0.000 
#    0.000    0.000    0.000    0.000    0.000    0.000 
#
# Total GULP energy -89548.043789 kJ/mol
# GULP energy per Si atom -5596.752737 kJ/mol
# Density = 2.573734 g / cm^3
# Si number density = 25.796053 Si / 1000 Ang^3
#
#
#
# Elastic Constant Matrix: (Units=GPa)
#
#
# Indices 1 2 3 4 5 6 
#
# 1 43.4630 25.9587 20.8051 -4.0145 10.2841 10.6970
# 2 25.9587 110.7107 37.5753 3.3103 0.2040 42.4828
# 3 20.8051 37.5753 145.4581 7.8594 -2.1713 19.1098
# 4 -4.0145 3.3103 7.8594 38.8174 4.4405 -0.5340
# 5 10.2841 0.2040 -2.1713 4.4405 21.5210 5.3400
# 6 10.6970 42.4828 19.1098 -0.5340 5.3400 24.5196
#
#
#
# Elastic Compliance Matrix: (Units=1/GPa)
#
#
# Indices 1 2 3 4 5 6 
#
# 1 0.035282 -0.013075 -0.004575 0.008533 -0.022930 0.016007
# 2 -0.013075 0.036051 0.001684 -0.008330 0.023520 -0.063374
# 3 -0.004575 0.001684 0.008523 -0.003139 0.005890 -0.008916
# 4 0.008533 -0.008330 -0.003139 0.029906 -0.014707 0.017010
# 5 -0.022930 0.023520 0.005890 -0.014707 0.073658 -0.051700
# 6 0.016007 -0.063374 -0.008916 0.017010 -0.051700 0.162181
#
#
# Mechanical properties :
#
#
# Convention : Reuss Voigt Hill
#
# Bulk Modulus (GPa) = 20.86653 52.03445 36.45049
# Shear Modulus (GPa) = 12.70626 31.32444 22.01535
#
# Velocity S-wave (km/s) = 2.22179 3.48848 2.92454
# Velocity P-wave (km/s) = 3.83254 6.03666 5.05617
#
# Compressibility (1/GPa) = 0.04792365
#
# Stress axis : x y z
#
# Youngs Moduli (GPa) = 28.34346 27.73863 117.32976
#
# Poissons Ratio (x) = 0.36269 0.53679
# Poissons Ratio (y) = 0.37060 -0.19763
# Poissons Ratio (z) = 0.12967 -0.04672
#
# Static dielectric constant tensor:
#      x y z
#    x 2.049200 0.021300 0.006970 
#    y 0.021300 2.014800 -0.025830 
#    z 0.006970 -0.025830 2.034490 
# 
# From -- ./inp_files/402917.got.cif
#   From: 2010.05.17/outbox.cif.g08.bks.cpg/sg2_202_cif.got.tgz:402917.got - 2010.06.03 11:33:40.
