data_PCOD9055597
_publ_section_title
;
Structure prediction by ZEFSAII (Michael W. Deem and Ramdas Pophale) SiO2 
 PCOD9055597
Probable space group: P -1
;
_chemical_formula_sum "Si O2"
_cell_formula_units_Z 16
_cell_length_a 15.471486
_cell_length_b 10.487587
_cell_length_c 9.713713
_cell_angle_alpha 60.248571
_cell_angle_beta 29.028282
_cell_angle_gamma 64.050898
_cell_volume 663.967956
_symmetry_space_group_name_H-M "P -1"
_symmetry_group_IT_number 2
_symmetry_cell_setting 'triclinic'
loop_
_space_group_symop_operation_xyz
x,y,z
-x,-y,-z
loop_
_atom_site_type_symbol
_atom_site_label
_atom_site_fract_x
_atom_site_fract_y
_atom_site_fract_z
Si Si1 0.183751 0.361794 0.337178
Si Si2 0.986664 0.540192 0.731600
Si Si3 0.540840 0.399527 0.131635
Si Si4 0.924226 0.914406 0.943041
Si Si5 0.199292 0.742701 0.502521
Si Si6 0.734351 0.923418 0.489683
Si Si7 0.648613 0.485352 0.416558
Si Si8 0.354213 0.920888 0.956459
O O1 0.083372 0.339511 0.346056
O O2 0.299580 0.225145 0.298165
O O3 0.047746 0.401810 0.628458
O O4 0.295895 0.509192 0.080338
O O5 0.155331 0.609802 0.532236
O O6 0.835969 0.507210 0.068874
O O7 0.395649 0.406655 0.452140
O O8 0.590430 0.234068 0.110525
O O9 0.500000 0.500000 0.000000
O O10 0.012529 0.777593 0.816669
O O11 0.817084 0.885232 0.246675
O O12 0.105703 0.998107 0.693504
O O13 0.788684 0.997490 0.984527
O O14 0.342165 0.677888 0.443858
O O15 0.263881 0.877758 0.249741
O O16 0.543009 0.998521 0.685545
O O17 0.500000 0.500000 0.500000
#
# Coordination Sequence:
#
# PCOD9055597 Si02
#       8
#     2   2   2   2   2   2   2   2
#     4  11  21  42  71 104 139 186 228 293 365 423
#     4  11  24  39  69 104 141 185 229 289 366 418
#     4  12  22  43  70 105 141 180 230 297 360 423
#     4  11  28  48  69 102 140 192 243 286 344 425
#     4  12  25  46  67 101 145 184 233 296 349 426
#     4  11  25  46  72  98 140 187 238 293 351 416
#     4  12  25  41  66 110 143 180 233 293 360 421
#     4  12  25  46  74 102 138 188 242 286 354 428
#
# _framework density 24.097546999999999
#
# number of rings (size 3 to 8) (size 9 to 14) (size 15 to 20)
#    0.000    0.500    5.000    2.625    3.500    2.500 
#    2.250    0.000    0.000    0.000    0.000    0.000 
#    0.000    0.000    0.000    0.000    0.000    0.000 
#
# Total GULP energy -89515.659051 kJ/mol
# GULP energy per Si atom -5594.728691 kJ/mol
# Density = 2.404270 g / cm^3
# Si number density = 24.097547 Si / 1000 Ang^3
#
#
#
# Elastic Constant Matrix: (Units=GPa)
#
#
# Indices 1 2 3 4 5 6 
#
# 1 168.3620 45.1339 37.7620 4.6192 -7.7490 -37.1945
# 2 45.1339 49.5181 -2.2938 11.4475 -1.0863 -20.0652
# 3 37.7620 -2.2938 127.5936 10.1997 6.8722 2.2797
# 4 4.6192 11.4475 10.1997 33.2825 6.4985 -4.1472
# 5 -7.7490 -1.0863 6.8722 6.4985 48.8762 2.1829
# 6 -37.1945 -20.0652 2.2797 -4.1472 2.1829 36.5245
#
#
#
# Elastic Compliance Matrix: (Units=1/GPa)
#
#
# Indices 1 2 3 4 5 6 
#
# 1 0.010184 -0.007299 -0.003559 0.002789 0.001277 0.006824
# 2 -0.007299 0.033203 0.003408 -0.010287 0.000048 0.009424
# 3 -0.003559 0.003408 0.009356 -0.003645 -0.001200 -0.002678
# 4 0.002789 -0.010287 -0.003645 0.035311 -0.004043 0.001667
# 5 0.001277 0.000048 -0.001200 -0.004043 0.021385 -0.000335
# 6 0.006824 0.009424 -0.002678 0.001667 -0.000335 0.039881
#
#
# Mechanical properties :
#
#
# Convention : Reuss Voigt Hill
#
# Bulk Modulus (GPa) = 26.42415 56.29754 41.36085
# Shear Modulus (GPa) = 28.27501 41.39475 34.83488
#
# Velocity S-wave (km/s) = 3.42915 4.14913 3.80620
# Velocity P-wave (km/s) = 5.16411 6.80932 6.04296
#
# Compressibility (1/GPa) = 0.03784416
#
# Stress axis : x y z
#
# Youngs Moduli (GPa) = 98.19026 30.11755 106.88569
#
# Poissons Ratio (x) = 0.21983 0.38040
# Poissons Ratio (y) = 0.71670 -0.36432
# Poissons Ratio (z) = 0.34945 -0.10265
#
# Static dielectric constant tensor:
#      x y z
#    x 1.984780 0.050020 -0.027960 
#    y 0.050020 1.933580 -0.002870 
#    z -0.027960 -0.002870 1.943570 
# 
# From -- ./inp_files/306869.got.cif
#   From: 2010.05.17/outbox.cif.g08.bks.cpg/sg2_154_cif.got.tgz:306869.got - 2010.06.03 11:33:40.
