data_PCOD9055496
_publ_section_title
;
Structure prediction by ZEFSAII (Michael W. Deem and Ramdas Pophale) SiO2 
 PCOD9055496
Probable space group: P -1
;
_chemical_formula_sum "Si O2"
_cell_formula_units_Z 16
_cell_length_a 16.456539
_cell_length_b 12.559686
_cell_length_c 9.237989
_cell_angle_alpha 89.086182
_cell_angle_beta 81.316848
_cell_angle_gamma 153.879662
_cell_volume 779.014905
_symmetry_space_group_name_H-M "P -1"
_symmetry_group_IT_number 2
_symmetry_cell_setting 'triclinic'
loop_
_space_group_symop_operation_xyz
x,y,z
-x,-y,-z
loop_
_atom_site_type_symbol
_atom_site_label
_atom_site_fract_x
_atom_site_fract_y
_atom_site_fract_z
Si Si1 0.742333 0.781692 0.942977
Si Si2 0.205918 0.801501 0.883518
Si Si3 0.649078 0.213028 0.330738
Si Si4 0.974775 0.359175 0.585262
Si Si5 0.813274 0.053248 0.383282
Si Si6 0.331876 0.080478 0.120021
Si Si7 0.420399 0.622460 0.694224
Si Si8 0.901935 0.933867 0.220537
O O1 0.792472 0.957004 0.859282
O O2 0.500000 0.500000 0.000000
O O3 0.832922 0.886441 0.077977
O O4 0.869909 0.837933 0.833440
O O5 0.345897 0.869196 0.793900
O O6 0.175128 0.846429 0.753736
O O7 0.313743 0.998323 0.975216
O O8 0.000000 0.500000 0.000000
O O9 0.863328 0.462988 0.341040
O O10 0.617275 0.296876 0.297656
O O11 0.500000 0.000000 0.500000
O O12 0.000000 0.500000 0.500000
O O13 0.971510 0.270192 0.460178
O O14 0.769189 0.114361 0.730855
O O15 0.601428 0.811903 0.529742
O O16 0.853301 0.981018 0.323769
O O17 0.531114 0.345574 0.149657
O O18 0.237307 0.332149 0.702979
#
# Coordination Sequence:
#
# PCOD9055496 Si02
#       8
#     2   2   2   2   2   2   2   2
#     4  11  23  44  69  99 139 176 227 289 347 410
#     4  12  23  40  70  98 135 181 233 288 335 417
#     4  12  23  42  65  98 138 179 228 282 357 402
#     4  11  21  42  67  92 131 182 224 279 346 407
#     4  11  23  44  67 101 138 176 232 286 341 413
#     4  11  22  42  68  97 133 180 223 283 346 398
#     4  11  24  43  70  99 141 183 225 286 349 418
#     4  11  24  43  72 101 134 185 227 284 354 409
#
# _framework density 20.53876
#
# number of rings (size 3 to 8) (size 9 to 14) (size 15 to 20)
#    0.000    0.750    6.250    1.875    0.000    0.500 
#    4.500    3.125    0.000    0.000    0.000    0.000 
#    0.000    0.000    0.000    0.000    0.000    0.000 
#
# Total GULP energy -89196.373112 kJ/mol
# GULP energy per Si atom -5574.773319 kJ/mol
# Density = 2.049201 g / cm^3
# Si number density = 20.538760 Si / 1000 Ang^3
#
#
#
# Elastic Constant Matrix: (Units=GPa)
#
#
# Indices 1 2 3 4 5 6 
#
# 1 164.3758 28.0329 40.2516 7.3684 -18.0290 -9.9382
# 2 28.0329 75.1702 19.5795 4.2436 -12.3213 1.3064
# 3 40.2516 19.5795 85.8363 10.3794 -14.6609 -8.9785
# 4 7.3684 4.2436 10.3794 42.9054 -9.3073 -3.0614
# 5 -18.0290 -12.3213 -14.6609 -9.3073 43.9495 2.0286
# 6 -9.9382 1.3064 -8.9785 -3.0614 2.0286 32.0546
#
#
#
# Elastic Compliance Matrix: (Units=1/GPa)
#
#
# Indices 1 2 3 4 5 6 
#
# 1 0.007287 -0.001818 -0.002579 -0.000004 0.001549 0.001512
# 2 -0.001818 0.015080 -0.002305 -0.000164 0.002771 -0.002015
# 3 -0.002579 -0.002305 0.014374 -0.002048 0.002520 0.002965
# 4 -0.000004 -0.000164 -0.002048 0.024898 0.004471 0.001527
# 5 0.001549 0.002771 0.002520 0.004471 0.025960 -0.000143
# 6 0.001512 -0.002015 0.002965 0.001527 -0.000143 0.032733
#
#
# Mechanical properties :
#
#
# Convention : Reuss Voigt Hill
#
# Bulk Modulus (GPa) = 42.85156 55.67891 49.26523
# Shear Modulus (GPa) = 35.33220 39.61646 37.47433
#
# Velocity S-wave (km/s) = 4.15211 4.39665 4.27613
# Velocity P-wave (km/s) = 6.62539 7.27613 6.95837
#
# Compressibility (1/GPa) = 0.02333637
#
# Stress axis : x y z
#
# Youngs Moduli (GPa) = 137.23686 66.31323 69.57243
#
# Poissons Ratio (x) = 0.12055 0.17944
# Poissons Ratio (y) = 0.24947 0.16036
# Poissons Ratio (z) = 0.35396 0.15284
#
# Static dielectric constant tensor:
#      x y z
#    x 1.788780 -0.001290 0.020830 
#    y -0.001290 1.767420 0.012500 
#    z 0.020830 0.012500 1.741400 
# 
# From -- ./inp_files/307542.got.cif
#   From: 2010.05.17/outbox.cif.g08.bks.cpg/sg2_154_cif.got.tgz:307542.got - 2010.06.03 11:33:40.
