data_PCOD9055555
_publ_section_title
;
Structure prediction by ZEFSAII (Michael W. Deem and Ramdas Pophale) SiO2 
 PCOD9055555
Probable space group: P -1
;
_chemical_formula_sum "Si O2"
_cell_formula_units_Z 16
_cell_length_a 7.754359
_cell_length_b 12.285466
_cell_length_c 17.312394
_cell_angle_alpha 40.374895
_cell_angle_beta 47.508889
_cell_angle_gamma 78.148443
_cell_volume 600.461551
_symmetry_space_group_name_H-M "P -1"
_symmetry_group_IT_number 2
_symmetry_cell_setting 'triclinic'
loop_
_space_group_symop_operation_xyz
x,y,z
-x,-y,-z
loop_
_atom_site_type_symbol
_atom_site_label
_atom_site_fract_x
_atom_site_fract_y
_atom_site_fract_z
Si Si1 0.371997 0.103906 0.935398
Si Si2 0.153391 0.953044 0.363198
Si Si3 0.157121 0.342207 0.721832
Si Si4 0.509888 0.220678 0.307177
Si Si5 0.373177 0.818817 0.505625
Si Si6 0.616448 0.508402 0.263115
Si Si7 0.681277 0.414775 0.982582
Si Si8 0.120109 0.629122 0.473523
O O1 0.433248 0.317246 0.838695
O O2 0.526801 0.186292 0.758596
O O3 0.500000 0.000000 0.000000
O O4 0.027392 0.892304 0.135498
O O5 0.308796 0.888034 0.408668
O O6 0.002584 0.762552 0.448429
O O7 0.861943 0.916219 0.506299
O O8 0.446146 0.197778 0.118181
O O9 0.500000 0.500000 0.500000
O O10 0.141642 0.336436 0.822770
O O11 0.042289 0.466095 0.653434
O O12 0.642581 0.410078 0.229323
O O13 0.662998 0.336069 0.117143
O O14 0.535400 0.029644 0.398065
O O15 0.543771 0.719642 0.514363
O O16 0.025111 0.613980 0.747438
O O17 0.500000 0.500000 0.000000
O O18 0.000000 0.500000 0.500000
#
# Coordination Sequence:
#
# PCOD9055555 Si02
#       8
#     2   2   2   2   2   2   2   2
#     4  12  28  50  74 109 146 189 258 302 354 458
#     4  11  23  39  75 100 138 187 239 295 360 422
#     4  12  27  49  74 106 152 188 242 308 370 433
#     4  11  24  44  67 108 141 183 242 293 357 442
#     4  11  23  46  69 102 143 182 243 298 357 429
#     4  12  27  46  73 102 149 193 229 306 379 425
#     4  11  21  42  70 101 138 187 239 300 349 427
#     4  12  25  46  75 109 143 195 246 300 358 436
#
# _framework density 26.646170999999999
#
# number of rings (size 3 to 8) (size 9 to 14) (size 15 to 20)
#    0.000    0.500    6.250    2.250    1.750    1.500 
#    2.250    0.000    0.000    0.000    0.000    0.000 
#    0.000    0.000    0.000    0.000    0.000    0.000 
#
# Total GULP energy -89154.392562 kJ/mol
# GULP energy per Si atom -5572.149535 kJ/mol
# Density = 2.658552 g / cm^3
# Si number density = 26.646171 Si / 1000 Ang^3
#
#
#
# Elastic Constant Matrix: (Units=GPa)
#
#
# Indices 1 2 3 4 5 6 
#
# 1 113.6430 20.4999 24.0469 -24.4640 14.8874 -6.1264
# 2 20.4999 158.3912 51.4652 -64.4430 1.6542 3.3624
# 3 24.0469 51.4652 148.2592 -30.7364 -2.0375 -4.7690
# 4 -24.4640 -64.4430 -30.7364 59.8585 -11.7602 9.8547
# 5 14.8874 1.6542 -2.0375 -11.7602 39.6231 -4.5952
# 6 -6.1264 3.3624 -4.7690 9.8547 -4.5952 43.5509
#
#
#
# Elastic Compliance Matrix: (Units=1/GPa)
#
#
# Indices 1 2 3 4 5 6 
#
# 1 0.010077 0.000520 -0.001117 0.003528 -0.002799 0.000161
# 2 0.000520 0.012586 -0.001603 0.014172 0.002942 -0.003970
# 3 -0.001117 -0.001603 0.007963 0.002133 0.001590 0.000524
# 4 0.003528 0.014172 0.002133 0.037458 0.008387 -0.007955
# 5 -0.002799 0.002942 0.001590 0.008387 0.028819 0.000696
# 6 0.000161 -0.003970 0.000524 -0.007955 0.000696 0.025222
#
#
# Mechanical properties :
#
#
# Convention : Reuss Voigt Hill
#
# Bulk Modulus (GPa) = 38.12775 68.03528 53.08151
# Shear Modulus (GPa) = 36.96400 50.22526 43.59463
#
# Velocity S-wave (km/s) = 3.72858 4.34625 4.04921
# Velocity P-wave (km/s) = 5.73379 7.12564 6.46727
#
# Compressibility (1/GPa) = 0.02622762
#
# Stress axis : x y z
#
# Youngs Moduli (GPa) = 99.23649 79.45107 125.57450
#
# Poissons Ratio (x) = -0.04131 0.14024
# Poissons Ratio (y) = -0.05160 0.20126
# Poissons Ratio (z) = 0.11082 0.12734
#
# Static dielectric constant tensor:
#      x y z
#    x 2.282290 -0.060570 -0.149000 
#    y -0.060570 2.260820 0.005170 
#    z -0.149000 0.005170 2.128690 
# 
# From -- ./inp_files/559658.got.cif
#   From: 2010.05.17/outbox.cif.g08.bks.cpg/sg2_280_cif.got.tgz:559658.got - 2010.06.03 11:33:40.
