data_PCOD9055713
_publ_section_title
;
Structure prediction by ZEFSAII (Michael W. Deem and Ramdas Pophale) SiO2 
 PCOD9055713
Probable space group: P -1
;
_chemical_formula_sum "Si O2"
_cell_formula_units_Z 16
_cell_length_a 15.528561
_cell_length_b 11.923091
_cell_length_c 7.876307
_cell_angle_alpha 118.328473
_cell_angle_beta 115.864669
_cell_angle_gamma 28.056744
_cell_volume 603.217810
_symmetry_space_group_name_H-M "P -1"
_symmetry_group_IT_number 2
_symmetry_cell_setting 'triclinic'
loop_
_space_group_symop_operation_xyz
x,y,z
-x,-y,-z
loop_
_atom_site_type_symbol
_atom_site_label
_atom_site_fract_x
_atom_site_fract_y
_atom_site_fract_z
Si Si1 0.677157 0.472924 0.414161
Si Si2 0.511732 0.393100 0.196587
Si Si3 0.012334 0.713925 0.308894
Si Si4 0.178120 0.689170 0.959456
Si Si5 0.646480 0.055449 0.353787
Si Si6 0.340818 0.233549 0.763954
Si Si7 0.759638 0.763852 0.682863
Si Si8 0.161873 0.050466 0.042791
O O1 0.602753 0.418842 0.360680
O O2 0.842757 0.338924 0.571962
O O3 0.754688 0.380176 0.225310
O O4 0.499060 0.766225 0.490516
O O5 0.545148 0.241266 0.246870
O O6 0.628670 0.228481 0.009117
O O7 0.299692 0.642319 0.147813
O O8 0.121957 0.459094 0.251567
O O9 0.918866 0.833769 0.132272
O O10 0.841458 0.903183 0.429071
O O11 0.246479 0.468109 0.914777
O O12 0.961605 0.920457 0.963700
O O13 0.681660 0.867225 0.214862
O O14 0.255960 0.290075 0.549027
O O15 0.556529 0.009710 0.760422
O O16 0.843832 0.808362 0.766659
#
# Coordination Sequence:
#
# PCOD9055713 Si02
#       8
#     2   2   2   2   2   2   2   2
#     4  12  25  46  71  96 135 181 230 273 323 398
#     4  11  27  47  66  99 137 179 228 275 327 392
#     4  11  24  43  68 102 133 179 220 273 338 395
#     4  12  25  44  70 101 135 177 219 281 337 392
#     4  11  25  43  71 100 131 178 222 278 333 399
#     4  11  22  40  73 101 132 177 217 275 344 398
#     4  11  21  43  68 102 141 168 219 279 335 405
#     4  11  26  42  68 100 140 173 220 275 339 399
#
# _framework density 26.524418000000001
#
# number of rings (size 3 to 8) (size 9 to 14) (size 15 to 20)
#    0.000    0.750    3.750    3.375    1.750    6.000 
#    0.000    0.000    0.000    0.000    0.000    0.000 
#    0.000    0.000    0.000    0.000    0.000    0.000 
#
# Total GULP energy -89808.240510 kJ/mol
# GULP energy per Si atom -5613.015032 kJ/mol
# Density = 2.646405 g / cm^3
# Si number density = 26.524418 Si / 1000 Ang^3
#
#
#
# Elastic Constant Matrix: (Units=GPa)
#
#
# Indices 1 2 3 4 5 6 
#
# 1 142.5563 18.6114 30.0827 -18.1175 3.5343 -19.9549
# 2 18.6114 98.7355 23.2037 -14.6016 -6.0298 -24.9165
# 3 30.0827 23.2037 63.9369 -4.5015 12.1566 -18.0472
# 4 -18.1175 -14.6016 -4.5015 37.9355 -7.0355 -2.1168
# 5 3.5343 -6.0298 12.1566 -7.0355 44.9406 -4.3539
# 6 -19.9549 -24.9165 -18.0472 -2.1168 -4.3539 56.1938
#
#
#
# Elastic Compliance Matrix: (Units=1/GPa)
#
#
# Indices 1 2 3 4 5 6 
#
# 1 0.008517 0.000508 -0.003452 0.004214 0.001224 0.002395
# 2 0.000508 0.013511 -0.004000 0.006077 0.004334 0.005451
# 3 -0.003452 -0.004000 0.020575 -0.001647 -0.005789 0.003098
# 4 0.004214 0.006077 -0.001647 0.032015 0.006462 0.005368
# 5 0.001224 0.004334 -0.005789 0.006462 0.025578 0.002723
# 6 0.002395 0.005451 0.003098 0.005368 0.002723 0.022471
#
#
# Mechanical properties :
#
#
# Convention : Reuss Voigt Hill
#
# Bulk Modulus (GPa) = 34.82341 49.89161 42.35751
# Shear Modulus (GPa) = 34.21658 43.36937 38.79298
#
# Velocity S-wave (km/s) = 3.59556 4.04799 3.82846
# Velocity P-wave (km/s) = 5.51314 6.37956 5.96211
#
# Compressibility (1/GPa) = 0.02871632
#
# Stress axis : x y z
#
# Youngs Moduli (GPa) = 117.40748 74.01141 48.60192
#
# Poissons Ratio (x) = -0.03760 0.16777
# Poissons Ratio (y) = -0.05965 0.19441
# Poissons Ratio (z) = 0.40527 0.29605
#
# Static dielectric constant tensor:
#      x y z
#    x 2.098930 0.022200 -0.013160 
#    y 0.022200 2.098430 0.031940 
#    z -0.013160 0.031940 2.064600 
# 
# From -- ./inp_files/308117.got.cif
#   From: 2010.05.17/outbox.cif.g08.bks.cpg/sg2_155_cif.got.tgz:308117.got - 2010.06.03 11:33:40.
