data_PCOD9055660
_publ_section_title
;
Structure prediction by ZEFSAII (Michael W. Deem and Ramdas Pophale) SiO2 
 PCOD9055660
Probable space group: P -1
;
_chemical_formula_sum "Si O2"
_cell_formula_units_Z 16
_cell_length_a 5.604253
_cell_length_b 13.656973
_cell_length_c 15.118782
_cell_angle_alpha 132.646759
_cell_angle_beta 59.350205
_cell_angle_gamma 107.728177
_cell_volume 730.701184
_symmetry_space_group_name_H-M "P -1"
_symmetry_group_IT_number 2
_symmetry_cell_setting 'triclinic'
loop_
_space_group_symop_operation_xyz
x,y,z
-x,-y,-z
loop_
_atom_site_type_symbol
_atom_site_label
_atom_site_fract_x
_atom_site_fract_y
_atom_site_fract_z
Si Si1 0.716068 0.429875 0.990102
Si Si2 0.981566 0.639066 0.383252
Si Si3 0.834338 0.200807 0.698529
Si Si4 0.792029 0.921310 0.926873
Si Si5 0.080473 0.787271 0.621142
Si Si6 0.421660 0.053867 0.451512
Si Si7 0.337965 0.371520 0.191680
Si Si8 0.558582 0.471005 0.572884
O O1 0.560089 0.404793 0.095751
O O2 0.500000 0.500000 0.000000
O O3 0.819166 0.289158 0.841538
O O4 0.000000 0.500000 0.000000
O O5 0.687545 0.604258 0.378249
O O6 0.215071 0.698432 0.313422
O O7 0.915490 0.746182 0.539385
O O8 0.102529 0.492541 0.300293
O O9 0.136402 0.140397 0.575080
O O10 0.643217 0.078743 0.670520
O O11 0.738745 0.779894 0.897267
O O12 0.936552 0.874163 0.778343
O O13 0.500000 0.000000 0.000000
O O14 0.000000 0.000000 0.000000
O O15 0.337954 0.866757 0.587117
O O16 0.186740 0.639647 0.543103
O O17 0.500000 0.000000 0.500000
O O18 0.425960 0.395413 0.291331
O O19 0.500000 0.500000 0.500000
#
# Coordination Sequence:
#
# PCOD9055660 Si02
#       8
#     2   2   2   2   2   2   2   2
#     4  12  28  46  77 110 155 198 245 306 384 453
#     4  11  21  42  75 103 141 177 248 316 358 434
#     4  11  24  42  68 108 145 197 242 300 378 437
#     4  12  32  52  74 104 154 202 251 302 372 463
#     4  11  25  44  73 106 140 193 251 304 376 431
#     4  11  24  42  71 104 148 189 248 306 365 454
#     4  11  27  48  73 112 145 199 249 315 374 445
#     4  11  23  42  79 104 142 180 253 317 371 421
#
# _framework density 21.896777
#
# number of rings (size 3 to 8) (size 9 to 14) (size 15 to 20)
#    0.000    0.750    3.750    2.250   10.500    3.000 
#    0.000    0.000    0.000    0.000    0.000    0.000 
#    0.000    0.000    0.000    0.000    0.000    0.000 
#
# Total GULP energy -89306.624391 kJ/mol
# GULP energy per Si atom -5581.664024 kJ/mol
# Density = 2.184694 g / cm^3
# Si number density = 21.896777 Si / 1000 Ang^3
#
#
#
# Elastic Constant Matrix: (Units=GPa)
#
#
# Indices 1 2 3 4 5 6 
#
# 1 85.7999 40.1962 56.0035 13.2229 12.8055 14.7462
# 2 40.1962 128.1783 54.2446 7.2572 -0.1151 18.3192
# 3 56.0035 54.2446 179.2330 9.4441 24.3786 17.1958
# 4 13.2229 7.2572 9.4441 46.7118 4.4250 7.4915
# 5 12.8055 -0.1151 24.3786 4.4250 29.1720 4.4787
# 6 14.7462 18.3192 17.1958 7.4915 4.4787 39.8608
#
#
#
# Elastic Compliance Matrix: (Units=1/GPa)
#
#
# Indices 1 2 3 4 5 6 
#
# 1 0.016818 -0.003377 -0.003346 -0.002834 -0.003822 -0.002264
# 2 -0.003377 0.010254 -0.002297 -0.000078 0.003899 -0.002896
# 3 -0.003346 -0.002297 0.008080 0.000271 -0.005233 -0.000655
# 4 -0.002834 -0.000078 0.000271 0.022852 -0.001972 -0.003106
# 5 -0.003822 0.003899 -0.005233 -0.001972 0.041007 -0.002357
# 6 -0.002264 -0.002896 -0.000655 -0.003106 -0.002357 0.028387
#
#
# Mechanical properties :
#
#
# Convention : Reuss Voigt Hill
#
# Bulk Modulus (GPa) = 58.43793 77.12219 67.78006
# Shear Modulus (GPa) = 33.08115 39.33336 36.20726
#
# Velocity S-wave (km/s) = 3.89109 4.24289 4.07079
# Velocity P-wave (km/s) = 6.85079 7.70065 7.28812
#
# Compressibility (1/GPa) = 0.01711217
#
# Stress axis : x y z
#
# Youngs Moduli (GPa) = 59.46086 97.51904 123.75607
#
# Poissons Ratio (x) = 0.32934 0.41414
# Poissons Ratio (y) = 0.20081 0.28421
# Poissons Ratio (z) = 0.19898 0.22396
#
# Static dielectric constant tensor:
#      x y z
#    x 1.980040 -0.063410 0.012750 
#    y -0.063410 2.044290 0.036340 
#    z 0.012750 0.036340 1.775860 
# 
# From -- ./inp_files/484431.got.cif
#   From: 2010.05.17/outbox.cif.g08.bks.cpg/sg2_243_cif.got.tgz:484431.got - 2010.06.03 11:33:40.
