data_PCOD9055094
_publ_section_title
;
Structure prediction by ZEFSAII (Michael W. Deem and Ramdas Pophale) SiO2 
 PCOD9055094
Probable space group: P -1
;
_chemical_formula_sum "Si O2"
_cell_formula_units_Z 13
_cell_length_a 13.077944
_cell_length_b 8.802405
_cell_length_c 13.478206
_cell_angle_alpha 61.160048
_cell_angle_beta 158.728674
_cell_angle_gamma 117.520463
_cell_volume 492.688030
_symmetry_space_group_name_H-M "P -1"
_symmetry_group_IT_number 2
_symmetry_cell_setting 'triclinic'
loop_
_space_group_symop_operation_xyz
x,y,z
-x,-y,-z
loop_
_atom_site_type_symbol
_atom_site_label
_atom_site_fract_x
_atom_site_fract_y
_atom_site_fract_z
Si Si1 0.584046 0.643216 0.856079
Si Si2 0.000000 0.500000 0.000000
Si Si3 0.902372 0.195884 0.352052
Si Si4 0.852199 0.507704 0.647258
Si Si5 0.499217 0.983331 0.388289
Si Si6 0.289706 0.217438 0.867269
Si Si7 0.079489 0.866206 0.898421
O O1 0.394902 0.527002 0.646058
O O2 0.437124 0.825428 0.655521
O O3 0.643286 0.646810 0.026434
O O4 0.898855 0.626656 0.104616
O O5 0.203882 0.521578 0.278455
O O6 0.840399 0.333338 0.965107
O O7 0.020483 0.303440 0.331526
O O8 0.039834 0.273787 0.552658
O O9 0.568744 0.203979 0.057558
O O10 0.000000 0.000000 0.500000
O O11 0.741518 0.867604 0.599879
O O12 0.500000 0.000000 0.500000
O O13 0.193927 0.929102 0.089464
O O14 0.206792 0.021906 0.895395
#
# Coordination Sequence:
#
# PCOD9055094 Si02
#       7
#     2   1   2   2   2   2   2
#     4  11  24  44  69 105 137 177 232 287 353 411
#     4  12  28  48  68 102 144 182 234 292 348 412
#     4  12  26  46  72 104 141 187 233 279 347 425
#     4  12  27  44  70 102 139 182 233 291 349 412
#     4  11  21  40  66  96 135 178 227 278 336 411
#     4  11  24  46  74 102 142 183 230 290 346 416
#     4  11  24  41  69  98 133 182 222 277 347 406
#
# _framework density 26.385864999999999
#
# number of rings (size 3 to 8) (size 9 to 14) (size 15 to 20)
#    0.000    0.615    0.000    9.231    0.000    7.385 
#    0.000    0.000    0.000    0.000    0.000    0.000 
#    0.000    0.000    0.000    0.000    0.000    0.000 
#
# Total GULP energy -72447.213162 kJ/mol
# GULP energy per Si atom -5572.862551 kJ/mol
# Density = 2.632581 g / cm^3
# Si number density = 26.385865 Si / 1000 Ang^3
#
#
#
# Elastic Constant Matrix: (Units=GPa)
#
#
# Indices 1 2 3 4 5 6 
#
# 1 120.0825 49.5394 43.0102 -5.3467 -30.9598 22.8316
# 2 49.5394 86.4351 31.5537 6.0273 -21.2402 17.2638
# 3 43.0102 31.5537 112.1567 10.2671 -9.7401 11.1262
# 4 -5.3467 6.0273 10.2671 23.9170 -5.2904 -0.1112
# 5 -30.9598 -21.2402 -9.7401 -5.2904 61.8699 -16.0877
# 6 22.8316 17.2638 11.1262 -0.1112 -16.0877 37.5094
#
#
#
# Elastic Compliance Matrix: (Units=1/GPa)
#
#
# Indices 1 2 3 4 5 6 
#
# 1 0.013920 -0.005429 -0.003785 0.007050 0.004336 -0.002971
# 2 -0.005429 0.016633 -0.001753 -0.004332 0.001517 -0.003193
# 3 -0.003785 -0.001753 0.011336 -0.005588 -0.001417 -0.000876
# 4 0.007050 -0.004332 -0.005588 0.048169 0.005797 0.001989
# 5 0.004336 0.001517 -0.001417 0.005797 0.020678 0.005969
# 6 -0.002971 -0.003193 -0.000876 0.001989 0.005969 0.032764
#
#
# Mechanical properties :
#
#
# Convention : Reuss Voigt Hill
#
# Bulk Modulus (GPa) = 50.10868 62.98678 56.54773
# Shear Modulus (GPa) = 29.05544 37.63066 33.34305
#
# Velocity S-wave (km/s) = 3.32199 3.78056 3.55867
# Velocity P-wave (km/s) = 5.80914 6.55592 6.19380
#
# Compressibility (1/GPa) = 0.01995662
#
# Stress axis : x y z
#
# Youngs Moduli (GPa) = 71.84148 60.12002 88.21476
#
# Poissons Ratio (x) = 0.32639 0.33386
# Poissons Ratio (y) = 0.39002 0.15460
# Poissons Ratio (z) = 0.27189 0.10536
#
# Static dielectric constant tensor:
#      x y z
#    x 1.996620 -0.007650 -0.028600 
#    y -0.007650 2.165410 0.030750 
#    z -0.028600 0.030750 2.052290 
# 
# From -- ./inp_files/528354.got.cif
#   From: 2010.05.17/outbox.cif.g08.bks.cpg/sg2_265_cif.got.tgz:528354.got - 2010.06.03 11:33:40.
