data_PCOD9055073
_publ_section_title
;
Structure prediction by ZEFSAII (Michael W. Deem and Ramdas Pophale) SiO2 
 PCOD9055073
Probable space group: P -1
;
_chemical_formula_sum "Si O2"
_cell_formula_units_Z 15
_cell_length_a 8.560961
_cell_length_b 10.167301
_cell_length_c 13.965022
_cell_angle_alpha 143.531888
_cell_angle_beta 71.541853
_cell_angle_gamma 95.223746
_cell_volume 655.843852
_symmetry_space_group_name_H-M "P -1"
_symmetry_group_IT_number 2
_symmetry_cell_setting 'triclinic'
loop_
_space_group_symop_operation_xyz
x,y,z
-x,-y,-z
loop_
_atom_site_type_symbol
_atom_site_label
_atom_site_fract_x
_atom_site_fract_y
_atom_site_fract_z
Si Si1 0.830607 0.217329 0.152688
Si Si2 0.392893 0.775848 0.616036
Si Si3 0.001638 0.373086 0.623041
Si Si4 0.704338 0.635036 0.696912
Si Si5 0.566114 0.334976 0.099447
Si Si6 0.290294 0.045910 0.286257
Si Si7 0.000000 0.000000 0.500000
Si Si8 0.643531 0.124036 0.524956
O O1 0.712435 0.175534 0.237623
O O2 0.888413 0.448526 0.293557
O O3 0.725584 0.265082 0.101695
O O4 0.000000 0.000000 0.000000
O O5 0.396829 0.512956 0.431876
O O6 0.568113 0.847411 0.632389
O O7 0.305281 0.906738 0.614951
O O8 0.118406 0.106217 0.419383
O O9 0.863791 0.464057 0.620477
O O10 0.942507 0.300968 0.692404
O O11 0.579352 0.763856 0.880959
O O12 0.761335 0.803253 0.712618
O O13 0.463481 0.605986 0.276471
O O14 0.627164 0.213214 0.915741
O O15 0.184749 0.970247 0.504227
O O16 0.500000 0.000000 0.500000
#
# Coordination Sequence:
#
# PCOD9055073 Si02
#       8
#     2   2   2   2   2   2   1   2
#     4  12  26  41  68 106 144 179 226 288 352 425
#     4  11  23  41  65  97 138 175 224 280 349 412
#     4  12  25  42  69  99 133 185 236 280 348 416
#     4  11  21  40  65  96 136 174 218 272 346 416
#     4  11  24  42  66 102 140 173 226 281 346 415
#     4  12  23  39  70 100 140 176 215 289 357 417
#     4  12  24  46  74  92 136 184 246 286 340 408
#     4  11  25  48  73  99 134 192 239 288 346 421
#
# _framework density 22.871299
#
# number of rings (size 3 to 8) (size 9 to 14) (size 15 to 20)
#    0.000    0.533    5.333    5.200    3.733    0.000 
#    0.000    4.000    0.000    5.600    0.000    0.000 
#    0.000    0.000    0.000    0.000    0.000    0.000 
#
# Total GULP energy -83556.666347 kJ/mol
# GULP energy per Si atom -5570.444423 kJ/mol
# Density = 2.281924 g / cm^3
# Si number density = 22.871299 Si / 1000 Ang^3
#
#
#
# Elastic Constant Matrix: (Units=GPa)
#
#
# Indices 1 2 3 4 5 6 
#
# 1 176.5368 39.8956 40.7484 5.1550 2.4769 -20.8661
# 2 39.8956 82.6597 2.1367 21.3425 4.4913 -22.5676
# 3 40.7484 2.1367 86.1805 4.2436 -1.5836 -6.2131
# 4 5.1550 21.3425 4.2436 23.0600 2.8991 -4.1986
# 5 2.4769 4.4913 -1.5836 2.8991 27.1763 6.6190
# 6 -20.8661 -22.5676 -6.2131 -4.1986 6.6190 48.0297
#
#
#
# Elastic Compliance Matrix: (Units=1/GPa)
#
#
# Indices 1 2 3 4 5 6 
#
# 1 0.007416 -0.003812 -0.003472 0.002867 -0.000884 0.001354
# 2 -0.003812 0.020299 0.002587 -0.016759 -0.002807 0.007138
# 3 -0.003472 0.002587 0.013466 -0.004027 0.000865 0.000978
# 4 0.002867 -0.016759 -0.004027 0.059171 -0.003680 -0.001470
# 5 -0.000884 -0.002807 0.000865 -0.003680 0.039579 -0.007367
# 6 0.001354 0.007138 0.000978 -0.001470 -0.007367 0.025776
#
#
# Mechanical properties :
#
#
# Convention : Reuss Voigt Hill
#
# Bulk Modulus (GPa) = 31.45828 56.77095 44.11461
# Shear Modulus (GPa) = 26.92569 37.15963 32.04266
#
# Velocity S-wave (km/s) = 3.43486 4.03516 3.74705
# Velocity P-wave (km/s) = 5.43280 6.82538 6.16852
#
# Compressibility (1/GPa) = 0.03178813
#
# Stress axis : x y z
#
# Youngs Moduli (GPa) = 134.84083 49.26250 74.26285
#
# Poissons Ratio (x) = 0.18780 0.25783
# Poissons Ratio (y) = 0.51404 -0.19215
# Poissons Ratio (z) = 0.46814 -0.12747
#
# Static dielectric constant tensor:
#      x y z
#    x 1.853930 0.005350 0.014840 
#    y 0.005350 1.514480 0.194940 
#    z 0.014840 0.194940 1.820060 
# 
# From -- ./inp_files/501102.got.cif
#   From: 2010.05.17/outbox.cif.g08.bks.cpg/sg2_251_cif.got.tgz:501102.got - 2010.06.03 11:33:40.
