data_PCOD9055048
_publ_section_title
;
Structure prediction by ZEFSAII (Michael W. Deem and Ramdas Pophale) SiO2 
 PCOD9055048
Probable space group: P -1
;
_chemical_formula_sum "Si O2"
_cell_formula_units_Z 16
_cell_length_a 5.220416
_cell_length_b 17.770407
_cell_length_c 9.669563
_cell_angle_alpha 74.107054
_cell_angle_beta 98.080250
_cell_angle_gamma 131.979314
_cell_volume 640.213876
_symmetry_space_group_name_H-M "P -1"
_symmetry_group_IT_number 2
_symmetry_cell_setting 'triclinic'
loop_
_space_group_symop_operation_xyz
x,y,z
-x,-y,-z
loop_
_atom_site_type_symbol
_atom_site_label
_atom_site_fract_x
_atom_site_fract_y
_atom_site_fract_z
Si Si1 0.809904 0.444347 0.363769
Si Si2 0.362861 0.207788 0.155769
Si Si3 0.055314 0.324229 0.453071
Si Si4 0.710738 0.367773 0.893668
Si Si5 0.076252 0.862932 0.596914
Si Si6 0.207279 0.000303 0.315692
Si Si7 0.010079 0.293832 0.778888
Si Si8 0.138043 0.906788 0.084846
O O1 0.427083 0.401590 0.370189
O O2 0.000000 0.500000 0.500000
O O3 0.822254 0.352976 0.392562
O O4 0.993848 0.518641 0.206230
O O5 0.337175 0.115569 0.263459
O O6 0.161590 0.213075 0.256470
O O7 0.695781 0.320070 0.064671
O O8 0.137507 0.152496 0.027935
O O9 0.126387 0.341716 0.612730
O O10 0.891447 0.207921 0.459286
O O11 0.358707 0.347873 0.865925
O O12 0.749396 0.303206 0.820945
O O13 0.418321 0.964751 0.648086
O O14 0.974750 0.913852 0.460224
O O15 0.055555 0.948397 0.182111
O O16 0.836071 0.174957 0.812282
O O17 0.500000 0.000000 0.000000
#
# Coordination Sequence:
#
# PCOD9055048 Si02
#       8
#     2   2   2   2   2   2   2   2
#     4  12  23  43  72 104 136 178 233 295 351 407
#     4  11  25  43  69  99 140 184 231 291 343 413
#     4  12  24  43  69 103 141 179 231 287 348 415
#     4  11  24  41  71 100 136 173 228 294 351 399
#     4  11  26  45  65 102 143 189 226 281 346 433
#     4  11  23  45  68  97 138 187 240 272 347 412
#     4  11  21  40  64 104 138 172 223 292 343 400
#     4  11  21  40  65 103 136 180 238 286 338 400
#
# _framework density 24.99165
#
# number of rings (size 3 to 8) (size 9 to 14) (size 15 to 20)
#    0.000    0.750    5.000    2.625    3.500    1.000 
#    2.250    1.250    0.000    0.000    0.000    0.000 
#    0.000    0.000    0.000    0.000    0.000    0.000 
#
# Total GULP energy -89379.722896 kJ/mol
# GULP energy per Si atom -5586.232681 kJ/mol
# Density = 2.493477 g / cm^3
# Si number density = 24.991650 Si / 1000 Ang^3
#
#
#
# Elastic Constant Matrix: (Units=GPa)
#
#
# Indices 1 2 3 4 5 6 
#
# 1 54.4306 11.0869 18.1280 0.1671 -3.8096 -4.5545
# 2 11.0869 75.3322 30.2607 -17.3912 -0.4388 -12.7197
# 3 18.1280 30.2607 156.7720 -28.6442 -20.0947 -0.6330
# 4 0.1671 -17.3912 -28.6442 59.4415 5.0837 3.3323
# 5 -3.8096 -0.4388 -20.0947 5.0837 28.0948 -6.6130
# 6 -4.5545 -12.7197 -0.6330 3.3323 -6.6130 47.7436
#
#
#
# Elastic Compliance Matrix: (Units=1/GPa)
#
#
# Indices 1 2 3 4 5 6 
#
# 1 0.019766 -0.002283 -0.001932 -0.001919 0.002001 0.001663
# 2 -0.002283 0.015950 -0.002365 0.003467 -0.001545 0.003544
# 3 -0.001932 -0.002365 0.008223 0.002859 0.005016 -0.000210
# 4 -0.001919 0.003467 0.002859 0.019428 -0.001874 -0.000837
# 5 0.002001 -0.001545 0.005016 -0.001874 0.041102 0.005670
# 6 0.001663 0.003544 -0.000210 -0.000837 0.005670 0.022889
#
#
# Mechanical properties :
#
#
# Convention : Reuss Voigt Hill
#
# Bulk Modulus (GPa) = 32.49105 45.05400 38.77252
# Shear Modulus (GPa) = 33.16114 42.19327 37.67720
#
# Velocity S-wave (km/s) = 3.64660 4.11334 3.88698
# Velocity P-wave (km/s) = 5.54610 6.37387 5.97434
#
# Compressibility (1/GPa) = 0.03077771
#
# Stress axis : x y z
#
# Youngs Moduli (GPa) = 50.59255 62.69410 121.60933
#
# Poissons Ratio (x) = 0.14316 0.23498
# Poissons Ratio (y) = 0.11553 0.28762
# Poissons Ratio (z) = 0.09776 0.14828
#
# Static dielectric constant tensor:
#      x y z
#    x 2.058110 -0.002580 0.036580 
#    y -0.002580 2.024070 -0.035240 
#    z 0.036580 -0.035240 1.952920 
# 
# From -- ./inp_files/138963.got.cif
#   From: 2010.05.17/outbox.cif.g08.bks.cpg/sg2_70_cif.got.tgz:138963.got - 2010.06.03 11:33:40.
