data_PCOD9055200
_publ_section_title
;
Structure prediction by ZEFSAII (Michael W. Deem and Ramdas Pophale) SiO2 
 PCOD9055200
Probable space group: P -1
;
_chemical_formula_sum "Si O2"
_cell_formula_units_Z 16
_cell_length_a 8.645262
_cell_length_b 15.371314
_cell_length_c 9.992578
_cell_angle_alpha 43.308650
_cell_angle_beta 74.622385
_cell_angle_gamma 98.176073
_cell_volume 757.100342
_symmetry_space_group_name_H-M "P -1"
_symmetry_group_IT_number 2
_symmetry_cell_setting 'triclinic'
loop_
_space_group_symop_operation_xyz
x,y,z
-x,-y,-z
loop_
_atom_site_type_symbol
_atom_site_label
_atom_site_fract_x
_atom_site_fract_y
_atom_site_fract_z
Si Si1 0.582136 0.337619 0.610565
Si Si2 0.013319 0.062898 0.775414
Si Si3 0.694313 0.644638 0.551086
Si Si4 0.583028 0.694760 0.022197
Si Si5 0.332747 0.894173 0.252534
Si Si6 0.003329 0.186780 0.131405
Si Si7 0.932021 0.604318 0.335819
Si Si8 0.635179 0.997075 0.582544
O O1 0.432696 0.325242 0.553433
O O2 0.483432 0.285992 0.835306
O O3 0.690013 0.261284 0.609509
O O4 0.736639 0.503588 0.419450
O O5 0.206856 0.215601 0.530608
O O6 0.843271 0.089585 0.757630
O O7 0.993483 0.938172 0.819022
O O8 0.000000 0.000000 0.000000
O O9 0.567422 0.470648 0.809558
O O10 0.874607 0.668624 0.400515
O O11 0.597501 0.831728 0.786238
O O12 0.789892 0.719082 0.959541
O O13 0.391825 0.944943 0.333870
O O14 0.500000 0.000000 0.000000
O O15 0.847105 0.108417 0.366010
O O16 0.949864 0.277548 0.936521
O O17 0.000000 0.500000 0.500000
O O18 0.500000 0.000000 0.500000
#
# Coordination Sequence:
#
# PCOD9055200 Si02
#       8
#     2   2   2   2   2   2   2   2
#     4  11  21  40  71 102 137 174 241 294 343 403
#     4  12  24  40  71 113 137 182 237 295 349 416
#     4  11  22  40  70 107 140 176 242 290 351 409
#     4  11  21  47  70  98 135 195 230 283 351 425
#     4  12  25  45  71 102 142 184 240 297 343 417
#     4  12  24  46  70  96 146 185 236 285 357 425
#     4  11  22  38  69 105 138 183 233 293 345 417
#     4  12  30  45  70 103 141 190 235 293 363 418
#
# _framework density 21.13326
#
# number of rings (size 3 to 8) (size 9 to 14) (size 15 to 20)
#    0.000    0.500    6.250    2.625    7.000    0.000 
#    0.000    1.250    0.000    0.000    0.000    0.000 
#    0.000    0.000    0.000    0.000    0.000    0.000 
#
# Total GULP energy -89399.121141 kJ/mol
# GULP energy per Si atom -5587.445071 kJ/mol
# Density = 2.108516 g / cm^3
# Si number density = 21.133260 Si / 1000 Ang^3
#
#
#
# Elastic Constant Matrix: (Units=GPa)
#
#
# Indices 1 2 3 4 5 6 
#
# 1 106.2241 13.3019 34.2193 4.5478 18.8159 3.5530
# 2 13.3019 57.6386 23.1429 -4.2021 -9.4884 9.0807
# 3 34.2193 23.1429 132.8939 -10.6881 1.6067 1.9025
# 4 4.5478 -4.2021 -10.6881 34.5478 -5.4533 -6.0933
# 5 18.8159 -9.4884 1.6067 -5.4533 34.5968 -8.8864
# 6 3.5530 9.0807 1.9025 -6.0933 -8.8864 35.4472
#
#
#
# Elastic Compliance Matrix: (Units=1/GPa)
#
#
# Indices 1 2 3 4 5 6 
#
# 1 0.012760 -0.003097 -0.002991 -0.005085 -0.009363 -0.003546
# 2 -0.003097 0.020961 -0.002677 0.002831 0.007339 -0.002589
# 3 -0.002991 -0.002677 0.008991 0.003314 0.001361 0.001414
# 4 -0.005085 0.002831 0.003314 0.034148 0.010878 0.008204
# 5 -0.009363 0.007339 0.001361 0.010878 0.040487 0.011005
# 6 -0.003546 -0.002589 0.001414 0.008204 0.011005 0.033323
#
#
# Mechanical properties :
#
#
# Convention : Reuss Voigt Hill
#
# Bulk Modulus (GPa) = 39.71056 48.67608 44.19332
# Shear Modulus (GPa) = 28.31315 35.99119 32.15217
#
# Velocity S-wave (km/s) = 3.66422 4.13129 3.90475
# Velocity P-wave (km/s) = 6.06081 6.77050 6.42546
#
# Compressibility (1/GPa) = 0.02518222
#
# Stress axis : x y z
#
# Youngs Moduli (GPa) = 78.36770 47.70667 111.22170
#
# Poissons Ratio (x) = 0.14775 0.33271
# Poissons Ratio (y) = 0.24271 0.29772
# Poissons Ratio (z) = 0.23443 0.12770
#
# Static dielectric constant tensor:
#      x y z
#    x 0.393520 3.282240 -0.495270 
#    y 3.282240 -5.989910 1.236590 
#    z -0.495270 1.236590 1.629230 
# 
# From -- ./inp_files/205540.got.cif
#   From: 2010.05.17/outbox.cif.g08.bks.cpg/sg2_103_cif.got.tgz:205540.got - 2010.06.03 11:33:40.
