data_PCOD9055817
_publ_section_title
;
Structure prediction by ZEFSAII (Michael W. Deem and Ramdas Pophale) SiO2 
 PCOD9055817
Probable space group: P -1
;
_chemical_formula_sum "Si O2"
_cell_formula_units_Z 12
_cell_length_a 9.161875
_cell_length_b 8.324374
_cell_length_c 16.019559
_cell_angle_alpha 52.298741
_cell_angle_beta 31.642252
_cell_angle_gamma 65.487337
_cell_volume 490.397982
_symmetry_space_group_name_H-M "P -1"
_symmetry_group_IT_number 2
_symmetry_cell_setting 'triclinic'
loop_
_space_group_symop_operation_xyz
x,y,z
-x,-y,-z
loop_
_atom_site_type_symbol
_atom_site_label
_atom_site_fract_x
_atom_site_fract_y
_atom_site_fract_z
Si Si1 0.785053 0.347518 0.716616
Si Si2 0.175696 0.064564 0.621541
Si Si3 0.556513 0.162580 0.237241
Si Si4 0.836697 0.645535 0.749649
Si Si5 0.501843 0.741720 0.432447
Si Si6 0.189663 0.380992 0.035947
O O1 0.840684 0.452245 0.747741
O O2 0.452124 0.339043 0.867190
O O3 0.000000 0.500000 0.500000
O O4 0.878063 0.132358 0.735063
O O5 0.363839 0.125261 0.427467
O O6 0.359375 0.197742 0.563577
O O7 0.078536 0.819968 0.772002
O O8 0.337368 0.210569 0.259121
O O9 0.810240 0.377122 0.056717
O O10 0.660392 0.952275 0.236773
O O11 0.174319 0.743692 0.570329
O O12 0.725794 0.606173 0.910481
O O13 0.500000 0.500000 0.500000
#
# Coordination Sequence:
#
# PCOD9055817 Si02
#       6
#     2   2   2   2   2   2
#     4  11  21  43  73 106 139 188 235 291 348 414
#     4  12  24  44  72 103 147 185 232 298 354 418
#     4  11  24  46  75 100 139 193 234 289 352 419
#     4  11  23  47  75 104 140 189 241 285 349 426
#     4  12  26  45  71 104 148 186 231 295 363 418
#     4  11  25  43  76 107 140 184 248 286 348 426
#
# _framework density 24.469922
#
# number of rings (size 3 to 8) (size 9 to 14) (size 15 to 20)
#    0.000    0.667    6.667    3.500    0.000    0.667 
#    0.000    2.500    0.000    0.000    0.000    0.000 
#    0.000    0.000    0.000    0.000    0.000    0.000 
#
# Total GULP energy -66953.209400 kJ/mol
# GULP energy per Si atom -5579.434117 kJ/mol
# Density = 2.441423 g / cm^3
# Si number density = 24.469922 Si / 1000 Ang^3
#
#
#
# Elastic Constant Matrix: (Units=GPa)
#
#
# Indices 1 2 3 4 5 6 
#
# 1 70.0928 31.7158 29.8264 -20.4807 10.2142 8.1470
# 2 31.7158 139.2151 61.2196 -49.5124 7.0181 -6.7501
# 3 29.8264 61.2196 145.7526 -27.6443 5.0946 9.1743
# 4 -20.4807 -49.5124 -27.6443 53.6243 -2.8882 0.6799
# 5 10.2142 7.0181 5.0946 -2.8882 38.9958 -9.3921
# 6 8.1470 -6.7501 9.1743 0.6799 -9.3921 46.3665
#
#
#
# Elastic Compliance Matrix: (Units=1/GPa)
#
#
# Indices 1 2 3 4 5 6 
#
# 1 0.018269 -0.001890 -0.001725 0.004132 -0.004926 -0.004202
# 2 -0.001890 0.012378 -0.003275 0.008985 -0.000001 0.002650
# 3 -0.001725 -0.003275 0.008911 0.000908 -0.000552 -0.002062
# 4 0.004132 0.008985 0.000908 0.028954 -0.000713 -0.000167
# 5 -0.004926 -0.000001 -0.000552 -0.000713 0.028585 0.006775
# 6 -0.004202 0.002650 -0.002062 -0.000167 0.006775 0.024474
#
#
# Mechanical properties :
#
#
# Convention : Reuss Voigt Hill
#
# Bulk Modulus (GPa) = 38.79054 66.73157 52.76106
# Shear Modulus (GPa) = 34.73601 43.28392 39.00996
#
# Velocity S-wave (km/s) = 3.77176 4.21035 3.99708
# Velocity P-wave (km/s) = 5.90381 7.13905 6.55061
#
# Compressibility (1/GPa) = 0.02577948
#
# Stress axis : x y z
#
# Youngs Moduli (GPa) = 54.73694 80.78910 112.22568
#
# Poissons Ratio (x) = 0.15267 0.19353
# Poissons Ratio (y) = 0.10344 0.36753
# Poissons Ratio (z) = 0.09439 0.26458
#
# Static dielectric constant tensor:
#      x y z
#    x 2.071330 -0.038050 -0.076490 
#    y -0.038050 2.047340 -0.043330 
#    z -0.076490 -0.043330 2.022450 
# 
# From -- ./inp_files/491912.got.cif
#   From: 2010.05.17/outbox.cif.g08.bks.cpg/sg2_246_cif.got.tgz:491912.got - 2010.06.03 11:33:40.
