data_PCOD9055757
_publ_section_title
;
Structure prediction by ZEFSAII (Michael W. Deem and Ramdas Pophale) SiO2 
 PCOD9055757
Probable space group: P -1
;
_chemical_formula_sum "Si O2"
_cell_formula_units_Z 16
_cell_length_a 8.297249
_cell_length_b 10.462766
_cell_length_c 13.852385
_cell_angle_alpha 101.867023
_cell_angle_beta 55.513749
_cell_angle_gamma 135.671161
_cell_volume 649.813387
_symmetry_space_group_name_H-M "P -1"
_symmetry_group_IT_number 2
_symmetry_cell_setting 'triclinic'
loop_
_space_group_symop_operation_xyz
x,y,z
-x,-y,-z
loop_
_atom_site_type_symbol
_atom_site_label
_atom_site_fract_x
_atom_site_fract_y
_atom_site_fract_z
Si Si1 0.005663 0.176660 0.217488
Si Si2 0.355487 0.263577 0.761650
Si Si3 0.478914 0.290821 0.400387
Si Si4 0.901453 0.369227 0.150937
Si Si5 0.221947 0.908124 0.521073
Si Si6 0.808324 0.569874 0.495384
Si Si7 0.465607 0.270518 0.943218
Si Si8 0.201464 0.873249 0.023930
O O1 0.885423 0.247341 0.219053
O O2 0.027722 0.202645 0.329342
O O3 0.785088 0.947454 0.240946
O O4 0.294829 0.279235 0.077065
O O5 0.603408 0.411474 0.623162
O O6 0.466837 0.328978 0.844160
O O7 0.085067 0.230436 0.834416
O O8 0.623243 0.322772 0.255662
O O9 0.754454 0.455907 0.402983
O O10 0.298740 0.334494 0.470738
O O11 0.290524 0.079035 0.473871
O O12 0.877862 0.283676 0.044461
O O13 0.212088 0.589854 0.101187
O O14 0.131860 0.752305 0.451749
O O15 0.500000 0.000000 0.500000
O O16 0.279578 0.044546 0.965021
O O17 0.500000 0.000000 0.000000
#
# Coordination Sequence:
#
# PCOD9055757 Si02
#       8
#     2   2   2   2   2   2   2   2
#     4  11  21  43  70 107 139 178 228 294 341 407
#     4  11  22  45  74  98 141 186 229 282 353 408
#     4  11  27  48  68 103 140 187 231 288 344 413
#     4  12  24  43  74 104 138 179 238 282 346 413
#     4  12  25  44  73 105 135 181 241 291 341 403
#     4  11  27  48  70  98 144 186 231 284 355 412
#     4  11  24  43  73 104 142 183 228 286 352 409
#     4  11  26  44  65 106 146 180 223 288 345 416
#
# _framework density 24.622453
#
# number of rings (size 3 to 8) (size 9 to 14) (size 15 to 20)
#    0.000    0.750    5.000    2.250    3.500    5.000 
#    2.250    0.000    0.000    0.000    0.000    0.000 
#    0.000    0.000    0.000    0.000    0.000    0.000 
#
# Total GULP energy -89687.478260 kJ/mol
# GULP energy per Si atom -5605.467391 kJ/mol
# Density = 2.456641 g / cm^3
# Si number density = 24.622453 Si / 1000 Ang^3
#
#
#
# Elastic Constant Matrix: (Units=GPa)
#
#
# Indices 1 2 3 4 5 6 
#
# 1 57.6660 1.4144 4.2026 -11.8602 -5.5672 2.1255
# 2 1.4144 119.5112 3.0155 0.8354 6.4859 2.9165
# 3 4.2026 3.0155 59.2350 9.5723 -10.2761 -13.1629
# 4 -11.8602 0.8354 9.5723 32.6802 -3.2820 8.3738
# 5 -5.5672 6.4859 -10.2761 -3.2820 26.1772 -5.6749
# 6 2.1255 2.9165 -13.1629 8.3738 -5.6749 43.8882
#
#
#
# Elastic Compliance Matrix: (Units=1/GPa)
#
#
# Indices 1 2 3 4 5 6 
#
# 1 0.019942 -0.000348 -0.002959 0.009281 0.003651 -0.003129
# 2 -0.000348 0.008595 -0.001228 0.000053 -0.002964 -0.001316
# 3 -0.002959 -0.001228 0.022513 -0.009236 0.009516 0.009970
# 4 0.009281 0.000053 -0.009236 0.039494 0.000982 -0.010631
# 5 0.003651 -0.002964 0.009516 0.000982 0.045427 0.008561
# 6 -0.003129 -0.001316 0.009970 -0.010631 0.008561 0.029150
#
#
# Mechanical properties :
#
#
# Convention : Reuss Voigt Hill
#
# Bulk Modulus (GPa) = 23.82075 28.18635 26.00355
# Shear Modulus (GPa) = 26.56963 35.73444 31.15204
#
# Velocity S-wave (km/s) = 3.28850 3.81372 3.56081
# Velocity P-wave (km/s) = 4.91064 5.55562 5.24306
#
# Compressibility (1/GPa) = 0.04198021
#
# Stress axis : x y z
#
# Youngs Moduli (GPa) = 50.14513 116.34464 44.41864
#
# Poissons Ratio (x) = 0.04049 0.13143
# Poissons Ratio (y) = 0.01745 0.05455
# Poissons Ratio (z) = 0.14837 0.14289
#
# Static dielectric constant tensor:
#      x y z
#    x 1.998900 0.014080 -0.011800 
#    y 0.014080 1.932850 -0.014710 
#    z -0.011800 -0.014710 1.937840 
# 
# From -- ./inp_files/271992.got.cif
#   From: 2010.05.17/outbox.cif.g08.bks.cpg/sg2_136_cif.got.tgz:271992.got - 2010.06.03 11:33:40.
