data_PCOD9055989
_publ_section_title
;
Structure prediction by ZEFSAII (Michael W. Deem and Ramdas Pophale) SiO2 
 PCOD9055989
Probable space group: P -1
;
_chemical_formula_sum "Si O2"
_cell_formula_units_Z 16
_cell_length_a 18.656016
_cell_length_b 21.858328
_cell_length_c 9.231977
_cell_angle_alpha 141.137036
_cell_angle_beta 37.683746
_cell_angle_gamma 162.601616
_cell_volume 682.451153
_symmetry_space_group_name_H-M "P -1"
_symmetry_group_IT_number 2
_symmetry_cell_setting 'triclinic'
loop_
_space_group_symop_operation_xyz
x,y,z
-x,-y,-z
loop_
_atom_site_type_symbol
_atom_site_label
_atom_site_fract_x
_atom_site_fract_y
_atom_site_fract_z
Si Si1 0.294064 0.213979 0.955599
Si Si2 0.394462 0.405926 0.656020
Si Si3 0.451727 0.039219 0.020291
Si Si4 0.813312 0.418541 0.548284
Si Si5 0.976890 0.355107 0.656523
Si Si6 0.955400 0.227530 0.036515
Si Si7 0.495795 0.698425 0.532937
Si Si8 0.702544 0.984746 0.270181
O O1 0.436991 0.291499 0.718940
O O2 0.297113 0.129131 0.911838
O O3 0.426666 0.404276 0.166558
O O4 0.000000 0.000000 0.000000
O O5 0.500000 0.500000 0.500000
O O6 0.392591 0.294674 0.516027
O O7 0.120023 0.251626 0.801774
O O8 0.412096 0.123113 0.280890
O O9 0.193601 0.832449 0.966773
O O10 0.718422 0.220490 0.849262
O O11 0.500000 0.000000 0.000000
O O12 0.555353 0.177493 0.543216
O O13 0.000000 0.500000 0.500000
O O14 0.888200 0.480833 0.378039
O O15 0.848110 0.553736 0.803247
O O16 0.200848 0.494499 0.663288
O O17 0.908508 0.198120 0.415753
O O18 0.735436 0.040174 0.155298
#
# Coordination Sequence:
#
# PCOD9055989 Si02
#       8
#     2   2   2   2   2   2   2   2
#     4  12  24  46  79 109 148 201 255 307 380 461
#     4  12  29  48  77 112 155 203 252 328 387 444
#     4  12  29  46  75 106 154 207 249 315 390 451
#     4  11  22  40  75 104 145 191 247 312 382 447
#     4  11  24  46  71 112 148 193 254 310 377 460
#     4  11  26  47  70 110 155 188 265 317 376 464
#     4  12  27  49  75 111 156 199 259 314 380 466
#     4  11  21  44  75 107 143 196 243 305 383 448
#
# _framework density 23.444901000000002
#
# number of rings (size 3 to 8) (size 9 to 14) (size 15 to 20)
#    0.000    0.500    2.500    5.250    7.000    3.500 
#    0.000    0.000    0.000    0.000    0.000    0.000 
#    0.000    0.000    0.000    0.000    0.000    0.000 
#
# Total GULP energy -89341.474128 kJ/mol
# GULP energy per Si atom -5583.842133 kJ/mol
# Density = 2.339154 g / cm^3
# Si number density = 23.444901 Si / 1000 Ang^3
#
#
#
# Elastic Constant Matrix: (Units=GPa)
#
#
# Indices 1 2 3 4 5 6 
#
# 1 140.1583 30.8145 29.4651 -3.1592 -22.5578 -4.7858
# 2 30.8145 113.7731 18.8724 -12.1931 2.6488 2.3807
# 3 29.4651 18.8724 78.5225 1.6466 -7.3444 -3.9546
# 4 -3.1592 -12.1931 1.6466 32.8640 -4.3872 -7.9346
# 5 -22.5578 2.6488 -7.3444 -4.3872 36.2947 -1.5335
# 6 -4.7858 2.3807 -3.9546 -7.9346 -1.5335 46.1382
#
#
#
# Elastic Compliance Matrix: (Units=1/GPa)
#
#
# Indices 1 2 3 4 5 6 
#
# 1 0.009040 -0.002080 -0.002341 0.001249 0.005500 0.001242
# 2 -0.002080 0.010077 -0.001921 0.003265 -0.002040 -0.000407
# 3 -0.002341 -0.001921 0.014285 -0.001237 0.001465 0.000917
# 4 0.001249 0.003265 -0.001237 0.033847 0.004625 0.005830
# 5 0.005500 -0.002040 0.001465 0.004625 0.032088 0.002663
# 6 0.001242 -0.000407 0.000917 0.005830 0.002663 0.022993
#
#
# Mechanical properties :
#
#
# Convention : Reuss Voigt Hill
#
# Bulk Modulus (GPa) = 48.27100 54.52867 51.39983
# Shear Modulus (GPa) = 35.23087 39.94616 37.58851
#
# Velocity S-wave (km/s) = 3.88068 4.13223 4.00843
# Velocity P-wave (km/s) = 6.38071 6.78791 6.58746
#
# Compressibility (1/GPa) = 0.02071637
#
# Stress axis : x y z
#
# Youngs Moduli (GPa) = 110.61763 99.23202 70.00518
#
# Poissons Ratio (x) = 0.20643 0.16392
# Poissons Ratio (y) = 0.23011 0.13449
# Poissons Ratio (z) = 0.25901 0.19064
#
# Static dielectric constant tensor:
#      x y z
#    x 1.875100 0.027620 -0.000950 
#    y 0.027620 1.903710 -0.006070 
#    z -0.000950 -0.006070 2.021820 
# 
# From -- ./inp_files/338180.got.cif
#   From: 2010.05.17/outbox.cif.g08.bks.cpg/sg2_170_cif.got.tgz:338180.got - 2010.06.03 11:33:40.
