data_PCOD9055600
_publ_section_title
;
Structure prediction by ZEFSAII (Michael W. Deem and Ramdas Pophale) SiO2 
 PCOD9055600
Probable space group: P -1
;
_chemical_formula_sum "Si O2"
_cell_formula_units_Z 16
_cell_length_a 18.624247
_cell_length_b 11.839754
_cell_length_c 8.572318
_cell_angle_alpha 141.846742
_cell_angle_beta 39.223092
_cell_angle_gamma 140.107636
_cell_volume 675.259227
_symmetry_space_group_name_H-M "P -1"
_symmetry_group_IT_number 2
_symmetry_cell_setting 'triclinic'
loop_
_space_group_symop_operation_xyz
x,y,z
-x,-y,-z
loop_
_atom_site_type_symbol
_atom_site_label
_atom_site_fract_x
_atom_site_fract_y
_atom_site_fract_z
Si Si1 0.824270 0.800721 0.379248
Si Si2 0.597924 0.134589 0.111524
Si Si3 0.323998 0.461815 0.946385
Si Si4 0.565541 0.770559 0.292067
Si Si5 0.014605 0.612932 0.935639
Si Si6 0.763221 0.203766 0.434056
Si Si7 0.141624 0.785836 0.383677
Si Si8 0.419039 0.248172 0.107585
O O1 0.757179 0.664373 0.195600
O O2 0.713344 0.747863 0.633122
O O3 0.869001 0.030542 0.493755
O O4 0.930967 0.738524 0.195428
O O5 0.546544 0.273669 0.444883
O O6 0.731969 0.230778 0.909785
O O7 0.500000 0.000000 0.000000
O O8 0.604033 0.976123 0.053643
O O9 0.339572 0.310733 0.880829
O O10 0.466471 0.607995 0.822796
O O11 0.265428 0.605468 0.272123
O O12 0.636973 0.009696 0.424382
O O13 0.535343 0.700795 0.090508
O O14 0.967949 0.428716 0.691833
O O15 0.154662 0.756208 0.814535
O O16 0.000000 0.500000 0.000000
O O17 0.837981 0.170200 0.419581
#
# Coordination Sequence:
#
# PCOD9055600 Si02
#       8
#     2   2   2   2   2   2   2   2
#     4  11  26  47  74 106 141 194 243 292 356 431
#     4  11  21  42  71 105 145 185 235 284 362 431
#     4  12  24  43  73 108 144 192 235 290 356 443
#     4  12  25  43  70 110 152 192 225 303 359 423
#     4  12  31  48  74 103 143 192 242 308 352 421
#     4  12  26  48  72 105 143 190 251 285 358 422
#     4  11  24  48  73 105 139 189 242 297 351 427
#     4  11  25  42  69 111 152 185 233 294 363 427
#
# _framework density 23.694604999999999
#
# number of rings (size 3 to 8) (size 9 to 14) (size 15 to 20)
#    0.000    0.500    5.000    2.250    7.000    2.000 
#    0.000    0.000    0.000    0.000    0.000    0.000 
#    0.000    0.000    0.000    0.000    0.000    0.000 
#
# Total GULP energy -89638.862362 kJ/mol
# GULP energy per Si atom -5602.428898 kJ/mol
# Density = 2.364068 g / cm^3
# Si number density = 23.694605 Si / 1000 Ang^3
#
#
#
# Elastic Constant Matrix: (Units=GPa)
#
#
# Indices 1 2 3 4 5 6 
#
# 1 79.2475 5.2626 39.0783 -0.0895 0.0948 -25.7945
# 2 5.2626 71.6341 25.1178 -7.4127 -17.5363 -11.5381
# 3 39.0783 25.1178 104.6014 3.8407 -19.8918 -16.7910
# 4 -0.0895 -7.4127 3.8407 26.7469 -10.1384 5.5624
# 5 0.0948 -17.5363 -19.8918 -10.1384 31.3583 2.8709
# 6 -25.7945 -11.5381 -16.7910 5.5624 2.8709 38.0354
#
#
#
# Elastic Compliance Matrix: (Units=1/GPa)
#
#
# Indices 1 2 3 4 5 6 
#
# 1 0.019640 0.000985 -0.006715 -0.003348 -0.005912 0.011590
# 2 0.000985 0.019187 -0.002571 0.009569 0.011910 0.003055
# 3 -0.006715 -0.002571 0.014178 0.000017 0.007549 0.000353
# 4 -0.003348 0.009569 0.000017 0.050260 0.022391 -0.008401
# 5 -0.005912 0.011910 0.007549 0.022391 0.050979 -0.004186
# 6 0.011590 0.003055 0.000353 -0.008401 -0.004186 0.036778
#
#
# Mechanical properties :
#
#
# Convention : Reuss Voigt Hill
#
# Bulk Modulus (GPa) = 27.47108 43.82226 35.64667
# Shear Modulus (GPa) = 22.75225 31.62972 27.19099
#
# Velocity S-wave (km/s) = 3.10212 3.65758 3.39124
# Velocity P-wave (km/s) = 4.94468 6.03092 5.51461
#
# Compressibility (1/GPa) = 0.03640191
#
# Stress axis : x y z
#
# Youngs Moduli (GPa) = 50.91619 52.11891 70.53332
#
# Poissons Ratio (x) = -0.05132 0.47361
# Poissons Ratio (y) = -0.05013 0.18136
# Poissons Ratio (z) = 0.34189 0.13401
#
# Static dielectric constant tensor:
#      x y z
#    x 1.889370 -0.004930 0.015850 
#    y -0.004930 1.882610 0.016930 
#    z 0.015850 0.016930 1.898760 
# 
# From -- ./inp_files/333874.got.cif
#   From: 2010.05.17/outbox.cif.g08.bks.cpg/sg2_167_cif.got.tgz:333874.got - 2010.06.03 11:33:40.
