data_PCOD9055872
_publ_section_title
;
Structure prediction by ZEFSAII (Michael W. Deem and Ramdas Pophale) SiO2 
 PCOD9055872
Probable space group: P -1
;
_chemical_formula_sum "Si O2"
_cell_formula_units_Z 16
_cell_length_a 14.705843
_cell_length_b 8.079428
_cell_length_c 10.843711
_cell_angle_alpha 37.136422
_cell_angle_beta 75.709275
_cell_angle_gamma 86.368508
_cell_volume 733.883178
_symmetry_space_group_name_H-M "P -1"
_symmetry_group_IT_number 2
_symmetry_cell_setting 'triclinic'
loop_
_space_group_symop_operation_xyz
x,y,z
-x,-y,-z
loop_
_atom_site_type_symbol
_atom_site_label
_atom_site_fract_x
_atom_site_fract_y
_atom_site_fract_z
Si Si1 0.345753 0.404938 0.418116
Si Si2 0.125909 0.322427 0.982388
Si Si3 0.180983 0.885620 0.771589
Si Si4 0.695633 0.584599 0.305451
Si Si5 0.572824 0.060804 0.056528
Si Si6 0.479987 0.853908 0.460667
Si Si7 0.039500 0.729905 0.107219
Si Si8 0.011739 0.124303 0.560916
O O1 0.299018 0.493269 0.506127
O O2 0.452903 0.371724 0.432411
O O3 0.282877 0.096076 0.593677
O O4 0.357605 0.634750 0.171673
O O5 0.172812 0.576752 0.904587
O O6 0.203381 0.316918 0.854481
O O7 0.031610 0.394378 0.908729
O O8 0.083639 0.032357 0.239879
O O9 0.102965 0.032161 0.645474
O O10 0.145837 0.838890 0.952303
O O11 0.629341 0.313796 0.421706
O O12 0.637510 0.831378 0.173882
O O13 0.515165 0.044095 0.214932
O O14 0.500000 0.000000 0.000000
O O15 0.500000 0.000000 0.500000
O O16 0.029522 0.462140 0.356929
O O17 0.000000 0.000000 0.000000
O O18 0.000000 0.000000 0.500000
#
# Coordination Sequence:
#
# PCOD9055872 Si02
#       8
#     2   2   2   2   2   2   2   2
#     4  11  23  42  65  94 130 173 222 274 338 404
#     4  11  23  40  63  96 127 172 226 277 335 398
#     4  11  23  40  65  94 129 170 226 280 334 398
#     4  11  23  41  65  92 133 172 219 278 341 403
#     4  11  21  45  68  90 133 180 219 274 339 403
#     4  11  23  42  66  94 130 171 217 278 340 402
#     4  11  23  41  65  92 130 173 218 276 336 403
#     4  11  21  44  67  89 134 179 217 276 347 395
#
# _framework density 21.801836000000002
#
# number of rings (size 3 to 8) (size 9 to 14) (size 15 to 20)
#    0.000    1.000    5.000    3.000    0.000    7.500 
#    2.250    0.000    0.000    0.000    0.000    0.000 
#    0.000    0.000    0.000    0.000    0.000    0.000 
#
# Total GULP energy -89417.348370 kJ/mol
# GULP energy per Si atom -5588.584273 kJ/mol
# Density = 2.175221 g / cm^3
# Si number density = 21.801836 Si / 1000 Ang^3
#
#
#
# Elastic Constant Matrix: (Units=GPa)
#
#
# Indices 1 2 3 4 5 6 
#
# 1 47.0835 -1.0285 28.2578 7.7793 -16.5181 0.4699
# 2 -1.0285 85.9152 40.9473 12.6585 -3.8117 1.9924
# 3 28.2578 40.9473 182.7818 6.1952 -13.9808 -4.4008
# 4 7.7793 12.6585 6.1952 42.7903 -1.7148 -6.3673
# 5 -16.5181 -3.8117 -13.9808 -1.7148 34.0982 0.2977
# 6 0.4699 1.9924 -4.4008 -6.3673 0.2977 31.2276
#
#
#
# Elastic Compliance Matrix: (Units=1/GPa)
#
#
# Indices 1 2 3 4 5 6 
#
# 1 0.029293 0.003861 -0.004298 -0.005725 0.012594 -0.002580
# 2 0.003861 0.014199 -0.003541 -0.004680 0.001792 -0.002434
# 3 -0.004298 -0.003541 0.006960 0.001059 0.000416 0.001483
# 4 -0.005725 -0.004680 0.001059 0.026463 -0.001583 0.005945
# 5 0.012594 0.001792 0.000416 -0.001583 0.035727 -0.000909
# 6 -0.002580 -0.002434 0.001483 0.005945 -0.000909 0.033647
#
#
# Mechanical properties :
#
#
# Convention : Reuss Voigt Hill
#
# Bulk Modulus (GPa) = 23.53140 50.23708 36.88424
# Shear Modulus (GPa) = 29.68942 38.13015 33.90978
#
# Velocity S-wave (km/s) = 3.69424 4.18657 3.94809
# Velocity P-wave (km/s) = 5.38640 6.81634 6.14312
#
# Compressibility (1/GPa) = 0.04249642
#
# Stress axis : x y z
#
# Youngs Moduli (GPa) = 34.13788 70.42937 143.66999
#
# Poissons Ratio (x) = -0.27195 0.61756
# Poissons Ratio (y) = -0.13182 0.50869
# Poissons Ratio (z) = 0.14674 0.24937
#
# Static dielectric constant tensor:
#      x y z
#    x 1.778540 0.037110 -0.006320 
#    y 0.037110 1.861970 0.000700 
#    z -0.006320 0.000700 1.814810 
# 
# From -- ./inp_files/142550.got.cif
#   From: 2010.05.17/outbox.cif.g08.bks.cpg/sg2_72_cif.got.tgz:142550.got - 2010.06.03 11:33:40.
