data_PCOD9055939
_publ_section_title
;
Structure prediction by ZEFSAII (Michael W. Deem and Ramdas Pophale) SiO2 
 PCOD9055939
Probable space group: P -1
;
_chemical_formula_sum "Si O2"
_cell_formula_units_Z 16
_cell_length_a 9.433877
_cell_length_b 9.011241
_cell_length_c 14.028246
_cell_angle_alpha 143.451447
_cell_angle_beta 90.808997
_cell_angle_gamma 79.664389
_cell_volume 681.225408
_symmetry_space_group_name_H-M "P -1"
_symmetry_group_IT_number 2
_symmetry_cell_setting 'triclinic'
loop_
_space_group_symop_operation_xyz
x,y,z
-x,-y,-z
loop_
_atom_site_type_symbol
_atom_site_label
_atom_site_fract_x
_atom_site_fract_y
_atom_site_fract_z
Si Si1 0.310107 0.802553 0.516918
Si Si2 0.533164 0.297246 0.222121
Si Si3 0.965573 0.711399 0.020872
Si Si4 0.747824 0.966626 0.572131
Si Si5 0.760123 0.441114 0.194762
Si Si6 0.367183 0.238051 0.999069
Si Si7 0.561432 0.740487 0.188331
Si Si8 0.027707 0.771874 0.605266
O O1 0.464054 0.579549 0.409551
O O2 0.183205 0.711186 0.520581
O O3 0.265229 0.866385 0.438802
O O4 0.333842 0.063285 0.696622
O O5 0.699286 0.246108 0.156993
O O6 0.543718 0.064156 0.173220
O O7 0.424565 0.288393 0.128708
O O8 0.807262 0.708030 0.977986
O O9 0.964734 0.001885 0.203383
O O10 0.000000 0.500000 0.000000
O O11 0.088194 0.636756 0.900712
O O12 0.751967 0.683495 0.387522
O O13 0.895357 0.922549 0.611624
O O14 0.601970 0.094750 0.698229
O O15 0.632414 0.530898 0.160835
O O16 0.409791 0.372647 0.975771
O O17 0.000000 0.500000 0.500000
#
# Coordination Sequence:
#
# PCOD9055939 Si02
#       8
#     2   2   2   2   2   2   2   2
#     4  11  22  46  70  96 142 185 240 291 354 426
#     4  11  26  43  69 102 137 182 231 299 364 411
#     4  12  26  48  73 103 145 191 238 292 357 430
#     4  11  24  43  72 105 140 189 241 297 352 430
#     4  11  23  43  70 103 139 180 236 294 355 422
#     4  11  27  44  67 102 140 183 234 295 362 417
#     4  11  21  44  72 102 133 183 246 294 343 425
#     4  12  30  45  69 111 142 190 244 295 363 421
#
# _framework density 23.487088
#
# number of rings (size 3 to 8) (size 9 to 14) (size 15 to 20)
#    0.000    0.750    5.000    1.875    8.750    2.500 
#    0.000    0.000    0.000    0.000    0.000    0.000 
#    0.000    0.000    0.000    0.000    0.000    0.000 
#
# Total GULP energy -89518.422243 kJ/mol
# GULP energy per Si atom -5594.901390 kJ/mol
# Density = 2.343363 g / cm^3
# Si number density = 23.487088 Si / 1000 Ang^3
#
#
#
# Elastic Constant Matrix: (Units=GPa)
#
#
# Indices 1 2 3 4 5 6 
#
# 1 144.6475 34.9137 47.8797 -15.1201 -27.0143 16.0389
# 2 34.9137 61.9619 10.4162 9.4082 5.2628 2.2217
# 3 47.8797 10.4162 76.3194 -1.2974 -5.8500 3.9292
# 4 -15.1201 9.4082 -1.2974 35.4750 5.4855 7.4108
# 5 -27.0143 5.2628 -5.8500 5.4855 33.0157 -0.9341
# 6 16.0389 2.2217 3.9292 7.4108 -0.9341 39.5767
#
#
#
# Elastic Compliance Matrix: (Units=1/GPa)
#
#
# Indices 1 2 3 4 5 6 
#
# 1 0.015014 -0.009266 -0.006854 0.008190 0.011013 -0.006158
# 2 -0.009266 0.023176 0.001578 -0.009397 -0.009326 0.003837
# 3 -0.006854 0.001578 0.016885 -0.002657 -0.002385 0.001454
# 4 0.008190 -0.009397 -0.002657 0.035758 0.001527 -0.009187
# 5 0.011013 -0.009326 -0.002385 0.001527 0.040024 -0.003044
# 6 -0.006158 0.003837 0.001454 -0.009187 -0.003044 0.029052
#
#
# Mechanical properties :
#
#
# Convention : Reuss Voigt Hill
#
# Bulk Modulus (GPa) = 38.47600 52.14978 45.31289
# Shear Modulus (GPa) = 25.29643 34.26143 29.77893
#
# Velocity S-wave (km/s) = 3.28538 3.82348 3.56460
# Velocity P-wave (km/s) = 5.55058 6.46095 6.02299
#
# Compressibility (1/GPa) = 0.02599023
#
# Stress axis : x y z
#
# Youngs Moduli (GPa) = 66.60336 43.14768 59.22505
#
# Poissons Ratio (x) = 0.39980 0.40595
# Poissons Ratio (y) = 0.61714 -0.09344
# Poissons Ratio (z) = 0.45652 -0.06807
#
# Static dielectric constant tensor:
#      x y z
#    x 1.886240 0.029590 0.048310 
#    y 0.029590 1.858740 0.016650 
#    z 0.048310 0.016650 1.903260 
# 
# From -- ./inp_files/226683.got.cif
#   From: 2010.05.17/outbox.cif.g08.bks.cpg/sg2_114_cif.got.tgz:226683.got - 2010.06.03 11:33:40.
