data_PCOD9055510
_publ_section_title
;
Structure prediction by ZEFSAII (Michael W. Deem and Ramdas Pophale) SiO2 
 PCOD9055510
Probable space group: P -1
;
_chemical_formula_sum "Si O2"
_cell_formula_units_Z 14
_cell_length_a 8.630993
_cell_length_b 9.504910
_cell_length_c 10.370176
_cell_angle_alpha 47.801256
_cell_angle_beta 56.785476
_cell_angle_gamma 73.277389
_cell_volume 522.842819
_symmetry_space_group_name_H-M "P -1"
_symmetry_group_IT_number 2
_symmetry_cell_setting 'triclinic'
loop_
_space_group_symop_operation_xyz
x,y,z
-x,-y,-z
loop_
_atom_site_type_symbol
_atom_site_label
_atom_site_fract_x
_atom_site_fract_y
_atom_site_fract_z
Si Si1 0.116453 0.639407 0.175598
Si Si2 0.760227 0.927504 0.180486
Si Si3 0.771222 0.357225 0.582718
Si Si4 0.360686 0.343940 0.823718
Si Si5 0.323341 0.682763 0.797682
Si Si6 0.342592 0.043156 0.245423
Si Si7 0.739946 0.884585 0.494246
O O1 0.194861 0.621621 0.293674
O O2 0.930924 0.489848 0.353977
O O3 0.243413 0.599064 0.020936
O O4 0.119986 0.867502 0.018749
O O5 0.753908 0.791215 0.144301
O O6 0.539836 0.980509 0.251053
O O7 0.813652 0.834999 0.349419
O O8 0.563447 0.407531 0.632322
O O9 0.760851 0.140199 0.669624
O O10 0.278087 0.526900 0.803332
O O11 0.389144 0.208234 0.017181
O O12 0.544086 0.745707 0.667987
O O13 0.255069 0.885821 0.670996
O O14 0.218036 0.114857 0.373089
#
# Coordination Sequence:
#
# PCOD9055510 Si02
#       7
#     2   2   2   2   2   2   2
#     4  10  18  36  56  80 114 154 180 213 299 335
#     4  10  17  36  58  77 110 156 179 221 273 345
#     4  10  20  32  57  84 115 147 180 233 276 336
#     4  11  21  33  62  90 109 130 206 237 262 304
#     4  10  20  36  58  84 110 151 181 234 269 340
#     4  11  17  35  57  88 105 148 188 236 258 335
#     4  10  19  37  58  78 117 152 185 211 295 332
#
# _framework density 26.776691
#
# number of rings (size 3 to 8) (size 9 to 14) (size 15 to 20)
#    0.000    1.714    7.143    0.857    0.000    2.857 
#    0.000    3.571    3.143    7.714    0.000    0.000 
#    0.000    0.000    0.000    0.000    0.000    0.000 
#
# Total GULP energy -78374.399241 kJ/mol
# GULP energy per Si atom -5598.171374 kJ/mol
# Density = 2.671575 g / cm^3
# Si number density = 26.776691 Si / 1000 Ang^3
#
#
#
# Elastic Constant Matrix: (Units=GPa)
#
#
# Indices 1 2 3 4 5 6 
#
# 1 66.6711 36.0435 53.0279 -0.2365 2.2444 24.4070
# 2 36.0435 198.3169 70.0734 8.6253 -4.9714 35.0422
# 3 53.0279 70.0734 226.9775 17.6659 -18.4314 19.2261
# 4 -0.2365 8.6253 17.6659 53.4254 5.4432 7.1249
# 5 2.2444 -4.9714 -18.4314 5.4432 37.0742 -6.2006
# 6 24.4070 35.0422 19.2261 7.1249 -6.2006 38.1873
#
#
#
# Elastic Compliance Matrix: (Units=1/GPa)
#
#
# Indices 1 2 3 4 5 6 
#
# 1 0.025470 -0.000374 -0.005533 0.004816 -0.007606 -0.015284
# 2 -0.000374 0.006548 -0.001580 0.000229 -0.000779 -0.005144
# 3 -0.005533 -0.001580 0.006497 -0.002739 0.004243 0.002915
# 4 0.004816 0.000229 -0.002739 0.021111 -0.005859 -0.006799
# 5 -0.007606 -0.000779 0.004243 -0.005859 0.031923 0.009716
# 6 -0.015284 -0.005144 0.002915 -0.006799 0.009716 0.042054
#
#
# Mechanical properties :
#
#
# Convention : Reuss Voigt Hill
#
# Bulk Modulus (GPa) = 42.47640 90.02833 66.25236
# Shear Modulus (GPa) = 31.96459 47.92541 39.94500
#
# Velocity S-wave (km/s) = 3.45881 4.23521 3.86655
# Velocity P-wave (km/s) = 5.64348 7.59019 6.68804
#
# Compressibility (1/GPa) = 0.02354249
#
# Stress axis : x y z
#
# Youngs Moduli (GPa) = 39.26199 152.72180 153.92217
#
# Poissons Ratio (x) = 0.05705 0.85164
# Poissons Ratio (y) = 0.01467 0.24313
# Poissons Ratio (z) = 0.21723 0.24123
#
# Static dielectric constant tensor:
#      x y z
#    x 2.213990 -0.114910 -0.012270 
#    y -0.114910 2.116880 0.048030 
#    z -0.012270 0.048030 2.013660 
# 
# From -- ./inp_files/444169.got.cif
#   From: 2010.05.17/outbox.cif.g08.bks.cpg/sg2_223_cif.got.tgz:444169.got - 2010.06.03 11:33:40.
