data_PCOD9055935
_publ_section_title
;
Structure prediction by ZEFSAII (Michael W. Deem and Ramdas Pophale) SiO2 
 PCOD9055935
Probable space group: P -1
;
_chemical_formula_sum "Si O2"
_cell_formula_units_Z 16
_cell_length_a 9.871473
_cell_length_b 9.344538
_cell_length_c 14.689480
_cell_angle_alpha 123.119790
_cell_angle_beta 63.238567
_cell_angle_gamma 71.180092
_cell_volume 658.136321
_symmetry_space_group_name_H-M "P -1"
_symmetry_group_IT_number 2
_symmetry_cell_setting 'triclinic'
loop_
_space_group_symop_operation_xyz
x,y,z
-x,-y,-z
loop_
_atom_site_type_symbol
_atom_site_label
_atom_site_fract_x
_atom_site_fract_y
_atom_site_fract_z
Si Si1 0.027831 0.078607 0.154770
Si Si2 0.853779 0.229596 0.698810
Si Si3 0.509165 0.071599 0.391070
Si Si4 0.616222 0.533566 0.309048
Si Si5 0.551907 0.762293 0.869833
Si Si6 0.499437 0.271205 0.790050
Si Si7 0.999971 0.754623 0.159405
Si Si8 0.307940 0.487042 0.449865
O O1 0.862081 0.260912 0.181823
O O2 0.927914 0.277218 0.339387
O O3 0.999948 0.908762 0.139862
O O4 0.293769 0.898755 0.989983
O O5 0.713711 0.512054 0.801116
O O6 0.662117 0.252724 0.794043
O O7 0.017406 0.145605 0.701675
O O8 0.000000 0.000000 0.500000
O O9 0.389463 0.002578 0.368662
O O10 0.785678 0.813103 0.229344
O O11 0.412783 0.247879 0.570478
O O12 0.470896 0.244484 0.385089
O O13 0.561970 0.584640 0.236734
O O14 0.428165 0.566192 0.421242
O O15 0.684199 0.624810 0.685244
O O16 0.500000 0.000000 0.000000
O O17 0.253866 0.452294 0.975956
#
# Coordination Sequence:
#
# PCOD9055935 Si02
#       8
#     2   2   2   2   2   2   2   2
#     4  11  23  43  75 101 135 186 233 294 357 422
#     4  12  27  47  70  95 146 197 233 288 362 433
#     4  11  24  41  71 106 139 177 235 302 349 425
#     4  11  21  44  72 101 137 180 235 288 365 423
#     4  12  29  46  71 107 141 189 249 295 348 436
#     4  12  26  41  68 107 138 185 234 296 358 420
#     4  12  23  42  69  98 138 183 236 282 357 428
#     4  11  22  45  75 102 139 183 236 294 362 423
#
# _framework density 24.311070000000001
#
# number of rings (size 3 to 8) (size 9 to 14) (size 15 to 20)
#    0.000    0.500    5.000    3.375    3.500    4.500 
#    0.000    0.000    0.000    0.000    0.000    0.000 
#    0.000    0.000    0.000    0.000    0.000    0.000 
#
# Total GULP energy -89582.352480 kJ/mol
# GULP energy per Si atom -5598.897030 kJ/mol
# Density = 2.425574 g / cm^3
# Si number density = 24.311070 Si / 1000 Ang^3
#
#
#
# Elastic Constant Matrix: (Units=GPa)
#
#
# Indices 1 2 3 4 5 6 
#
# 1 60.5829 9.3317 7.7750 10.7235 17.6227 7.2563
# 2 9.3317 44.3921 8.7611 4.8896 -1.2017 -2.4539
# 3 7.7750 8.7611 97.4851 12.5937 8.5426 7.9563
# 4 10.7235 4.8896 12.5937 40.9129 0.3175 7.8622
# 5 17.6227 -1.2017 8.5426 0.3175 45.6526 12.4231
# 6 7.2563 -2.4539 7.9563 7.8622 12.4231 30.3091
#
#
#
# Elastic Compliance Matrix: (Units=1/GPa)
#
#
# Indices 1 2 3 4 5 6 
#
# 1 0.020273 -0.004023 0.000086 -0.004636 -0.007684 -0.000850
# 2 -0.004023 0.024201 -0.002029 -0.001849 0.001701 0.003237
# 3 0.000086 -0.002029 0.011087 -0.002861 -0.001689 -0.001661
# 4 -0.004636 -0.001849 -0.002861 0.028119 0.004052 -0.007244
# 5 -0.007684 0.001701 -0.001689 0.004052 0.027948 -0.010085
# 6 -0.000850 0.003237 -0.001661 -0.007244 -0.010085 0.039908
#
#
# Mechanical properties :
#
#
# Convention : Reuss Voigt Hill
#
# Bulk Modulus (GPa) = 22.92000 28.24398 25.58199
# Shear Modulus (GPa) = 28.08847 35.14773 31.61810
#
# Velocity S-wave (km/s) = 3.40277 3.80643 3.61025
# Velocity P-wave (km/s) = 4.98866 5.56430 5.28433
#
# Compressibility (1/GPa) = 0.04363002
#
# Stress axis : x y z
#
# Youngs Moduli (GPa) = 49.32787 41.32031 90.19953
#
# Poissons Ratio (x) = 0.16622 -0.00779
# Poissons Ratio (y) = 0.19844 0.18298
# Poissons Ratio (z) = -0.00426 0.08382
#
# Static dielectric constant tensor:
#      x y z
#    x 1.913060 0.010220 0.027090 
#    y 0.010220 1.916940 -0.014990 
#    z 0.027090 -0.014990 2.014900 
# 
# From -- ./inp_files/516074.got.cif
#   From: 2010.05.17/outbox.cif.g08.bks.cpg/sg2_259_cif.got.tgz:516074.got - 2010.06.03 11:33:40.
