data_PCOD9055561
_publ_section_title
;
Structure prediction by ZEFSAII (Michael W. Deem and Ramdas Pophale) SiO2 
 PCOD9055561
Probable space group: P -1
;
_chemical_formula_sum "Si O2"
_cell_formula_units_Z 14
_cell_length_a 12.573781
_cell_length_b 8.854111
_cell_length_c 12.539101
_cell_angle_alpha 143.754203
_cell_angle_beta 134.108063
_cell_angle_gamma 60.791575
_cell_volume 583.729167
_symmetry_space_group_name_H-M "P -1"
_symmetry_group_IT_number 2
_symmetry_cell_setting 'triclinic'
loop_
_space_group_symop_operation_xyz
x,y,z
-x,-y,-z
loop_
_atom_site_type_symbol
_atom_site_label
_atom_site_fract_x
_atom_site_fract_y
_atom_site_fract_z
Si Si1 0.731771 0.346396 0.972695
Si Si2 0.016895 0.390232 0.331935
Si Si3 0.622805 0.825379 0.248439
Si Si4 0.301859 0.175521 0.452752
Si Si5 0.151997 0.411976 0.019321
Si Si6 0.528624 0.327101 0.521192
Si Si7 0.140098 0.929153 0.621719
O O1 0.615719 0.530092 0.032829
O O2 0.849846 0.294330 0.115115
O O3 0.833747 0.515880 0.053278
O O4 0.664389 0.102140 0.716250
O O5 0.132445 0.190681 0.306896
O O6 0.103206 0.630601 0.459271
O O7 0.000000 0.500000 0.500000
O O8 0.692043 0.806345 0.404784
O O9 0.504020 0.020793 0.295287
O O10 0.723884 0.988976 0.319292
O O11 0.421663 0.361803 0.568014
O O12 0.297459 0.570664 0.268873
O O13 0.000000 0.500000 0.000000
O O14 0.155610 0.105136 0.840823
O O15 0.500000 0.500000 0.500000
O O16 0.000000 0.000000 0.500000
#
# Coordination Sequence:
#
# PCOD9055561 Si02
#       7
#     2   2   2   2   2   2   2
#     4  11  25  43  75 111 137 202 249 294 371 439
#     4  12  24  43  71 112 153 190 245 315 361 430
#     4  11  23  47  71 102 146 194 246 299 366 441
#     4  12  26  47  74 103 157 190 246 304 374 439
#     4  11  25  43  79 105 141 196 252 294 371 445
#     4  12  28  49  74 110 152 194 243 315 373 439
#     4  11  21  42  70 104 144 188 246 305 359 428
#
# _framework density 23.983725
#
# number of rings (size 3 to 8) (size 9 to 14) (size 15 to 20)
#    0.000    0.571    5.714    2.571    4.000    1.714 
#    2.571    3.571    0.000    0.000    0.000    0.000 
#    0.000    0.000    0.000    0.000    0.000    0.000 
#
# Total GULP energy -78181.475805 kJ/mol
# GULP energy per Si atom -5584.391129 kJ/mol
# Density = 2.392914 g / cm^3
# Si number density = 23.983725 Si / 1000 Ang^3
#
#
#
# Elastic Constant Matrix: (Units=GPa)
#
#
# Indices 1 2 3 4 5 6 
#
# 1 129.6884 7.6739 4.6363 -10.2399 -14.9805 -15.5520
# 2 7.6739 96.8218 14.7319 -6.9304 -8.7242 6.0160
# 3 4.6363 14.7319 106.9842 1.8929 -13.5997 -3.7490
# 4 -10.2399 -6.9304 1.8929 43.7391 -9.8906 -2.4926
# 5 -14.9805 -8.7242 -13.5997 -9.8906 36.4189 -4.2663
# 6 -15.5520 6.0160 -3.7490 -2.4926 -4.2663 31.2696
#
#
#
# Elastic Compliance Matrix: (Units=1/GPa)
#
#
# Indices 1 2 3 4 5 6 
#
# 1 0.009365 -0.000410 0.000507 0.003715 0.005639 0.005863
# 2 -0.000410 0.011047 -0.001315 0.002124 0.002329 -0.002000
# 3 0.000507 -0.001315 0.010096 0.000527 0.004078 0.002314
# 4 0.003715 0.002124 0.000527 0.026602 0.010043 0.004993
# 5 0.005639 0.002329 0.004078 0.010043 0.035582 0.008501
# 6 0.005863 -0.002000 0.002314 0.004993 0.008501 0.037116
#
#
# Mechanical properties :
#
#
# Convention : Reuss Voigt Hill
#
# Bulk Modulus (GPa) = 35.62152 43.06430 39.34291
# Shear Modulus (GPa) = 35.31070 42.71568 39.01319
#
# Velocity S-wave (km/s) = 3.84119 4.22480 4.03755
# Velocity P-wave (km/s) = 5.87857 6.46477 6.17862
#
# Compressibility (1/GPa) = 0.02807292
#
# Stress axis : x y z
#
# Youngs Moduli (GPa) = 106.78530 90.52248 99.04476
#
# Poissons Ratio (x) = 0.03708 -0.05023
# Poissons Ratio (y) = 0.04375 0.13024
# Poissons Ratio (z) = -0.05415 0.11904
#
# Static dielectric constant tensor:
#      x y z
#    x 2.010170 0.021270 0.037250 
#    y 0.021270 1.963740 0.103210 
#    z 0.037250 0.103210 2.076520 
# 
# From -- ./inp_files/393238.got.cif
#   From: 2010.05.17/outbox.cif.g08.bks.cpg/sg2_197_cif.got.tgz:393238.got - 2010.06.03 11:33:40.
