data_PCOD9055579
_publ_section_title
;
Structure prediction by ZEFSAII (Michael W. Deem and Ramdas Pophale) SiO2 
 PCOD9055579
Probable space group: P -1
;
_chemical_formula_sum "Si O2"
_cell_formula_units_Z 14
_cell_length_a 8.923438
_cell_length_b 8.468354
_cell_length_c 8.378786
_cell_angle_alpha 70.303975
_cell_angle_beta 62.571378
_cell_angle_gamma 83.333880
_cell_volume 528.521218
_symmetry_space_group_name_H-M "P -1"
_symmetry_group_IT_number 2
_symmetry_cell_setting 'triclinic'
loop_
_space_group_symop_operation_xyz
x,y,z
-x,-y,-z
loop_
_atom_site_type_symbol
_atom_site_label
_atom_site_fract_x
_atom_site_fract_y
_atom_site_fract_z
Si Si1 0.943782 0.011797 0.299200
Si Si2 0.605703 0.336481 0.860755
Si Si3 0.632729 0.123831 0.219325
Si Si4 0.482715 0.617604 0.628245
Si Si5 0.878136 0.520946 0.200359
Si Si6 0.288152 0.156537 0.931915
Si Si7 0.921137 0.266801 0.514441
O O1 0.810481 0.063956 0.217093
O O2 0.906497 0.128036 0.429097
O O3 0.940790 0.815563 0.413188
O O4 0.134124 0.059963 0.129932
O O5 0.584328 0.525938 0.747733
O O6 0.416527 0.257794 0.950973
O O7 0.746579 0.274111 0.692077
O O8 0.657748 0.279195 0.029277
O O9 0.502442 0.185298 0.396994
O O10 0.589264 0.965558 0.179740
O O11 0.500000 0.500000 0.500000
O O12 0.280407 0.599946 0.730630
O O13 0.803233 0.705037 0.178142
O O14 0.955729 0.445168 0.348748
O O15 0.000000 0.500000 0.000000
#
# Coordination Sequence:
#
# PCOD9055579 Si02
#       7
#     2   2   2   2   2   2   2
#     4  11  23  42  73  99 137 191 234 282 342 416
#     4  11  24  41  73 101 145 185 229 284 351 417
#     4  12  23  43  70 107 138 186 236 284 348 424
#     4  11  22  43  71  97 136 186 235 283 356 415
#     4  11  21  42  70  98 134 189 231 281 346 415
#     4  11  24  40  71 106 141 184 230 286 349 405
#     4  11  22  42  72  97 138 186 237 272 358 406
#
# _framework density 26.489004000000001
#
# number of rings (size 3 to 8) (size 9 to 14) (size 15 to 20)
#    0.000    0.857    5.714    1.286    0.000    0.000 
#    0.000    7.143    0.000    0.000    0.000    1.000 
#    0.000    0.000    0.000    0.000    0.000    0.000 
#
# Total GULP energy -78225.101187 kJ/mol
# GULP energy per Si atom -5587.507228 kJ/mol
# Density = 2.642871 g / cm^3
# Si number density = 26.489004 Si / 1000 Ang^3
#
#
#
# Elastic Constant Matrix: (Units=GPa)
#
#
# Indices 1 2 3 4 5 6 
#
# 1 90.7577 28.7725 47.2309 -5.2458 18.9700 -35.2587
# 2 28.7725 190.9752 44.6130 2.2640 21.9235 -51.0793
# 3 47.2309 44.6130 132.2910 1.6522 20.2092 -28.6232
# 4 -5.2458 2.2640 1.6522 47.6921 -15.8977 15.6108
# 5 18.9700 21.9235 20.2092 -15.8977 44.6891 -10.3231
# 6 -35.2587 -51.0793 -28.6232 15.6108 -10.3231 47.9396
#
#
#
# Elastic Compliance Matrix: (Units=1/GPa)
#
#
# Indices 1 2 3 4 5 6 
#
# 1 0.018677 0.002701 -0.003383 -0.004827 -0.006005 0.014873
# 2 0.002701 0.008646 -0.000640 -0.005334 -0.004311 0.011626
# 3 -0.003383 -0.000640 0.010169 -0.002753 -0.003105 0.003129
# 4 -0.004827 -0.005334 -0.002753 0.030994 0.012726 -0.018230
# 5 -0.006005 -0.004311 -0.003105 0.012726 0.031049 -0.008321
# 6 0.014873 0.011626 0.003129 -0.018230 -0.008321 0.050199
#
#
# Mechanical properties :
#
#
# Convention : Reuss Voigt Hill
#
# Bulk Modulus (GPa) = 28.69593 72.80630 50.75112
# Shear Modulus (GPa) = 30.48882 47.62463 39.05673
#
# Velocity S-wave (km/s) = 3.39632 4.24477 3.84402
# Velocity P-wave (km/s) = 5.12217 7.18117 6.23722
#
# Compressibility (1/GPa) = 0.03484814
#
# Stress axis : x y z
#
# Youngs Moduli (GPa) = 53.54177 115.65506 98.34238
#
# Poissons Ratio (x) = -0.31239 0.33273
# Poissons Ratio (y) = -0.14462 0.06290
# Poissons Ratio (z) = 0.18115 0.07397
#
# Static dielectric constant tensor:
#      x y z
#    x 2.026770 0.056950 0.045140 
#    y 0.056950 2.191560 -0.004530 
#    z 0.045140 -0.004530 2.187790 
# 
# From -- ./inp_files/157185.got.cif
#   From: 2010.05.17/outbox.cif.g08.bks.cpg/sg2_79_cif.got.tgz:157185.got - 2010.06.03 11:33:40.
