data_PCOD9055685
_publ_section_title
;
Structure prediction by ZEFSAII (Michael W. Deem and Ramdas Pophale) SiO2 
 PCOD9055685
Probable space group: P -1
;
_chemical_formula_sum "Si O2"
_cell_formula_units_Z 16
_cell_length_a 8.669052
_cell_length_b 21.458165
_cell_length_c 11.601302
_cell_angle_alpha 149.177501
_cell_angle_beta 136.780552
_cell_angle_gamma 55.112441
_cell_volume 748.254496
_symmetry_space_group_name_H-M "P -1"
_symmetry_group_IT_number 2
_symmetry_cell_setting 'triclinic'
loop_
_space_group_symop_operation_xyz
x,y,z
-x,-y,-z
loop_
_atom_site_type_symbol
_atom_site_label
_atom_site_fract_x
_atom_site_fract_y
_atom_site_fract_z
Si Si1 0.427629 0.955026 0.763676
Si Si2 0.751002 0.028726 0.626549
Si Si3 0.851726 0.237391 0.820702
Si Si4 0.393072 0.549749 0.863632
Si Si5 0.851322 0.611635 0.347878
Si Si6 0.353648 0.587560 0.626638
Si Si7 0.311149 0.181910 0.907912
Si Si8 0.903760 0.890816 0.855990
O O1 0.238723 0.833990 0.458482
O O2 0.643684 0.904594 0.749703
O O3 0.370197 0.075642 0.857428
O O4 0.500000 0.000000 0.000000
O O5 0.767315 0.132567 0.702617
O O6 0.500000 0.000000 0.500000
O O7 0.791445 0.901244 0.388173
O O8 0.946460 0.083336 0.907329
O O9 0.124681 0.253390 0.980898
O O10 0.734697 0.352409 0.979183
O O11 0.266359 0.421235 0.643091
O O12 0.366517 0.569230 0.743576
O O13 0.656069 0.565028 0.073656
O O14 0.915689 0.757106 0.601782
O O15 0.091812 0.562273 0.401958
O O16 0.500000 0.500000 0.500000
O O17 0.473419 0.724754 0.872900
O O18 0.000000 0.000000 0.000000
#
# Coordination Sequence:
#
# PCOD9055685 Si02
#       8
#     2   2   2   2   2   2   2   2
#     4  11  22  38  60  97 133 175 219 275 333 397
#     4  11  22  38  65  95 135 184 227 281 342 413
#     4  11  21  43  65  94 133 182 228 271 351 405
#     4  11  25  47  76  97 139 182 235 291 346 415
#     4  11  25  47  70 107 132 183 241 280 345 422
#     4  12  27  47  71 102 137 179 233 291 358 411
#     4  11  24  42  63  99 138 180 229 282 349 419
#     4  12  23  38  65  99 136 169 221 280 335 406
#
# _framework density 21.383099999999999
#
# number of rings (size 3 to 8) (size 9 to 14) (size 15 to 20)
#    0.000    0.750    1.250    8.625    1.750    2.500 
#    2.250    0.000    0.000    0.000    0.000    0.000 
#    0.000    0.000    0.000    0.000    0.000    0.000 
#
# Total GULP energy -89386.800698 kJ/mol
# GULP energy per Si atom -5586.675044 kJ/mol
# Density = 2.133443 g / cm^3
# Si number density = 21.383100 Si / 1000 Ang^3
#
#
#
# Elastic Constant Matrix: (Units=GPa)
#
#
# Indices 1 2 3 4 5 6 
#
# 1 92.8991 37.4391 10.5593 -10.9525 9.6318 -23.0031
# 2 37.4391 87.2124 19.8804 -12.8953 1.9734 -21.5301
# 3 10.5593 19.8804 50.8670 -3.3623 10.2394 -4.4439
# 4 -10.9525 -12.8953 -3.3623 39.8358 -1.0045 12.5819
# 5 9.6318 1.9734 10.2394 -1.0045 39.2363 -3.6649
# 6 -23.0031 -21.5301 -4.4439 12.5819 -3.6649 43.9307
#
#
#
# Elastic Compliance Matrix: (Units=1/GPa)
#
#
# Indices 1 2 3 4 5 6 
#
# 1 0.014225 -0.004759 -0.000073 0.000829 -0.002779 0.004640
# 2 -0.004759 0.016049 -0.005198 0.002105 0.002185 0.004427
# 3 -0.000073 -0.005198 0.022810 0.000348 -0.005744 -0.000858
# 4 0.000829 0.002105 0.000348 0.028111 -0.000295 -0.006575
# 5 -0.002779 0.002185 -0.005744 -0.000295 0.027684 0.001429
# 6 0.004640 0.004427 -0.000858 -0.006575 0.001429 0.029278
#
#
# Mechanical properties :
#
#
# Convention : Reuss Voigt Hill
#
# Bulk Modulus (GPa) = 30.28222 40.74846 35.51534
# Shear Modulus (GPa) = 29.54609 35.47388 32.50998
#
# Velocity S-wave (km/s) = 3.72122 4.07746 3.90341
# Velocity P-wave (km/s) = 5.71453 6.42381 6.07952
#
# Compressibility (1/GPa) = 0.03302268
#
# Stress axis : x y z
#
# Youngs Moduli (GPa) = 70.29682 62.30907 43.83947
#
# Poissons Ratio (x) = 0.29654 0.00322
# Poissons Ratio (y) = 0.33456 0.22790
# Poissons Ratio (z) = 0.00516 0.32391
#
# Static dielectric constant tensor:
#      x y z
#    x 1.725310 -0.147110 0.273570 
#    y -0.147110 1.161320 1.533310 
#    z 0.273570 1.533310 -2.398920 
# 
# From -- ./inp_files/279583.got.cif
#   From: 2010.05.17/outbox.cif.g08.bks.cpg/sg2_140_cif.got.tgz:279583.got - 2010.06.03 11:33:40.
