data_PCOD9055437
_publ_section_title
;
Structure prediction by ZEFSAII (Michael W. Deem and Ramdas Pophale) SiO2 
 PCOD9055437
Probable space group: P -1
;
_chemical_formula_sum "Si O2"
_cell_formula_units_Z 16
_cell_length_a 18.469103
_cell_length_b 6.000968
_cell_length_c 7.813670
_cell_angle_alpha 113.504956
_cell_angle_beta 120.208257
_cell_angle_gamma 61.873897
_cell_volume 645.014323
_symmetry_space_group_name_H-M "P -1"
_symmetry_group_IT_number 2
_symmetry_cell_setting 'triclinic'
loop_
_space_group_symop_operation_xyz
x,y,z
-x,-y,-z
loop_
_atom_site_type_symbol
_atom_site_label
_atom_site_fract_x
_atom_site_fract_y
_atom_site_fract_z
Si Si1 0.162306 0.402898 0.774127
Si Si2 0.045568 0.707955 0.043774
Si Si3 0.590268 0.766556 0.521900
Si Si4 0.347439 0.429453 0.107363
Si Si5 0.265803 0.865379 0.676273
Si Si6 0.717258 0.009854 0.649232
Si Si7 0.536690 0.330827 0.156864
Si Si8 0.160824 0.515431 0.427388
O O1 0.123657 0.480033 0.559744
O O2 0.187202 0.096882 0.738598
O O3 0.105760 0.564437 0.910708
O O4 0.261656 0.419655 0.903564
O O5 0.099571 0.721019 0.284959
O O6 0.000000 0.500000 0.000000
O O7 0.000000 0.000000 0.000000
O O8 0.648960 0.700876 0.742496
O O9 0.641552 0.884536 0.485846
O O10 0.565035 0.515387 0.377711
O O11 0.500000 0.000000 0.500000
O O12 0.448099 0.290355 0.112427
O O13 0.323988 0.740833 0.203529
O O14 0.365183 0.861295 0.838527
O O15 0.244313 0.607104 0.598094
O O16 0.259219 0.901109 0.476287
O O17 0.803765 0.759871 0.715682
O O18 0.500000 0.500000 0.000000
#
# Coordination Sequence:
#
# PCOD9055437 Si02
#       8
#     2   2   2   2   2   2   2   2
#     4  11  29  48  81 115 155 209 254 330 403 476
#     4  12  32  57  89 126 159 204 261 329 413 505
#     4  12  23  39  60  94 138 205 263 334 379 434
#     4  12  25  44  69 106 148 208 271 320 380 460
#     4  11  24  45  70 108 154 206 255 319 383 459
#     4  11  21  41  73  96 143 199 264 311 388 452
#     4  12  25  39  62 101 149 201 264 314 372 446
#     4  11  26  49  81 114 159 203 256 321 403 479
#
# _framework density 24.805648999999999
#
# number of rings (size 3 to 8) (size 9 to 14) (size 15 to 20)
#    0.000    0.500    3.750    3.375   10.500    3.500 
#    0.000    0.000    0.000    0.000    0.000    0.000 
#    0.000    0.000    0.000    0.000    0.000    0.000 
#
# Total GULP energy -89272.381371 kJ/mol
# GULP energy per Si atom -5579.523836 kJ/mol
# Density = 2.474919 g / cm^3
# Si number density = 24.805649 Si / 1000 Ang^3
#
#
#
# Elastic Constant Matrix: (Units=GPa)
#
#
# Indices 1 2 3 4 5 6 
#
# 1 105.6229 34.3498 23.2523 -2.3973 -7.6548 6.0775
# 2 34.3498 158.5539 37.5284 -8.2864 -9.8619 -21.9451
# 3 23.2523 37.5284 81.6291 -21.4879 -5.9779 -5.5302
# 4 -2.3973 -8.2864 -21.4879 43.0981 6.8609 -4.0146
# 5 -7.6548 -9.8619 -5.9779 6.8609 34.7911 9.7953
# 6 6.0775 -21.9451 -5.5302 -4.0146 9.7953 41.4270
#
#
#
# Elastic Compliance Matrix: (Units=1/GPa)
#
#
# Indices 1 2 3 4 5 6 
#
# 1 0.011211 -0.002271 -0.002748 -0.002027 0.002904 -0.004098
# 2 -0.002271 0.008041 -0.002625 0.000507 0.000022 0.004286
# 3 -0.002748 -0.002625 0.016393 0.007820 -0.000670 0.002117
# 4 -0.002027 0.000507 0.007820 0.028628 -0.006255 0.005863
# 5 0.002904 0.000022 -0.000670 -0.006255 0.033017 -0.008917
# 6 -0.004098 0.004286 0.002117 0.005863 -0.008917 0.029970
#
#
# Mechanical properties :
#
#
# Convention : Reuss Voigt Hill
#
# Bulk Modulus (GPa) = 49.12015 59.56299 54.34157
# Shear Modulus (GPa) = 33.48196 40.57494 37.02845
#
# Velocity S-wave (km/s) = 3.67791 4.04878 3.86779
# Velocity P-wave (km/s) = 6.15476 6.77649 6.47309
#
# Compressibility (1/GPa) = 0.02035825
#
# Stress axis : x y z
#
# Youngs Moduli (GPa) = 89.19486 124.35737 61.00240
#
# Poissons Ratio (x) = 0.28240 0.16764
# Poissons Ratio (y) = 0.20255 0.16011
# Poissons Ratio (z) = 0.24512 0.32639
#
# Static dielectric constant tensor:
#      x y z
#    x 2.038100 -0.020410 -0.003440 
#    y -0.020410 2.049290 0.014560 
#    z -0.003440 0.014560 1.828790 
# 
# From -- ./inp_files/324015.got.cif
#   From: 2010.05.17/outbox.cif.g08.bks.cpg/sg2_163_cif.got.tgz:324015.got - 2010.06.03 11:33:40.
