data_PCOD9055623
_publ_section_title
;
Structure prediction by ZEFSAII (Michael W. Deem and Ramdas Pophale) SiO2 
 PCOD9055623
Probable space group: P -1
;
_chemical_formula_sum "Si O2"
_cell_formula_units_Z 15
_cell_length_a 8.475749
_cell_length_b 10.704532
_cell_length_c 8.608539
_cell_angle_alpha 94.141251
_cell_angle_beta 58.061254
_cell_angle_gamma 77.892839
_cell_volume 632.073304
_symmetry_space_group_name_H-M "P -1"
_symmetry_group_IT_number 2
_symmetry_cell_setting 'triclinic'
loop_
_space_group_symop_operation_xyz
x,y,z
-x,-y,-z
loop_
_atom_site_type_symbol
_atom_site_label
_atom_site_fract_x
_atom_site_fract_y
_atom_site_fract_z
Si Si1 0.063848 0.456900 0.639160
Si Si2 0.378964 0.897910 0.567434
Si Si3 0.457972 0.294475 0.280553
Si Si4 0.262114 0.683486 0.103897
Si Si5 0.000000 0.500000 0.000000
Si Si6 0.433739 0.307767 0.793679
Si Si7 0.330173 0.133607 0.074626
Si Si8 0.042230 0.981935 0.161251
O O1 0.290299 0.378947 0.487951
O O2 0.031337 0.556796 0.808944
O O3 0.000000 0.500000 0.500000
O O4 0.919056 0.375050 0.778072
O O5 0.410619 0.835593 0.716273
O O6 0.442343 0.767279 0.420428
O O7 0.500000 0.000000 0.500000
O O8 0.164760 0.983769 0.647360
O O9 0.343769 0.241593 0.201368
O O10 0.602440 0.361738 0.123759
O O11 0.414651 0.655543 0.163914
O O12 0.169536 0.838497 0.135910
O O13 0.231257 0.414907 0.873108
O O14 0.367327 0.190878 0.897328
O O15 0.137477 0.092029 0.174318
O O16 0.500000 0.000000 0.000000
O O17 0.000000 0.000000 0.000000
#
# Coordination Sequence:
#
# PCOD9055623 Si02
#       8
#     2   2   2   2   1   2   2   2
#     4  12  28  53  79 106 147 206 266 328 395 447
#     4  12  24  40  69 108 154 194 247 307 380 466
#     4  11  23  46  71 107 153 198 245 318 378 459
#     4  11  26  48  74 112 151 194 259 319 391 472
#     4  12  28  52  80 106 146 208 268 322 382 462
#     4  11  25  46  71 109 148 197 251 315 380 457
#     4  11  21  42  72 107 155 194 243 307 393 460
#     4  12  23  39  72 112 152 199 239 310 395 470
#
# _framework density 23.731424000000001
#
# number of rings (size 3 to 8) (size 9 to 14) (size 15 to 20)
#    0.000    0.533    5.333    4.000    3.733    2.667 
#    2.400    1.333    0.000    0.000    0.000    0.000 
#    0.000    0.000    0.000    0.000    0.000    0.000 
#
# Total GULP energy -83564.202857 kJ/mol
# GULP energy per Si atom -5570.946857 kJ/mol
# Density = 2.367741 g / cm^3
# Si number density = 23.731424 Si / 1000 Ang^3
#
#
#
# Elastic Constant Matrix: (Units=GPa)
#
#
# Indices 1 2 3 4 5 6 
#
# 1 61.9752 21.6426 24.0997 5.0545 -30.7377 -20.4360
# 2 21.6426 77.1387 15.6804 -4.8432 -11.3741 -26.5515
# 3 24.0997 15.6804 131.9455 12.5749 -17.4364 -3.9284
# 4 5.0545 -4.8432 12.5749 50.2325 -6.1293 -8.9753
# 5 -30.7377 -11.3741 -17.4364 -6.1293 51.2875 -7.4749
# 6 -20.4360 -26.5515 -3.9284 -8.9753 -7.4749 45.1280
#
#
#
# Elastic Compliance Matrix: (Units=1/GPa)
#
#
# Indices 1 2 3 4 5 6 
#
# 1 0.035776 0.002135 -0.003305 0.004377 0.024536 0.022104
# 2 0.002135 0.019208 -0.001754 0.005612 0.007729 0.014512
# 3 -0.003305 -0.001754 0.008540 -0.002391 -0.000083 -0.002275
# 4 0.004377 0.005612 -0.002391 0.023479 0.007461 0.010981
# 5 0.024536 0.007729 -0.000083 0.007461 0.040249 0.023802
# 6 0.022104 0.014512 -0.002275 0.010981 0.023802 0.046636
#
#
# Mechanical properties :
#
#
# Convention : Reuss Voigt Hill
#
# Bulk Modulus (GPa) = 17.33807 43.76719 30.55263
# Shear Modulus (GPa) = 25.13055 43.30535 34.21795
#
# Velocity S-wave (km/s) = 3.25769 4.27641 3.80133
# Velocity P-wave (km/s) = 4.63378 6.54724 5.67178
#
# Compressibility (1/GPa) = 0.05767654
#
# Stress axis : x y z
#
# Youngs Moduli (GPa) = 27.95196 52.06098 117.09483
#
# Poissons Ratio (x) = -0.11116 0.38697
# Poissons Ratio (y) = -0.05968 0.20540
# Poissons Ratio (z) = 0.09237 0.09132
#
# Static dielectric constant tensor:
#      x y z
#    x 1.879390 0.015240 0.109260 
#    y 0.015240 1.887470 0.036690 
#    z 0.109260 0.036690 1.997270 
# 
# From -- ./inp_files/177161.got.cif
#   From: 2010.05.17/outbox.cif.g08.bks.cpg/sg2_89_cif.got.tgz:177161.got - 2010.06.03 11:33:40.
