data_PCOD9055297
_publ_section_title
;
Structure prediction by ZEFSAII (Michael W. Deem and Ramdas Pophale) SiO2 
 PCOD9055297
Probable space group: P -1
;
_chemical_formula_sum "Si O2"
_cell_formula_units_Z 16
_cell_length_a 10.385577
_cell_length_b 22.153861
_cell_length_c 11.865924
_cell_angle_alpha 19.805505
_cell_angle_beta 40.699162
_cell_angle_gamma 41.703009
_cell_volume 596.315554
_symmetry_space_group_name_H-M "P -1"
_symmetry_group_IT_number 2
_symmetry_cell_setting 'triclinic'
loop_
_space_group_symop_operation_xyz
x,y,z
-x,-y,-z
loop_
_atom_site_type_symbol
_atom_site_label
_atom_site_fract_x
_atom_site_fract_y
_atom_site_fract_z
Si Si1 0.162734 0.865510 0.558901
Si Si2 0.521686 0.066172 0.241447
Si Si3 0.278212 0.223152 0.775945
Si Si4 0.104823 0.166468 0.398637
Si Si5 0.138342 0.706598 0.446243
Si Si6 0.523724 0.721733 0.688297
Si Si7 0.490225 0.526687 0.677946
Si Si8 0.896152 0.266676 0.825053
O O1 0.293852 0.726722 0.795961
O O2 0.062812 0.770815 0.692038
O O3 0.000000 0.000000 0.500000
O O4 0.288181 0.010801 0.165806
O O5 0.312200 0.201586 0.142718
O O6 0.500000 0.000000 0.500000
O O7 0.519433 0.901384 0.448662
O O8 0.723180 0.140974 0.944609
O O9 0.368912 0.262530 0.527073
O O10 0.399083 0.307991 0.644814
O O11 0.045951 0.301277 0.765158
O O12 0.030419 0.243428 0.434211
O O13 0.105547 0.949184 0.786738
O O14 0.314660 0.566092 0.633939
O O15 0.040139 0.680127 0.436933
O O16 0.596557 0.552468 0.013718
O O17 0.672108 0.372808 0.793371
#
# Coordination Sequence:
#
# PCOD9055297 Si02
#       8
#     2   2   2   2   2   2   2   2
#     4  11  21  41  67 100 134 172 229 287 341 406
#     4  12  23  41  73 104 134 185 231 286 350 409
#     4  11  25  41  70 103 132 185 230 287 348 409
#     4  11  23  43  71 104 133 175 233 286 345 406
#     4  12  26  45  72 104 143 178 234 288 347 416
#     4  12  23  44  68  99 144 175 234 287 344 413
#     4  12  25  47  67 100 143 188 225 282 351 413
#     4  11  23  46  69  99 139 179 226 289 343 411
#
# _framework density 26.831430000000001
#
# number of rings (size 3 to 8) (size 9 to 14) (size 15 to 20)
#    0.000    0.500    3.750    5.625    1.750    0.000 
#    2.250    0.625    0.000    0.000    0.000    0.000 
#    0.000    0.000    0.000    0.000    0.000    0.000 
#
# Total GULP energy -89625.305989 kJ/mol
# GULP energy per Si atom -5601.581624 kJ/mol
# Density = 2.677036 g / cm^3
# Si number density = 26.831430 Si / 1000 Ang^3
#
#
#
# Elastic Constant Matrix: (Units=GPa)
#
#
# Indices 1 2 3 4 5 6 
#
# 1 103.8741 -0.2936 39.2357 -14.9719 12.4560 -1.3952
# 2 -0.2936 105.0283 6.9650 14.0903 -7.3283 0.0359
# 3 39.2357 6.9650 36.2959 15.3179 7.1807 -0.8606
# 4 -14.9719 14.0903 15.3179 46.4853 -5.1993 8.1385
# 5 12.4560 -7.3283 7.1807 -5.1993 46.6346 0.4264
# 6 -1.3952 0.0359 -0.8606 8.1385 0.4264 43.6905
#
#
#
# Elastic Compliance Matrix: (Units=1/GPa)
#
#
# Indices 1 2 3 4 5 6 
#
# 1 0.028109 -0.000275 -0.040579 0.023407 0.001346 -0.004275
# 2 -0.000275 0.010047 -0.000714 -0.002821 0.001443 0.000480
# 3 -0.040579 -0.000714 0.092963 -0.046084 -0.008810 0.009206
# 4 0.023407 -0.002821 -0.046084 0.047317 0.005758 -0.009028
# 5 0.001346 0.001443 -0.008810 0.005758 0.023322 -0.001432
# 6 -0.004275 0.000480 0.009206 -0.009028 -0.001432 0.024628
#
#
# Mechanical properties :
#
#
# Convention : Reuss Voigt Hill
#
# Bulk Modulus (GPa) = 20.84048 37.44584 29.14316
# Shear Modulus (GPa) = 15.36025 40.64816 28.00421
#
# Velocity S-wave (km/s) = 2.39523 3.89645 3.23415
# Velocity P-wave (km/s) = 3.92856 5.85059 4.98312
#
# Compressibility (1/GPa) = 0.04798354
#
# Stress axis : x y z
#
# Youngs Moduli (GPa) = 35.57619 99.53349 10.75695
#
# Poissons Ratio (x) = 0.02740 0.43650
# Poissons Ratio (y) = 0.00979 0.00768
# Poissons Ratio (z) = 1.44363 0.07104
#
# Static dielectric constant tensor:
#      x y z
#    x 2.188110 -0.099490 -0.036660 
#    y -0.099490 2.192610 0.033210 
#    z -0.036660 0.033210 2.130970 
# 
# From -- ./inp_files/294737.got.cif
#   From: 2010.05.17/outbox.cif.g08.bks.cpg/sg2_148_cif.got.tgz:294737.got - 2010.06.03 11:33:40.
