data_PCOD9055734
_publ_section_title
;
Structure prediction by ZEFSAII (Michael W. Deem and Ramdas Pophale) SiO2 
 PCOD9055734
Probable space group: P -1
;
_chemical_formula_sum "Si O2"
_cell_formula_units_Z 14
_cell_length_a 8.354173
_cell_length_b 11.667657
_cell_length_c 9.129789
_cell_angle_alpha 39.542348
_cell_angle_beta 87.927142
_cell_angle_gamma 89.082031
_cell_volume 566.092741
_symmetry_space_group_name_H-M "P -1"
_symmetry_group_IT_number 2
_symmetry_cell_setting 'triclinic'
loop_
_space_group_symop_operation_xyz
x,y,z
-x,-y,-z
loop_
_atom_site_type_symbol
_atom_site_label
_atom_site_fract_x
_atom_site_fract_y
_atom_site_fract_z
Si Si1 0.371110 0.780391 0.112000
Si Si2 0.816137 0.313090 0.074594
Si Si3 0.153783 0.234395 0.997215
Si Si4 0.116393 0.605935 0.509062
Si Si5 0.682767 0.810413 0.236374
Si Si6 0.686562 0.992483 0.543475
Si Si7 0.160971 0.292285 0.392272
O O1 0.244348 0.712669 0.304082
O O2 0.543438 0.731310 0.216606
O O3 0.317270 0.711978 0.022990
O O4 0.367526 0.996778 0.893091
O O5 0.979695 0.233607 0.079687
O O6 0.758731 0.194046 0.329997
O O7 0.839056 0.526721 0.882131
O O8 0.274652 0.114099 0.204778
O O9 0.189143 0.447382 0.762317
O O10 0.164445 0.162266 0.901749
O O11 0.000000 0.500000 0.500000
O O12 0.007690 0.724241 0.502540
O O13 0.718098 0.687423 0.494655
O O14 0.783279 0.875631 0.536324
O O15 0.500000 0.000000 0.500000
#
# Coordination Sequence:
#
# PCOD9055734 Si02
#       7
#     2   2   2   2   2   2   2
#     4  11  22  38  68 107 138 175 227 287 342 405
#     4  11  23  45  71  96 136 180 229 284 338 407
#     4  11  24  44  68 102 136 180 230 279 343 408
#     4  11  21  43  69 104 134 172 230 284 339 403
#     4  11  23  39  68 104 138 180 226 281 351 399
#     4  12  28  47  66  97 144 182 228 283 339 415
#     4  11  24  45  72  99 135 181 230 279 346 405
#
# _framework density 24.730930000000001
#
# number of rings (size 3 to 8) (size 9 to 14) (size 15 to 20)
#    0.000    0.857    5.714    1.286    4.000    7.429 
#    2.571    0.000    0.000    0.000    0.000    0.000 
#    0.000    0.000    0.000    0.000    0.000    0.000 
#
# Total GULP energy -78393.647969 kJ/mol
# GULP energy per Si atom -5599.546283 kJ/mol
# Density = 2.467464 g / cm^3
# Si number density = 24.730930 Si / 1000 Ang^3
#
#
#
# Elastic Constant Matrix: (Units=GPa)
#
#
# Indices 1 2 3 4 5 6 
#
# 1 85.5950 14.8544 54.5095 -4.8656 -0.1836 4.8136
# 2 14.8544 51.4479 19.2002 6.3018 4.9066 -5.9762
# 3 54.5095 19.2002 167.9727 9.4685 25.5051 6.1603
# 4 -4.8656 6.3018 9.4685 28.0612 2.6742 9.2652
# 5 -0.1836 4.9066 25.5051 2.6742 36.1261 8.5098
# 6 4.8136 -5.9762 6.1603 9.2652 8.5098 35.7815
#
#
#
# Elastic Compliance Matrix: (Units=1/GPa)
#
#
# Indices 1 2 3 4 5 6 
#
# 1 0.017112 -0.004718 -0.006102 0.007286 0.005743 -0.005292
# 2 -0.004718 0.023185 -0.000315 -0.008042 -0.004153 0.007631
# 3 -0.006102 -0.000315 0.009127 -0.004037 -0.006557 0.001802
# 4 0.007286 -0.008042 -0.004037 0.044328 0.004010 -0.014060
# 5 0.005743 -0.004153 -0.006557 0.004010 0.034885 -0.009672
# 6 -0.005292 0.007631 0.001802 -0.014060 -0.009672 0.035565
#
#
# Mechanical properties :
#
#
# Convention : Reuss Voigt Hill
#
# Bulk Modulus (GPa) = 36.82936 53.57153 45.20044
# Shear Modulus (GPa) = 25.57233 34.42386 29.99810
#
# Velocity S-wave (km/s) = 3.21911 3.73491 3.48656
# Velocity P-wave (km/s) = 5.36109 6.34887 5.87577
#
# Compressibility (1/GPa) = 0.02715225
#
# Stress axis : x y z
#
# Youngs Moduli (GPa) = 58.43832 43.13206 109.56659
#
# Poissons Ratio (x) = 0.20351 0.66863
# Poissons Ratio (y) = 0.27572 0.03451
# Poissons Ratio (z) = 0.35662 0.01359
#
# Static dielectric constant tensor:
#      x y z
#    x 1.979360 0.009470 0.022590 
#    y 0.009470 1.944830 0.017230 
#    z 0.022590 0.017230 1.964500 
# 
# From -- ./inp_files/183772.got.cif
#   From: 2010.05.17/outbox.cif.g08.bks.cpg/sg2_92_cif.got.tgz:183772.got - 2010.06.03 11:33:40.
