data_PCOD9055402
_publ_section_title
;
Structure prediction by ZEFSAII (Michael W. Deem and Ramdas Pophale) SiO2 
 PCOD9055402
Probable space group: P -1
;
_chemical_formula_sum "Si O2"
_cell_formula_units_Z 14
_cell_length_a 8.453478
_cell_length_b 14.000585
_cell_length_c 7.290321
_cell_angle_alpha 92.167004
_cell_angle_beta 101.846535
_cell_angle_gamma 38.587750
_cell_volume 515.957411
_symmetry_space_group_name_H-M "P -1"
_symmetry_group_IT_number 2
_symmetry_cell_setting 'triclinic'
loop_
_space_group_symop_operation_xyz
x,y,z
-x,-y,-z
loop_
_atom_site_type_symbol
_atom_site_label
_atom_site_fract_x
_atom_site_fract_y
_atom_site_fract_z
Si Si1 0.605862 0.328603 0.854324
Si Si2 0.978454 0.327410 0.928016
Si Si3 0.024601 0.051089 0.690598
Si Si4 0.412873 0.256930 0.030562
Si Si5 0.374090 0.002576 0.179694
Si Si6 0.117000 0.549994 0.494857
Si Si7 0.161932 0.137518 0.487721
O O1 0.837270 0.146492 0.829742
O O2 0.442498 0.352114 0.979542
O O3 0.403829 0.426513 0.643575
O O4 0.740616 0.367498 0.933935
O O5 0.142096 0.341279 0.055149
O O6 0.894955 0.412177 0.718134
O O7 0.219718 0.134615 0.998540
O O8 0.973853 0.178777 0.595715
O O9 0.000000 0.000000 0.500000
O O10 0.325482 0.889336 0.805025
O O11 0.463463 0.164673 0.858338
O O12 0.170771 0.072172 0.299591
O O13 0.566618 0.980105 0.342376
O O14 0.000000 0.500000 0.500000
O O15 0.936992 0.711337 0.569549
#
# Coordination Sequence:
#
# PCOD9055402 Si02
#       7
#     2   2   2   2   2   2   2
#     4  12  25  41  72  97 137 181 223 271 341 409
#     4  12  23  43  70  98 130 182 222 276 341 396
#     4  12  25  41  69 106 138 169 225 290 337 399
#     4  12  22  45  69 104 135 172 226 280 343 403
#     4  11  21  41  71 100 134 173 220 288 341 386
#     4  12  24  46  67  96 139 186 225 273 336 406
#     4  11  23  40  67 103 137 171 228 280 334 398
#
# _framework density 27.134024
#
# number of rings (size 3 to 8) (size 9 to 14) (size 15 to 20)
#    0.000    0.286    7.143    2.143    2.000    1.143 
#    0.000    2.857    0.000    0.000    0.000    0.000 
#    0.000    0.000    0.000    0.000    0.000    0.000 
#
# Total GULP energy -78193.547850 kJ/mol
# GULP energy per Si atom -5585.253418 kJ/mol
# Density = 2.707227 g / cm^3
# Si number density = 27.134024 Si / 1000 Ang^3
#
#
#
# Elastic Constant Matrix: (Units=GPa)
#
#
# Indices 1 2 3 4 5 6 
#
# 1 218.1969 44.6517 57.6711 -21.6088 -0.3025 5.4899
# 2 44.6517 84.1740 31.0880 -10.2798 10.7996 10.0869
# 3 57.6711 31.0880 127.2209 -25.1491 12.9562 0.2654
# 4 -21.6088 -10.2798 -25.1491 49.7201 -7.7187 -2.0187
# 5 -0.3025 10.7996 12.9562 -7.7187 53.5713 -9.7735
# 6 5.4899 10.0869 0.2654 -2.0187 -9.7735 39.5035
#
#
#
# Elastic Compliance Matrix: (Units=1/GPa)
#
#
# Indices 1 2 3 4 5 6 
#
# 1 0.005676 -0.002338 -0.001880 0.001221 0.001165 0.000171
# 2 -0.002338 0.014883 -0.002184 0.000284 -0.003218 -0.004242
# 3 -0.001880 -0.002184 0.010108 0.003654 -0.001380 0.000596
# 4 0.001221 0.000284 0.003654 0.023029 0.002670 0.001571
# 5 0.001165 -0.003218 -0.001380 0.002670 0.021142 0.006036
# 6 0.000171 -0.004242 0.000596 0.001571 0.006036 0.027943
#
#
# Mechanical properties :
#
#
# Convention : Reuss Voigt Hill
#
# Bulk Modulus (GPa) = 55.97926 77.37925 66.67926
# Shear Modulus (GPa) = 41.13906 48.30438 44.72172
#
# Velocity S-wave (km/s) = 3.89799 4.22384 4.06418
# Velocity P-wave (km/s) = 6.39801 7.23651 6.83014
#
# Compressibility (1/GPa) = 0.01786376
#
# Stress axis : x y z
#
# Youngs Moduli (GPa) = 176.16678 67.19043 98.93398
#
# Poissons Ratio (x) = 0.15709 0.18596
# Poissons Ratio (y) = 0.41186 0.21609
# Poissons Ratio (z) = 0.33112 0.14676
#
# Static dielectric constant tensor:
#      x y z
#    x 2.354720 -0.032130 -0.002520 
#    y -0.032130 2.139450 0.056790 
#    z -0.002520 0.056790 2.091860 
# 
# From -- ./inp_files/201509.got.cif
#   From: 2010.05.17/outbox.cif.g08.bks.cpg/sg2_101_cif.got.tgz:201509.got - 2010.06.03 11:33:40.
