data_PCOD9055614
_publ_section_title
;
Structure prediction by ZEFSAII (Michael W. Deem and Ramdas Pophale) SiO2 
 PCOD9055614
Probable space group: P -1
;
_chemical_formula_sum "Si O2"
_cell_formula_units_Z 16
_cell_length_a 9.781093
_cell_length_b 6.501326
_cell_length_c 20.489890
_cell_angle_alpha 60.569964
_cell_angle_beta 53.226415
_cell_angle_gamma 47.297111
_cell_volume 758.870758
_symmetry_space_group_name_H-M "P -1"
_symmetry_group_IT_number 2
_symmetry_cell_setting 'triclinic'
loop_
_space_group_symop_operation_xyz
x,y,z
-x,-y,-z
loop_
_atom_site_type_symbol
_atom_site_label
_atom_site_fract_x
_atom_site_fract_y
_atom_site_fract_z
Si Si1 0.209231 0.164599 0.597109
Si Si2 0.826936 0.835058 0.906778
Si Si3 0.505406 0.661698 0.278453
Si Si4 0.206631 0.766695 0.852842
Si Si5 0.204631 0.267192 0.728615
Si Si6 0.424020 0.431202 0.967697
Si Si7 0.069770 0.075339 0.279318
Si Si8 0.562272 0.592267 0.532973
O O1 0.283144 0.130047 0.656436
O O2 0.223345 0.427826 0.530034
O O3 0.373262 0.914486 0.543715
O O4 0.022987 0.119067 0.656964
O O5 0.917120 0.863943 0.809191
O O6 0.012119 0.742177 0.917745
O O7 0.622708 0.138190 0.931898
O O8 0.752779 0.623389 0.956930
O O9 0.644474 0.433680 0.217979
O O10 0.629863 0.776419 0.259315
O O11 0.449961 0.541124 0.375289
O O12 0.295609 0.906880 0.269292
O O13 0.337685 0.658597 0.898520
O O14 0.115844 0.094115 0.810988
O O15 0.066018 0.605542 0.703217
O O16 0.500000 0.500000 0.000000
O O17 0.500000 0.500000 0.500000
#
# Coordination Sequence:
#
# PCOD9055614 Si02
#       8
#     2   2   2   2   2   2   2   2
#     4  11  22  42  70  96 143 180 225 285 337 396
#     4  11  24  46  70  98 145 171 226 284 340 410
#     4  12  25  43  72 101 134 188 228 278 345 399
#     4  12  25  46  73  97 137 187 228 274 346 408
#     4  12  23  43  69 103 133 183 233 275 339 404
#     4  11  28  45  69 106 136 176 224 287 342 405
#     4  12  25  44  70 103 139 178 229 286 338 407
#     4  11  21  42  71  99 141 182 228 282 339 403
#
# _framework density 21.083960000000001
#
# number of rings (size 3 to 8) (size 9 to 14) (size 15 to 20)
#    0.000    0.500    7.500    0.375    3.500    2.000 
#    0.000    2.500    0.000    0.000    0.000    0.000 
#    0.000    0.000    0.000    0.000    0.000    0.000 
#
# Total GULP energy -89232.450640 kJ/mol
# GULP energy per Si atom -5577.028165 kJ/mol
# Density = 2.103597 g / cm^3
# Si number density = 21.083960 Si / 1000 Ang^3
#
#
#
# Elastic Constant Matrix: (Units=GPa)
#
#
# Indices 1 2 3 4 5 6 
#
# 1 104.8142 38.0455 9.8621 -7.7951 -10.3837 -3.7730
# 2 38.0455 52.7200 6.8192 -4.9538 -10.5196 9.7681
# 3 9.8621 6.8192 61.9119 -14.8147 -19.5505 5.7752
# 4 -7.7951 -4.9538 -14.8147 28.0687 2.9521 -2.3392
# 5 -10.3837 -10.5196 -19.5505 2.9521 33.5016 -5.6059
# 6 -3.7730 9.7681 5.7752 -2.3392 -5.6059 31.5925
#
#
#
# Elastic Compliance Matrix: (Units=1/GPa)
#
#
# Indices 1 2 3 4 5 6 
#
# 1 0.013881 -0.010478 -0.000663 0.001964 0.001357 0.005405
# 2 -0.010478 0.029271 0.001287 0.001619 0.004956 -0.009538
# 3 -0.000663 0.001287 0.022659 0.010579 0.012210 -0.001669
# 4 0.001964 0.001619 0.010579 0.041766 0.003875 0.001580
# 5 0.001357 0.004956 0.012210 0.003875 0.039220 0.003644
# 6 0.005405 -0.009538 -0.001669 0.001580 0.003644 0.036316
#
#
# Mechanical properties :
#
#
# Convention : Reuss Voigt Hill
#
# Bulk Modulus (GPa) = 21.69001 36.54443 29.11722
# Shear Modulus (GPa) = 22.91597 29.61383 26.26490
#
# Velocity S-wave (km/s) = 3.30038 3.75182 3.53332
# Velocity P-wave (km/s) = 4.98328 6.01154 5.52140
#
# Compressibility (1/GPa) = 0.04610417
#
# Stress axis : x y z
#
# Youngs Moduli (GPa) = 72.03901 34.16313 44.13327
#
# Poissons Ratio (x) = 0.35796 0.02926
# Poissons Ratio (y) = 0.75482 -0.05681
# Poissons Ratio (z) = 0.04776 -0.04398
#
# Static dielectric constant tensor:
#      x y z
#    x 1.774640 0.024310 -0.034180 
#    y 0.024310 1.817210 -0.022610 
#    z -0.034180 -0.022610 1.825840 
# 
# From -- ./inp_files/52631.got.cif
#   From: 2010.05.17/outbox.cif.g08.bks.cpg/sg2_27_cif.got.tgz:52631.got - 2010.06.03 11:33:40.
