data_PCOD9055446
_publ_section_title
;
Structure prediction by ZEFSAII (Michael W. Deem and Ramdas Pophale) SiO2 
 PCOD9055446
Probable space group: P -1
;
_chemical_formula_sum "Si O2"
_cell_formula_units_Z 16
_cell_length_a 6.112198
_cell_length_b 23.158044
_cell_length_c 9.204166
_cell_angle_alpha 49.337340
_cell_angle_beta 127.755563
_cell_angle_gamma 101.673276
_cell_volume 738.157990
_symmetry_space_group_name_H-M "P -1"
_symmetry_group_IT_number 2
_symmetry_cell_setting 'triclinic'
loop_
_space_group_symop_operation_xyz
x,y,z
-x,-y,-z
loop_
_atom_site_type_symbol
_atom_site_label
_atom_site_fract_x
_atom_site_fract_y
_atom_site_fract_z
Si Si1 0.772476 0.589593 0.288132
Si Si2 0.089049 0.862139 0.786950
Si Si3 0.683445 0.596687 0.576791
Si Si4 0.755983 0.833750 0.128431
Si Si5 0.098314 0.718634 0.227416
Si Si6 0.180150 0.022892 0.263615
Si Si7 0.794282 0.922324 0.266526
Si Si8 0.659728 0.450877 0.004796
O O1 0.647593 0.595143 0.391555
O O2 0.519761 0.602527 0.045863
O O3 0.000000 0.500000 0.500000
O O4 0.939647 0.653740 0.236643
O O5 0.033717 0.934093 0.762403
O O6 0.880087 0.892569 0.514592
O O7 0.436543 0.834949 0.941159
O O8 0.018218 0.791027 0.960248
O O9 0.441421 0.671835 0.427234
O O10 0.658791 0.516180 0.773217
O O11 0.009187 0.596065 0.741988
O O12 0.761316 0.849383 0.275999
O O13 0.993422 0.757366 0.277978
O O14 0.822269 0.911625 0.964324
O O15 0.500000 0.000000 0.500000
O O16 0.068848 0.951350 0.283932
O O17 0.500000 0.000000 0.000000
O O18 0.500000 0.500000 0.000000
#
# Coordination Sequence:
#
# PCOD9055446 Si02
#       8
#     2   2   2   2   2   2   2   2
#     4  12  23  45  77 101 134 187 242 288 350 423
#     4  11  24  45  66 102 145 181 226 295 358 419
#     4  11  23  44  72 101 140 179 231 296 355 413
#     4  11  24  45  67 101 145 180 232 287 355 426
#     4  11  26  46  69  95 148 192 226 292 364 418
#     4  11  21  41  75 100 134 176 231 292 340 414
#     4  12  23  43  79 104 132 186 239 288 345 416
#     4  11  23  41  74 112 134 170 242 300 347 413
#
# _framework density 21.675577000000001
#
# number of rings (size 3 to 8) (size 9 to 14) (size 15 to 20)
#    0.000    0.750    5.000    2.625    0.000    0.000 
#    0.000   12.500    0.000    0.000    0.000    0.000 
#    0.000    0.000    0.000    0.000    0.000    0.000 
#
# Total GULP energy -89513.324047 kJ/mol
# GULP energy per Si atom -5594.582753 kJ/mol
# Density = 2.162624 g / cm^3
# Si number density = 21.675577 Si / 1000 Ang^3
#
#
#
# Elastic Constant Matrix: (Units=GPa)
#
#
# Indices 1 2 3 4 5 6 
#
# 1 96.7462 46.5978 35.6853 4.5665 15.8684 -7.0534
# 2 46.5978 130.0433 57.8140 11.8783 13.1243 -0.5528
# 3 35.6853 57.8140 74.2728 13.3700 4.7774 -2.8496
# 4 4.5665 11.8783 13.3700 37.6434 3.0492 -1.0110
# 5 15.8684 13.1243 4.7774 3.0492 51.6118 -8.2890
# 6 -7.0534 -0.5528 -2.8496 -1.0110 -8.2890 43.4306
#
#
#
# Elastic Compliance Matrix: (Units=1/GPa)
#
#
# Indices 1 2 3 4 5 6 
#
# 1 0.013852 -0.002781 -0.004435 0.001051 -0.002982 0.001379
# 2 -0.002781 0.012600 -0.008300 -0.000581 -0.001736 -0.001181
# 3 -0.004435 -0.008300 0.022892 -0.005095 0.001801 0.000901
# 4 0.001051 -0.000581 -0.005095 0.028547 -0.001352 0.000235
# 5 -0.002982 -0.001736 0.001801 -0.001352 0.021230 0.003632
# 6 0.001379 -0.001181 0.000901 0.000235 0.003632 0.023992
#
#
# Mechanical properties :
#
#
# Convention : Reuss Voigt Hill
#
# Bulk Modulus (GPa) = 54.61423 64.58405 59.59914
# Shear Modulus (GPa) = 31.20171 37.26819 34.23495
#
# Velocity S-wave (km/s) = 3.79817 4.15102 3.97851
# Velocity P-wave (km/s) = 6.66976 7.26877 6.97570
#
# Compressibility (1/GPa) = 0.01831025
#
# Stress axis : x y z
#
# Youngs Moduli (GPa) = 72.19391 79.36733 43.68398
#
# Poissons Ratio (x) = 0.22071 0.19374
# Poissons Ratio (y) = 0.20076 0.36260
# Poissons Ratio (z) = 0.32018 0.65878
#
# Static dielectric constant tensor:
#      x y z
#    x 1.848100 -0.015500 -0.002120 
#    y -0.015500 1.779000 -0.011320 
#    z -0.002120 -0.011320 1.797470 
# 
# From -- ./inp_files/142559.got.cif
#   From: 2010.05.17/outbox.cif.g08.bks.cpg/sg2_72_cif.got.tgz:142559.got - 2010.06.03 11:33:40.
