data_PCOD9055340
_publ_section_title
;
Structure prediction by ZEFSAII (Michael W. Deem and Ramdas Pophale) SiO2 
 PCOD9055340
Probable space group: P -1
;
_chemical_formula_sum "Si O2"
_cell_formula_units_Z 13
_cell_length_a 11.493794
_cell_length_b 10.167138
_cell_length_c 7.663491
_cell_angle_alpha 75.116861
_cell_angle_beta 52.552857
_cell_angle_gamma 115.325220
_cell_volume 445.752487
_symmetry_space_group_name_H-M "P -1"
_symmetry_group_IT_number 2
_symmetry_cell_setting 'triclinic'
loop_
_space_group_symop_operation_xyz
x,y,z
-x,-y,-z
loop_
_atom_site_type_symbol
_atom_site_label
_atom_site_fract_x
_atom_site_fract_y
_atom_site_fract_z
Si Si1 0.685068 0.059784 0.573758
Si Si2 0.314249 0.660084 0.677964
Si Si3 0.136220 0.270317 0.123449
Si Si4 0.500000 0.500000 0.000000
Si Si5 0.186819 0.749715 0.219884
Si Si6 0.735628 0.798859 0.301262
Si Si7 0.238546 0.446476 0.461091
O O1 0.748121 0.228119 0.325898
O O2 0.737498 0.144027 0.696909
O O3 0.870750 0.071676 0.386533
O O4 0.413307 0.867954 0.873961
O O5 0.575086 0.814028 0.434300
O O6 0.277561 0.566854 0.550890
O O7 0.181244 0.464284 0.991777
O O8 0.243765 0.302318 0.194648
O O9 0.279234 0.296172 0.833507
O O10 0.417751 0.601768 0.095410
O O11 0.000000 0.500000 0.500000
O O12 0.025759 0.744399 0.271575
O O13 0.663533 0.642094 0.575651
O O14 0.000000 0.000000 0.000000
#
# Coordination Sequence:
#
# PCOD9055340 Si02
#       7
#     2   2   2   1   2   2   2
#     4  11  24  41  69 103 136 177 232 280 340 414
#     4  11  21  43  69  97 138 185 223 275 346 408
#     4  11  23  43  69 102 138 176 233 283 338 400
#     4  12  20  40  70  98 134 176 228 284 330 396
#     4  11  23  43  67  96 139 182 221 281 349 405
#     4  11  23  43  64  97 137 184 225 274 342 412
#     4  11  21  41  68  95 132 183 224 276 341 401
#
# _framework density 29.164164
#
# number of rings (size 3 to 8) (size 9 to 14) (size 15 to 20)
#    0.000    0.923    6.154    2.308    0.000    0.000 
#    5.538    4.615    0.000    0.000    0.000    0.000 
#    0.000    0.000    0.000    0.000    0.000    0.000 
#
# Total GULP energy -72640.679181 kJ/mol
# GULP energy per Si atom -5587.744552 kJ/mol
# Density = 2.909779 g / cm^3
# Si number density = 29.164164 Si / 1000 Ang^3
#
#
#
# Elastic Constant Matrix: (Units=GPa)
#
#
# Indices 1 2 3 4 5 6 
#
# 1 182.1255 38.3540 58.3943 -2.2458 -52.6354 17.5814
# 2 38.3540 68.8242 34.8182 12.9792 -9.8066 27.3098
# 3 58.3943 34.8182 195.5743 0.3092 -65.2135 8.5909
# 4 -2.2458 12.9792 0.3092 56.7235 12.5207 -7.9017
# 5 -52.6354 -9.8066 -65.2135 12.5207 63.1818 -10.6200
# 6 17.5814 27.3098 8.5909 -7.9017 -10.6200 57.8057
#
#
#
# Elastic Compliance Matrix: (Units=1/GPa)
#
#
# Indices 1 2 3 4 5 6 
#
# 1 0.008062 -0.003993 0.000543 -0.000189 0.006792 0.000575
# 2 -0.003993 0.023678 -0.004006 -0.006113 -0.004427 -0.011026
# 3 0.000543 -0.004006 0.008679 -0.000881 0.009304 0.002026
# 4 -0.000189 -0.006113 -0.000881 0.020890 -0.005322 0.004954
# 5 0.006792 -0.004427 0.009304 -0.005322 0.032097 0.003813
# 6 0.000575 -0.011026 0.002026 0.004954 0.003813 0.023410
#
#
# Mechanical properties :
#
#
# Convention : Reuss Voigt Hill
#
# Bulk Modulus (GPa) = 39.20115 78.85077 59.02596
# Shear Modulus (GPa) = 35.65576 56.53938 46.09757
#
# Velocity S-wave (km/s) = 3.50035 4.40780 3.98002
# Velocity P-wave (km/s) = 5.45961 7.28014 6.43458
#
# Compressibility (1/GPa) = 0.02550946
#
# Stress axis : x y z
#
# Youngs Moduli (GPa) = 124.03336 42.23272 115.22373
#
# Poissons Ratio (x) = 0.16862 -0.06260
# Poissons Ratio (y) = 0.49522 0.46155
# Poissons Ratio (z) = -0.06739 0.16917
#
# Static dielectric constant tensor:
#      x y z
#    x 2.852680 0.214780 0.514170 
#    y 0.214780 2.731360 0.452540 
#    z 0.514170 0.452540 2.932670 
# 
# From -- ./inp_files/175862.got.cif
#   From: 2010.05.17/outbox.cif.g08.bks.cpg/sg2_88_cif.got.tgz:175862.got - 2010.06.03 11:33:40.
