data_PCOD9055185
_publ_section_title
;
Structure prediction by ZEFSAII (Michael W. Deem and Ramdas Pophale) SiO2 
 PCOD9055185
Probable space group: P -1
;
_chemical_formula_sum "Si O2"
_cell_formula_units_Z 14
_cell_length_a 8.017224
_cell_length_b 22.987183
_cell_length_c 11.920511
_cell_angle_alpha 150.704563
_cell_angle_beta 33.558126
_cell_angle_gamma 137.437520
_cell_volume 593.828653
_symmetry_space_group_name_H-M "P -1"
_symmetry_group_IT_number 2
_symmetry_cell_setting 'triclinic'
loop_
_space_group_symop_operation_xyz
x,y,z
-x,-y,-z
loop_
_atom_site_type_symbol
_atom_site_label
_atom_site_fract_x
_atom_site_fract_y
_atom_site_fract_z
Si Si1 0.218393 0.925224 0.079524
Si Si2 0.229242 0.885908 0.364390
Si Si3 0.766106 0.240511 0.404140
Si Si4 0.206361 0.430604 0.600423
Si Si5 0.752156 0.596043 0.060701
Si Si6 0.299132 0.711613 0.843749
Si Si7 0.758453 0.071799 0.324213
O O1 0.092385 0.848746 0.915044
O O2 0.281905 0.826501 0.969261
O O3 0.015926 0.030403 0.411781
O O4 0.500000 0.000000 0.000000
O O5 0.142491 0.868936 0.514358
O O6 0.520435 0.970593 0.324815
O O7 0.285501 0.764460 0.066296
O O8 0.464333 0.294555 0.609123
O O9 0.655464 0.170018 0.459032
O O10 0.019857 0.337925 0.467305
O O11 0.500000 0.500000 0.500000
O O12 0.387158 0.353203 0.458846
O O13 0.957410 0.530175 0.926925
O O14 0.500000 0.500000 0.000000
O O15 0.990393 0.630058 0.883431
O O16 0.000000 0.000000 0.000000
#
# Coordination Sequence:
#
# PCOD9055185 Si02
#       7
#     2   2   2   2   2   2   2
#     4  12  25  39  64 103 142 179 219 263 333 422
#     4  11  24  39  65  99 138 173 218 264 332 406
#     4  11  21  40  70  90 136 177 217 272 341 388
#     4   9  21  41  69  91 125 169 229 288 324 387
#     4   9  20  43  67  90 124 171 230 284 329 390
#     4  11  22  41  67  95 135 174 218 278 338 390
#     4  11  22  40  65  99 134 175 220 268 324 407
#
# _framework density 23.575824000000001
#
# number of rings (size 3 to 8) (size 9 to 14) (size 15 to 20)
#    0.000    1.429    1.429    3.857    4.000    0.000 
#    0.000    7.143   12.571    0.000    0.000    0.000 
#    0.000    0.000    0.000    0.000    0.000    0.000 
#
# Total GULP energy -78103.778270 kJ/mol
# GULP energy per Si atom -5578.841305 kJ/mol
# Density = 2.352216 g / cm^3
# Si number density = 23.575824 Si / 1000 Ang^3
#
#
#
# Elastic Constant Matrix: (Units=GPa)
#
#
# Indices 1 2 3 4 5 6 
#
# 1 81.2193 36.1457 43.1487 0.3896 -20.6721 -12.9242
# 2 36.1457 106.2202 38.9742 6.5765 -2.6727 12.6082
# 3 43.1487 38.9742 95.2687 -2.7476 -26.3513 -8.0084
# 4 0.3896 6.5765 -2.7476 35.0336 0.8593 -8.0745
# 5 -20.6721 -2.6727 -26.3513 0.8593 57.2050 -0.1727
# 6 -12.9242 12.6082 -8.0084 -8.0745 -0.1727 40.2546
#
#
#
# Elastic Compliance Matrix: (Units=1/GPa)
#
#
# Indices 1 2 3 4 5 6 
#
# 1 0.019846 -0.006077 -0.004439 0.002267 0.004833 0.007868
# 2 -0.006077 0.014594 -0.005140 -0.004953 -0.003834 -0.008555
# 3 -0.004439 -0.005140 0.016651 0.003135 0.005792 0.004151
# 4 0.002267 -0.004953 0.003135 0.031796 0.001582 0.009287
# 5 0.004833 -0.003834 0.005792 0.001582 0.021705 0.004315
# 6 0.007868 -0.008555 0.004151 0.009287 0.004315 0.032755
#
#
# Mechanical properties :
#
#
# Convention : Reuss Voigt Hill
#
# Bulk Modulus (GPa) = 50.55970 57.69395 54.12682
# Shear Modulus (GPa) = 28.52997 37.46129 32.99563
#
# Velocity S-wave (km/s) = 3.48248 3.99051 3.74512
# Velocity P-wave (km/s) = 6.13696 6.76440 6.45830
#
# Compressibility (1/GPa) = 0.01977860
#
# Stress axis : x y z
#
# Youngs Moduli (GPa) = 50.38680 68.52050 60.05546
#
# Poissons Ratio (x) = 0.41643 0.26659
# Poissons Ratio (y) = 0.30622 0.30870
# Poissons Ratio (z) = 0.22367 0.35221
#
# Static dielectric constant tensor:
#      x y z
#    x 1.974520 0.065310 -0.119380 
#    y 0.065310 1.809590 0.237550 
#    z -0.119380 0.237550 1.516710 
# 
# From -- ./inp_files/406910.got.cif
#   From: 2010.05.17/outbox.cif.g08.bks.cpg/sg2_204_cif.got.tgz:406910.got - 2010.06.03 11:33:40.
