data_PCOD9055898
_publ_section_title
;
Structure prediction by ZEFSAII (Michael W. Deem and Ramdas Pophale) SiO2 
 PCOD9055898
Probable space group: P -1
;
_chemical_formula_sum "Si O2"
_cell_formula_units_Z 14
_cell_length_a 9.814945
_cell_length_b 9.328794
_cell_length_c 23.933267
_cell_angle_alpha 151.431985
_cell_angle_beta 142.769852
_cell_angle_gamma 45.160488
_cell_volume 633.878511
_symmetry_space_group_name_H-M "P -1"
_symmetry_group_IT_number 2
_symmetry_cell_setting 'triclinic'
loop_
_space_group_symop_operation_xyz
x,y,z
-x,-y,-z
loop_
_atom_site_type_symbol
_atom_site_label
_atom_site_fract_x
_atom_site_fract_y
_atom_site_fract_z
Si Si1 0.802258 0.151924 0.906425
Si Si2 0.599344 0.782376 0.287919
Si Si3 0.406480 0.803592 0.352576
Si Si4 0.884673 0.843022 0.174823
Si Si5 0.287393 0.606169 0.504693
Si Si6 0.114882 0.795986 0.810123
Si Si7 0.531542 0.228359 0.261685
O O1 0.634512 0.173791 0.805999
O O2 0.664609 0.978337 0.849031
O O3 0.852555 0.491374 0.053616
O O4 0.015046 0.960469 0.888193
O O5 0.553693 0.838516 0.357151
O O6 0.693287 0.447184 0.195683
O O7 0.754668 0.042542 0.403072
O O8 0.432078 0.462106 0.264784
O O9 0.149131 0.891638 0.286534
O O10 0.500000 0.000000 0.500000
O O11 0.823205 0.956527 0.131067
O O12 0.728824 0.031329 0.230548
O O13 0.500000 0.500000 0.500000
O O14 0.363560 0.598854 0.591484
O O15 0.078512 0.406539 0.351219
#
# Coordination Sequence:
#
# PCOD9055898 Si02
#       7
#     2   2   2   2   2   2   2
#     4  11  26  47  68  97 136 180 230 274 324 402
#     4  11  24  42  69 101 131 177 225 276 332 403
#     4  12  26  42  68 102 139 172 220 281 344 394
#     4  12  26  45  69  98 138 181 223 275 336 394
#     4  11  21  44  69  98 139 172 222 280 334 397
#     4  12  23  41  71  99 131 178 224 276 333 391
#     4  11  25  44  68 100 137 174 222 283 334 396
#
# _framework density 22.086252000000002
#
# number of rings (size 3 to 8) (size 9 to 14) (size 15 to 20)
#    0.000    0.571    5.714    3.000    2.000    5.714 
#    0.000    0.000    0.000    0.000    0.000    0.000 
#    0.000    0.000    0.000    0.000    0.000    0.000 
#
# Total GULP energy -78416.549106 kJ/mol
# GULP energy per Si atom -5601.182079 kJ/mol
# Density = 2.203598 g / cm^3
# Si number density = 22.086252 Si / 1000 Ang^3
#
#
#
# Elastic Constant Matrix: (Units=GPa)
#
#
# Indices 1 2 3 4 5 6 
#
# 1 86.3249 33.0380 -8.3291 11.2489 -7.2578 -12.8471
# 2 33.0380 99.4920 11.2622 24.1067 -10.0192 1.9628
# 3 -8.3291 11.2622 48.0763 21.7443 6.4004 -4.4932
# 4 11.2489 24.1067 21.7443 26.3862 1.7639 -3.3214
# 5 -7.2578 -10.0192 6.4004 1.7639 18.6399 18.4876
# 6 -12.8471 1.9628 -4.4932 -3.3214 18.4876 41.7399
#
#
#
# Elastic Compliance Matrix: (Units=1/GPa)
#
#
# Indices 1 2 3 4 5 6 
#
# 1 0.016515 -0.005714 0.010049 -0.008273 -0.008983 0.009754
# 2 -0.005714 0.019323 -0.003183 -0.016438 0.026918 -0.016241
# 3 0.010049 -0.003183 0.043430 -0.033268 -0.026378 0.016954
# 4 -0.008273 -0.016438 -0.033268 0.086302 -0.018372 0.009650
# 5 -0.008983 0.026918 -0.026378 -0.018372 0.149243 -0.074435
# 6 0.009754 -0.016241 0.016954 0.009650 -0.074435 0.063286
#
#
# Mechanical properties :
#
#
# Convention : Reuss Voigt Hill
#
# Bulk Modulus (GPa) = 12.25921 33.98171 23.12046
# Shear Modulus (GPa) = 12.40739 30.54802 21.47771
#
# Velocity S-wave (km/s) = 2.37274 3.72307 3.12179
# Velocity P-wave (km/s) = 3.61513 5.82246 4.84614
#
# Compressibility (1/GPa) = 0.08157134
#
# Stress axis : x y z
#
# Youngs Moduli (GPa) = 60.55077 51.75193 23.02567
#
# Poissons Ratio (x) = 0.29572 -0.23139
# Poissons Ratio (y) = 0.34600 0.07330
# Poissons Ratio (z) = -0.60848 0.16474
#
# Static dielectric constant tensor:
#      x y z
#    x 1.756720 0.000890 0.019630 
#    y 0.000890 1.805750 0.009540 
#    z 0.019630 0.009540 1.826370 
# 
# From -- ./inp_files/184721.got.cif
#   From: 2010.05.17/outbox.cif.g08.bks.cpg/sg2_93_cif.got.tgz:184721.got - 2010.06.03 11:33:40.
