data_PCOD9055651
_publ_section_title
;
Structure prediction by ZEFSAII (Michael W. Deem and Ramdas Pophale) SiO2 
 PCOD9055651
Probable space group: P -1
;
_chemical_formula_sum "Si O2"
_cell_formula_units_Z 14
_cell_length_a 8.775280
_cell_length_b 11.161355
_cell_length_c 16.767545
_cell_angle_alpha 151.616113
_cell_angle_beta 44.540127
_cell_angle_gamma 135.032526
_cell_volume 531.419393
_symmetry_space_group_name_H-M "P -1"
_symmetry_group_IT_number 2
_symmetry_cell_setting 'triclinic'
loop_
_space_group_symop_operation_xyz
x,y,z
-x,-y,-z
loop_
_atom_site_type_symbol
_atom_site_label
_atom_site_fract_x
_atom_site_fract_y
_atom_site_fract_z
Si Si1 0.721509 0.479657 0.805645
Si Si2 0.795893 0.431713 0.476621
Si Si3 0.465409 0.381180 0.192569
Si Si4 0.155088 0.842769 0.147497
Si Si5 0.355744 0.117903 0.504067
Si Si6 0.247185 0.335229 0.514225
Si Si7 0.184061 0.367868 0.967919
O O1 0.718233 0.641892 0.821092
O O2 0.851646 0.619956 0.916763
O O3 0.748170 0.181684 0.616037
O O4 0.450901 0.424938 0.892736
O O5 0.646296 0.623741 0.682028
O O6 0.610513 0.160872 0.398624
O O7 0.872775 0.482022 0.386215
O O8 0.000000 0.500000 0.500000
O O9 0.631136 0.202831 0.007700
O O10 0.606015 0.687650 0.321365
O O11 0.969351 0.862381 0.161775
O O12 0.108205 0.601884 0.087028
O O13 0.199150 0.075327 0.329069
O O14 0.226506 0.246523 0.561026
O O15 0.500000 0.500000 0.500000
#
# Coordination Sequence:
#
# PCOD9055651 Si02
#       7
#     2   2   2   2   2   2   2
#     4  10  17  36  58  88 118 149 186 241 292 338
#     4   9  21  38  56  82 109 152 199 230 284 336
#     4   9  21  35  57  87 119 147 191 243 291 328
#     4  10  19  37  57  85 120 147 195 237 281 350
#     4   9  19  36  58  82 115 153 191 236 287 344
#     4  10  20  38  61  80 110 161 196 226 286 347
#     4   9  20  32  59  88 115 154 184 230 302 343
#
# _framework density 26.344541
#
# number of rings (size 3 to 8) (size 9 to 14) (size 15 to 20)
#    0.857    1.714    1.429    0.429    2.000    0.571 
#    2.571    0.714    0.000    4.286    0.000    0.000 
#    0.000    0.000    0.000    0.000    0.000    0.000 
#
# Total GULP energy -78084.704356 kJ/mol
# GULP energy per Si atom -5577.478883 kJ/mol
# Density = 2.628458 g / cm^3
# Si number density = 26.344541 Si / 1000 Ang^3
#
#
#
# Elastic Constant Matrix: (Units=GPa)
#
#
# Indices 1 2 3 4 5 6 
#
# 1 178.2228 11.1634 16.5494 -9.5042 23.7138 -19.8770
# 2 11.1634 79.8846 -11.8248 -5.8645 8.5712 -14.7177
# 3 16.5494 -11.8248 55.8991 -9.7242 22.4306 2.6109
# 4 -9.5042 -5.8645 -9.7242 34.3680 1.3657 14.3088
# 5 23.7138 8.5712 22.4306 1.3657 52.3703 -11.4402
# 6 -19.8770 -14.7177 2.6109 14.3088 -11.4402 40.9965
#
#
#
# Elastic Compliance Matrix: (Units=1/GPa)
#
#
# Indices 1 2 3 4 5 6 
#
# 1 0.006269 -0.000424 -0.001308 0.000374 -0.001702 0.002365
# 2 -0.000424 0.014434 0.005116 0.002880 -0.003877 0.002564
# 3 -0.001308 0.005116 0.027793 0.012712 -0.014455 -0.009038
# 4 0.000374 0.002880 0.012712 0.040725 -0.010824 -0.016829
# 5 -0.001702 -0.003877 -0.014455 -0.010824 0.029302 0.010658
# 6 0.002365 0.002564 -0.009038 -0.016829 0.010658 0.035883
#
#
# Mechanical properties :
#
#
# Convention : Reuss Voigt Hill
#
# Bulk Modulus (GPa) = 18.09502 38.42026 28.25764
# Shear Modulus (GPa) = 30.10973 45.42152 37.76562
#
# Velocity S-wave (km/s) = 3.38438 4.15677 3.79030
# Velocity P-wave (km/s) = 4.70697 6.13627 5.46852
#
# Compressibility (1/GPa) = 0.05526383
#
# Stress axis : x y z
#
# Youngs Moduli (GPa) = 159.51015 69.27981 35.98077
#
# Poissons Ratio (x) = 0.02936 0.04706
# Poissons Ratio (y) = 0.06761 -0.18407
# Poissons Ratio (z) = 0.20864 -0.35442
#
# Static dielectric constant tensor:
#      x y z
#    x 2.182470 0.107480 -0.081990 
#    y 0.107480 2.211020 0.046360 
#    z -0.081990 0.046360 2.086770 
# 
# From -- ./inp_files/559371.got.cif
#   From: 2010.05.17/outbox.cif.g08.bks.cpg/sg2_280_cif.got.tgz:559371.got - 2010.06.03 11:33:40.
