data_PCOD9055050
_publ_section_title
;
Structure prediction by ZEFSAII (Michael W. Deem and Ramdas Pophale) SiO2 
 PCOD9055050
Probable space group: P -1
;
_chemical_formula_sum "Si O2"
_cell_formula_units_Z 16
_cell_length_a 19.108252
_cell_length_b 6.891459
_cell_length_c 17.527696
_cell_angle_alpha 66.454446
_cell_angle_beta 157.869641
_cell_angle_gamma 112.221316
_cell_volume 796.887384
_symmetry_space_group_name_H-M "P -1"
_symmetry_group_IT_number 2
_symmetry_cell_setting 'triclinic'
loop_
_space_group_symop_operation_xyz
x,y,z
-x,-y,-z
loop_
_atom_site_type_symbol
_atom_site_label
_atom_site_fract_x
_atom_site_fract_y
_atom_site_fract_z
Si Si1 0.376109 0.162530 0.045734
Si Si2 0.597788 0.158735 0.013508
Si Si3 0.099465 0.494488 0.019125
Si Si4 0.820588 0.021716 0.986584
Si Si5 0.703433 0.917283 0.714288
Si Si6 0.139887 0.771772 0.301912
Si Si7 0.685838 0.463426 0.355624
Si Si8 0.922277 0.475123 0.340116
O O1 0.214416 0.330169 0.842961
O O2 0.343118 0.070466 0.111678
O O3 0.574547 0.285550 0.221296
O O4 0.358519 0.977120 0.995798
O O5 0.449377 0.338150 0.814471
O O6 0.785570 0.272166 0.218115
O O7 0.500000 0.000000 0.000000
O O8 0.268993 0.333327 0.223601
O O9 0.152145 0.730621 0.010575
O O10 0.000000 0.500000 0.000000
O O11 0.967753 0.388021 0.838846
O O12 0.001910 0.881553 0.205482
O O13 0.791318 0.991848 0.871388
O O14 0.500000 0.000000 0.500000
O O15 0.790402 0.035812 0.710981
O O16 0.289304 0.640737 0.519729
O O17 0.892132 0.522402 0.524785
O O18 0.000000 0.500000 0.500000
#
# Coordination Sequence:
#
# PCOD9055050 Si02
#       8
#     2   2   2   2   2   2   2   2
#     4  11  25  43  68  98 134 172 222 276 327 396
#     4  11  26  46  69 104 137 167 219 278 331 400
#     4  11  21  40  64  89 124 178 225 266 326 389
#     4  11  22  41  64  92 129 174 221 273 326 384
#     4  11  23  39  62  90 133 172 218 274 325 383
#     4  11  22  41  65  92 131 174 223 272 326 389
#     4  11  25  44  68  99 134 174 222 272 334 396
#     4  11  24  45  72  96 132 177 214 265 339 405
#
# _framework density 20.078119000000001
#
# number of rings (size 3 to 8) (size 9 to 14) (size 15 to 20)
#    0.000    1.000    3.750    3.000    1.750    8.500 
#    2.250    0.000    0.000    0.000    0.000    0.000 
#    0.000    0.000    0.000    0.000    0.000    0.000 
#
# Total GULP energy -89347.853093 kJ/mol
# GULP energy per Si atom -5584.240818 kJ/mol
# Density = 2.003242 g / cm^3
# Si number density = 20.078119 Si / 1000 Ang^3
#
#
#
# Elastic Constant Matrix: (Units=GPa)
#
#
# Indices 1 2 3 4 5 6 
#
# 1 85.4803 36.6983 29.6884 9.5676 6.7227 6.5135
# 2 36.6983 144.8416 57.0301 4.7978 6.5719 -4.0824
# 3 29.6884 57.0301 116.3011 1.8847 10.0583 4.6650
# 4 9.5676 4.7978 1.8847 27.1139 6.7948 0.8465
# 5 6.7227 6.5719 10.0583 6.7948 35.4356 -3.6742
# 6 6.5135 -4.0824 4.6650 0.8465 -3.6742 32.7780
#
#
#
# Elastic Compliance Matrix: (Units=1/GPa)
#
#
# Indices 1 2 3 4 5 6 
#
# 1 0.014346 -0.002726 -0.002042 -0.004055 -0.001162 -0.002925
# 2 -0.002726 0.009211 -0.003927 -0.000532 0.000263 0.002291
# 3 -0.002042 -0.003927 0.011326 0.001334 -0.002564 -0.002017
# 4 -0.004055 -0.000532 0.001334 0.040198 -0.007355 -0.001313
# 5 -0.001162 0.000263 -0.002564 -0.007355 0.030975 0.004291
# 6 -0.002925 0.002291 -0.002017 -0.001313 0.004291 0.032177
#
#
# Mechanical properties :
#
#
# Convention : Reuss Voigt Hill
#
# Bulk Modulus (GPa) = 57.16298 65.93961 61.55129
# Shear Modulus (GPa) = 30.96827 33.94590 32.45709
#
# Velocity S-wave (km/s) = 3.93159 4.11626 4.02498
# Velocity P-wave (km/s) = 7.01013 7.45012 7.23347
#
# Compressibility (1/GPa) = 0.01749384
#
# Stress axis : x y z
#
# Youngs Moduli (GPa) = 69.70362 108.56147 88.29007
#
# Poissons Ratio (x) = 0.29598 0.18026
# Poissons Ratio (y) = 0.19004 0.34672
# Poissons Ratio (z) = 0.14232 0.42632
#
# Static dielectric constant tensor:
#      x y z
#    x 1.718020 0.018010 -0.010490 
#    y 0.018010 1.696640 -0.017820 
#    z -0.010490 -0.017820 1.723780 
# 
# From -- ./inp_files/576771.got.cif
#   From: 2010.05.17/outbox.cif.g08.bks.cpg/sg2_289_cif.got.tgz:576771.got - 2010.06.03 11:33:40.
