data_PCOD9055357
_publ_section_title
;
Structure prediction by ZEFSAII (Michael W. Deem and Ramdas Pophale) SiO2 
 PCOD9055357
Probable space group: P -1
;
_chemical_formula_sum "Si O2"
_cell_formula_units_Z 16
_cell_length_a 9.088391
_cell_length_b 9.626975
_cell_length_c 15.503410
_cell_angle_alpha 120.621276
_cell_angle_beta 59.586456
_cell_angle_gamma 78.911805
_cell_volume 800.312523
_symmetry_space_group_name_H-M "P -1"
_symmetry_group_IT_number 2
_symmetry_cell_setting 'triclinic'
loop_
_space_group_symop_operation_xyz
x,y,z
-x,-y,-z
loop_
_atom_site_type_symbol
_atom_site_label
_atom_site_fract_x
_atom_site_fract_y
_atom_site_fract_z
Si Si1 0.355960 0.294340 0.259628
Si Si2 0.745469 0.307446 0.350093
Si Si3 0.502835 0.142617 0.615111
Si Si4 0.974689 0.553074 0.741479
Si Si5 0.821513 0.245635 0.504243
Si Si6 0.812172 0.005877 0.098686
Si Si7 0.770022 0.839376 0.577367
Si Si8 0.029144 0.540045 0.906617
O O1 0.232491 0.312333 0.215695
O O2 0.302673 0.515060 0.360066
O O3 0.266407 0.246330 0.353469
O O4 0.608758 0.115978 0.130348
O O5 0.500000 0.500000 0.500000
O O6 0.848996 0.228432 0.387903
O O7 0.884658 0.362726 0.276007
O O8 0.737259 0.146629 0.249432
O O9 0.686070 0.167506 0.545892
O O10 0.280123 0.367053 0.756541
O O11 0.500000 0.000000 0.500000
O O12 0.560578 0.033390 0.656581
O O13 0.123581 0.337100 0.581420
O O14 0.924228 0.527713 0.845891
O O15 0.053266 0.127580 0.441967
O O16 0.920927 0.776173 0.014907
O O17 0.000000 0.000000 0.000000
O O18 0.000000 0.500000 0.000000
#
# Coordination Sequence:
#
# PCOD9055357 Si02
#       8
#     2   2   2   2   2   2   2   2
#     4  11  22  41  71 101 133 175 218 279 342 396
#     4  12  21  38  69 103 129 168 219 279 327 395
#     4  12  26  43  68  96 132 181 227 274 331 393
#     4  11  21  42  67 101 134 166 225 277 333 396
#     4  11  22  39  68 104 136 161 223 283 337 391
#     4  12  25  41  65  96 137 176 220 271 335 388
#     4  11  21  41  69 105 132 170 219 283 340 389
#     4  12  27  45  61  95 136 179 223 272 327 399
#
# _framework density 19.992190000000001
#
# number of rings (size 3 to 8) (size 9 to 14) (size 15 to 20)
#    0.000    0.500    6.250    3.375    3.500    0.500 
#    0.000    0.000    0.000    4.500    0.000    0.000 
#    0.000    0.000    0.000    0.000    0.000    0.000 
#
# Total GULP energy -89381.907295 kJ/mol
# GULP energy per Si atom -5586.369206 kJ/mol
# Density = 1.994669 g / cm^3
# Si number density = 19.992190 Si / 1000 Ang^3
#
#
#
# Elastic Constant Matrix: (Units=GPa)
#
#
# Indices 1 2 3 4 5 6 
#
# 1 131.0916 59.2463 46.7605 6.1049 -3.3581 -16.1417
# 2 59.2463 86.7602 26.7628 -6.1426 -2.4396 -29.2307
# 3 46.7605 26.7628 93.2800 7.1843 -1.8759 -15.3645
# 4 6.1049 -6.1426 7.1843 43.5706 -11.2487 -2.9825
# 5 -3.3581 -2.4396 -1.8759 -11.2487 26.4239 -5.4971
# 6 -16.1417 -29.2307 -15.3645 -2.9825 -5.4971 42.8110
#
#
#
# Elastic Compliance Matrix: (Units=1/GPa)
#
#
# Indices 1 2 3 4 5 6 
#
# 1 0.012786 -0.008675 -0.004218 -0.002863 -0.001315 -0.002984
# 2 -0.008675 0.022845 -0.000387 0.007202 0.006869 0.013572
# 3 -0.004218 -0.000387 0.013549 -0.001387 0.000417 0.002965
# 4 -0.002863 0.007202 -0.001387 0.028670 0.013889 0.007121
# 5 -0.001315 0.006869 0.000417 0.013889 0.046603 0.011295
# 6 -0.002984 0.013572 0.002965 0.007121 0.011295 0.034511
#
#
# Mechanical properties :
#
#
# Convention : Reuss Voigt Hill
#
# Bulk Modulus (GPa) = 44.20742 64.07454 54.14098
# Shear Modulus (GPa) = 25.89826 34.45192 30.17509
#
# Velocity S-wave (km/s) = 3.60310 4.15573 3.88924
# Velocity P-wave (km/s) = 6.28252 7.42605 6.87809
#
# Compressibility (1/GPa) = 0.02262064
#
# Stress axis : x y z
#
# Youngs Moduli (GPa) = 78.21320 43.77325 73.80400
#
# Poissons Ratio (x) = 0.37973 0.31130
# Poissons Ratio (y) = 0.67850 0.02854
# Poissons Ratio (z) = 0.32990 0.01693
#
# Static dielectric constant tensor:
#      x y z
#    x 1.733790 -0.015650 0.010680 
#    y -0.015650 1.718270 -0.018290 
#    z 0.010680 -0.018290 1.719820 
# 
# From -- ./inp_files/187625.got.cif
#   From: 2010.05.17/outbox.cif.g08.bks.cpg/sg2_94_cif.got.tgz:187625.got - 2010.06.03 11:33:40.
