data_PCOD9055041
_publ_section_title
;
Structure prediction by ZEFSAII (Michael W. Deem and Ramdas Pophale) SiO2 
 PCOD9055041
Probable space group: P -1
;
_chemical_formula_sum "Si O2"
_cell_formula_units_Z 16
_cell_length_a 12.605558
_cell_length_b 12.039277
_cell_length_c 7.748795
_cell_angle_alpha 68.902290
_cell_angle_beta 75.128113
_cell_angle_gamma 40.214774
_cell_volume 708.051640
_symmetry_space_group_name_H-M "P -1"
_symmetry_group_IT_number 2
_symmetry_cell_setting 'triclinic'
loop_
_space_group_symop_operation_xyz
x,y,z
-x,-y,-z
loop_
_atom_site_type_symbol
_atom_site_label
_atom_site_fract_x
_atom_site_fract_y
_atom_site_fract_z
Si Si1 0.355149 0.049582 0.627635
Si Si2 0.299781 0.563813 0.423184
Si Si3 0.523750 0.312350 0.158954
Si Si4 0.822986 0.121341 0.922361
Si Si5 0.001224 0.356403 0.595402
Si Si6 0.287960 0.501561 0.830203
Si Si7 0.678002 0.805452 0.079644
Si Si8 0.936973 0.778043 0.965724
O O1 0.306489 0.172409 0.739329
O O2 0.177124 0.172082 0.546602
O O3 0.500000 0.000000 0.500000
O O4 0.431016 0.863411 0.756081
O O5 0.446780 0.410781 0.318008
O O6 0.221613 0.748142 0.279100
O O7 0.156635 0.578574 0.459009
O O8 0.650637 0.477122 0.374802
O O9 0.689958 0.238897 0.064542
O O10 0.391597 0.442149 0.991525
O O11 0.000000 0.000000 0.000000
O O12 0.826293 0.984402 0.924386
O O13 0.997648 0.315542 0.819802
O O14 0.000000 0.500000 0.500000
O O15 0.308523 0.343969 0.875860
O O16 0.095808 0.679642 0.843154
O O17 0.823605 0.762566 0.952085
O O18 0.500000 0.000000 0.000000
#
# Coordination Sequence:
#
# PCOD9055041 Si02
#       8
#     2   2   2   2   2   2   2   2
#     4  11  22  37  65  96 137 182 218 279 346 401
#     4  12  26  43  71 105 130 185 234 280 345 412
#     4  12  23  47  70  99 144 177 226 294 338 410
#     4  12  23  48  74  96 137 184 237 279 349 411
#     4  11  21  41  66  98 135 171 229 279 337 406
#     4  12  25  43  69 103 140 178 231 281 350 411
#     4  11  21  40  62  96 137 177 226 273 347 415
#     4  11  23  43  66  97 136 186 222 286 347 399
#
# _framework density 22.597223
#
# number of rings (size 3 to 8) (size 9 to 14) (size 15 to 20)
#    0.000    0.500    6.250    3.750    0.000    2.000 
#    0.000    3.750    0.000    0.000    0.000    0.000 
#    0.000    0.000    0.000    0.000    0.000    0.000 
#
# Total GULP energy -89567.465098 kJ/mol
# GULP energy per Si atom -5597.966569 kJ/mol
# Density = 2.254579 g / cm^3
# Si number density = 22.597223 Si / 1000 Ang^3
#
#
#
# Elastic Constant Matrix: (Units=GPa)
#
#
# Indices 1 2 3 4 5 6 
#
# 1 54.6538 27.1110 28.9194 6.3097 -13.6743 -13.7046
# 2 27.1110 134.4130 62.0571 6.0611 -9.2115 -5.8266
# 3 28.9194 62.0571 134.8341 5.2923 -18.2184 1.9908
# 4 6.3097 6.0611 5.2923 50.1953 4.0808 -17.3099
# 5 -13.6743 -9.2115 -18.2184 4.0808 27.0410 -1.5304
# 6 -13.7046 -5.8266 1.9908 -17.3099 -1.5304 46.7051
#
#
#
# Elastic Compliance Matrix: (Units=1/GPa)
#
#
# Indices 1 2 3 4 5 6 
#
# 1 0.025845 -0.002785 -0.002882 -0.000943 0.010738 0.007361
# 2 -0.002785 0.009842 -0.004029 -0.000187 -0.000714 0.000490
# 3 -0.002882 -0.004029 0.010565 -0.001366 0.004372 -0.002162
# 4 -0.000943 -0.000187 -0.001366 0.023436 -0.004528 0.008296
# 5 0.010738 -0.000714 0.004372 -0.004528 0.045950 0.002703
# 6 0.007361 0.000490 -0.002162 0.008296 0.002703 0.026887
#
#
# Mechanical properties :
#
#
# Convention : Reuss Voigt Hill
#
# Bulk Modulus (GPa) = 37.22953 62.23066 49.73009
# Shear Modulus (GPa) = 29.26177 38.50916 33.88547
#
# Velocity S-wave (km/s) = 3.60241 4.13262 3.87659
# Velocity P-wave (km/s) = 5.81500 7.09720 6.48785
#
# Compressibility (1/GPa) = 0.02686040
#
# Stress axis : x y z
#
# Youngs Moduli (GPa) = 38.69239 101.60236 94.64893
#
# Poissons Ratio (x) = 0.28292 0.27282
# Poissons Ratio (y) = 0.10774 0.38134
# Poissons Ratio (z) = 0.11153 0.40936
#
# Static dielectric constant tensor:
#      x y z
#    x 1.964780 -0.051870 0.006960 
#    y -0.051870 1.831600 0.017190 
#    z 0.006960 0.017190 1.856700 
# 
# From -- ./inp_files/176405.got.cif
#   From: 2010.05.17/outbox.cif.g08.bks.cpg/sg2_89_cif.got.tgz:176405.got - 2010.06.03 11:33:40.
