data_PCOD9055495
_publ_section_title
;
Structure prediction by ZEFSAII (Michael W. Deem and Ramdas Pophale) SiO2 
 PCOD9055495
Probable space group: P -1
;
_chemical_formula_sum "Si O2"
_cell_formula_units_Z 16
_cell_length_a 21.569575
_cell_length_b 11.279673
_cell_length_c 9.030297
_cell_angle_alpha 147.399704
_cell_angle_beta 133.467164
_cell_angle_gamma 36.014933
_cell_volume 695.873579
_symmetry_space_group_name_H-M "P -1"
_symmetry_group_IT_number 2
_symmetry_cell_setting 'triclinic'
loop_
_space_group_symop_operation_xyz
x,y,z
-x,-y,-z
loop_
_atom_site_type_symbol
_atom_site_label
_atom_site_fract_x
_atom_site_fract_y
_atom_site_fract_z
Si Si1 0.065958 0.295709 0.120854
Si Si2 0.140000 0.631675 0.097004
Si Si3 0.143151 0.907517 0.124375
Si Si4 0.595440 0.206344 0.659103
Si Si5 0.611469 0.567928 0.288341
Si Si6 0.233470 0.369879 0.535046
Si Si7 0.225706 0.891085 0.712737
Si Si8 0.288272 0.026806 0.666056
O O1 0.115985 0.461796 0.400204
O O2 0.094562 0.120200 0.133803
O O3 0.943092 0.423978 0.037939
O O4 0.130201 0.119571 0.898067
O O5 0.088857 0.846050 0.101368
O O6 0.179355 0.746303 0.402306
O O7 0.241986 0.341339 0.906367
O O8 0.208325 0.982603 0.406028
O O9 0.214941 0.615578 0.857776
O O10 0.497421 0.224974 0.588497
O O11 0.702040 0.923850 0.591985
O O12 0.604715 0.174441 0.462914
O O13 0.589220 0.459312 0.987801
O O14 0.686118 0.666283 0.495289
O O15 0.680718 0.305232 0.228317
O O16 0.276313 0.975382 0.762495
#
# Coordination Sequence:
#
# PCOD9055495 Si02
#       8
#     2   2   2   2   2   2   2   2
#     4  12  24  42  66  97 127 170 220 265 313 380
#     4  11  26  41  67  91 131 178 211 259 325 377
#     4  11  21  42  67  91 132 161 216 269 319 362
#     4  11  22  44  71  96 124 164 221 266 322 376
#     4  11  24  43  70  97 124 171 210 272 321 374
#     4  12  20  40  70  96 128 160 214 273 318 372
#     4  11  25  43  62  92 137 168 214 262 316 383
#     4  11  23  43  62  97 132 168 211 265 315 385
#
# _framework density 22.992681999999999
#
# number of rings (size 3 to 8) (size 9 to 14) (size 15 to 20)
#    0.000    0.750    6.250    1.125    1.750    5.000 
#    0.000    0.625    0.000    0.000    0.000    0.000 
#    0.000    0.000    0.000    0.000    0.000    0.000 
#
# Total GULP energy -89287.570698 kJ/mol
# GULP energy per Si atom -5580.473169 kJ/mol
# Density = 2.294035 g / cm^3
# Si number density = 22.992682 Si / 1000 Ang^3
#
#
#
# Elastic Constant Matrix: (Units=GPa)
#
#
# Indices 1 2 3 4 5 6 
#
# 1 213.8937 4.3395 1.1063 4.3039 -7.5308 -29.8859
# 2 4.3395 21.0451 -1.0579 -4.6914 -3.6677 -1.2360
# 3 1.1063 -1.0579 62.3340 -6.0737 -12.4248 12.6141
# 4 4.3039 -4.6914 -6.0737 19.5239 -1.6259 -9.1817
# 5 -7.5308 -3.6677 -12.4248 -1.6259 36.6115 8.5721
# 6 -29.8859 -1.2360 12.6141 -9.1817 8.5721 30.0113
#
#
#
# Elastic Compliance Matrix: (Units=1/GPa)
#
#
# Indices 1 2 3 4 5 6 
#
# 1 0.005599 -0.000728 -0.001586 0.001251 -0.001016 0.006885
# 2 -0.000728 0.052583 0.002988 0.015771 0.006065 0.003278
# 3 -0.001586 0.002988 0.020868 0.002613 0.010051 -0.012299
# 4 0.001251 0.015771 0.002613 0.065270 0.000815 0.020533
# 5 -0.001016 0.006065 0.010051 0.000815 0.034581 -0.014614
# 6 0.006885 0.003278 -0.012299 0.020533 -0.014614 0.055938
#
#
# Mechanical properties :
#
#
# Convention : Reuss Voigt Hill
#
# Bulk Modulus (GPa) = 12.43813 34.00538 23.22175
# Shear Modulus (GPa) = 19.20931 36.75500 27.98215
#
# Velocity S-wave (km/s) = 2.89356 4.00253 3.49234
# Velocity P-wave (km/s) = 4.07246 6.01515 5.13649
#
# Compressibility (1/GPa) = 0.08039796
#
# Stress axis : x y z
#
# Youngs Moduli (GPa) = 178.59433 19.01770 47.91983
#
# Poissons Ratio (x) = 0.01385 0.07598
# Poissons Ratio (y) = 0.13004 -0.14317
# Poissons Ratio (z) = 0.28319 -0.05682
#
# Static dielectric constant tensor:
#      x y z
#    x 1.969770 0.014150 -0.021840 
#    y 0.014150 1.875990 -0.013260 
#    z -0.021840 -0.013260 1.852060 
# 
# From -- ./inp_files/46256.got.cif
#   From: 2010.05.17/outbox.cif.g08.bks.cpg/sg2_24_cif.got.tgz:46256.got - 2010.06.03 11:33:40.
