data_PCOD9055278
_publ_section_title
;
Structure prediction by ZEFSAII (Michael W. Deem and Ramdas Pophale) SiO2 
 PCOD9055278
Probable space group: P -1
;
_chemical_formula_sum "Si O2"
_cell_formula_units_Z 16
_cell_length_a 7.815197
_cell_length_b 16.009694
_cell_length_c 9.038449
_cell_angle_alpha 102.256182
_cell_angle_beta 111.941625
_cell_angle_gamma 125.209920
_cell_volume 707.506234
_symmetry_space_group_name_H-M "P -1"
_symmetry_group_IT_number 2
_symmetry_cell_setting 'triclinic'
loop_
_space_group_symop_operation_xyz
x,y,z
-x,-y,-z
loop_
_atom_site_type_symbol
_atom_site_label
_atom_site_fract_x
_atom_site_fract_y
_atom_site_fract_z
Si Si1 0.660348 0.247034 0.146754
Si Si2 0.753303 0.282008 0.703338
Si Si3 0.910565 0.041798 0.598417
Si Si4 0.733013 0.587898 0.485559
Si Si5 0.369611 0.082545 0.260292
Si Si6 0.372406 0.300680 0.724390
Si Si7 0.381375 0.890191 0.188613
Si Si8 0.717834 0.462117 0.151854
O O1 0.441446 0.163803 0.174282
O O2 0.677588 0.349131 0.133602
O O3 0.964242 0.325206 0.325040
O O4 0.572417 0.152142 0.954931
O O5 0.620274 0.187996 0.487959
O O6 0.544454 0.276867 0.713750
O O7 0.832380 0.236511 0.832464
O O8 0.986767 0.417280 0.764491
O O9 0.126833 0.187154 0.702216
O O10 0.000000 0.000000 0.500000
O O11 0.872601 0.989266 0.728569
O O12 0.630252 0.978332 0.415550
O O13 0.500000 0.500000 0.500000
O O14 0.718373 0.676123 0.438043
O O15 0.676472 0.501871 0.302413
O O16 0.335051 0.972212 0.161435
O O17 0.539811 0.416659 0.931812
#
# Coordination Sequence:
#
# PCOD9055278 Si02
#       8
#     2   2   2   2   2   2   2   2
#     4  12  25  49  70 102 141 186 231 284 346 420
#     4  11  22  44  74 102 133 187 236 279 334 430
#     4  11  21  41  66 102 133 180 230 281 339 397
#     4  12  29  43  68 105 145 176 222 294 352 403
#     4  11  24  41  71 100 137 185 232 284 336 404
#     4  12  25  45  70 104 144 177 230 291 345 407
#     4  11  24  43  72 101 135 181 244 274 340 414
#     4  12  26  47  73 103 137 190 235 271 352 425
#
# _framework density 22.614642
#
# number of rings (size 3 to 8) (size 9 to 14) (size 15 to 20)
#    0.000    0.500    5.000    4.500    5.250    1.000 
#    0.000    2.500    0.000    0.000    0.000    0.000 
#    0.000    0.000    0.000    0.000    0.000    0.000 
#
# Total GULP energy -89408.474300 kJ/mol
# GULP energy per Si atom -5588.029644 kJ/mol
# Density = 2.256317 g / cm^3
# Si number density = 22.614642 Si / 1000 Ang^3
#
#
#
# Elastic Constant Matrix: (Units=GPa)
#
#
# Indices 1 2 3 4 5 6 
#
# 1 65.9590 43.3352 23.6482 6.5409 -11.4240 19.6561
# 2 43.3352 172.7176 21.9718 0.1927 -5.3694 28.1071
# 3 23.6482 21.9718 86.1756 2.6488 -13.0714 7.8520
# 4 6.5409 0.1927 2.6488 31.6958 -8.1359 -11.9327
# 5 -11.4240 -5.3694 -13.0714 -8.1359 34.1115 -6.5827
# 6 19.6561 28.1071 7.8520 -11.9327 -6.5827 45.1067
#
#
#
# Elastic Compliance Matrix: (Units=1/GPa)
#
#
# Indices 1 2 3 4 5 6 
#
# 1 0.022567 -0.003731 -0.003936 -0.006867 0.002220 -0.008317
# 2 -0.003731 0.007292 -0.000701 -0.000694 -0.001143 -0.003146
# 3 -0.003936 -0.000701 0.013388 0.000998 0.004071 0.000680
# 4 -0.006867 -0.000694 0.000998 0.041685 0.010981 0.015881
# 5 0.002220 -0.001143 0.004071 0.010981 0.035430 0.007112
# 6 -0.008317 -0.003146 0.000680 0.015881 0.007112 0.032875
#
#
# Mechanical properties :
#
#
# Convention : Reuss Voigt Hill
#
# Bulk Modulus (GPa) = 37.71965 55.86251 46.79108
# Shear Modulus (GPa) = 27.96237 37.90926 32.93581
#
# Velocity S-wave (km/s) = 3.52017 4.09872 3.82041
# Velocity P-wave (km/s) = 5.76521 6.86694 6.34005
#
# Compressibility (1/GPa) = 0.02651138
#
# Stress axis : x y z
#
# Youngs Moduli (GPa) = 44.31161 137.12853 74.69450
#
# Poissons Ratio (x) = 0.51169 0.29400
# Poissons Ratio (y) = 0.16535 0.05234
# Poissons Ratio (z) = 0.17441 0.09608
#
# Static dielectric constant tensor:
#      x y z
#    x 1.882210 -0.000610 0.032160 
#    y -0.000610 1.860960 -0.007390 
#    z 0.032160 -0.007390 1.837340 
# 
# From -- ./inp_files/207921.got.cif
#   From: 2010.05.17/outbox.cif.g08.bks.cpg/sg2_104_cif.got.tgz:207921.got - 2010.06.03 11:33:40.
