data_PCOD9055888
_publ_section_title
;
Structure prediction by ZEFSAII (Michael W. Deem and Ramdas Pophale) SiO2 
 PCOD9055888
Probable space group: P -1
;
_chemical_formula_sum "Si O2"
_cell_formula_units_Z 16
_cell_length_a 17.657555
_cell_length_b 17.741470
_cell_length_c 9.617124
_cell_angle_alpha 140.202441
_cell_angle_beta 150.347498
_cell_angle_gamma 30.254163
_cell_volume 749.102871
_symmetry_space_group_name_H-M "P -1"
_symmetry_group_IT_number 2
_symmetry_cell_setting 'triclinic'
loop_
_space_group_symop_operation_xyz
x,y,z
-x,-y,-z
loop_
_atom_site_type_symbol
_atom_site_label
_atom_site_fract_x
_atom_site_fract_y
_atom_site_fract_z
Si Si1 0.389416 0.457401 0.173436
Si Si2 0.481437 0.854816 0.965013
Si Si3 0.486868 0.556092 0.212039
Si Si4 0.642347 0.125581 0.518937
Si Si5 0.034111 0.357364 0.282594
Si Si6 0.113046 0.202263 0.472188
Si Si7 0.932719 0.396442 0.726431
Si Si8 0.723282 0.823477 0.837553
O O1 0.500000 0.500000 0.500000
O O2 0.480300 0.286853 0.101759
O O3 0.405704 0.493300 0.092813
O O4 0.163863 0.567592 0.011329
O O5 0.383270 0.884841 0.700924
O O6 0.689597 0.816163 0.215504
O O7 0.359248 0.006226 0.073754
O O8 0.354756 0.736132 0.258468
O O9 0.702494 0.491342 0.519560
O O10 0.500000 0.500000 0.000000
O O11 0.447699 0.168073 0.346094
O O12 0.823439 0.961840 0.629268
O O13 0.000000 0.500000 0.500000
O O14 0.056099 0.254149 0.296121
O O15 0.211896 0.266256 0.330307
O O16 0.966786 0.327827 0.528854
O O17 0.000000 0.500000 0.000000
O O18 0.087187 0.257881 0.876449
#
# Coordination Sequence:
#
# PCOD9055888 Si02
#       8
#     2   2   2   2   2   2   2   2
#     4  12  26  46  67  93 142 182 216 269 336 404
#     4  11  21  44  69 101 133 174 224 274 334 389
#     4  12  27  42  65 101 137 176 216 271 344 395
#     4  11  22  43  69 100 134 174 221 277 335 389
#     4  12  26  43  65 106 136 172 223 279 331 387
#     4  11  22  41  70  99 135 166 223 288 327 377
#     4  12  21  41  71  99 123 173 238 269 306 399
#     4  11  23  39  72 101 126 171 232 274 322 388
#
# _framework density 21.358882999999999
#
# number of rings (size 3 to 8) (size 9 to 14) (size 15 to 20)
#    0.000    0.500    6.250    3.000    1.750    3.000 
#    0.000    7.500    0.000    0.000    0.000    0.000 
#    0.000    0.000    0.000    0.000    0.000    0.000 
#
# Total GULP energy -89528.607364 kJ/mol
# GULP energy per Si atom -5595.537960 kJ/mol
# Density = 2.131027 g / cm^3
# Si number density = 21.358883 Si / 1000 Ang^3
#
#
#
# Elastic Constant Matrix: (Units=GPa)
#
#
# Indices 1 2 3 4 5 6 
#
# 1 99.8632 55.0479 1.3854 18.1016 -15.8668 1.4291
# 2 55.0479 153.4959 12.4810 22.2528 -1.7149 21.1003
# 3 1.3854 12.4810 32.9663 3.0211 -8.5415 0.5646
# 4 18.1016 22.2528 3.0211 34.9169 -3.0416 -2.8688
# 5 -15.8668 -1.7149 -8.5415 -3.0416 33.6481 3.1668
# 6 1.4291 21.1003 0.5646 -2.8688 3.1668 44.0308
#
#
#
# Elastic Compliance Matrix: (Units=1/GPa)
#
#
# Indices 1 2 3 4 5 6 
#
# 1 0.014532 -0.004994 0.003439 -0.003946 0.007009 0.001116
# 2 -0.004994 0.009773 -0.003763 -0.003925 -0.002740 -0.004532
# 3 0.003439 -0.003763 0.034323 -0.001450 0.009970 0.000440
# 4 -0.003946 -0.003925 -0.001450 0.033677 0.000220 0.004206
# 5 0.007009 -0.002740 0.009970 0.000220 0.035585 -0.001587
# 6 0.001116 -0.004532 0.000440 0.004206 -0.001587 0.025229
#
#
# Mechanical properties :
#
#
# Convention : Reuss Voigt Hill
#
# Bulk Modulus (GPa) = 20.83740 47.12822 33.98281
# Shear Modulus (GPa) = 27.81600 37.01324 32.41462
#
# Velocity S-wave (km/s) = 3.61268 4.16735 3.89989
# Velocity P-wave (km/s) = 5.21334 6.72819 6.01862
#
# Compressibility (1/GPa) = 0.04799064
#
# Stress axis : x y z
#
# Youngs Moduli (GPa) = 68.81403 102.32035 29.13531
#
# Poissons Ratio (x) = 0.51101 -0.10019
# Poissons Ratio (y) = 0.34367 0.10964
# Poissons Ratio (z) = -0.23663 0.38503
#
# Static dielectric constant tensor:
#      x y z
#    x 1.766590 -0.004790 0.025810 
#    y -0.004790 1.791960 -0.024520 
#    z 0.025810 -0.024520 1.759530 
# 
# From -- ./inp_files/205187.got.cif
#   From: 2010.05.17/outbox.cif.g08.bks.cpg/sg2_103_cif.got.tgz:205187.got - 2010.06.03 11:33:40.
