data_PCOD9055261
_publ_section_title
;
Structure prediction by ZEFSAII (Michael W. Deem and Ramdas Pophale) SiO2 
 PCOD9055261
Probable space group: P -1
;
_chemical_formula_sum "Si O2"
_cell_formula_units_Z 16
_cell_length_a 7.170510
_cell_length_b 9.092985
_cell_length_c 13.834882
_cell_angle_alpha 75.838998
_cell_angle_beta 101.025142
_cell_angle_gamma 127.930485
_cell_volume 688.894606
_symmetry_space_group_name_H-M "P -1"
_symmetry_group_IT_number 2
_symmetry_cell_setting 'triclinic'
loop_
_space_group_symop_operation_xyz
x,y,z
-x,-y,-z
loop_
_atom_site_type_symbol
_atom_site_label
_atom_site_fract_x
_atom_site_fract_y
_atom_site_fract_z
Si Si1 0.199183 0.933647 0.892941
Si Si2 0.967525 0.344539 0.451107
Si Si3 0.435895 0.334411 0.316180
Si Si4 0.775058 0.728916 0.372373
Si Si5 0.824535 0.999047 0.779270
Si Si6 0.724884 0.925813 0.479556
Si Si7 0.988769 0.633811 0.763331
Si Si8 0.260825 0.776080 0.115492
O O1 0.177189 0.810466 0.819105
O O2 0.999949 0.967860 0.858274
O O3 0.461900 0.126967 0.888179
O O4 0.170157 0.820100 0.004357
O O5 0.188486 0.350277 0.512797
O O6 0.954216 0.398158 0.332572
O O7 0.000000 0.500000 0.500000
O O8 0.755589 0.119476 0.466694
O O9 0.635914 0.556230 0.312263
O O10 0.424668 0.227009 0.428356
O O11 0.199403 0.323129 0.286505
O O12 0.406624 0.205196 0.244761
O O13 0.024093 0.885145 0.320393
O O14 0.652062 0.825442 0.382708
O O15 0.768943 0.119899 0.816263
O O16 0.000000 0.000000 0.500000
O O17 0.876830 0.443378 0.841981
#
# Coordination Sequence:
#
# PCOD9055261 Si02
#       8
#     2   2   2   2   2   2   2   2
#     4  10  24  46  66  93 125 165 216 269 331 386
#     4  11  22  36  56  87 130 167 206 262 311 367
#     4  11  21  37  62  93 125 177 218 252 317 379
#     4  11  21  38  61  89 130 172 215 254 307 385
#     4  11  22  41  67  97 130 165 216 266 320 384
#     4  10  17  36  57  79 124 176 208 253 303 367
#     4  11  22  39  63  92 125 166 211 262 319 381
#     4  11  24  43  69  94 125 165 212 275 332 378
#
# _framework density 23.225612999999999
#
# number of rings (size 3 to 8) (size 9 to 14) (size 15 to 20)
#    0.000    1.250    5.000    3.375    0.000    2.000 
#    0.000    0.625    0.000    8.250    0.000    0.000 
#    0.000    0.000    0.000    0.000    0.000    0.000 
#
# Total GULP energy -89390.930828 kJ/mol
# GULP energy per Si atom -5586.933177 kJ/mol
# Density = 2.317275 g / cm^3
# Si number density = 23.225613 Si / 1000 Ang^3
#
#
#
# Elastic Constant Matrix: (Units=GPa)
#
#
# Indices 1 2 3 4 5 6 
#
# 1 47.6373 15.3577 4.9398 0.6526 7.1352 -15.2561
# 2 15.3577 113.1038 -0.2452 -1.2458 5.3330 -11.0183
# 3 4.9398 -0.2452 74.2423 -10.5393 3.8949 0.8562
# 4 0.6526 -1.2458 -10.5393 43.9620 -5.1833 -5.2607
# 5 7.1352 5.3330 3.8949 -5.1833 19.0261 11.0742
# 6 -15.2561 -11.0183 0.8562 -5.2607 11.0742 33.8616
#
#
#
# Elastic Compliance Matrix: (Units=1/GPa)
#
#
# Indices 1 2 3 4 5 6 
#
# 1 0.032281 -0.001074 -0.001262 -0.001078 -0.024731 0.022147
# 2 -0.001074 0.009629 0.000349 0.000320 -0.004750 0.004244
# 3 -0.001262 0.000349 0.014104 0.003232 -0.001792 0.000276
# 4 -0.001078 0.000320 0.003232 0.024368 0.005382 0.001562
# 5 -0.024731 -0.004750 -0.001792 0.005382 0.088769 -0.040838
# 6 0.022147 0.004244 0.000276 0.001562 -0.040838 0.054483
#
#
# Mechanical properties :
#
#
# Convention : Reuss Voigt Hill
#
# Bulk Modulus (GPa) = 19.21644 30.56535 24.89089
# Shear Modulus (GPa) = 20.41189 33.69867 27.05528
#
# Velocity S-wave (km/s) = 2.96776 3.81324 3.41675
# Velocity P-wave (km/s) = 4.47608 5.70758 5.12892
#
# Compressibility (1/GPa) = 0.05203876
#
# Stress axis : x y z
#
# Youngs Moduli (GPa) = 30.97808 103.85305 70.90111
#
# Poissons Ratio (x) = 0.11156 0.08951
# Poissons Ratio (y) = 0.03328 -0.02474
# Poissons Ratio (z) = 0.03911 -0.03625
#
# Static dielectric constant tensor:
#      x y z
#    x 1.952430 -0.018750 -0.015550 
#    y -0.018750 1.902840 0.045150 
#    z -0.015550 0.045150 1.881620 
# 
# From -- ./inp_files/201825.got.cif
#   From: 2010.05.17/outbox.cif.g08.bks.cpg/sg2_101_cif.got.tgz:201825.got - 2010.06.03 11:33:40.
