data_PCOD9055339
_publ_section_title
;
Structure prediction by ZEFSAII (Michael W. Deem and Ramdas Pophale) SiO2 
 PCOD9055339
Probable space group: P -1
;
_chemical_formula_sum "Si O2"
_cell_formula_units_Z 14
_cell_length_a 8.520569
_cell_length_b 14.145583
_cell_length_c 12.545733
_cell_angle_alpha 30.962297
_cell_angle_beta 63.772172
_cell_angle_gamma 81.251832
_cell_volume 607.703448
_symmetry_space_group_name_H-M "P -1"
_symmetry_group_IT_number 2
_symmetry_cell_setting 'triclinic'
loop_
_space_group_symop_operation_xyz
x,y,z
-x,-y,-z
loop_
_atom_site_type_symbol
_atom_site_label
_atom_site_fract_x
_atom_site_fract_y
_atom_site_fract_z
Si Si1 0.098073 0.658830 0.220151
Si Si2 0.461240 0.065540 0.222520
Si Si3 0.436336 0.669263 0.718198
Si Si4 0.313918 0.527283 0.122403
Si Si5 0.712515 0.132237 0.747278
Si Si6 0.604838 0.450096 0.387468
Si Si7 0.794479 0.824809 0.115603
O O1 0.000000 0.500000 0.500000
O O2 0.979939 0.785077 0.111593
O O3 0.329401 0.830705 0.006026
O O4 0.135152 0.535068 0.230675
O O5 0.487510 0.264931 0.089421
O O6 0.463915 0.898480 0.465814
O O7 0.296824 0.945864 0.296956
O O8 0.307758 0.563752 0.964055
O O9 0.345494 0.548029 0.752089
O O10 0.642617 0.662359 0.683225
O O11 0.719530 0.355586 0.514777
O O12 0.500000 0.000000 0.000000
O O13 0.848886 0.061354 0.841770
O O14 0.664183 0.675601 0.199655
O O15 0.367084 0.286390 0.633252
#
# Coordination Sequence:
#
# PCOD9055339 Si02
#       7
#     2   2   2   2   2   2   2
#     4  10  22  35  52  80 113 141 167 218 277 314
#     4   9  20  35  55  79 106 138 174 226 259 311
#     4  10  17  36  57  83  97 142 186 219 253 312
#     4   9  20  33  56  79 109 136 179 219 264 314
#     4   9  18  32  52  78  98 133 186 209 253 314
#     4   9  19  31  57  74 102 139 185 214 250 317
#     4  10  19  35  52  74 111 141 169 217 269 309
#
# _framework density 23.037551000000001
#
# number of rings (size 3 to 8) (size 9 to 14) (size 15 to 20)
#    0.857    1.714    0.000    2.143    6.000    0.000 
#    2.571    7.857    0.000    3.429    0.000    0.000 
#    0.000    0.000    0.000    0.000    0.000    0.000 
#
# Total GULP energy -78085.832006 kJ/mol
# GULP energy per Si atom -5577.559429 kJ/mol
# Density = 2.298512 g / cm^3
# Si number density = 23.037551 Si / 1000 Ang^3
#
#
#
# Elastic Constant Matrix: (Units=GPa)
#
#
# Indices 1 2 3 4 5 6 
#
# 1 62.4810 13.5479 27.0544 10.2122 22.9433 -28.4267
# 2 13.5479 98.9206 26.0848 24.3662 12.2977 -4.0655
# 3 27.0544 26.0848 94.3528 6.0751 39.4751 -12.1638
# 4 10.2122 24.3662 6.0751 44.3971 -3.0192 3.9601
# 5 22.9433 12.2977 39.4751 -3.0192 36.0572 -10.6923
# 6 -28.4267 -4.0655 -12.1638 3.9601 -10.6923 34.9654
#
#
#
# Elastic Compliance Matrix: (Units=1/GPa)
#
#
# Indices 1 2 3 4 5 6 
#
# 1 0.035163 0.001159 0.000856 -0.012257 -0.017283 0.025123
# 2 0.001159 0.012708 -0.001816 -0.007357 -0.003213 0.001639
# 3 0.000856 -0.001816 0.020654 -0.003663 -0.022486 0.001209
# 4 -0.012257 -0.007357 -0.003663 0.031835 0.013559 -0.011554
# 5 -0.017283 -0.003213 -0.022486 0.013559 0.064363 -0.004101
# 6 0.025123 0.001639 0.001209 -0.011554 -0.004101 0.049690
#
#
# Mechanical properties :
#
#
# Convention : Reuss Voigt Hill
#
# Bulk Modulus (GPa) = 14.50897 43.23651 28.87274
# Shear Modulus (GPa) = 21.09778 35.68845 28.39312
#
# Velocity S-wave (km/s) = 3.02950 3.94018 3.51447
# Velocity P-wave (km/s) = 4.30683 6.28559 5.38783
#
# Compressibility (1/GPa) = 0.06892289
#
# Stress axis : x y z
#
# Youngs Moduli (GPa) = 28.43916 78.68778 48.41568
#
# Poissons Ratio (x) = -0.09119 -0.04144
# Poissons Ratio (y) = -0.03296 0.08794
# Poissons Ratio (z) = -0.02434 0.14292
#
# Static dielectric constant tensor:
#      x y z
#    x 1.928710 0.042800 -0.027720 
#    y 0.042800 1.903720 -0.048250 
#    z -0.027720 -0.048250 1.854670 
# 
# From -- ./inp_files/267063.got.cif
#   From: 2010.05.17/outbox.cif.g08.bks.cpg/sg2_134_cif.got.tgz:267063.got - 2010.06.03 11:33:40.
