data_PCOD9055714
_publ_section_title
;
Structure prediction by ZEFSAII (Michael W. Deem and Ramdas Pophale) SiO2 
 PCOD9055714
Probable space group: P -1
;
_chemical_formula_sum "Si O2"
_cell_formula_units_Z 13
_cell_length_a 22.028898
_cell_length_b 15.110086
_cell_length_c 12.230999
_cell_angle_alpha 28.532446
_cell_angle_beta 23.730126
_cell_angle_gamma 16.942701
_cell_volume 477.305979
_symmetry_space_group_name_H-M "P -1"
_symmetry_group_IT_number 2
_symmetry_cell_setting 'triclinic'
loop_
_space_group_symop_operation_xyz
x,y,z
-x,-y,-z
loop_
_atom_site_type_symbol
_atom_site_label
_atom_site_fract_x
_atom_site_fract_y
_atom_site_fract_z
Si Si1 0.108961 0.876355 0.305243
Si Si2 0.230699 0.910223 0.706209
Si Si3 0.500000 0.500000 0.500000
Si Si4 0.258811 0.202576 0.493376
Si Si5 0.410488 0.442182 0.073067
Si Si6 0.199731 0.518213 0.924369
Si Si7 0.214765 0.431098 0.747243
O O1 0.234720 0.651617 0.238913
O O2 0.097994 0.740639 0.567172
O O3 0.305349 0.847113 0.042661
O O4 0.851113 0.213644 0.321583
O O5 0.346442 0.768400 0.552907
O O6 0.187899 0.163221 0.539984
O O7 0.409262 0.633596 0.798524
O O8 0.000000 0.000000 0.000000
O O9 0.384902 0.400506 0.841640
O O10 0.542289 0.852778 0.415706
O O11 0.302521 0.374984 0.258758
O O12 0.047739 0.329967 0.784543
O O13 0.269439 0.362989 0.861516
O O14 0.000000 0.500000 0.000000
#
# Coordination Sequence:
#
# PCOD9055714 Si02
#       7
#     2   2   1   2   2   2   2
#     4  11  21  43  68 103 138 184 227 284 355 405
#     4  12  24  49  70  97 139 185 228 291 344 409
#     4  12  24  44  74  94 136 186 230 278 352 406
#     4  12  24  45  70 103 138 181 231 286 344 408
#     4  11  23  42  74 102 137 182 232 281 351 416
#     4  12  24  43  71 100 139 185 231 285 340 414
#     4  12  25  41  69 107 142 176 230 290 346 411
#
# _framework density 27.236197000000001
#
# number of rings (size 3 to 8) (size 9 to 14) (size 15 to 20)
#    0.000    0.308    6.154    3.231    0.000    3.692 
#    0.000    2.308    0.000    0.000    0.000    0.000 
#    0.000    0.000    0.000    0.000    0.000    0.000 
#
# Total GULP energy -72530.705253 kJ/mol
# GULP energy per Si atom -5579.285019 kJ/mol
# Density = 2.717421 g / cm^3
# Si number density = 27.236197 Si / 1000 Ang^3
#
#
#
# Elastic Constant Matrix: (Units=GPa)
#
#
# Indices 1 2 3 4 5 6 
#
# 1 102.8016 22.5086 41.2629 -13.2712 -14.7402 35.4205
# 2 22.5086 84.1011 51.3747 -7.0207 2.2698 31.7287
# 3 41.2629 51.3747 163.8484 -12.2643 -26.4889 35.8943
# 4 -13.2712 -7.0207 -12.2643 41.5631 28.5720 0.6066
# 5 -14.7402 2.2698 -26.4889 28.5720 56.9432 -2.0664
# 6 35.4205 31.7287 35.8943 0.6066 -2.0664 49.6847
#
#
#
# Elastic Compliance Matrix: (Units=1/GPa)
#
#
# Indices 1 2 3 4 5 6 
#
# 1 0.013970 0.001040 -0.001325 0.003961 0.000619 -0.009689
# 2 0.001040 0.018802 -0.004522 0.006623 -0.006264 -0.009823
# 3 -0.001325 -0.004522 0.009049 -0.001833 0.004877 -0.002480
# 4 0.003961 0.006623 -0.001833 0.040064 -0.020450 -0.007069
# 5 0.000619 -0.006264 0.004877 -0.020450 0.030558 0.001556
# 6 -0.009689 -0.009823 -0.002480 -0.007069 0.001556 0.035249
#
#
# Mechanical properties :
#
#
# Convention : Reuss Voigt Hill
#
# Bulk Modulus (GPa) = 31.04977 64.56039 47.80508
# Shear Modulus (GPa) = 29.75416 45.34519 37.54967
#
# Velocity S-wave (km/s) = 3.30881 4.08473 3.71707
# Velocity P-wave (km/s) = 5.10123 6.78248 6.00102
#
# Compressibility (1/GPa) = 0.03220636
#
# Stress axis : x y z
#
# Youngs Moduli (GPa) = 71.58154 53.18445 110.50555
#
# Poissons Ratio (x) = -0.05529 0.14643
# Poissons Ratio (y) = -0.07442 0.49975
# Poissons Ratio (z) = 0.09485 0.24052
#
# Static dielectric constant tensor:
#      x y z
#    x 1.901750 -0.037600 0.042160 
#    y -0.037600 2.199980 0.029290 
#    z 0.042160 0.029290 2.158330 
# 
# From -- ./inp_files/518363.got.cif
#   From: 2010.05.17/outbox.cif.g08.bks.cpg/sg2_260_cif.got.tgz:518363.got - 2010.06.03 11:33:40.
