data_PCOD9055572
_publ_section_title
;
Structure prediction by ZEFSAII (Michael W. Deem and Ramdas Pophale) SiO2 
 PCOD9055572
Probable space group: P -1
;
_chemical_formula_sum "Si O2"
_cell_formula_units_Z 16
_cell_length_a 10.744720
_cell_length_b 11.982777
_cell_length_c 10.471913
_cell_angle_alpha 54.912224
_cell_angle_beta 110.334674
_cell_angle_gamma 68.966729
_cell_volume 709.103569
_symmetry_space_group_name_H-M "P -1"
_symmetry_group_IT_number 2
_symmetry_cell_setting 'triclinic'
loop_
_space_group_symop_operation_xyz
x,y,z
-x,-y,-z
loop_
_atom_site_type_symbol
_atom_site_label
_atom_site_fract_x
_atom_site_fract_y
_atom_site_fract_z
Si Si1 0.623183 0.566574 0.677085
Si Si2 0.773141 0.574496 0.418330
Si Si3 0.621232 0.107899 0.844921
Si Si4 0.234243 0.720073 0.506096
Si Si5 0.857148 0.142282 0.074548
Si Si6 0.580686 0.799871 0.728320
Si Si7 0.873829 0.664993 0.143531
Si Si8 0.675363 0.261144 0.215151
O O1 0.499063 0.717480 0.417412
O O2 0.455836 0.595859 0.657958
O O3 0.665400 0.650056 0.740135
O O4 0.801136 0.332621 0.879308
O O5 0.566662 0.803502 0.205364
O O6 0.777642 0.412228 0.486028
O O7 0.847832 0.585676 0.307463
O O8 0.893449 0.495754 0.646596
O O9 0.737449 0.120947 0.967946
O O10 0.764124 0.888062 0.987471
O O11 0.188712 0.770369 0.607685
O O12 0.080103 0.943855 0.252643
O O13 0.784030 0.181347 0.170114
O O14 0.415750 0.821044 0.721541
O O15 0.500000 0.000000 0.500000
O O16 0.754644 0.698477 0.957387
O O17 0.500000 0.500000 0.000000
#
# Coordination Sequence:
#
# PCOD9055572 Si02
#       8
#     2   2   2   2   2   2   2   2
#     4  11  25  43  65  96 134 172 218 275 331 393
#     4  11  24  42  66 100 129 174 223 273 327 393
#     4  12  23  43  65  95 134 173 216 268 338 392
#     4  11  23  41  66  97 131 163 224 275 324 383
#     4  12  23  40  69  99 127 173 220 275 331 382
#     4  11  22  44  69  94 137 180 211 272 341 391
#     4  11  24  43  67  94 133 175 219 269 331 403
#     4  11  21  42  70  95 131 174 219 278 323 385
#
# _framework density 22.563700999999998
#
# number of rings (size 3 to 8) (size 9 to 14) (size 15 to 20)
#    0.000    0.750    6.250    2.625    0.000    1.500 
#    0.000    1.875    0.000    0.000    0.000    0.000 
#    0.000    0.000    0.000    0.000    0.000    0.000 
#
# Total GULP energy -89142.252403 kJ/mol
# GULP energy per Si atom -5571.390775 kJ/mol
# Density = 2.251234 g / cm^3
# Si number density = 22.563701 Si / 1000 Ang^3
#
#
#
# Elastic Constant Matrix: (Units=GPa)
#
#
# Indices 1 2 3 4 5 6 
#
# 1 25.7862 5.5951 6.6471 -0.3889 -28.3597 14.6222
# 2 5.5951 146.5112 38.2685 1.0239 37.8950 34.6045
# 3 6.6471 38.2685 130.1854 -15.3138 20.1783 16.2088
# 4 -0.3889 1.0239 -15.3138 56.6397 14.3863 -8.7287
# 5 -28.3597 37.8950 20.1783 14.3863 -2.9736 27.2161
# 6 14.6222 34.6045 16.2088 -8.7287 27.2161 22.4707
#
#
#
# Elastic Compliance Matrix: (Units=1/GPa)
#
#
# Indices 1 2 3 4 5 6 
#
# 1 0.015565 0.001103 0.000905 0.005817 -0.016023 0.009186
# 2 0.001103 0.011201 -0.001326 -0.001598 -0.003796 -0.013034
# 3 0.000905 -0.001326 0.008741 0.001631 0.000254 -0.004526
# 4 0.005817 -0.001598 0.001631 0.016833 0.004436 -0.001336
# 5 -0.016023 -0.003796 0.000254 0.004436 -0.003777 0.022387
# 6 0.009186 -0.013034 -0.004526 -0.001336 0.022387 0.034228
#
#
# Mechanical properties :
#
#
# Convention : Reuss Voigt Hill
#
# Bulk Modulus (GPa) = 27.12116 44.83382 35.97749
# Shear Modulus (GPa) = 53.35229 32.02549 42.68889
#
# Velocity S-wave (km/s) = 4.86791 3.77150 4.35435
# Velocity P-wave (km/s) = 6.60615 6.23527 6.42339
#
# Compressibility (1/GPa) = 0.03687158
#
# Stress axis : x y z
#
# Youngs Moduli (GPa) = 64.24822 89.27726 114.40424
#
# Poissons Ratio (x) = -0.09849 -0.10354
# Poissons Ratio (y) = -0.07088 0.15166
# Poissons Ratio (z) = -0.05815 0.11835
#
# Static dielectric constant tensor:
#      x y z
#    x 2.408750 -0.092490 0.048920 
#    y -0.092490 1.854350 0.032450 
#    z 0.048920 0.032450 1.936470 
# 
# From -- ./inp_files/427621.got.cif
#   From: 2010.05.17/outbox.cif.g08.bks.cpg/sg2_214_cif.got.tgz:427621.got - 2010.06.03 11:33:40.
