data_PCOD9055341
_publ_section_title
;
Structure prediction by ZEFSAII (Michael W. Deem and Ramdas Pophale) SiO2 
 PCOD9055341
Probable space group: P -1
;
_chemical_formula_sum "Si O2"
_cell_formula_units_Z 14
_cell_length_a 7.229990
_cell_length_b 12.981944
_cell_length_c 9.496308
_cell_angle_alpha 84.601588
_cell_angle_beta 98.995976
_cell_angle_gamma 40.594601
_cell_volume 540.531986
_symmetry_space_group_name_H-M "P -1"
_symmetry_group_IT_number 2
_symmetry_cell_setting 'triclinic'
loop_
_space_group_symop_operation_xyz
x,y,z
-x,-y,-z
loop_
_atom_site_type_symbol
_atom_site_label
_atom_site_fract_x
_atom_site_fract_y
_atom_site_fract_z
Si Si1 0.217900 0.710944 0.369763
Si Si2 0.276176 0.244566 0.354959
Si Si3 0.178557 0.055453 0.344390
Si Si4 0.226536 0.489113 0.346188
Si Si5 0.294543 0.898608 0.807981
Si Si6 0.292720 0.009361 0.056800
Si Si7 0.690964 0.400868 0.895101
O O1 0.085847 0.652200 0.382650
O O2 0.435921 0.652961 0.526639
O O3 0.413472 0.612397 0.260469
O O4 0.944476 0.906746 0.284596
O O5 0.119664 0.201622 0.348315
O O6 0.117966 0.419458 0.360794
O O7 0.386719 0.216952 0.211507
O O8 0.598440 0.088058 0.493868
O O9 0.867458 0.130788 0.270967
O O10 0.364850 0.960867 0.233294
O O11 0.221171 0.527779 0.177026
O O12 0.306878 0.900115 0.978014
O O13 0.973098 0.207203 0.995988
O O14 0.500000 0.000000 0.000000
O O15 0.500000 0.500000 0.000000
#
# Coordination Sequence:
#
# PCOD9055341 Si02
#       7
#     2   2   2   2   2   2   2
#     4   8  18  35  63  91 126 170 220 264 336 398
#     4  11  23  39  66  97 136 171 231 285 332 396
#     4  11  24  38  62 102 131 176 229 273 338 406
#     4   9  18  38  61  92 132 170 212 280 339 388
#     4  11  21  41  68  96 131 181 223 279 341 397
#     4  11  23  44  66  95 140 180 222 279 338 406
#     4   9  20  36  66 100 129 171 228 274 336 405
#
# _framework density 25.900407999999999
#
# number of rings (size 3 to 8) (size 9 to 14) (size 15 to 20)
#    0.857    1.143    2.857    0.857    2.000    0.000 
#    0.000    0.714    0.000   11.143    0.000    0.000 
#    0.000    0.000    0.000    0.000    0.000    0.000 
#
# Total GULP energy -78249.944674 kJ/mol
# GULP energy per Si atom -5589.281762 kJ/mol
# Density = 2.584146 g / cm^3
# Si number density = 25.900408 Si / 1000 Ang^3
#
#
#
# Elastic Constant Matrix: (Units=GPa)
#
#
# Indices 1 2 3 4 5 6 
#
# 1 85.9655 53.7661 10.2730 14.9803 3.5032 35.5001
# 2 53.7661 111.7422 30.3349 24.1858 -1.1421 38.2543
# 3 10.2730 30.3349 125.0258 31.4071 -11.1519 -1.7964
# 4 14.9803 24.1858 31.4071 39.9967 0.8201 -5.6428
# 5 3.5032 -1.1421 -11.1519 0.8201 26.3315 4.4421
# 6 35.5001 38.2543 -1.7964 -5.6428 4.4421 56.3180
#
#
#
# Elastic Compliance Matrix: (Units=1/GPa)
#
#
# Indices 1 2 3 4 5 6 
#
# 1 0.019838 -0.005162 0.001059 -0.006478 -0.000599 -0.009567
# 2 -0.005162 0.016885 -0.001428 -0.008525 0.002653 -0.009325
# 3 0.001059 -0.001428 0.010704 -0.008110 0.004674 -0.000537
# 4 -0.006478 -0.008525 -0.008110 0.041099 -0.006628 0.014256
# 5 -0.000599 0.002653 0.004674 -0.006628 0.041234 -0.005192
# 6 -0.009567 -0.009325 -0.000537 0.014256 -0.005192 0.031942
#
#
# Mechanical properties :
#
#
# Convention : Reuss Voigt Hill
#
# Bulk Modulus (GPa) = 27.49904 56.83130 42.16517
# Shear Modulus (GPa) = 27.04355 39.75320 33.39838
#
# Velocity S-wave (km/s) = 3.23482 3.92196 3.59485
# Velocity P-wave (km/s) = 4.95906 6.51912 5.79186
#
# Compressibility (1/GPa) = 0.03636490
#
# Stress axis : x y z
#
# Youngs Moduli (GPa) = 50.40724 59.22340 93.41996
#
# Poissons Ratio (x) = 0.30570 -0.09890
# Poissons Ratio (y) = 0.26019 0.13345
# Poissons Ratio (z) = -0.05336 0.08460
#
# Static dielectric constant tensor:
#      x y z
#    x 2.072080 0.037350 -0.011680 
#    y 0.037350 2.016130 0.040820 
#    z -0.011680 0.040820 2.066030 
# 
# From -- ./inp_files/187759.got.cif
#   From: 2010.05.17/outbox.cif.g08.bks.cpg/sg2_94_cif.got.tgz:187759.got - 2010.06.03 11:33:40.
