data_PCOD9055097
_publ_section_title
;
Structure prediction by ZEFSAII (Michael W. Deem and Ramdas Pophale) SiO2 
 PCOD9055097
Probable space group: P -1
;
_chemical_formula_sum "Si O2"
_cell_formula_units_Z 16
_cell_length_a 8.872241
_cell_length_b 6.586353
_cell_length_c 12.958064
_cell_angle_alpha 71.500949
_cell_angle_beta 85.004870
_cell_angle_gamma 99.004093
_cell_volume 701.641367
_symmetry_space_group_name_H-M "P -1"
_symmetry_group_IT_number 2
_symmetry_cell_setting 'triclinic'
loop_
_space_group_symop_operation_xyz
x,y,z
-x,-y,-z
loop_
_atom_site_type_symbol
_atom_site_label
_atom_site_fract_x
_atom_site_fract_y
_atom_site_fract_z
Si Si1 0.055661 0.216309 0.290527
Si Si2 0.129047 0.643398 0.096254
Si Si3 0.772011 0.873173 0.330978
Si Si4 0.453379 0.845449 0.753036
Si Si5 0.777724 0.541999 0.087885
Si Si6 0.133824 0.570502 0.565610
Si Si7 0.363016 0.068500 0.063689
Si Si8 0.702904 0.975098 0.555739
O O1 0.949811 0.324910 0.355732
O O2 0.143777 0.415276 0.185765
O O3 0.166464 0.102231 0.370618
O O4 0.934333 0.032728 0.268386
O O5 0.947056 0.643921 0.103788
O O6 0.226419 0.856110 0.109254
O O7 0.190366 0.618052 0.981200
O O8 0.797322 0.629429 0.364325
O O9 0.729344 0.906642 0.448459
O O10 0.640225 0.957664 0.262179
O O11 0.333376 0.617660 0.803399
O O12 0.571752 0.862581 0.837964
O O13 0.542787 0.872495 0.635143
O O14 0.696477 0.731474 0.018927
O O15 0.000000 0.500000 0.500000
O O16 0.264715 0.762912 0.482604
O O17 0.500000 0.000000 0.000000
#
# Coordination Sequence:
#
# PCOD9055097 Si02
#       8
#     2   2   2   2   2   2   2   2
#     4  11  22  40  72 100 128 182 230 273 336 406
#     4  11  25  46  74 102 131 182 234 277 338 403
#     4  11  23  46  66  98 141 176 232 281 330 406
#     4  12  26  46  69 101 141 185 221 279 354 403
#     4  11  25  50  71  97 138 181 230 283 333 414
#     4  11  21  40  66  97 136 173 225 282 329 395
#     4  12  27  45  69 105 141 174 223 286 346 405
#     4  11  24  41  67 101 136 181 228 278 338 401
#
# _framework density 22.803673
#
# number of rings (size 3 to 8) (size 9 to 14) (size 15 to 20)
#    0.000    0.750    5.000    2.625    3.500    2.500 
#    0.000    0.000    0.000    0.000    0.000    0.000 
#    0.000    0.000    0.000    0.000    0.000    0.000 
#
# Total GULP energy -89635.448570 kJ/mol
# GULP energy per Si atom -5602.215536 kJ/mol
# Density = 2.275177 g / cm^3
# Si number density = 22.803673 Si / 1000 Ang^3
#
#
#
# Elastic Constant Matrix: (Units=GPa)
#
#
# Indices 1 2 3 4 5 6 
#
# 1 122.7425 64.3409 29.5064 -24.7572 5.9756 0.0362
# 2 64.3409 108.3870 39.8313 -37.7723 -1.1907 -7.4006
# 3 29.5064 39.8313 75.0216 -26.8169 -16.2127 11.2737
# 4 -24.7572 -37.7723 -26.8169 45.1410 -3.0923 9.8632
# 5 5.9756 -1.1907 -16.2127 -3.0923 49.7479 -14.7520
# 6 0.0362 -7.4006 11.2737 9.8632 -14.7520 39.7835
#
#
#
# Elastic Compliance Matrix: (Units=1/GPa)
#
#
# Indices 1 2 3 4 5 6 
#
# 1 0.012244 -0.006771 -0.001290 0.000543 -0.002615 -0.002010
# 2 -0.006771 0.017805 -0.003979 0.008282 0.001311 0.002879
# 3 -0.001290 -0.003979 0.022436 0.011387 0.005772 -0.007780
# 4 0.000543 0.008282 0.011387 0.038562 0.003265 -0.010036
# 5 -0.002615 0.001311 0.005772 0.003265 0.024582 0.006916
# 6 -0.002010 0.002879 -0.007780 -0.010036 0.006916 0.032931
#
#
# Mechanical properties :
#
#
# Convention : Reuss Voigt Hill
#
# Bulk Modulus (GPa) = 35.20380 63.72314 49.46347
# Shear Modulus (GPa) = 27.45622 38.43265 32.94444
#
# Velocity S-wave (km/s) = 3.47367 4.10978 3.80504
# Velocity P-wave (km/s) = 5.61781 7.10812 6.40645
#
# Compressibility (1/GPa) = 0.02840603
#
# Stress axis : x y z
#
# Youngs Moduli (GPa) = 81.67308 56.16376 44.57081
#
# Poissons Ratio (x) = 0.38028 0.05748
# Poissons Ratio (y) = 0.55301 0.17734
# Poissons Ratio (z) = 0.10533 0.22347
#
# Static dielectric constant tensor:
#      x y z
#    x 1.850620 0.013390 -0.009860 
#    y 0.013390 1.816880 0.008790 
#    z -0.009860 0.008790 1.869890 
# 
# From -- ./inp_files/48349.got.cif
#   From: 2010.05.17/outbox.cif.g08.bks.cpg/sg2_25_cif.got.tgz:48349.got - 2010.06.03 11:33:40.
