data_PCOD9055147
_publ_section_title
;
Structure prediction by ZEFSAII (Michael W. Deem and Ramdas Pophale) SiO2 
 PCOD9055147
Probable space group: P -1
;
_chemical_formula_sum "Si O2"
_cell_formula_units_Z 16
_cell_length_a 13.636602
_cell_length_b 15.598416
_cell_length_c 7.829277
_cell_angle_alpha 134.555670
_cell_angle_beta 42.015601
_cell_angle_gamma 142.421092
_cell_volume 653.324183
_symmetry_space_group_name_H-M "P -1"
_symmetry_group_IT_number 2
_symmetry_cell_setting 'triclinic'
loop_
_space_group_symop_operation_xyz
x,y,z
-x,-y,-z
loop_
_atom_site_type_symbol
_atom_site_label
_atom_site_fract_x
_atom_site_fract_y
_atom_site_fract_z
Si Si1 0.341372 0.568146 0.598010
Si Si2 0.237408 0.882485 0.264002
Si Si3 0.386731 0.320998 0.077168
Si Si4 0.934103 0.933400 0.680112
Si Si5 0.260201 0.506582 0.003495
Si Si6 0.560832 0.132866 0.249006
Si Si7 0.114973 0.239822 0.025878
Si Si8 0.030409 0.609792 0.350787
O O1 0.401740 0.470547 0.303328
O O2 0.436630 0.731318 0.630326
O O3 0.135644 0.485807 0.692856
O O4 0.351753 0.557381 0.771749
O O5 0.062244 0.882743 0.493864
O O6 0.197855 0.739672 0.210970
O O7 0.372110 0.018709 0.418118
O O8 0.246259 0.837240 0.981583
O O9 0.270467 0.259092 0.970980
O O10 0.267441 0.201898 0.211527
O O11 0.591968 0.375808 0.888075
O O12 0.000000 0.000000 0.500000
O O13 0.979305 0.071399 0.925600
O O14 0.201032 0.343998 0.895308
O O15 0.094188 0.518469 0.228747
O O16 0.500000 0.000000 0.000000
O O17 0.028150 0.312422 0.336647
#
# Coordination Sequence:
#
# PCOD9055147 Si02
#       8
#     2   2   2   2   2   2   2   2
#     4  11  21  40  68  99 132 172 222 280 328 391
#     4   9  20  40  63  96 133 166 217 265 339 383
#     4  11  26  43  64 100 134 178 223 274 338 386
#     4  12  25  43  73  96 129 172 227 275 336 401
#     4  12  24  41  66  99 135 172 230 273 323 398
#     4   8  20  34  61  98 127 165 211 270 322 383
#     4  11  26  45  66  93 136 181 221 271 337 402
#     4  11  23  44  69  96 135 181 219 274 341 393
#
# _framework density 24.49014
#
# number of rings (size 3 to 8) (size 9 to 14) (size 15 to 20)
#    0.750    0.500    3.750    2.625    3.500    0.000 
#    0.000    0.625    2.750    0.000    0.000    0.000 
#    0.000    0.000    0.000    0.000    0.000    0.000 
#
# Total GULP energy -89072.459936 kJ/mol
# GULP energy per Si atom -5567.028746 kJ/mol
# Density = 2.443440 g / cm^3
# Si number density = 24.490140 Si / 1000 Ang^3
#
#
#
# Elastic Constant Matrix: (Units=GPa)
#
#
# Indices 1 2 3 4 5 6 
#
# 1 76.3675 29.3351 9.6756 1.1506 -7.8767 -3.0889
# 2 29.3351 141.5401 9.7185 15.5079 -1.7320 -20.7639
# 3 9.6756 9.7185 52.6332 8.9078 -2.1825 1.7075
# 4 1.1506 15.5079 8.9078 33.4749 2.8905 -6.5351
# 5 -7.8767 -1.7320 -2.1825 2.8905 22.6730 -2.9340
# 6 -3.0889 -20.7639 1.7075 -6.5351 -2.9340 29.7698
#
#
#
# Elastic Compliance Matrix: (Units=1/GPa)
#
#
# Indices 1 2 3 4 5 6 
#
# 1 0.014995 -0.002975 -0.002211 0.001109 0.004668 0.000311
# 2 -0.002975 0.008831 -0.000758 -0.002798 0.000616 0.005341
# 3 -0.002211 -0.000758 0.020691 -0.005809 0.001509 -0.003071
# 4 0.001109 -0.002798 -0.005809 0.034115 -0.004013 0.005590
# 5 0.004668 0.000616 0.001509 -0.004013 0.047024 0.004581
# 6 0.000311 0.005341 -0.003071 0.005590 0.004581 0.039204
#
#
# Mechanical properties :
#
#
# Convention : Reuss Voigt Hill
#
# Bulk Modulus (GPa) = 30.64750 40.88878 35.76814
# Shear Modulus (GPa) = 26.64906 31.97097 29.31001
#
# Velocity S-wave (km/s) = 3.30230 3.61704 3.46325
# Velocity P-wave (km/s) = 5.20400 5.84604 5.53434
#
# Compressibility (1/GPa) = 0.03262909
#
# Stress axis : x y z
#
# Youngs Moduli (GPa) = 66.68994 113.23356 48.32972
#
# Poissons Ratio (x) = 0.33682 0.10688
# Poissons Ratio (y) = 0.19838 0.03664
# Poissons Ratio (z) = 0.14748 0.08584
#
# Static dielectric constant tensor:
#      x y z
#    x 2.258330 -0.135160 -0.034240 
#    y -0.135160 1.825660 0.059750 
#    z -0.034240 0.059750 2.044840 
# 
# From -- ./inp_files/318142.got.cif
#   From: 2010.05.17/outbox.cif.g08.bks.cpg/sg2_160_cif.got.tgz:318142.got - 2010.06.03 11:33:40.
