data_PCOD9055165
_publ_section_title
;
Structure prediction by ZEFSAII (Michael W. Deem and Ramdas Pophale) SiO2 
 PCOD9055165
Probable space group: P -1
;
_chemical_formula_sum "Si O2"
_cell_formula_units_Z 14
_cell_length_a 20.527251
_cell_length_b 21.109545
_cell_length_c 12.163092
_cell_angle_alpha 21.572595
_cell_angle_beta 29.168441
_cell_angle_gamma 18.331131
_cell_volume 607.383242
_symmetry_space_group_name_H-M "P -1"
_symmetry_group_IT_number 2
_symmetry_cell_setting 'triclinic'
loop_
_space_group_symop_operation_xyz
x,y,z
-x,-y,-z
loop_
_atom_site_type_symbol
_atom_site_label
_atom_site_fract_x
_atom_site_fract_y
_atom_site_fract_z
Si Si1 0.377111 0.548372 0.823484
Si Si2 0.934929 0.860260 0.921891
Si Si3 0.920485 0.318865 0.542093
Si Si4 0.730455 0.397481 0.463330
Si Si5 0.959604 0.464794 0.896323
Si Si6 0.310683 0.062985 0.644034
Si Si7 0.269590 0.744491 0.903696
O O1 0.491188 0.574230 0.536765
O O2 0.185548 0.633170 0.918176
O O3 0.276083 0.727781 0.790799
O O4 0.566097 0.234732 0.085522
O O5 0.844112 0.135467 0.647377
O O6 0.839921 0.831362 0.202349
O O7 0.896735 0.806111 0.949213
O O8 0.804085 0.347901 0.562345
O O9 0.850460 0.293038 0.798913
O O10 0.907744 0.535833 0.222964
O O11 0.158478 0.029254 0.641293
O O12 0.795640 0.511864 0.128363
O O13 0.830450 0.714099 0.601199
O O14 0.500000 0.000000 0.500000
O O15 0.500000 0.500000 0.000000
#
# Coordination Sequence:
#
# PCOD9055165 Si02
#       7
#     2   2   2   2   2   2   2
#     4  11  22  43  71  93 132 174 222 271 326 391
#     4  11  24  46  70  93 133 177 219 270 332 387
#     4  11  24  41  67  98 132 170 224 269 323 395
#     4  11  25  46  65  98 135 178 218 265 330 407
#     4  12  25  44  67  99 138 170 216 279 333 382
#     4  11  24  42  67 103 130 167 226 280 320 388
#     4  11  21  40  69  95 125 174 221 269 326 381
#
# _framework density 23.049699
#
# number of rings (size 3 to 8) (size 9 to 14) (size 15 to 20)
#    0.000    0.857    4.286    3.000    6.000    0.571 
#    2.571    0.714    0.000    0.000    0.000    0.000 
#    0.000    0.000    0.000    0.000    0.000    0.000 
#
# Total GULP energy -78285.749518 kJ/mol
# GULP energy per Si atom -5591.839251 kJ/mol
# Density = 2.299724 g / cm^3
# Si number density = 23.049699 Si / 1000 Ang^3
#
#
#
# Elastic Constant Matrix: (Units=GPa)
#
#
# Indices 1 2 3 4 5 6 
#
# 1 95.9669 40.9424 32.3073 -3.4587 -31.8722 8.8951
# 2 40.9424 126.0747 43.8001 9.7959 -12.2476 14.6235
# 3 32.3073 43.8001 98.4813 26.5702 -20.2450 12.0449
# 4 -3.4587 9.7959 26.5702 39.1428 3.4129 5.1694
# 5 -31.8722 -12.2476 -20.2450 3.4129 40.2983 -2.5235
# 6 8.8951 14.6235 12.0449 5.1694 -2.5235 37.4367
#
#
#
# Elastic Compliance Matrix: (Units=1/GPa)
#
#
# Indices 1 2 3 4 5 6 
#
# 1 0.016444 -0.003593 -0.002361 0.003249 0.010359 -0.001495
# 2 -0.003593 0.010417 -0.003463 -0.000151 -0.001539 -0.002184
# 3 -0.002361 -0.003463 0.017035 -0.011264 0.006494 -0.001574
# 4 0.003249 -0.000151 -0.011264 0.034355 -0.006186 -0.002250
# 5 0.010359 -0.001539 0.006494 -0.006186 0.036286 -0.000649
# 6 -0.001495 -0.002184 -0.001574 -0.002250 -0.000649 0.028693
#
#
# Mechanical properties :
#
#
# Convention : Reuss Voigt Hill
#
# Bulk Modulus (GPa) = 39.89897 61.62470 50.76183
# Shear Modulus (GPa) = 29.33970 36.94043 33.14007
#
# Velocity S-wave (km/s) = 3.57163 4.00765 3.79590
# Velocity P-wave (km/s) = 5.86142 6.94324 6.42514
#
# Compressibility (1/GPa) = 0.02506330
#
# Stress axis : x y z
#
# Youngs Moduli (GPa) = 60.81352 95.99548 58.70125
#
# Poissons Ratio (x) = 0.34487 0.13859
# Poissons Ratio (y) = 0.21848 0.20328
# Poissons Ratio (z) = 0.14357 0.33243
#
# Static dielectric constant tensor:
#      x y z
#    x 1.958790 0.006480 0.003100 
#    y 0.006480 1.824840 -0.001340 
#    z 0.003100 -0.001340 1.887050 
# 
# From -- ./inp_files/75270.got.cif
#   From: 2010.05.17/outbox.cif.g08.bks.cpg/sg2_38_cif.got.tgz:75270.got - 2010.06.03 11:33:40.
