data_PCOD9055526
_publ_section_title
;
Structure prediction by ZEFSAII (Michael W. Deem and Ramdas Pophale) SiO2 
 PCOD9055526
Probable space group: P -1
;
_chemical_formula_sum "Si O2"
_cell_formula_units_Z 16
_cell_length_a 11.254836
_cell_length_b 10.062123
_cell_length_c 13.683113
_cell_angle_alpha 109.254315
_cell_angle_beta 148.610751
_cell_angle_gamma 80.009533
_cell_volume 743.340040
_symmetry_space_group_name_H-M "P -1"
_symmetry_group_IT_number 2
_symmetry_cell_setting 'triclinic'
loop_
_space_group_symop_operation_xyz
x,y,z
-x,-y,-z
loop_
_atom_site_type_symbol
_atom_site_label
_atom_site_fract_x
_atom_site_fract_y
_atom_site_fract_z
Si Si1 0.910328 0.833478 0.195103
Si Si2 0.133434 0.222066 0.221032
Si Si3 0.599242 0.729475 0.127979
Si Si4 0.726724 0.497611 0.298720
Si Si5 0.860520 0.624296 0.927453
Si Si6 0.661256 0.474566 0.474820
Si Si7 0.312627 0.968849 0.035200
Si Si8 0.406147 0.825256 0.555930
O O1 0.826340 0.781150 0.231553
O O2 0.188324 0.893317 0.392177
O O3 0.850658 0.704339 0.042371
O O4 0.763514 0.951713 0.092619
O O5 0.049164 0.253592 0.060556
O O6 0.176413 0.375015 0.344146
O O7 0.388181 0.182204 0.378769
O O8 0.929255 0.108976 0.101634
O O9 0.670729 0.643944 0.250293
O O10 0.474183 0.856730 0.100788
O O11 0.410904 0.622677 0.901517
O O12 0.647745 0.466715 0.346721
O O13 0.000000 0.500000 0.500000
O O14 0.608519 0.543823 0.690334
O O15 0.000000 0.500000 0.000000
O O16 0.719554 0.335235 0.533749
O O17 0.455801 0.090737 0.236184
#
# Coordination Sequence:
#
# PCOD9055526 Si02
#       8
#     2   2   2   2   2   2   2   2
#     4  12  24  45  69  96 140 189 228 278 345 408
#     4  11  24  43  68 102 142 172 233 290 341 408
#     4  11  26  44  69 101 139 182 234 284 336 414
#     4  11  23  42  69 101 137 176 228 291 342 397
#     4  11  22  39  70 101 133 177 225 283 342 404
#     4  11  21  42  68  99 134 174 228 277 344 404
#     4  12  26  45  67 101 145 184 225 284 346 410
#     4  11  24  44  69  99 139 184 228 283 342 415
#
# _framework density 21.524470000000001
#
# number of rings (size 3 to 8) (size 9 to 14) (size 15 to 20)
#    0.000    0.750    3.750    5.250    1.750    4.000 
#    0.000    0.000    0.000    0.000    0.000    0.000 
#    0.000    0.000    0.000    0.000    0.000    0.000 
#
# Total GULP energy -89426.646488 kJ/mol
# GULP energy per Si atom -5589.165406 kJ/mol
# Density = 2.147548 g / cm^3
# Si number density = 21.524470 Si / 1000 Ang^3
#
#
#
# Elastic Constant Matrix: (Units=GPa)
#
#
# Indices 1 2 3 4 5 6 
#
# 1 68.3112 9.7109 3.3039 -3.7952 7.3707 0.2348
# 2 9.7109 68.8757 5.2005 -15.3156 8.5957 -22.0933
# 3 3.3039 5.2005 77.2272 -9.9083 11.3631 -3.5819
# 4 -3.7952 -15.3156 -9.9083 27.6713 -3.5843 11.1076
# 5 7.3707 8.5957 11.3631 -3.5843 30.6871 -2.1774
# 6 0.2348 -22.0933 -3.5819 11.1076 -2.1774 25.4608
#
#
#
# Elastic Compliance Matrix: (Units=1/GPa)
#
#
# Indices 1 2 3 4 5 6 
#
# 1 0.015424 -0.002474 0.000019 0.001673 -0.003056 -0.003277
# 2 -0.002474 0.021663 0.000604 0.004728 -0.003974 0.016503
# 3 0.000019 0.000604 0.014242 0.004797 -0.004886 0.000017
# 4 0.001673 0.004728 0.004797 0.047128 0.000887 -0.015723
# 5 -0.003056 -0.003974 -0.004886 0.000887 0.036248 -0.001395
# 6 -0.003277 0.016503 0.000017 -0.015723 -0.001395 0.060369
#
#
# Mechanical properties :
#
#
# Convention : Reuss Voigt Hill
#
# Bulk Modulus (GPa) = 20.99660 27.87162 24.43411
# Shear Modulus (GPa) = 23.29343 29.84376 26.56859
#
# Velocity S-wave (km/s) = 3.29322 3.72762 3.51713
# Velocity P-wave (km/s) = 4.92305 5.61282 5.27921
#
# Compressibility (1/GPa) = 0.04762676
#
# Stress axis : x y z
#
# Youngs Moduli (GPa) = 64.83581 46.16132 70.21239
#
# Poissons Ratio (x) = 0.11420 -0.00133
# Poissons Ratio (y) = 0.16041 -0.04240
# Poissons Ratio (z) = -0.00123 -0.02787
#
# Static dielectric constant tensor:
#      x y z
#    x 1.869580 0.049120 0.039420 
#    y 0.049120 1.854450 0.003100 
#    z 0.039420 0.003100 1.788480 
# 
# From -- ./inp_files/516040.got.cif
#   From: 2010.05.17/outbox.cif.g08.bks.cpg/sg2_259_cif.got.tgz:516040.got - 2010.06.03 11:33:40.
