data_PCOD9055411
_publ_section_title
;
Structure prediction by ZEFSAII (Michael W. Deem and Ramdas Pophale) SiO2 
 PCOD9055411
Probable space group: P -1
;
_chemical_formula_sum "Si O2"
_cell_formula_units_Z 12
_cell_length_a 11.955139
_cell_length_b 9.136225
_cell_length_c 9.381643
_cell_angle_alpha 47.730554
_cell_angle_beta 55.202173
_cell_angle_gamma 83.506153
_cell_volume 557.445412
_symmetry_space_group_name_H-M "P -1"
_symmetry_group_IT_number 2
_symmetry_cell_setting 'triclinic'
loop_
_space_group_symop_operation_xyz
x,y,z
-x,-y,-z
loop_
_atom_site_type_symbol
_atom_site_label
_atom_site_fract_x
_atom_site_fract_y
_atom_site_fract_z
Si Si1 0.339056 0.348800 0.634516
Si Si2 0.164086 0.196269 0.296549
Si Si3 0.346423 0.465011 0.220562
Si Si4 0.167233 0.522683 0.855455
Si Si5 0.679169 0.110297 0.974967
Si Si6 0.327938 0.921218 0.303259
O O1 0.500000 0.500000 0.500000
O O2 0.359364 0.423248 0.406087
O O3 0.214733 0.402721 0.772420
O O4 0.288546 0.084950 0.856371
O O5 0.202088 0.257426 0.393278
O O6 0.293502 0.129174 0.194363
O O7 0.192084 0.417207 0.049156
O O8 0.000000 0.000000 0.500000
O O9 0.313622 0.678811 0.085578
O O10 0.500000 0.500000 0.000000
O O11 0.262821 0.778650 0.584462
O O12 0.000000 0.500000 0.000000
O O13 0.752833 0.194409 0.709974
O O14 0.502007 0.978003 0.149524
#
# Coordination Sequence:
#
# PCOD9055411 Si02
#       6
#     2   2   2   2   2   2
#     4  12  23  43  74 106 143 186 237 296 358 419
#     4  12  26  46  68  99 145 192 232 290 359 427
#     4  12  26  43  70 112 142 180 247 302 348 420
#     4  12  24  42  73 101 137 193 238 281 357 436
#     4  11  22  40  73 104 143 179 238 303 353 411
#     4  11  21  41  71 104 136 188 234 289 358 420
#
# _framework density 21.526769999999999
#
# number of rings (size 3 to 8) (size 9 to 14) (size 15 to 20)
#    0.000    0.333    8.333    2.000    0.000    2.000 
#    0.000    4.167    0.000    0.000    0.000    0.000 
#    0.000    0.000    0.000    0.000    0.000    0.000 
#
# Total GULP energy -66899.167783 kJ/mol
# GULP energy per Si atom -5574.930649 kJ/mol
# Density = 2.147777 g / cm^3
# Si number density = 21.526770 Si / 1000 Ang^3
#
#
#
# Elastic Constant Matrix: (Units=GPa)
#
#
# Indices 1 2 3 4 5 6 
#
# 1 92.7386 52.5758 42.4078 5.6674 23.0827 -3.3784
# 2 52.5758 124.6896 10.9781 6.8719 9.6508 -8.0278
# 3 42.4078 10.9781 71.5376 5.0611 15.6207 10.6626
# 4 5.6674 6.8719 5.0611 37.0960 -5.3071 4.3813
# 5 23.0827 9.6508 15.6207 -5.3071 29.7188 -2.3401
# 6 -3.3784 -8.0278 10.6626 4.3813 -2.3401 55.0039
#
#
#
# Elastic Compliance Matrix: (Units=1/GPa)
#
#
# Indices 1 2 3 4 5 6 
#
# 1 0.022293 -0.007499 -0.010048 -0.002290 -0.009851 0.001986
# 2 -0.007499 0.011017 0.002564 -0.001231 0.000741 0.000780
# 3 -0.010048 0.002564 0.021446 -0.002058 -0.005019 -0.004450
# 4 -0.002290 -0.001231 -0.002058 0.029232 0.008331 -0.001895
# 5 -0.009851 0.000741 -0.005019 0.008331 0.045323 0.001741
# 6 0.001986 0.000780 -0.004450 -0.001895 0.001741 0.019504
#
#
# Mechanical properties :
#
#
# Convention : Reuss Voigt Hill
#
# Bulk Modulus (GPa) = 40.33713 55.65437 47.99575
# Shear Modulus (GPa) = 26.73175 36.56401 31.64788
#
# Velocity S-wave (km/s) = 3.52773 4.12580 3.83843
# Velocity P-wave (km/s) = 5.94743 6.97180 6.47989
#
# Compressibility (1/GPa) = 0.02479106
#
# Stress axis : x y z
#
# Youngs Moduli (GPa) = 44.85674 90.77021 46.62806
#
# Poissons Ratio (x) = 0.68067 0.46850
# Poissons Ratio (y) = 0.33637 -0.11955
# Poissons Ratio (z) = 0.45070 -0.23272
#
# Static dielectric constant tensor:
#      x y z
#    x 1.804140 -0.014460 -0.022660 
#    y -0.014460 1.843270 -0.018830 
#    z -0.022660 -0.018830 1.748000 
# 
# From -- ./inp_files/172481.got.cif
#   From: 2010.05.17/outbox.cif.g08.bks.cpg/sg2_87_cif.got.tgz:172481.got - 2010.06.03 11:33:40.
