data_PCOD9055386
_publ_section_title
;
Structure prediction by ZEFSAII (Michael W. Deem and Ramdas Pophale) SiO2 
 PCOD9055386
Probable space group: P -1
;
_chemical_formula_sum "Si O2"
_cell_formula_units_Z 16
_cell_length_a 7.955812
_cell_length_b 16.145791
_cell_length_c 8.847512
_cell_angle_alpha 114.976793
_cell_angle_beta 49.584308
_cell_angle_gamma 134.929667
_cell_volume 611.255042
_symmetry_space_group_name_H-M "P -1"
_symmetry_group_IT_number 2
_symmetry_cell_setting 'triclinic'
loop_
_space_group_symop_operation_xyz
x,y,z
-x,-y,-z
loop_
_atom_site_type_symbol
_atom_site_label
_atom_site_fract_x
_atom_site_fract_y
_atom_site_fract_z
Si Si1 0.334849 0.785868 0.955724
Si Si2 0.572553 0.391527 0.090548
Si Si3 0.174048 0.917635 0.675515
Si Si4 0.743597 0.521435 0.564145
Si Si5 0.792438 0.241582 0.660676
Si Si6 0.211484 0.195877 0.915514
Si Si7 0.914800 0.016352 0.724324
Si Si8 0.953641 0.409300 0.238218
O O1 0.429266 0.706067 0.894414
O O2 0.579319 0.918699 0.866064
O O3 0.150265 0.714052 0.861342
O O4 0.198203 0.784203 0.190475
O O5 0.478957 0.454661 0.292412
O O6 0.370107 0.319988 0.005949
O O7 0.868811 0.501041 0.932571
O O8 0.078999 0.801212 0.556771
O O9 0.024490 0.965927 0.732423
O O10 0.500000 0.000000 0.500000
O O11 0.071304 0.891629 0.886521
O O12 0.848629 0.544239 0.693838
O O13 0.012838 0.622566 0.387068
O O14 0.693486 0.406234 0.444428
O O15 0.467463 0.186842 0.773843
O O16 0.085407 0.149804 0.785618
O O17 0.000000 0.000000 0.500000
#
# Coordination Sequence:
#
# PCOD9055386 Si02
#       8
#     2   2   2   2   2   2   2   2
#     4  11  24  45  64  94 140 171 212 271 326 381
#     4  11  22  43  70  96 124 172 226 260 316 395
#     4  12  22  41  72  92 121 179 228 257 315 395
#     4  11  23  41  69  97 126 172 220 262 325 386
#     4  11  21  41  70  94 128 171 222 261 316 396
#     4  11  22  43  71  92 129 170 221 266 315 388
#     4  12  26  43  64  99 138 168 211 279 329 374
#     4  11  25  42  66  98 136 168 209 278 328 373
#
# _framework density 26.175654999999999
#
# number of rings (size 3 to 8) (size 9 to 14) (size 15 to 20)
#    0.000    0.750    7.500    1.875    1.750    0.500 
#    4.500    1.250    0.000    0.000    0.000    0.000 
#    0.000    0.000    0.000    0.000    0.000    0.000 
#
# Total GULP energy -89414.910394 kJ/mol
# GULP energy per Si atom -5588.431900 kJ/mol
# Density = 2.611608 g / cm^3
# Si number density = 26.175655 Si / 1000 Ang^3
#
#
#
# Elastic Constant Matrix: (Units=GPa)
#
#
# Indices 1 2 3 4 5 6 
#
# 1 76.5758 5.2404 21.6577 -2.1236 3.7677 1.8773
# 2 5.2404 91.6679 34.2808 3.9151 7.7887 15.8332
# 3 21.6577 34.2808 162.0581 7.9157 4.5024 6.5519
# 4 -2.1236 3.9151 7.9157 45.7097 -0.2137 3.6800
# 5 3.7677 7.7887 4.5024 -0.2137 46.3098 15.4095
# 6 1.8773 15.8332 6.5519 3.6800 15.4095 26.8217
#
#
#
# Elastic Compliance Matrix: (Units=1/GPa)
#
#
# Indices 1 2 3 4 5 6 
#
# 1 0.013653 -0.000042 -0.001834 0.000960 -0.000886 -0.000105
# 2 -0.000042 0.013072 -0.002470 -0.000097 0.000502 -0.007386
# 3 -0.001834 -0.002470 0.006991 -0.001095 -0.000160 0.000121
# 4 0.000960 -0.000097 -0.001095 0.022415 0.001342 -0.003589
# 5 -0.000886 0.000502 -0.000160 0.001342 0.026865 -0.015814
# 6 -0.000105 -0.007386 0.000121 -0.003589 -0.015814 0.051199
#
#
# Mechanical properties :
#
#
# Convention : Reuss Voigt Hill
#
# Bulk Modulus (GPa) = 39.96101 50.29552 45.12826
# Shear Modulus (GPa) = 33.06236 41.70975 37.38606
#
# Velocity S-wave (km/s) = 3.55786 3.99614 3.78335
# Velocity P-wave (km/s) = 5.67252 6.36777 6.03017
#
# Compressibility (1/GPa) = 0.02502439
#
# Stress axis : x y z
#
# Youngs Moduli (GPa) = 73.24261 76.49778 143.03582
#
# Poissons Ratio (x) = 0.00323 0.26229
# Poissons Ratio (y) = 0.00310 0.35333
# Poissons Ratio (z) = 0.13431 0.18897
#
# Static dielectric constant tensor:
#      x y z
#    x 2.181800 -0.086020 -0.254270 
#    y -0.086020 2.431980 0.503060 
#    z -0.254270 0.503060 3.032810 
# 
# From -- ./inp_files/222298.got.cif
#   From: 2010.05.17/outbox.cif.g08.bks.cpg/sg2_112_cif.got.tgz:222298.got - 2010.06.03 11:33:40.
