data_PCOD9055952
_publ_section_title
;
Structure prediction by ZEFSAII (Michael W. Deem and Ramdas Pophale) SiO2 
 PCOD9055952
Probable space group: P -1
;
_chemical_formula_sum "Si O2"
_cell_formula_units_Z 16
_cell_length_a 8.872211
_cell_length_b 8.980496
_cell_length_c 15.765233
_cell_angle_alpha 124.523614
_cell_angle_beta 100.542245
_cell_angle_gamma 114.533064
_cell_volume 781.233213
_symmetry_space_group_name_H-M "P -1"
_symmetry_group_IT_number 2
_symmetry_cell_setting 'triclinic'
loop_
_space_group_symop_operation_xyz
x,y,z
-x,-y,-z
loop_
_atom_site_type_symbol
_atom_site_label
_atom_site_fract_x
_atom_site_fract_y
_atom_site_fract_z
Si Si1 0.128694 0.094000 0.718257
Si Si2 0.246227 0.780707 0.039379
Si Si3 0.293337 0.951742 0.462883
Si Si4 0.359030 0.410069 0.681559
Si Si5 0.766091 0.863160 0.942085
Si Si6 0.897156 0.240778 0.803310
Si Si7 0.042191 0.373355 0.534309
Si Si8 0.407908 0.238666 0.927925
O O1 0.233696 0.287013 0.716468
O O2 0.287367 0.094245 0.785473
O O3 0.030633 0.160558 0.794511
O O4 0.978546 0.835879 0.581787
O O5 0.242097 0.845925 0.157226
O O6 0.420750 0.772393 0.039988
O O7 0.269466 0.964872 0.040522
O O8 0.040133 0.522244 0.914414
O O9 0.205168 0.854091 0.328755
O O10 0.134585 0.761220 0.455985
O O11 0.500000 0.000000 0.500000
O O12 0.332339 0.194257 0.563832
O O13 0.591482 0.615598 0.797043
O O14 0.252779 0.496453 0.646955
O O15 0.724531 0.831882 0.026865
O O16 0.000000 0.000000 0.000000
O O17 0.000000 0.500000 0.500000
O O18 0.500000 0.500000 0.000000
#
# Coordination Sequence:
#
# PCOD9055952 Si02
#       8
#     2   2   2   2   2   2   2   2
#     4  11  21  44  72  99 138 185 234 283 347 422
#     4  11  27  41  70 101 142 184 232 294 339 419
#     4  11  25  43  73 101 136 187 230 287 352 424
#     4  11  23  47  72  99 141 186 235 286 354 425
#     4  12  28  46  69 107 146 181 238 298 354 410
#     4  11  22  44  69  98 137 180 241 276 352 406
#     4  11  25  45  73 106 139 182 235 296 353 419
#     4  12  24  43  73 101 135 189 230 282 355 425
#
# _framework density 20.480440000000002
#
# number of rings (size 3 to 8) (size 9 to 14) (size 15 to 20)
#    0.000    0.750    5.000    1.875    8.750    1.000 
#    2.250    1.250    0.000    0.000    0.000    0.000 
#    0.000    0.000    0.000    0.000    0.000    0.000 
#
# Total GULP energy -89314.745200 kJ/mol
# GULP energy per Si atom -5582.171575 kJ/mol
# Density = 2.043383 g / cm^3
# Si number density = 20.480440 Si / 1000 Ang^3
#
#
#
# Elastic Constant Matrix: (Units=GPa)
#
#
# Indices 1 2 3 4 5 6 
#
# 1 127.0189 61.3898 35.9715 -6.3863 8.6221 0.0000
# 2 61.3898 125.7989 37.5348 -17.3049 5.1251 -9.5613
# 3 35.9715 37.5348 97.5291 -14.2074 11.9741 -6.5365
# 4 -6.3863 -17.3049 -14.2074 28.7156 -2.2756 1.3439
# 5 8.6221 5.1251 11.9741 -2.2756 40.6759 -8.0261
# 6 0.0000 -9.5613 -6.5365 1.3439 -8.0261 32.1568
#
#
#
# Elastic Compliance Matrix: (Units=1/GPa)
#
#
# Indices 1 2 3 4 5 6 
#
# 1 0.010973 -0.005008 -0.002336 -0.001750 -0.001555 -0.002279
# 2 -0.005008 0.011850 -0.001895 0.005022 0.001036 0.003187
# 3 -0.002336 -0.001895 0.012891 0.004455 -0.002569 0.001229
# 4 -0.001750 0.005022 0.004455 0.039688 0.000834 0.000948
# 5 -0.001555 0.001036 -0.002569 0.000834 0.026860 0.006455
# 6 -0.002279 0.003187 0.001229 0.000948 0.006455 0.033867
#
#
# Mechanical properties :
#
#
# Convention : Reuss Voigt Hill
#
# Bulk Modulus (GPa) = 58.02554 68.90433 63.46494
# Shear Modulus (GPa) = 31.18143 34.67306 32.92725
#
# Velocity S-wave (km/s) = 3.90615 4.11905 4.01401
# Velocity P-wave (km/s) = 6.98124 7.50594 7.24834
#
# Compressibility (1/GPa) = 0.01723379
#
# Stress axis : x y z
#
# Youngs Moduli (GPa) = 91.13677 84.39166 77.57171
#
# Poissons Ratio (x) = 0.42264 0.18124
# Poissons Ratio (y) = 0.45642 0.14702
# Poissons Ratio (z) = 0.21293 0.15994
#
# Static dielectric constant tensor:
#      x y z
#    x 1.741710 -0.001560 0.044640 
#    y -0.001560 1.698880 0.012100 
#    z 0.044640 0.012100 1.763570 
# 
# From -- ./inp_files/335589.got.cif
#   From: 2010.05.17/outbox.cif.g08.bks.cpg/sg2_168_cif.got.tgz:335589.got - 2010.06.03 11:33:40.
