data_PCOD9055843
_publ_section_title
;
Structure prediction by ZEFSAII (Michael W. Deem and Ramdas Pophale) SiO2 
 PCOD9055843
Probable space group: P -1
;
_chemical_formula_sum "Si O2"
_cell_formula_units_Z 12
_cell_length_a 11.646344
_cell_length_b 9.240913
_cell_length_c 9.562392
_cell_angle_alpha 52.160947
_cell_angle_beta 40.167666
_cell_angle_gamma 38.880264
_cell_volume 416.235958
_symmetry_space_group_name_H-M "P -1"
_symmetry_group_IT_number 2
_symmetry_cell_setting 'triclinic'
loop_
_space_group_symop_operation_xyz
x,y,z
-x,-y,-z
loop_
_atom_site_type_symbol
_atom_site_label
_atom_site_fract_x
_atom_site_fract_y
_atom_site_fract_z
Si Si1 0.412709 0.640362 0.641975
Si Si2 0.653735 0.557788 0.749680
Si Si3 0.077062 0.124270 0.755618
Si Si4 0.833124 0.956216 0.742376
Si Si5 0.685994 0.923308 0.173084
Si Si6 0.690289 0.674498 0.061687
O O1 0.500000 0.500000 0.500000
O O2 0.596765 0.562818 0.636038
O O3 0.259899 0.913965 0.609685
O O4 0.257321 0.565024 0.881362
O O5 0.544178 0.817860 0.748947
O O6 0.897572 0.351834 0.700900
O O7 0.500000 0.500000 0.000000
O O8 0.210526 0.162854 0.720906
O O9 0.000000 0.000000 0.000000
O O10 0.569608 0.150707 0.843772
O O11 0.836843 0.954078 0.908827
O O12 0.000000 0.000000 0.500000
O O13 0.148993 0.269368 0.184614
O O14 0.687726 0.737663 0.189520
#
# Coordination Sequence:
#
# PCOD9055843 Si02
#       6
#     2   2   2   2   2   2
#     4  11  25  46  74 116 154 201 257 330 386 456
#     4  11  21  43  75 101 157 210 253 314 395 459
#     4  11  23  39  75 106 146 217 260 296 404 478
#     4   9  19  37  75 113 150 203 260 318 393 456
#     4   9  20  41  71 110 148 202 257 326 384 458
#     4   9  21  42  73 109 163 193 254 340 388 445
#
# _framework density 28.829801
#
# number of rings (size 3 to 8) (size 9 to 14) (size 15 to 20)
#    1.000    1.000    3.333    1.000    0.000    2.000 
#    0.000    5.833    0.000    6.000    4.333    2.333 
#    0.000    0.000    0.000    0.000    0.000    0.000 
#
# Total GULP energy -67235.510403 kJ/mol
# GULP energy per Si atom -5602.959200 kJ/mol
# Density = 2.876418 g / cm^3
# Si number density = 28.829801 Si / 1000 Ang^3
#
#
#
# Elastic Constant Matrix: (Units=GPa)
#
#
# Indices 1 2 3 4 5 6 
#
# 1 228.5322 131.7403 70.7842 -0.3838 30.4622 -15.3395
# 2 131.7403 212.1633 29.7711 8.2971 -3.0285 -5.8698
# 3 70.7842 29.7711 162.3719 -14.2489 -9.4421 7.4097
# 4 -0.3838 8.2971 -14.2489 36.6951 17.2384 -6.6976
# 5 30.4622 -3.0285 -9.4421 17.2384 58.2003 -10.6335
# 6 -15.3395 -5.8698 7.4097 -6.6976 -10.6335 81.4943
#
#
#
# Elastic Compliance Matrix: (Units=1/GPa)
#
#
# Indices 1 2 3 4 5 6 
#
# 1 0.009703 -0.005762 -0.003310 0.003492 -0.006745 0.001119
# 2 -0.005762 0.008372 0.000925 -0.003848 0.004692 -0.000270
# 3 -0.003310 0.000925 0.007740 0.001459 0.002454 -0.000820
# 4 0.003492 -0.003848 0.001459 0.034520 -0.011732 0.001554
# 5 -0.006745 0.004692 0.002454 -0.011732 0.025039 0.001148
# 6 0.001119 -0.000270 -0.000820 0.001554 0.001148 0.012814
#
#
# Mechanical properties :
#
#
# Convention : Reuss Voigt Hill
#
# Bulk Modulus (GPa) = 105.05219 118.62871 111.84045
# Shear Modulus (GPa) = 42.49646 59.99605 51.24626
#
# Velocity S-wave (km/s) = 3.84350 4.56679 4.22067
# Velocity P-wave (km/s) = 7.49763 8.30932 7.91389
#
# Compressibility (1/GPa) = 0.00951908
#
# Stress axis : x y z
#
# Youngs Moduli (GPa) = 103.06256 119.45154 129.19175
#
# Poissons Ratio (x) = 0.68831 0.42765
# Poissons Ratio (y) = 0.59387 -0.11944
# Poissons Ratio (z) = 0.34116 -0.11044
#
# Static dielectric constant tensor:
#      x y z
#    x 2.221270 -0.013020 -0.074180 
#    y -0.013020 2.362630 -0.122170 
#    z -0.074180 -0.122170 2.421110 
# 
# From -- ./inp_files/243373.got.cif
#   From: 2010.05.17/outbox.cif.g08.bks.cpg/sg2_122_cif.got.tgz:243373.got - 2010.06.03 11:33:40.
