data_PCOD9055207
_publ_section_title
;
Structure prediction by ZEFSAII (Michael W. Deem and Ramdas Pophale) SiO2 
 PCOD9055207
Probable space group: P -1
;
_chemical_formula_sum "Si O2"
_cell_formula_units_Z 14
_cell_length_a 14.606020
_cell_length_b 11.440548
_cell_length_c 9.468233
_cell_angle_alpha 124.844475
_cell_angle_beta 112.956770
_cell_angle_gamma 30.554967
_cell_volume 640.079703
_symmetry_space_group_name_H-M "P -1"
_symmetry_group_IT_number 2
_symmetry_cell_setting 'triclinic'
loop_
_space_group_symop_operation_xyz
x,y,z
-x,-y,-z
loop_
_atom_site_type_symbol
_atom_site_label
_atom_site_fract_x
_atom_site_fract_y
_atom_site_fract_z
Si Si1 0.440588 0.218980 0.185608
Si Si2 0.649057 0.248281 0.311885
Si Si3 0.922369 0.609582 0.687822
Si Si4 0.864973 0.370308 0.106031
Si Si5 0.510086 0.015056 0.684086
Si Si6 0.896752 0.154291 0.255146
Si Si7 0.023594 0.744553 0.362561
O O1 0.558917 0.206766 0.190273
O O2 0.220712 0.508573 0.237880
O O3 0.480341 0.140697 0.323115
O O4 0.500000 0.000000 0.000000
O O5 0.500000 0.500000 0.500000
O O6 0.711106 0.284788 0.255126
O O7 0.843518 0.987666 0.329018
O O8 0.992688 0.390332 0.668506
O O9 0.000000 0.500000 0.500000
O O10 0.992135 0.671259 0.839578
O O11 0.701480 0.864128 0.724972
O O12 0.665807 0.678018 0.165235
O O13 0.862457 0.313315 0.224839
O O14 0.941196 0.148001 0.906668
O O15 0.500000 0.000000 0.500000
O O16 0.955267 0.163274 0.438970
#
# Coordination Sequence:
#
# PCOD9055207 Si02
#       7
#     2   2   2   2   2   2   2
#     4  11  27  45  68 104 134 173 230 287 336 403
#     4  12  27  43  71  94 134 186 223 267 347 412
#     4  11  21  40  71  95 127 172 225 276 339 387
#     4  11  24  44  65 100 136 171 224 287 325 406
#     4  11  23  41  71  98 131 174 229 279 335 397
#     4  11  25  45  65  97 141 176 221 274 346 401
#     4  11  24  46  65  97 135 176 223 276 334 408
#
# _framework density 21.872275999999999
#
# number of rings (size 3 to 8) (size 9 to 14) (size 15 to 20)
#    0.000    0.857    4.286    2.143    6.000    0.571 
#    0.000    1.429    0.000    0.000    0.000    0.000 
#    0.000    0.000    0.000    0.000    0.000    0.000 
#
# Total GULP energy -78408.715223 kJ/mol
# GULP energy per Si atom -5600.622516 kJ/mol
# Density = 2.182249 g / cm^3
# Si number density = 21.872276 Si / 1000 Ang^3
#
#
#
# Elastic Constant Matrix: (Units=GPa)
#
#
# Indices 1 2 3 4 5 6 
#
# 1 149.3597 29.5983 12.4592 -4.0942 20.7433 -5.5450
# 2 29.5983 127.1071 12.2870 19.2278 3.2308 -13.4355
# 3 12.4592 12.2870 76.8640 12.5930 14.6831 -10.2121
# 4 -4.0942 19.2278 12.5930 26.4041 3.1939 -9.7593
# 5 20.7433 3.2308 14.6831 3.1939 41.1056 1.6361
# 6 -5.5450 -13.4355 -10.2121 -9.7593 1.6361 31.8789
#
#
#
# Elastic Compliance Matrix: (Units=1/GPa)
#
#
# Indices 1 2 3 4 5 6 
#
# 1 0.007906 -0.002129 -0.000634 0.004216 -0.003994 0.001771
# 2 -0.002129 0.009534 -0.000015 -0.006800 0.000798 0.001520
# 3 -0.000634 -0.000015 0.015412 -0.005607 -0.004882 0.003354
# 4 0.004216 -0.006800 -0.005607 0.051040 -0.004030 0.011903
# 5 -0.003994 0.000798 -0.004882 -0.004030 0.028521 -0.004620
# 6 0.001771 0.001520 0.003354 0.011903 -0.004620 0.037273
#
#
# Mechanical properties :
#
#
# Convention : Reuss Voigt Hill
#
# Bulk Modulus (GPa) = 36.63565 51.33555 43.98560
# Shear Modulus (GPa) = 30.42466 39.81012 35.11739
#
# Velocity S-wave (km/s) = 3.73368 4.27091 4.01130
# Velocity P-wave (km/s) = 5.94755 6.91683 6.45042
#
# Compressibility (1/GPa) = 0.02729582
#
# Stress axis : x y z
#
# Youngs Moduli (GPa) = 126.48681 104.89190 64.88412
#
# Poissons Ratio (x) = 0.22329 0.04112
# Poissons Ratio (y) = 0.26927 0.00100
# Poissons Ratio (z) = 0.08016 0.00161
#
# Static dielectric constant tensor:
#      x y z
#    x 1.817050 0.039880 -0.037040 
#    y 0.039880 1.773930 -0.016370 
#    z -0.037040 -0.016370 1.824550 
# 
# From -- ./inp_files/279764.got.cif
#   From: 2010.05.17/outbox.cif.g08.bks.cpg/sg2_140_cif.got.tgz:279764.got - 2010.06.03 11:33:40.
