data_PCOD9055355
_publ_section_title
;
Structure prediction by ZEFSAII (Michael W. Deem and Ramdas Pophale) SiO2 
 PCOD9055355
Probable space group: P -1
;
_chemical_formula_sum "Si O2"
_cell_formula_units_Z 16
_cell_length_a 8.377375
_cell_length_b 8.706666
_cell_length_c 11.713196
_cell_angle_alpha 93.403869
_cell_angle_beta 63.032015
_cell_angle_gamma 92.776941
_cell_volume 759.881264
_symmetry_space_group_name_H-M "P -1"
_symmetry_group_IT_number 2
_symmetry_cell_setting 'triclinic'
loop_
_space_group_symop_operation_xyz
x,y,z
-x,-y,-z
loop_
_atom_site_type_symbol
_atom_site_label
_atom_site_fract_x
_atom_site_fract_y
_atom_site_fract_z
Si Si1 0.730252 0.142125 0.231113
Si Si2 0.336269 0.424710 0.908110
Si Si3 0.570162 0.652647 0.548379
Si Si4 0.242399 0.217754 0.723037
Si Si5 0.291351 0.408245 0.253482
Si Si6 0.668097 0.100877 0.987337
Si Si7 0.859932 0.367693 0.856953
Si Si8 0.858283 0.811650 0.874065
O O1 0.593757 0.243484 0.351776
O O2 0.931328 0.214975 0.180358
O O3 0.733859 0.960626 0.257000
O O4 0.665112 0.149373 0.121722
O O5 0.340270 0.342030 0.780773
O O6 0.521024 0.525067 0.858457
O O7 0.183722 0.540558 0.007943
O O8 0.274676 0.282250 0.002316
O O9 0.500000 0.500000 0.500000
O O10 0.686750 0.752766 0.425810
O O11 0.680742 0.601092 0.621704
O O12 0.040359 0.276068 0.800414
O O13 0.150180 0.520841 0.243603
O O14 0.221892 0.242016 0.223593
O O15 0.699176 0.242291 0.899094
O O16 0.834274 0.988987 0.915903
O O17 0.500000 0.000000 0.000000
#
# Coordination Sequence:
#
# PCOD9055355 Si02
#       8
#     2   2   2   2   2   2   2   2
#     4  12  26  47  68 104 141 177 232 281 342 414
#     4  11  21  41  69 103 140 175 216 285 342 414
#     4  12  28  48  72  93 131 195 239 279 332 396
#     4  12  25  46  69 100 138 182 232 279 343 401
#     4  11  25  46  66 104 141 180 233 276 337 408
#     4  12  22  39  73 107 142 177 212 282 357 413
#     4  11  24  39  69 107 140 170 224 283 353 402
#     4  11  22  42  72 104 141 171 218 284 354 409
#
# _framework density 21.05592
#
# number of rings (size 3 to 8) (size 9 to 14) (size 15 to 20)
#    0.000    0.500    3.750    6.375    3.500    0.500 
#    0.000    0.625    0.000    0.000    0.000    0.000 
#    0.000    0.000    0.000    0.000    0.000    0.000 
#
# Total GULP energy -89317.917483 kJ/mol
# GULP energy per Si atom -5582.369843 kJ/mol
# Density = 2.100800 g / cm^3
# Si number density = 21.055920 Si / 1000 Ang^3
#
#
#
# Elastic Constant Matrix: (Units=GPa)
#
#
# Indices 1 2 3 4 5 6 
#
# 1 67.9311 30.6916 17.3962 13.5563 8.0561 15.4900
# 2 30.6916 99.3411 50.8407 8.8030 -6.4104 -12.7712
# 3 17.3962 50.8407 57.8921 18.8571 27.7082 5.4500
# 4 13.5563 8.8030 18.8571 40.8400 -7.5914 -2.8654
# 5 8.0561 -6.4104 27.7082 -7.5914 32.3181 -0.3779
# 6 15.4900 -12.7712 5.4500 -2.8654 -0.3779 42.1962
#
#
#
# Elastic Compliance Matrix: (Units=1/GPa)
#
#
# Indices 1 2 3 4 5 6 
#
# 1 0.013450 0.006774 -0.020282 0.006611 0.016937 0.000333
# 2 0.006774 -0.008308 0.028618 -0.020499 -0.032809 -0.010383
# 3 -0.020282 0.028618 -0.036556 0.028170 0.048962 0.023180
# 4 0.006611 -0.020499 0.028170 0.007615 -0.028217 -0.012005
# 5 0.016937 -0.032809 0.048962 -0.028217 -0.028681 -0.024644
# 6 0.000333 -0.010383 0.023180 -0.012005 -0.024644 0.016404
#
#
# Mechanical properties :
#
#
# Convention : Reuss Voigt Hill
#
# Bulk Modulus (GPa) = -837.95258 47.00236 -395.47511
# Shear Modulus (GPa) = -74.96994 31.48657 -21.74169
#
# Velocity S-wave (km/s) = -5.97348 3.87121 -3.21685
# Velocity P-wave (km/s) = 21.12832 6.50790 14.21360
#
# Compressibility (1/GPa) = -0.00119338
#
# Stress axis : x y z
#
# Youngs Moduli (GPa) = 74.34815 -120.36441 -27.35540
#
# Poissons Ratio (x) = 0.81537 -0.55482
# Poissons Ratio (y) = -0.50365 0.78285
# Poissons Ratio (z) = 1.50792 3.44456
#
# Static dielectric constant tensor:
#      x y z
#    x 1.811390 -0.028040 -0.004110 
#    y -0.028040 1.818900 0.014370 
#    z -0.004110 0.014370 1.762650 
# 
# From -- ./inp_files/346179.got.cif
#   From: 2010.05.17/outbox.cif.g08.bks.cpg/sg2_174_cif.got.tgz:346179.got - 2010.06.03 11:33:40.
