data_PCOD9055212
_publ_section_title
;
Structure prediction by ZEFSAII (Michael W. Deem and Ramdas Pophale) SiO2 
 PCOD9055212
Probable space group: P -1
;
_chemical_formula_sum "Si O2"
_cell_formula_units_Z 14
_cell_length_a 5.386801
_cell_length_b 15.986119
_cell_length_c 12.508043
_cell_angle_alpha 42.120469
_cell_angle_beta 79.550693
_cell_angle_gamma 60.819777
_cell_volume 600.099489
_symmetry_space_group_name_H-M "P -1"
_symmetry_group_IT_number 2
_symmetry_cell_setting 'triclinic'
loop_
_space_group_symop_operation_xyz
x,y,z
-x,-y,-z
loop_
_atom_site_type_symbol
_atom_site_label
_atom_site_fract_x
_atom_site_fract_y
_atom_site_fract_z
Si Si1 0.248976 0.247200 0.650571
Si Si2 0.299057 0.622597 0.811216
Si Si3 0.792624 0.006114 0.783256
Si Si4 0.764100 0.044042 0.071888
Si Si5 0.112989 0.416994 0.286179
Si Si6 0.211029 0.057702 0.393920
Si Si7 0.146477 0.286822 0.854270
O O1 0.104829 0.333538 0.472336
O O2 0.086134 0.328457 0.694645
O O3 0.605292 0.176232 0.680986
O O4 0.311866 0.081856 0.811467
O O5 0.543427 0.656373 0.711333
O O6 0.132354 0.573895 0.785684
O O7 0.014986 0.765971 0.750273
O O8 0.500000 0.500000 0.000000
O O9 0.694838 0.995982 0.683311
O O10 0.125557 0.972522 0.799866
O O11 0.868393 0.855913 0.982399
O O12 0.500939 0.210061 0.914118
O O13 0.000000 0.000000 0.000000
O O14 0.026283 0.578077 0.181442
O O15 0.500000 0.000000 0.500000
O O16 0.000000 0.000000 0.500000
#
# Coordination Sequence:
#
# PCOD9055212 Si02
#       7
#     2   2   2   2   2   2   2
#     4  11  23  43  66 108 144 178 231 298 358 430
#     4  12  28  53  73 104 147 195 248 298 357 434
#     4  11  23  42  71  98 139 185 235 294 361 417
#     4  11  21  40  72 101 140 188 237 293 351 432
#     4  12  29  46  75 105 148 192 235 297 367 420
#     4  12  28  47  75 108 139 183 248 308 358 412
#     4  11  24  42  68 105 141 188 237 281 358 449
#
# _framework density 23.329464999999999
#
# number of rings (size 3 to 8) (size 9 to 14) (size 15 to 20)
#    0.000    0.571    2.857    5.143   12.000    0.000 
#    0.000    2.143    0.000    0.000    0.000    0.000 
#    0.000    0.000    0.000    0.000    0.000    0.000 
#
# Total GULP energy -78019.362454 kJ/mol
# GULP energy per Si atom -5572.811604 kJ/mol
# Density = 2.327637 g / cm^3
# Si number density = 23.329465 Si / 1000 Ang^3
#
#
#
# Elastic Constant Matrix: (Units=GPa)
#
#
# Indices 1 2 3 4 5 6 
#
# 1 66.0118 -0.0562 18.9563 11.7260 23.3778 5.0507
# 2 -0.0562 72.5345 0.0749 0.0299 13.9851 4.9508
# 3 18.9563 0.0749 88.3114 10.8204 16.5278 10.4905
# 4 11.7260 0.0299 10.8204 46.3448 2.8368 6.7483
# 5 23.3778 13.9851 16.5278 2.8368 39.0504 5.6588
# 6 5.0507 4.9508 10.4905 6.7483 5.6588 37.7365
#
#
#
# Elastic Compliance Matrix: (Units=1/GPa)
#
#
# Indices 1 2 3 4 5 6 
#
# 1 0.020688 0.002383 -0.001644 -0.004095 -0.012237 -0.000057
# 2 0.002383 0.015256 0.001004 -0.000195 -0.007083 -0.001502
# 3 -0.001644 0.001004 0.013040 -0.001994 -0.004384 -0.002523
# 4 -0.004095 -0.000195 -0.001994 0.023440 0.002153 -0.003387
# 5 -0.012237 -0.007083 -0.004384 0.002153 0.037491 -0.002221
# 6 -0.000057 -0.001502 -0.002523 -0.003387 -0.002221 0.028344
#
#
# Mechanical properties :
#
#
# Convention : Reuss Voigt Hill
#
# Bulk Modulus (GPa) = 19.05920 29.42308 24.24114
# Shear Modulus (GPa) = 32.83746 38.48519 35.66132
#
# Velocity S-wave (km/s) = 3.75581 4.06598 3.91397
# Velocity P-wave (km/s) = 5.19571 5.88917 5.55328
#
# Compressibility (1/GPa) = 0.05246809
#
# Stress axis : x y z
#
# Youngs Moduli (GPa) = 48.33625 65.54980 76.68703
#
# Poissons Ratio (x) = -0.15618 0.12608
# Poissons Ratio (y) = -0.11517 -0.07696
# Poissons Ratio (z) = 0.07947 -0.06578
#
# Static dielectric constant tensor:
#      x y z
#    x 1.018920 0.949820 0.121550 
#    y 0.949820 1.046640 -0.074770 
#    z 0.121550 -0.074770 1.888610 
# 
# From -- ./inp_files/60702.got.cif
#   From: 2010.05.17/outbox.cif.g08.bks.cpg/sg2_31_cif.got.tgz:60702.got - 2010.06.03 11:33:40.
