data_PCOD9055456
_publ_section_title
;
Structure prediction by ZEFSAII (Michael W. Deem and Ramdas Pophale) SiO2 
 PCOD9055456
Probable space group: P -1
;
_chemical_formula_sum "Si O2"
_cell_formula_units_Z 14
_cell_length_a 9.936569
_cell_length_b 22.256435
_cell_length_c 9.600456
_cell_angle_alpha 146.416491
_cell_angle_beta 41.152027
_cell_angle_gamma 146.180640
_cell_volume 640.768735
_symmetry_space_group_name_H-M "P -1"
_symmetry_group_IT_number 2
_symmetry_cell_setting 'triclinic'
loop_
_space_group_symop_operation_xyz
x,y,z
-x,-y,-z
loop_
_atom_site_type_symbol
_atom_site_label
_atom_site_fract_x
_atom_site_fract_y
_atom_site_fract_z
Si Si1 0.480064 0.662119 0.224446
Si Si2 0.253278 0.355314 0.754226
Si Si3 0.796972 0.731282 0.890762
Si Si4 0.536088 0.363999 0.280119
Si Si5 0.305005 0.829382 0.215306
Si Si6 0.021121 0.427020 0.474597
Si Si7 0.175625 0.948727 0.806105
O O1 0.613860 0.674409 0.287515
O O2 0.249280 0.669504 0.443769
O O3 0.354226 0.509169 0.979856
O O4 0.652587 0.766458 0.174995
O O5 0.341014 0.327500 0.486516
O O6 0.959991 0.268425 0.837750
O O7 0.594517 0.626276 0.735697
O O8 0.871726 0.659533 0.802660
O O9 0.019184 0.842704 0.842758
O O10 0.796425 0.474936 0.358741
O O11 0.587792 0.255192 0.983956
O O12 0.231214 0.888577 0.512808
O O13 0.542201 0.939391 0.154369
O O14 0.000000 0.500000 0.500000
O O15 0.000000 0.000000 0.000000
#
# Coordination Sequence:
#
# PCOD9055456 Si02
#       7
#     2   2   2   2   2   2   2
#     4  11  24  37  66  96 146 176 216 270 349 401
#     4  11  21  42  63 100 136 185 218 271 337 416
#     4  12  26  40  67 107 134 173 230 287 329 407
#     4  12  23  40  68 103 136 170 229 280 334 406
#     4  11  23  40  75  94 131 182 227 271 351 385
#     4  12  24  42  67 100 145 183 214 271 352 411
#     4  11  24  46  67  98 136 177 230 291 328 390
#
# _framework density 21.848758
#
# number of rings (size 3 to 8) (size 9 to 14) (size 15 to 20)
#    0.000    0.571    7.143    1.286    2.000    0.571 
#    0.000    0.714    0.000    2.571    0.000    0.000 
#    0.000    0.000    0.000    0.000    0.000    0.000 
#
# Total GULP energy -78078.633600 kJ/mol
# GULP energy per Si atom -5577.045257 kJ/mol
# Density = 2.179903 g / cm^3
# Si number density = 21.848758 Si / 1000 Ang^3
#
#
#
# Elastic Constant Matrix: (Units=GPa)
#
#
# Indices 1 2 3 4 5 6 
#
# 1 125.4984 51.3087 19.6824 -9.9055 -3.8277 11.6389
# 2 51.3087 112.0442 -8.8364 -25.2079 5.7405 28.3499
# 3 19.6824 -8.8364 60.7331 -16.1373 -8.7078 -0.7058
# 4 -9.9055 -25.2079 -16.1373 31.4258 -4.6756 -5.9596
# 5 -3.8277 5.7405 -8.7078 -4.6756 23.1227 -10.8980
# 6 11.6389 28.3499 -0.7058 -5.9596 -10.8980 38.2818
#
#
#
# Elastic Compliance Matrix: (Units=1/GPa)
#
#
# Indices 1 2 3 4 5 6 
#
# 1 0.011302 -0.007053 -0.005744 -0.004635 0.001124 0.001279
# 2 -0.007053 0.019077 0.007977 0.014290 -0.005244 -0.011105
# 3 -0.005744 0.007977 0.026980 0.021013 0.013043 0.003320
# 4 -0.004635 0.014290 0.021013 0.056096 0.017228 0.004851
# 5 0.001124 -0.005244 0.013043 0.017228 0.064883 0.024935
# 6 0.001279 -0.011105 0.003320 0.004851 0.024935 0.041872
#
#
# Mechanical properties :
#
#
# Convention : Reuss Voigt Hill
#
# Bulk Modulus (GPa) = 20.95564 46.95390 33.95477
# Shear Modulus (GPa) = 20.34534 34.30747 27.32640
#
# Velocity S-wave (km/s) = 3.05485 3.96691 3.54037
# Velocity P-wave (km/s) = 4.69626 6.52065 5.68215
#
# Compressibility (1/GPa) = 0.04771984
#
# Stress axis : x y z
#
# Youngs Moduli (GPa) = 88.47628 52.41839 37.06476
#
# Poissons Ratio (x) = 0.36970 0.21292
# Poissons Ratio (y) = 0.62401 -0.29568
# Poissons Ratio (z) = 0.50825 -0.41816
#
# Static dielectric constant tensor:
#      x y z
#    x 1.791380 0.009290 -0.005980 
#    y 0.009290 1.852890 0.052390 
#    z -0.005980 0.052390 1.861340 
# 
# From -- ./inp_files/222546.got.cif
#   From: 2010.05.17/outbox.cif.g08.bks.cpg/sg2_112_cif.got.tgz:222546.got - 2010.06.03 11:33:40.
