data_PCOD9055613
_publ_section_title
;
Structure prediction by ZEFSAII (Michael W. Deem and Ramdas Pophale) SiO2 
 PCOD9055613
Probable space group: P -1
;
_chemical_formula_sum "Si O2"
_cell_formula_units_Z 16
_cell_length_a 12.023189
_cell_length_b 15.445728
_cell_length_c 7.828043
_cell_angle_alpha 74.990900
_cell_angle_beta 71.025322
_cell_angle_gamma 135.900657
_cell_volume 634.583736
_symmetry_space_group_name_H-M "P -1"
_symmetry_group_IT_number 2
_symmetry_cell_setting 'triclinic'
loop_
_space_group_symop_operation_xyz
x,y,z
-x,-y,-z
loop_
_atom_site_type_symbol
_atom_site_label
_atom_site_fract_x
_atom_site_fract_y
_atom_site_fract_z
Si Si1 0.598053 0.831848 0.415897
Si Si2 0.061467 0.690029 0.813100
Si Si3 0.807557 0.632598 0.564484
Si Si4 0.620601 0.744818 0.127274
Si Si5 0.260120 0.680487 0.947774
Si Si6 0.637632 0.034985 0.769625
Si Si7 0.114573 0.123755 0.542411
Si Si8 0.115702 0.269191 0.914826
O O1 0.499526 0.719804 0.352967
O O2 0.403255 0.752134 0.666217
O O3 0.705850 0.822272 0.478322
O O4 0.829072 0.050574 0.155841
O O5 0.123707 0.681276 0.964367
O O6 0.301250 0.881694 0.489896
O O7 0.928006 0.527720 0.840859
O O8 0.889710 0.659131 0.970284
O O9 0.589720 0.417185 0.822484
O O10 0.763353 0.699463 0.637111
O O11 0.796950 0.639472 0.360652
O O12 0.085731 0.796315 0.390235
O O13 0.736641 0.723813 0.121797
O O14 0.864513 0.966270 0.856722
O O15 0.459114 0.831853 0.918189
O O16 0.500000 0.000000 0.000000
O O17 0.000000 0.000000 0.500000
#
# Coordination Sequence:
#
# PCOD9055613 Si02
#       8
#     2   2   2   2   2   2   2   2
#     4  11  21  42  71  98 135 180 226 280 335 396
#     4  11  26  46  74 104 130 179 236 280 340 407
#     4  12  25  41  67 100 134 184 220 272 351 392
#     4  11  24  43  67 100 137 182 228 277 325 408
#     4  11  25  47  74 100 133 179 231 288 336 399
#     4  12  28  46  68 101 141 180 224 284 347 406
#     4  11  24  40  60  98 137 176 221 275 338 397
#     4  11  21  44  71  99 137 177 232 279 330 404
#
# _framework density 25.213380000000001
#
# number of rings (size 3 to 8) (size 9 to 14) (size 15 to 20)
#    0.000    0.750    3.750    3.750    5.250    4.000 
#    0.000    0.000    0.000    0.000    0.000    0.000 
#    0.000    0.000    0.000    0.000    0.000    0.000 
#
# Total GULP energy -89540.687879 kJ/mol
# GULP energy per Si atom -5596.292992 kJ/mol
# Density = 2.515599 g / cm^3
# Si number density = 25.213380 Si / 1000 Ang^3
#
#
#
# Elastic Constant Matrix: (Units=GPa)
#
#
# Indices 1 2 3 4 5 6 
#
# 1 49.2230 8.2295 5.5728 -6.7603 -1.0384 -3.5852
# 2 8.2295 136.3189 16.2055 -17.0974 -0.5228 -20.8814
# 3 5.5728 16.2055 60.6355 -8.3250 -6.9042 -14.1307
# 4 -6.7603 -17.0974 -8.3250 56.6587 -4.1156 -9.0837
# 5 -1.0384 -0.5228 -6.9042 -4.1156 24.4113 0.4366
# 6 -3.5852 -20.8814 -14.1307 -9.0837 0.4366 39.3689
#
#
#
# Elastic Compliance Matrix: (Units=1/GPa)
#
#
# Indices 1 2 3 4 5 6 
#
# 1 0.021022 -0.000545 -0.000868 0.002597 0.001041 0.001901
# 2 -0.000545 0.008631 -0.000565 0.003305 0.000468 0.005083
# 3 -0.000868 -0.000565 0.019797 0.004308 0.006139 0.007653
# 4 0.002597 0.003305 0.004308 0.021287 0.004838 0.008394
# 5 0.001041 0.000468 0.006139 0.004838 0.043514 0.003181
# 6 0.001901 0.005083 0.007653 0.008394 0.003181 0.032918
#
#
# Mechanical properties :
#
#
# Convention : Reuss Voigt Hill
#
# Bulk Modulus (GPa) = 21.98134 34.02142 28.00138
# Shear Modulus (GPa) = 30.06807 38.49910 34.28358
#
# Velocity S-wave (km/s) = 3.45707 3.91184 3.69146
# Velocity P-wave (km/s) = 4.96711 5.82460 5.41286
#
# Compressibility (1/GPa) = 0.04549313
#
# Stress axis : x y z
#
# Youngs Moduli (GPa) = 47.56884 115.86492 50.51361
#
# Poissons Ratio (x) = 0.06314 0.04386
# Poissons Ratio (y) = 0.02592 0.02854
# Poissons Ratio (z) = 0.04130 0.06546
#
# Static dielectric constant tensor:
#      x y z
#    x 1.991090 0.019510 0.040550 
#    y 0.019510 1.980360 0.040920 
#    z 0.040550 0.040920 2.083980 
# 
# From -- ./inp_files/272458.got.cif
#   From: 2010.05.17/outbox.cif.g08.bks.cpg/sg2_137_cif.got.tgz:272458.got - 2010.06.03 11:33:40.
