data_PCOD9055712
_publ_section_title
;
Structure prediction by ZEFSAII (Michael W. Deem and Ramdas Pophale) SiO2 
 PCOD9055712
Probable space group: P -1
;
_chemical_formula_sum "Si O2"
_cell_formula_units_Z 16
_cell_length_a 17.469341
_cell_length_b 16.147931
_cell_length_c 13.495125
_cell_angle_alpha 26.615362
_cell_angle_beta 137.726096
_cell_angle_gamma 154.012935
_cell_volume 706.843226
_symmetry_space_group_name_H-M "P -1"
_symmetry_group_IT_number 2
_symmetry_cell_setting 'triclinic'
loop_
_space_group_symop_operation_xyz
x,y,z
-x,-y,-z
loop_
_atom_site_type_symbol
_atom_site_label
_atom_site_fract_x
_atom_site_fract_y
_atom_site_fract_z
Si Si1 0.679084 0.354418 0.794873
Si Si2 0.948699 0.307216 0.918907
Si Si3 0.590862 0.306470 0.374399
Si Si4 0.806227 0.199382 0.216453
Si Si5 0.823660 0.892990 0.406033
Si Si6 0.858833 0.569438 0.519418
Si Si7 0.700256 0.820064 0.688462
Si Si8 0.318198 0.617316 0.845258
O O1 0.660321 0.535029 0.627161
O O2 0.769564 0.489893 0.627957
O O3 0.785689 0.368236 0.962873
O O4 0.500000 0.000000 0.000000
O O5 0.019095 0.529903 0.837855
O O6 0.127268 0.458965 0.871653
O O7 0.839274 0.323881 0.737176
O O8 0.850881 0.013859 0.193784
O O9 0.741318 0.524788 0.371345
O O10 0.435975 0.269825 0.264421
O O11 0.686330 0.417628 0.239880
O O12 0.477961 0.970367 0.641405
O O13 0.805780 0.039073 0.306851
O O14 0.670830 0.934811 0.450387
O O15 0.000000 0.000000 0.500000
O O16 0.079230 0.899190 0.375194
O O17 0.653260 0.550399 0.902612
#
# Coordination Sequence:
#
# PCOD9055712 Si02
#       8
#     2   2   2   2   2   2   2   2
#     4  12  26  41  62 100 145 175 225 285 330 406
#     4  11  21  43  68 102 139 181 236 282 333 421
#     4  11  25  48  70 102 137 178 228 295 347 402
#     4  11  22  39  65  93 134 179 221 272 330 398
#     4  12  22  38  68  94 129 189 228 264 339 405
#     4  11  24  45  70  98 145 180 224 290 341 402
#     4  11  24  45  70 101 138 182 230 284 340 415
#     4  11  24  46  74  99 136 180 231 286 353 407
#
# _framework density 22.635853999999998
#
# number of rings (size 3 to 8) (size 9 to 14) (size 15 to 20)
#    0.000    0.750    5.000    4.500    0.000    1.500 
#    6.750    0.000    0.000    0.000    0.000    0.000 
#    0.000    0.000    0.000    0.000    0.000    0.000 
#
# Total GULP energy -89259.468938 kJ/mol
# GULP energy per Si atom -5578.716809 kJ/mol
# Density = 2.258433 g / cm^3
# Si number density = 22.635854 Si / 1000 Ang^3
#
#
#
# Elastic Constant Matrix: (Units=GPa)
#
#
# Indices 1 2 3 4 5 6 
#
# 1 85.0074 20.5712 46.5791 -6.6245 2.4751 -7.6568
# 2 20.5712 58.1732 7.2584 -2.7370 -9.0497 8.8422
# 3 46.5791 7.2584 121.8406 -15.0167 15.5063 -8.1213
# 4 -6.6245 -2.7370 -15.0167 26.5808 -8.5718 0.2472
# 5 2.4751 -9.0497 15.5063 -8.5718 40.6123 2.5117
# 6 -7.6568 8.8422 -8.1213 0.2472 2.5117 13.7509
#
#
#
# Elastic Compliance Matrix: (Units=1/GPa)
#
#
# Indices 1 2 3 4 5 6 
#
# 1 0.017618 -0.007592 -0.005304 0.000030 -0.001465 0.011826
# 2 -0.007592 0.024767 -0.000718 0.003131 0.008286 -0.022147
# 3 -0.005304 -0.000718 0.011562 0.003885 -0.003738 0.004950
# 4 0.000030 0.003131 0.003885 0.042868 0.008384 -0.002004
# 5 -0.001465 0.008286 -0.003738 0.008384 0.030627 -0.014097
# 6 0.011826 -0.022147 0.004950 -0.002004 -0.014097 0.099083
#
#
# Mechanical properties :
#
#
# Convention : Reuss Voigt Hill
#
# Bulk Modulus (GPa) = 37.42790 45.98205 41.70498
# Shear Modulus (GPa) = 19.03600 28.89632 23.96616
#
# Velocity S-wave (km/s) = 2.90309 3.57679 3.25740
# Velocity P-wave (km/s) = 5.27332 6.11685 5.71068
#
# Compressibility (1/GPa) = 0.02671804
#
# Stress axis : x y z
#
# Youngs Moduli (GPa) = 56.76129 40.37635 86.48670
#
# Poissons Ratio (x) = 0.30655 0.45876
# Poissons Ratio (y) = 0.43094 0.06209
# Poissons Ratio (z) = 0.30109 0.02899
#
# Static dielectric constant tensor:
#      x y z
#    x 1.860940 0.041080 -0.043170 
#    y 0.041080 1.933220 -0.019750 
#    z -0.043170 -0.019750 1.838350 
# 
# From -- ./inp_files/466032.got.cif
#   From: 2010.05.17/outbox.cif.g08.bks.cpg/sg2_234_cif.got.tgz:466032.got - 2010.06.03 11:33:40.
