data_PCOD9055481
_publ_section_title
;
Structure prediction by ZEFSAII (Michael W. Deem and Ramdas Pophale) SiO2 
 PCOD9055481
Probable space group: P -1
;
_chemical_formula_sum "Si O2"
_cell_formula_units_Z 14
_cell_length_a 11.336095
_cell_length_b 11.562019
_cell_length_c 14.744511
_cell_angle_alpha 28.145500
_cell_angle_beta 117.174916
_cell_angle_gamma 128.673532
_cell_volume 687.985607
_symmetry_space_group_name_H-M "P -1"
_symmetry_group_IT_number 2
_symmetry_cell_setting 'triclinic'
loop_
_space_group_symop_operation_xyz
x,y,z
-x,-y,-z
loop_
_atom_site_type_symbol
_atom_site_label
_atom_site_fract_x
_atom_site_fract_y
_atom_site_fract_z
Si Si1 0.211921 0.709662 0.600075
Si Si2 0.630706 0.291303 0.518449
Si Si3 0.895221 0.606600 0.042624
Si Si4 0.065575 0.260803 0.578843
Si Si5 0.542555 0.346641 0.042909
Si Si6 0.369350 0.326885 0.331135
Si Si7 0.104006 0.335549 0.327549
O O1 0.343787 0.749196 0.550717
O O2 0.147989 0.441311 0.831883
O O3 0.072558 0.673989 0.512975
O O4 0.270557 0.998684 0.481991
O O5 0.788944 0.548612 0.437375
O O6 0.487450 0.338510 0.438743
O O7 0.576343 0.992004 0.755285
O O8 0.722188 0.429665 0.060217
O O9 0.016529 0.074201 0.189343
O O10 0.009641 0.483748 0.159898
O O11 0.122719 0.340812 0.439164
O O12 0.500000 0.500000 0.000000
O O13 0.535507 0.469646 0.859396
O O14 0.261577 0.432678 0.261899
O O15 0.000000 0.000000 0.500000
#
# Coordination Sequence:
#
# PCOD9055481 Si02
#       7
#     2   2   2   2   2   2   2
#     4  11  21  42  66  94 128 164 215 259 312 384
#     4  12  25  41  64  97 138 159 204 277 322 366
#     4  11  22  40  68  93 123 173 218 253 314 379
#     4  11  25  42  64  98 128 169 208 261 328 372
#     4  12  22  39  68  97 125 170 216 255 318 382
#     4  12  23  40  66  97 123 168 216 264 307 376
#     4  11  22  43  66  91 128 165 224 262 299 386
#
# _framework density 20.349262
#
# number of rings (size 3 to 8) (size 9 to 14) (size 15 to 20)
#    0.000    0.571    7.143    1.714    0.000    6.857 
#    0.000    1.429    0.000    0.000    0.000    0.000 
#    0.000    0.000    0.000    0.000    0.000    0.000 
#
# Total GULP energy -78203.978739 kJ/mol
# GULP energy per Si atom -5585.998481 kJ/mol
# Density = 2.030295 g / cm^3
# Si number density = 20.349262 Si / 1000 Ang^3
#
#
#
# Elastic Constant Matrix: (Units=GPa)
#
#
# Indices 1 2 3 4 5 6 
#
# 1 84.7897 6.2151 8.5145 -1.2793 -3.8121 -1.7445
# 2 6.2151 60.5637 2.7207 -3.2159 7.2284 18.0243
# 3 8.5145 2.7207 87.7613 8.7357 -8.2510 -0.1204
# 4 -1.2793 -3.2159 8.7357 23.1912 7.8439 -4.9223
# 5 -3.8121 7.2284 -8.2510 7.8439 23.5783 6.5897
# 6 -1.7445 18.0243 -0.1204 -4.9223 6.5897 29.9102
#
#
#
# Elastic Compliance Matrix: (Units=1/GPa)
#
#
# Indices 1 2 3 4 5 6 
#
# 1 0.012141 -0.001812 -0.001041 0.000635 0.001504 0.001569
# 2 -0.001812 0.020776 -0.001178 0.002468 -0.004773 -0.011173
# 3 -0.001041 -0.001178 0.013165 -0.008545 0.008354 -0.002545
# 4 0.000635 0.002468 -0.008545 0.058941 -0.027225 0.014213
# 5 0.001504 -0.004773 0.008354 -0.027225 0.060221 -0.014750
# 6 0.001569 -0.011173 -0.002545 0.014213 -0.014750 0.045836
#
#
# Mechanical properties :
#
#
# Convention : Reuss Voigt Hill
#
# Bulk Modulus (GPa) = 26.30254 29.77949 28.04101
# Shear Modulus (GPa) = 21.56892 29.71357 25.64124
#
# Velocity S-wave (km/s) = 3.25920 3.82537 3.55358
# Velocity P-wave (km/s) = 5.20738 5.84613 5.53598
#
# Compressibility (1/GPa) = 0.03801914
#
# Stress axis : x y z
#
# Youngs Moduli (GPa) = 82.36726 48.13204 75.96164
#
# Poissons Ratio (x) = 0.08721 0.07910
# Poissons Ratio (y) = 0.14924 0.08948
# Poissons Ratio (z) = 0.08577 0.05670
#
# Static dielectric constant tensor:
#      x y z
#    x 1.781740 0.003890 -0.003160 
#    y 0.003890 1.729860 0.020010 
#    z -0.003160 0.020010 1.707610 
# 
# From -- ./inp_files/517515.got.cif
#   From: 2010.05.17/outbox.cif.g08.bks.cpg/sg2_259_cif.got.tgz:517515.got - 2010.06.03 11:33:40.
