data_PCOD9055701
_publ_section_title
;
Structure prediction by ZEFSAII (Michael W. Deem and Ramdas Pophale) SiO2 
 PCOD9055701
Probable space group: P -1
;
_chemical_formula_sum "Si O2"
_cell_formula_units_Z 16
_cell_length_a 21.134434
_cell_length_b 24.470900
_cell_length_c 9.608608
_cell_angle_alpha 150.145241
_cell_angle_beta 29.127541
_cell_angle_gamma 163.781626
_cell_volume 660.559179
_symmetry_space_group_name_H-M "P -1"
_symmetry_group_IT_number 2
_symmetry_cell_setting 'triclinic'
loop_
_space_group_symop_operation_xyz
x,y,z
-x,-y,-z
loop_
_atom_site_type_symbol
_atom_site_label
_atom_site_fract_x
_atom_site_fract_y
_atom_site_fract_z
Si Si1 0.906022 0.184191 0.926267
Si Si2 0.700110 0.208086 0.159128
Si Si3 0.146168 0.155071 0.264667
Si Si4 0.503625 0.779530 0.181693
Si Si5 0.724930 0.424144 0.412136
Si Si6 0.377876 0.727128 0.008823
Si Si7 0.896279 0.236484 0.366762
Si Si8 0.697359 0.728886 0.085572
O O1 0.085857 0.216639 0.609016
O O2 0.852752 0.230943 0.006581
O O3 0.981892 0.291438 0.164090
O O4 0.648472 0.946270 0.928327
O O5 0.619387 0.241238 0.502775
O O6 0.794447 0.352659 0.175043
O O7 0.500000 0.000000 0.000000
O O8 0.377520 0.250688 0.073162
O O9 0.185254 0.218506 0.170280
O O10 0.914731 0.911750 0.173242
O O11 0.360813 0.668524 0.067346
O O12 0.716091 0.011539 0.243318
O O13 0.457607 0.268746 0.625392
O O14 0.901485 0.626488 0.603269
O O15 0.723976 0.423674 0.247195
O O16 0.246795 0.751396 0.315633
O O17 0.500000 0.500000 0.000000
#
# Coordination Sequence:
#
# PCOD9055701 Si02
#       8
#     2   2   2   2   2   2   2   2
#     4  11  22  44  69 103 139 185 241 285 356 434
#     4  12  21  40  71  95 134 184 232 285 345 421
#     4  11  24  45  75 103 141 196 235 286 366 424
#     4  11  22  43  73  95 136 189 237 279 350 427
#     4  12  24  43  67 102 141 178 239 295 357 418
#     4  11  21  43  67 102 140 179 237 293 345 426
#     4  11  23  41  69 103 141 181 233 298 357 415
#     4  11  24  46  70 105 147 183 241 300 346 426
#
# _framework density 24.221903999999999
#
# number of rings (size 3 to 8) (size 9 to 14) (size 15 to 20)
#    0.000    0.750    6.250    1.875    1.750    2.500 
#    6.750    0.625    0.000    0.000    0.000    0.000 
#    0.000    0.000    0.000    0.000    0.000    0.000 
#
# Total GULP energy -89592.619309 kJ/mol
# GULP energy per Si atom -5599.538707 kJ/mol
# Density = 2.416677 g / cm^3
# Si number density = 24.221904 Si / 1000 Ang^3
#
#
#
# Elastic Constant Matrix: (Units=GPa)
#
#
# Indices 1 2 3 4 5 6 
#
# 1 124.1062 21.3070 58.7816 7.0734 28.4742 14.8190
# 2 21.3070 74.9070 18.5701 7.1001 17.6891 0.7898
# 3 58.7816 18.5701 161.4640 -17.1468 20.7712 11.6149
# 4 7.0734 7.1001 -17.1468 36.3602 5.9462 1.2461
# 5 28.4742 17.6891 20.7712 5.9462 55.7001 3.5014
# 6 14.8190 0.7898 11.6149 1.2461 3.5014 37.0382
#
#
#
# Elastic Compliance Matrix: (Units=1/GPa)
#
#
# Indices 1 2 3 4 5 6 
#
# 1 0.011316 -0.001162 -0.003638 -0.003009 -0.003554 -0.002925
# 2 -0.001162 0.015060 -0.001219 -0.002750 -0.003500 0.000949
# 3 -0.003638 -0.001219 0.008479 0.005214 -0.001395 -0.001221
# 4 -0.003009 -0.002750 0.005214 0.031587 -0.002832 -0.001168
# 5 -0.003554 -0.003500 -0.001395 -0.002832 0.021706 -0.000022
# 6 -0.002925 0.000949 -0.001221 -0.001168 -0.000022 0.028573
#
#
# Mechanical properties :
#
#
# Convention : Reuss Voigt Hill
#
# Bulk Modulus (GPa) = 43.82606 61.97719 52.90163
# Shear Modulus (GPa) = 36.66635 43.27426 39.97030
#
# Velocity S-wave (km/s) = 3.89494 4.23138 4.06664
# Velocity P-wave (km/s) = 6.19356 7.03673 6.62857
#
# Compressibility (1/GPa) = 0.02281747
#
# Stress axis : x y z
#
# Youngs Moduli (GPa) = 88.36741 66.40209 117.93846
#
# Poissons Ratio (x) = 0.07713 0.42907
# Poissons Ratio (y) = 0.10265 0.14379
# Poissons Ratio (z) = 0.32149 0.08096
#
# Static dielectric constant tensor:
#      x y z
#    x 1.936280 0.015030 0.032690 
#    y 0.015030 2.021170 0.014400 
#    z 0.032690 0.014400 1.921990 
# 
# From -- ./inp_files/350039.got.cif
#   From: 2010.05.17/outbox.cif.g08.bks.cpg/sg2_176_cif.got.tgz:350039.got - 2010.06.03 11:33:40.
