data_PCOD9055211
_publ_section_title
;
Structure prediction by ZEFSAII (Michael W. Deem and Ramdas Pophale) SiO2 
 PCOD9055211
Probable space group: P -1
;
_chemical_formula_sum "Si O2"
_cell_formula_units_Z 16
_cell_length_a 18.911709
_cell_length_b 12.810973
_cell_length_c 8.595780
_cell_angle_alpha 132.268387
_cell_angle_beta 118.938271
_cell_angle_gamma 28.140972
_cell_volume 690.336538
_symmetry_space_group_name_H-M "P -1"
_symmetry_group_IT_number 2
_symmetry_cell_setting 'triclinic'
loop_
_space_group_symop_operation_xyz
x,y,z
-x,-y,-z
loop_
_atom_site_type_symbol
_atom_site_label
_atom_site_fract_x
_atom_site_fract_y
_atom_site_fract_z
Si Si1 0.183381 0.457397 0.399804
Si Si2 0.863877 0.887592 0.657152
Si Si3 0.926046 0.305962 0.072655
Si Si4 0.656763 0.348930 0.467097
Si Si5 0.990832 0.680562 0.139447
Si Si6 0.718845 0.360367 0.860309
Si Si7 0.317322 0.121694 0.460868
Si Si8 0.357482 0.465471 0.687811
O O1 0.322982 0.151132 0.312271
O O2 0.219375 0.561762 0.597659
O O3 0.025667 0.622888 0.471587
O O4 0.132115 0.536116 0.247102
O O5 0.783971 0.867998 0.614098
O O6 0.920079 0.911785 0.874772
O O7 0.749495 0.147260 0.687826
O O8 0.778220 0.602921 0.295997
O O9 0.873179 0.228662 0.898304
O O10 0.964176 0.350560 0.017651
O O11 0.500000 0.500000 0.500000
O O12 0.660179 0.464318 0.723508
O O13 0.644486 0.422566 0.347643
O O14 0.819432 0.012197 0.310855
O O15 0.000000 0.500000 0.000000
O O16 0.641333 0.497552 0.087838
O O17 0.475878 0.866114 0.469054
#
# Coordination Sequence:
#
# PCOD9055211 Si02
#       8
#     2   2   2   2   2   2   2   2
#     4  11  23  43  73 104 140 192 251 310 360 450
#     4  11  21  40  71  98 143 186 248 306 363 435
#     4  11  24  41  74 107 142 193 255 309 370 445
#     4  12  30  50  73 113 158 196 253 317 379 459
#     4  12  26  46  75 109 147 202 255 311 380 449
#     4  12  25  45  75 108 145 197 248 310 380 445
#     4  11  24  46  69 108 153 194 249 310 374 447
#     4  12  27  47  76 108 156 201 246 311 390 446
#
# _framework density 23.177101
#
# number of rings (size 3 to 8) (size 9 to 14) (size 15 to 20)
#    0.000    0.500    3.750    6.000    3.500    5.000 
#    0.000    1.250    0.000    0.000    0.000    0.000 
#    0.000    0.000    0.000    0.000    0.000    0.000 
#
# Total GULP energy -89168.609198 kJ/mol
# GULP energy per Si atom -5573.038075 kJ/mol
# Density = 2.312435 g / cm^3
# Si number density = 23.177101 Si / 1000 Ang^3
#
#
#
# Elastic Constant Matrix: (Units=GPa)
#
#
# Indices 1 2 3 4 5 6 
#
# 1 120.6771 20.9528 17.6760 1.4246 0.8186 7.0471
# 2 20.9528 99.2515 31.6722 -4.3747 -3.0461 9.6250
# 3 17.6760 31.6722 61.7657 -12.8696 -8.5313 -4.9326
# 4 1.4246 -4.3747 -12.8696 33.2402 6.1595 8.6882
# 5 0.8186 -3.0461 -8.5313 6.1595 36.0172 -12.8406
# 6 7.0471 9.6250 -4.9326 8.6882 -12.8406 35.5027
#
#
#
# Elastic Compliance Matrix: (Units=1/GPa)
#
#
# Indices 1 2 3 4 5 6 
#
# 1 0.008987 -0.000900 -0.002653 -0.000611 -0.001643 -0.002353
# 2 -0.000900 0.013002 -0.007018 0.000974 -0.002680 -0.005529
# 3 -0.002653 -0.007018 0.023048 0.005174 0.006426 0.006689
# 4 -0.000611 0.000974 0.005174 0.037044 -0.009230 -0.011827
# 5 -0.001643 -0.002680 0.006426 -0.009230 0.036937 0.017564
# 6 -0.002353 -0.005529 0.006689 -0.011827 0.017564 0.040309
#
#
# Mechanical properties :
#
#
# Convention : Reuss Voigt Hill
#
# Bulk Modulus (GPa) = 41.84915 46.92182 44.38549
# Shear Modulus (GPa) = 26.53446 35.04489 30.78968
#
# Velocity S-wave (km/s) = 3.38724 3.89272 3.64875
# Velocity P-wave (km/s) = 5.77870 6.36343 6.07810
#
# Compressibility (1/GPa) = 0.02389535
#
# Stress axis : x y z
#
# Youngs Moduli (GPa) = 111.26992 76.91192 43.38744
#
# Poissons Ratio (x) = 0.06921 0.11509
# Poissons Ratio (y) = 0.10013 0.30451
# Poissons Ratio (z) = 0.29516 0.53979
#
# Static dielectric constant tensor:
#      x y z
#    x 1.843420 -0.024450 -0.056680 
#    y -0.024450 2.008640 -0.062290 
#    z -0.056680 -0.062290 2.001580 
# 
# From -- ./inp_files/333793.got.cif
#   From: 2010.05.17/outbox.cif.g08.bks.cpg/sg2_167_cif.got.tgz:333793.got - 2010.06.03 11:33:40.
