data_PCOD9055649
_publ_section_title
;
Structure prediction by ZEFSAII (Michael W. Deem and Ramdas Pophale) SiO2 
 PCOD9055649
Probable space group: P -1
;
_chemical_formula_sum "Si O2"
_cell_formula_units_Z 14
_cell_length_a 7.656109
_cell_length_b 13.249527
_cell_length_c 12.100306
_cell_angle_alpha 139.705863
_cell_angle_beta 126.498285
_cell_angle_gamma 80.758933
_cell_volume 527.049866
_symmetry_space_group_name_H-M "P -1"
_symmetry_group_IT_number 2
_symmetry_cell_setting 'triclinic'
loop_
_space_group_symop_operation_xyz
x,y,z
-x,-y,-z
loop_
_atom_site_type_symbol
_atom_site_label
_atom_site_fract_x
_atom_site_fract_y
_atom_site_fract_z
Si Si1 0.912772 0.147939 0.002934
Si Si2 0.117645 0.887793 0.400704
Si Si3 0.755003 0.811605 0.013576
Si Si4 0.429728 0.734031 0.406783
Si Si5 0.185510 0.859827 0.782449
Si Si6 0.342402 0.506859 0.731144
Si Si7 0.372814 0.712363 0.113667
O O1 0.844840 0.287589 0.041452
O O2 0.697443 0.941052 0.699384
O O3 0.125821 0.875057 0.900696
O O4 0.198038 0.223141 0.122918
O O5 0.204482 0.763763 0.393671
O O6 0.391662 0.067381 0.611265
O O7 0.000000 0.000000 0.500000
O O8 0.926890 0.778414 0.134665
O O9 0.460227 0.686698 0.844244
O O10 0.884113 0.035081 0.246678
O O11 0.529992 0.600038 0.360245
O O12 0.327796 0.667340 0.187231
O O13 0.970164 0.638972 0.498531
O O14 0.500000 0.000000 0.000000
O O15 0.443836 0.594379 0.964419
#
# Coordination Sequence:
#
# PCOD9055649 Si02
#       7
#     2   2   2   2   2   2   2
#     4  11  23  48  76 102 147 205 247 305 373 436
#     4  11  21  42  74 110 152 198 232 299 383 439
#     4  12  24  47  75 108 151 194 246 311 368 444
#     4  11  23  45  73 110 155 193 246 300 372 459
#     4  12  29  51  74 103 148 200 259 309 372 440
#     4  12  27  46  76 115 146 197 255 303 374 445
#     4  11  21  43  74 108 156 191 245 305 365 450
#
# _framework density 26.562951000000002
#
# number of rings (size 3 to 8) (size 9 to 14) (size 15 to 20)
#    0.000    0.571    5.714    2.571    2.000    3.429 
#    2.571    0.000    0.000    0.000    0.000    0.000 
#    0.000    0.000    0.000    0.000    0.000    0.000 
#
# Total GULP energy -78060.759692 kJ/mol
# GULP energy per Si atom -5575.768549 kJ/mol
# Density = 2.650249 g / cm^3
# Si number density = 26.562951 Si / 1000 Ang^3
#
#
#
# Elastic Constant Matrix: (Units=GPa)
#
#
# Indices 1 2 3 4 5 6 
#
# 1 139.4654 24.7515 47.6575 9.4807 -9.4677 12.5327
# 2 24.7515 52.7065 22.7094 -9.1616 -11.1501 4.5427
# 3 47.6575 22.7094 151.2925 15.0833 7.0569 13.0019
# 4 9.4807 -9.1616 15.0833 28.5928 -4.7802 -2.1570
# 5 -9.4677 -11.1501 7.0569 -4.7802 41.7094 7.6164
# 6 12.5327 4.5427 13.0019 -2.1570 7.6164 41.8647
#
#
#
# Elastic Compliance Matrix: (Units=1/GPa)
#
#
# Indices 1 2 3 4 5 6 
#
# 1 0.008911 -0.003384 -0.001890 -0.002954 0.001489 -0.002136
# 2 -0.003384 0.026962 -0.004638 0.013613 0.009043 -0.001416
# 3 -0.001890 -0.004638 0.008804 -0.006210 -0.003628 -0.001325
# 4 -0.002954 0.013613 -0.006210 0.045222 0.008826 0.002060
# 5 0.001489 0.009043 -0.003628 0.008826 0.029302 -0.005176
# 6 -0.002136 -0.001416 -0.001325 0.002060 -0.005176 0.026139
#
#
# Mechanical properties :
#
#
# Convention : Reuss Voigt Hill
#
# Bulk Modulus (GPa) = 40.24062 59.30014 49.77038
# Shear Modulus (GPa) = 28.82701 38.98977 33.90839
#
# Velocity S-wave (km/s) = 3.29786 3.83538 3.57673
# Velocity P-wave (km/s) = 5.44823 6.47969 5.98622
#
# Compressibility (1/GPa) = 0.02485051
#
# Stress axis : x y z
#
# Youngs Moduli (GPa) = 112.22465 37.08905 113.59012
#
# Poissons Ratio (x) = 0.12552 0.21471
# Poissons Ratio (y) = 0.37981 0.52687
# Poissons Ratio (z) = 0.21213 0.17203
#
# Static dielectric constant tensor:
#      x y z
#    x 2.213140 -0.163970 -0.015620 
#    y -0.163970 2.219640 0.002720 
#    z -0.015620 0.002720 2.058030 
# 
# From -- ./inp_files/293400.got.cif
#   From: 2010.05.17/outbox.cif.g08.bks.cpg/sg2_147_cif.got.tgz:293400.got - 2010.06.03 11:33:40.
