data_PCOD9055942
_publ_section_title
;
Structure prediction by ZEFSAII (Michael W. Deem and Ramdas Pophale) SiO2 
 PCOD9055942
Probable space group: P -1
;
_chemical_formula_sum "Si O2"
_cell_formula_units_Z 12
_cell_length_a 7.916558
_cell_length_b 10.851668
_cell_length_c 13.369267
_cell_angle_alpha 50.983216
_cell_angle_beta 35.858834
_cell_angle_gamma 50.346766
_cell_volume 501.666410
_symmetry_space_group_name_H-M "P -1"
_symmetry_group_IT_number 2
_symmetry_cell_setting 'triclinic'
loop_
_space_group_symop_operation_xyz
x,y,z
-x,-y,-z
loop_
_atom_site_type_symbol
_atom_site_label
_atom_site_fract_x
_atom_site_fract_y
_atom_site_fract_z
Si Si1 0.934783 0.528225 0.135701
Si Si2 0.131107 0.091595 0.980378
Si Si3 0.609297 0.612252 0.516263
Si Si4 0.278811 0.873576 0.378350
Si Si5 0.869396 0.655467 0.670850
Si Si6 0.618250 0.142061 0.324563
O O1 0.955936 0.706236 0.071499
O O2 0.605539 0.508055 0.328080
O O3 0.128219 0.390759 0.189438
O O4 0.000000 0.500000 0.000000
O O5 0.492875 0.045577 0.828909
O O6 0.000000 0.000000 0.000000
O O7 0.966419 0.060068 0.176376
O O8 0.958776 0.518520 0.377440
O O9 0.490701 0.760539 0.418652
O O10 0.502265 0.701843 0.625642
O O11 0.095806 0.759885 0.473583
O O12 0.000000 0.000000 0.500000
O O13 0.453045 0.224026 0.261358
O O14 0.500000 0.000000 0.500000
#
# Coordination Sequence:
#
# PCOD9055942 Si02
#       6
#     2   2   2   2   2   2
#     4  11  22  45  73 107 140 183 248 294 353 434
#     4  12  24  44  72 102 149 188 235 304 360 420
#     4  11  21  44  72 103 144 187 239 300 351 430
#     4  11  22  44  72  99 140 193 237 288 367 423
#     4  11  23  44  75 102 142 192 237 298 358 421
#     4  12  27  45  69 110 151 188 240 296 361 428
#
# _framework density 23.920278
#
# number of rings (size 3 to 8) (size 9 to 14) (size 15 to 20)
#    0.000    0.667    5.000    4.500    0.000    0.667 
#    0.000    6.667    0.000    0.000    0.000    0.000 
#    0.000    0.000    0.000    0.000    0.000    0.000 
#
# Total GULP energy -66866.365713 kJ/mol
# GULP energy per Si atom -5572.197143 kJ/mol
# Density = 2.386583 g / cm^3
# Si number density = 23.920278 Si / 1000 Ang^3
#
#
#
# Elastic Constant Matrix: (Units=GPa)
#
#
# Indices 1 2 3 4 5 6 
#
# 1 65.3059 32.7397 31.2577 10.6675 5.0382 -3.2194
# 2 32.7397 128.0335 40.9786 7.3611 -7.3606 2.1661
# 3 31.2577 40.9786 172.7014 15.5185 -4.1876 -9.7492
# 4 10.6675 7.3611 15.5185 48.5592 2.8112 -8.9758
# 5 5.0382 -7.3606 -4.1876 2.8112 31.2646 6.3212
# 6 -3.2194 2.1661 -9.7492 -8.9758 6.3212 27.0647
#
#
#
# Elastic Compliance Matrix: (Units=1/GPa)
#
#
# Indices 1 2 3 4 5 6 
#
# 1 0.019451 -0.004435 -0.002260 -0.002191 -0.004736 0.002234
# 2 -0.004435 0.009721 -0.001517 -0.000752 0.003456 -0.002909
# 3 -0.002260 -0.001517 0.006778 -0.001153 0.000664 0.001757
# 4 -0.002191 -0.000752 -0.001153 0.023240 -0.003675 0.007950
# 5 -0.004736 0.003456 0.000664 -0.003675 0.036051 -0.010240
# 6 0.002234 -0.002909 0.001757 0.007950 -0.010240 0.043108
#
#
# Mechanical properties :
#
#
# Convention : Reuss Voigt Hill
#
# Bulk Modulus (GPa) = 51.21016 63.99920 57.60468
# Shear Modulus (GPa) = 31.00178 38.78203 34.89191
#
# Velocity S-wave (km/s) = 3.60397 4.03091 3.82340
# Velocity P-wave (km/s) = 6.22682 6.96259 6.60496
#
# Compressibility (1/GPa) = 0.01952738
#
# Stress axis : x y z
#
# Youngs Moduli (GPa) = 51.41155 102.86984 147.53183
#
# Poissons Ratio (x) = 0.45618 0.33343
# Poissons Ratio (y) = 0.22799 0.22377
# Poissons Ratio (z) = 0.11619 0.15603
#
# Static dielectric constant tensor:
#      x y z
#    x 2.049900 0.090000 0.045770 
#    y 0.090000 2.208570 0.018080 
#    z 0.045770 0.018080 2.016430 
# 
# From -- ./inp_files/417644.got.cif
#   From: 2010.05.17/outbox.cif.g08.bks.cpg/sg2_209_cif.got.tgz:417644.got - 2010.06.03 11:33:40.
