data_PCOD9055246
_publ_section_title
;
Structure prediction by ZEFSAII (Michael W. Deem and Ramdas Pophale) SiO2 
 PCOD9055246
Probable space group: P -1
;
_chemical_formula_sum "Si O2"
_cell_formula_units_Z 12
_cell_length_a 15.404962
_cell_length_b 8.313808
_cell_length_c 8.513061
_cell_angle_alpha 118.408823
_cell_angle_beta 42.138849
_cell_angle_gamma 117.404926
_cell_volume 632.659143
_symmetry_space_group_name_H-M "P -1"
_symmetry_group_IT_number 2
_symmetry_cell_setting 'triclinic'
loop_
_space_group_symop_operation_xyz
x,y,z
-x,-y,-z
loop_
_atom_site_type_symbol
_atom_site_label
_atom_site_fract_x
_atom_site_fract_y
_atom_site_fract_z
Si Si1 0.928970 0.826503 0.908756
Si Si2 0.643643 0.866060 0.192940
Si Si3 0.119775 0.530736 0.973031
Si Si4 0.911237 0.132452 0.596679
Si Si5 0.384382 0.982446 0.023509
Si Si6 0.388877 0.731618 0.619497
O O1 0.893986 0.649053 0.984119
O O2 0.022395 0.798884 0.624824
O O3 0.791656 0.852272 0.026522
O O4 0.000000 0.000000 0.000000
O O5 0.533529 0.717565 0.359483
O O6 0.636102 0.080658 0.350148
O O7 0.609292 0.864591 0.053007
O O8 0.103741 0.705701 0.185103
O O9 0.259623 0.575320 0.714412
O O10 0.000000 0.500000 0.000000
O O11 0.761193 0.033093 0.718691
O O12 0.000000 0.000000 0.500000
O O13 0.500000 0.000000 0.000000
O O14 0.395467 0.797960 0.822122
#
# Coordination Sequence:
#
# PCOD9055246 Si02
#       6
#     2   2   2   2   2   2
#     4  12  24  37  63  91 121 168 208 254 313 362
#     4   9  18  37  57  85 119 156 207 242 304 369
#     4  11  23  40  60  91 124 161 208 255 309 362
#     4  11  21  41  63  90 126 158 210 256 305 370
#     4   9  18  32  60  89 116 157 201 246 305 359
#     4   8  18  36  58  82 121 156 200 249 297 366
#
# _framework density 18.967559999999999
#
# number of rings (size 3 to 8) (size 9 to 14) (size 15 to 20)
#    1.000    1.000    1.667    2.500    2.333    2.000 
#    0.000    0.000    0.000    5.000    0.000    0.000 
#    0.000    0.000    0.000    0.000    0.000    0.000 
#
# Total GULP energy -66804.366711 kJ/mol
# GULP energy per Si atom -5567.030559 kJ/mol
# Density = 1.892439 g / cm^3
# Si number density = 18.967560 Si / 1000 Ang^3
#
#
#
# Elastic Constant Matrix: (Units=GPa)
#
#
# Indices 1 2 3 4 5 6 
#
# 1 149.2241 33.5569 45.5631 -21.8802 -24.3014 15.4066
# 2 33.5569 81.7610 34.4865 -27.5856 -9.9132 1.6583
# 3 45.5631 34.4865 113.1651 -46.7393 -19.3818 13.6968
# 4 -21.8802 -27.5856 -46.7393 43.8961 5.3499 -4.8043
# 5 -24.3014 -9.9132 -19.3818 5.3499 25.2515 -5.1328
# 6 15.4066 1.6583 13.6968 -4.8043 -5.1328 27.1728
#
#
#
# Elastic Compliance Matrix: (Units=1/GPa)
#
#
# Indices 1 2 3 4 5 6 
#
# 1 0.008969 -0.002105 -0.001259 0.000735 0.006064 -0.003047
# 2 -0.002105 0.016534 -0.000316 0.008928 0.002830 0.002457
# 3 -0.001259 -0.000316 0.018594 0.017513 0.008423 -0.003952
# 4 0.000735 0.008928 0.017513 0.046444 0.007793 -0.000105
# 5 0.006064 0.002830 0.008423 0.007793 0.052043 0.003352
# 6 -0.003047 0.002457 -0.003952 -0.000105 0.003352 0.040986
#
#
# Mechanical properties :
#
#
# Convention : Reuss Voigt Hill
#
# Bulk Modulus (GPa) = 27.22081 63.48480 45.35281
# Shear Modulus (GPa) = 24.60926 34.63366 29.62146
#
# Velocity S-wave (km/s) = 3.60591 4.27774 3.95611
# Velocity P-wave (km/s) = 5.63198 7.61194 6.69555
#
# Compressibility (1/GPa) = 0.03673660
#
# Stress axis : x y z
#
# Youngs Moduli (GPa) = 111.49637 60.48203 53.78123
#
# Poissons Ratio (x) = 0.12733 0.06770
# Poissons Ratio (y) = 0.23472 0.01700
# Poissons Ratio (z) = 0.14034 0.01912
#
# Static dielectric constant tensor:
#      x y z
#    x 1.648130 0.005180 -0.020380 
#    y 0.005180 1.671760 -0.010460 
#    z -0.020380 -0.010460 1.700050 
# 
# From -- ./inp_files/293145.got.cif
#   From: 2010.05.17/outbox.cif.g08.bks.cpg/sg2_147_cif.got.tgz:293145.got - 2010.06.03 11:33:40.
