data_PCOD9055059
_publ_section_title
;
Structure prediction by ZEFSAII (Michael W. Deem and Ramdas Pophale) SiO2 
 PCOD9055059
Probable space group: P -1
;
_chemical_formula_sum "Si O2"
_cell_formula_units_Z 14
_cell_length_a 8.846932
_cell_length_b 18.683780
_cell_length_c 5.178927
_cell_angle_alpha 75.582557
_cell_angle_beta 119.853606
_cell_angle_gamma 76.306625
_cell_volume 649.409608
_symmetry_space_group_name_H-M "P -1"
_symmetry_group_IT_number 2
_symmetry_cell_setting 'triclinic'
loop_
_space_group_symop_operation_xyz
x,y,z
-x,-y,-z
loop_
_atom_site_type_symbol
_atom_site_label
_atom_site_fract_x
_atom_site_fract_y
_atom_site_fract_z
Si Si1 0.110926 0.534675 0.863114
Si Si2 0.748791 0.625104 0.106447
Si Si3 0.956917 0.830885 0.107392
Si Si4 0.251879 0.238413 0.337471
Si Si5 0.856611 0.304146 0.228703
Si Si6 0.424186 0.765831 0.037817
Si Si7 0.958408 0.093127 0.413747
O O1 0.275896 0.453324 0.946876
O O2 0.191834 0.601101 0.934030
O O3 0.939999 0.586065 0.474362
O O4 0.000000 0.500000 0.000000
O O5 0.579520 0.699348 0.041029
O O6 0.794749 0.670267 0.870951
O O7 0.117686 0.741007 0.427717
O O8 0.919515 0.890991 0.266222
O O9 0.015511 0.870724 0.874485
O O10 0.776380 0.814210 0.871159
O O11 0.456860 0.210473 0.670213
O O12 0.074719 0.253391 0.360780
O O13 0.705245 0.282367 0.960984
O O14 0.260543 0.851573 0.723996
O O15 0.000000 0.000000 0.500000
#
# Coordination Sequence:
#
# PCOD9055059 Si02
#       7
#     2   2   2   2   2   2   2
#     4  11  21  40  64  97 142 191 240 296 351 404
#     4  11  23  38  68  98 141 188 238 299 349 406
#     4  11  22  45  75 101 141 190 228 282 367 421
#     4  12  21  44  69 103 141 188 242 284 354 428
#     4  11  23  43  71 100 143 196 234 290 355 424
#     4  11  25  41  71 106 134 190 236 295 357 429
#     4  11  26  48  76 110 145 180 232 298 360 429
#
# _framework density 21.558043999999999
#
# number of rings (size 3 to 8) (size 9 to 14) (size 15 to 20)
#    0.000    0.857    7.143    0.429    4.000    0.571 
#    0.000    4.286    0.000    0.000    0.000    0.000 
#    0.000    0.000    0.000    0.000    0.000    0.000 
#
# Total GULP energy -77945.755436 kJ/mol
# GULP energy per Si atom -5567.553960 kJ/mol
# Density = 2.150898 g / cm^3
# Si number density = 21.558044 Si / 1000 Ang^3
#
#
#
# Elastic Constant Matrix: (Units=GPa)
#
#
# Indices 1 2 3 4 5 6 
#
# 1 58.2220 42.2823 36.0384 2.6306 3.8165 9.3441
# 2 42.2823 209.5500 35.3004 -2.0074 16.9006 1.1206
# 3 36.0384 35.3004 49.4272 7.9407 4.5344 3.1723
# 4 2.6306 -2.0074 7.9407 45.7054 7.8009 5.3969
# 5 3.8165 16.9006 4.5344 7.8009 34.2374 4.5988
# 6 9.3441 1.1206 3.1723 5.3969 4.5988 28.6440
#
#
#
# Elastic Compliance Matrix: (Units=1/GPa)
#
#
# Indices 1 2 3 4 5 6 
#
# 1 0.035325 -0.003218 -0.023421 0.002783 0.001401 -0.009553
# 2 -0.003218 0.005972 -0.001924 0.001103 -0.002755 0.001264
# 3 -0.023421 -0.001924 0.039431 -0.005976 -0.000921 0.004622
# 4 0.002783 0.001103 -0.005976 0.024139 -0.005022 -0.004031
# 5 0.001401 -0.002755 -0.000921 -0.005022 0.032280 -0.004484
# 6 -0.009553 0.001264 0.004622 -0.004031 -0.004484 0.038946
#
#
# Mechanical properties :
#
#
# Convention : Reuss Voigt Hill
#
# Bulk Modulus (GPa) = 42.36997 60.49349 51.43173
# Shear Modulus (GPa) = 20.73961 35.28923 28.01442
#
# Velocity S-wave (km/s) = 3.10504 4.05030 3.60875
# Velocity P-wave (km/s) = 5.70540 7.07071 6.42443
#
# Compressibility (1/GPa) = 0.02360162
#
# Stress axis : x y z
#
# Youngs Moduli (GPa) = 28.30855 167.46057 25.36103
#
# Poissons Ratio (x) = 0.53882 0.59398
# Poissons Ratio (y) = 0.09109 0.04880
# Poissons Ratio (z) = 0.66301 0.32225
#
# Static dielectric constant tensor:
#      x y z
#    x 1.866100 -0.006740 -0.123250 
#    y -0.006740 1.831920 0.115880 
#    z -0.123250 0.115880 1.613810 
# 
# From -- ./inp_files/49595.got.cif
#   From: 2010.05.17/outbox.cif.g08.bks.cpg/sg2_25_cif.got.tgz:49595.got - 2010.06.03 11:33:40.
