data_PCOD9055524
_publ_section_title
;
Structure prediction by ZEFSAII (Michael W. Deem and Ramdas Pophale) SiO2 
 PCOD9055524
Probable space group: P -1
;
_chemical_formula_sum "Si O2"
_cell_formula_units_Z 14
_cell_length_a 9.488242
_cell_length_b 10.045576
_cell_length_c 12.074707
_cell_angle_alpha 112.204501
_cell_angle_beta 36.556432
_cell_angle_gamma 98.121146
_cell_volume 606.545751
_symmetry_space_group_name_H-M "P -1"
_symmetry_group_IT_number 2
_symmetry_cell_setting 'triclinic'
loop_
_space_group_symop_operation_xyz
x,y,z
-x,-y,-z
loop_
_atom_site_type_symbol
_atom_site_label
_atom_site_fract_x
_atom_site_fract_y
_atom_site_fract_z
Si Si1 0.750061 0.170754 0.597716
Si Si2 0.805511 0.208062 0.170011
Si Si3 0.564750 0.823948 0.880901
Si Si4 0.069339 0.826554 0.264843
Si Si5 0.030896 0.669367 0.671206
Si Si6 0.728033 0.665067 0.510619
Si Si7 0.327792 0.071598 0.736992
O O1 0.808678 0.193453 0.694952
O O2 0.813870 0.291826 0.516254
O O3 0.475862 0.164718 0.741296
O O4 0.924257 0.003443 0.401352
O O5 0.912379 0.244544 0.230579
O O6 0.548651 0.334528 0.346405
O O7 0.710348 0.062604 0.205172
O O8 0.042820 0.168809 0.926558
O O9 0.694150 0.784840 0.669162
O O10 0.749903 0.731666 0.827297
O O11 0.310107 0.782708 0.023098
O O12 0.500000 0.000000 0.000000
O O13 0.881616 0.727161 0.342720
O O14 0.114931 0.495011 0.593244
O O15 0.500000 0.000000 0.500000
#
# Coordination Sequence:
#
# PCOD9055524 Si02
#       7
#     2   2   2   2   2   2   2
#     4  11  21  42  68  98 132 176 226 288 330 403
#     4  11  26  42  71  98 139 186 228 277 350 404
#     4  12  25  43  75 101 135 182 238 282 342 405
#     4  11  23  41  70  98 133 177 230 280 339 404
#     4  12  25  47  69 101 145 183 225 288 345 407
#     4  12  27  46  67 104 146 179 226 288 345 408
#     4  11  23  40  70 100 130 173 239 286 327 401
#
# _framework density 23.081523000000001
#
# number of rings (size 3 to 8) (size 9 to 14) (size 15 to 20)
#    0.000    0.571    5.714    2.571    6.000    0.571 
#    2.571    0.714    0.000    0.000    0.000    0.000 
#    0.000    0.000    0.000    0.000    0.000    0.000 
#
# Total GULP energy -78363.683773 kJ/mol
# GULP energy per Si atom -5597.405984 kJ/mol
# Density = 2.302899 g / cm^3
# Si number density = 23.081523 Si / 1000 Ang^3
#
#
#
# Elastic Constant Matrix: (Units=GPa)
#
#
# Indices 1 2 3 4 5 6 
#
# 1 100.2704 -10.7072 32.9760 1.6502 -37.2762 -5.3592
# 2 -10.7072 85.3045 35.7613 -1.1039 -19.3197 -6.2636
# 3 32.9760 35.7613 115.4237 -23.6001 -43.2684 1.4320
# 4 1.6502 -1.1039 -23.6001 37.9393 0.6784 -10.7201
# 5 -37.2762 -19.3197 -43.2684 0.6784 50.8124 4.0277
# 6 -5.3592 -6.2636 1.4320 -10.7201 4.0277 27.5979
#
#
#
# Elastic Compliance Matrix: (Units=1/GPa)
#
#
# Indices 1 2 3 4 5 6 
#
# 1 0.015817 0.005717 -0.002228 -0.001498 0.011727 0.002191
# 2 0.005717 0.016025 -0.004799 -0.001919 0.005958 0.003381
# 3 -0.002228 -0.004799 0.016963 0.010322 0.010846 0.000025
# 4 -0.001498 -0.001919 0.010322 0.036062 0.005533 0.011939
# 5 0.011727 0.005958 0.010846 0.005533 0.039756 -0.000586
# 6 0.002191 0.003381 0.000025 0.011939 -0.000586 0.042149
#
#
# Mechanical properties :
#
#
# Convention : Reuss Voigt Hill
#
# Bulk Modulus (GPa) = 21.65213 46.33985 33.99599
# Shear Modulus (GPa) = 27.05802 39.46784 33.26293
#
# Velocity S-wave (km/s) = 3.42757 4.13962 3.80031
# Velocity P-wave (km/s) = 5.00654 6.55506 5.83242
#
# Compressibility (1/GPa) = 0.04618484
#
# Stress axis : x y z
#
# Youngs Moduli (GPa) = 63.22202 62.40319 58.95200
#
# Poissons Ratio (x) = -0.35673 0.13132
# Poissons Ratio (y) = -0.36141 0.28291
# Poissons Ratio (z) = 0.14083 0.29948
#
# Static dielectric constant tensor:
#      x y z
#    x 1.905180 -0.000500 -0.030320 
#    y -0.000500 1.813270 -0.017880 
#    z -0.030320 -0.017880 1.903410 
# 
# From -- ./inp_files/390591.got.cif
#   From: 2010.05.17/outbox.cif.g08.bks.cpg/sg2_196_cif.got.tgz:390591.got - 2010.06.03 11:33:40.
