data_PCOD9055378
_publ_section_title
;
Structure prediction by ZEFSAII (Michael W. Deem and Ramdas Pophale) SiO2 
 PCOD9055378
Probable space group: P -1
;
_chemical_formula_sum "Si O2"
_cell_formula_units_Z 10
_cell_length_a 5.823144
_cell_length_b 11.128033
_cell_length_c 14.930023
_cell_angle_alpha 148.482960
_cell_angle_beta 121.458281
_cell_angle_gamma 62.256349
_cell_volume 430.949751
_symmetry_space_group_name_H-M "P -1"
_symmetry_group_IT_number 2
_symmetry_cell_setting 'triclinic'
loop_
_space_group_symop_operation_xyz
x,y,z
-x,-y,-z
loop_
_atom_site_type_symbol
_atom_site_label
_atom_site_fract_x
_atom_site_fract_y
_atom_site_fract_z
Si Si1 0.817014 0.565437 0.593094
Si Si2 0.420151 0.133091 0.657549
Si Si3 0.986517 0.474145 0.764403
Si Si4 0.671742 0.074332 0.855107
Si Si5 0.280049 0.437265 0.067539
O O1 0.500000 0.500000 0.500000
O O2 0.000000 0.500000 0.500000
O O3 0.958863 0.461913 0.645039
O O4 0.803943 0.842833 0.774217
O O5 0.534085 0.386491 0.831113
O O6 0.565277 0.018364 0.698825
O O7 0.114218 0.227798 0.667029
O O8 0.500000 0.000000 0.500000
O O9 0.722613 0.505510 0.791741
O O10 0.129256 0.714025 0.969321
O O11 0.402614 0.180902 0.916231
O O12 0.000000 0.500000 0.000000
#
# Coordination Sequence:
#
# PCOD9055378 Si02
#       5
#     2   2   2   2   2
#     4  12  31  50  70 105 145 186 240 295 354 414
#     4  11  23  39  67 103 140 175 232 293 353 410
#     4  11  24  45  71  97 140 186 234 287 350 426
#     4  11  24  44  70 100 140 187 233 290 349 426
#     4  11  21  41  70 104 134 179 238 285 349 426
#
# _framework density 23.204561999999999
#
# number of rings (size 3 to 8) (size 9 to 14) (size 15 to 20)
#    0.000    0.800    4.000    3.000   11.200    3.200 
#    0.000    0.000    0.000    0.000    0.000    0.000 
#    0.000    0.000    0.000    0.000    0.000    0.000 
#
# Total GULP energy -55767.380890 kJ/mol
# GULP energy per Si atom -5576.738089 kJ/mol
# Density = 2.315175 g / cm^3
# Si number density = 23.204562 Si / 1000 Ang^3
#
#
#
# Elastic Constant Matrix: (Units=GPa)
#
#
# Indices 1 2 3 4 5 6 
#
# 1 81.5031 1.8788 30.4708 1.0987 -26.6606 6.0571
# 2 1.8788 42.4511 0.2901 -3.0062 5.8436 6.2296
# 3 30.4708 0.2901 74.9214 1.3372 -10.7294 -4.2868
# 4 1.0987 -3.0062 1.3372 50.6636 17.1540 -15.7564
# 5 -26.6606 5.8436 -10.7294 17.1540 42.0616 0.6484
# 6 6.0571 6.2296 -4.2868 -15.7564 0.6484 29.8019
#
#
#
# Elastic Compliance Matrix: (Units=1/GPa)
#
#
# Indices 1 2 3 4 5 6 
#
# 1 0.020618 -0.002185 -0.006574 -0.008562 0.015334 -0.009540
# 2 -0.002185 0.025146 -0.000296 0.002490 -0.005917 -0.003410
# 3 -0.006574 -0.000296 0.016168 0.001267 -0.000586 0.004406
# 4 -0.008562 0.002490 0.001267 0.032325 -0.018924 0.018904
# 5 0.015334 -0.005917 -0.000586 -0.018924 0.042083 -0.012885
# 6 -0.009540 -0.003410 0.004406 0.018904 -0.012885 0.047115
#
#
# Mechanical properties :
#
#
# Convention : Reuss Voigt Hill
#
# Bulk Modulus (GPa) = 22.81897 29.35053 26.08475
# Shear Modulus (GPa) = 23.12976 35.58780 29.35878
#
# Velocity S-wave (km/s) = 3.16060 3.92044 3.56085
# Velocity P-wave (km/s) = 4.81398 5.75927 5.30771
#
# Compressibility (1/GPa) = 0.04382318
#
# Stress axis : x y z
#
# Youngs Moduli (GPa) = 48.50133 39.76709 61.85197
#
# Poissons Ratio (x) = 0.08688 0.40661
# Poissons Ratio (y) = 0.10597 0.01829
# Poissons Ratio (z) = 0.31885 0.01176
#
# Static dielectric constant tensor:
#      x y z
#    x 1.661250 0.354280 -0.000440 
#    y 0.354280 1.337000 -0.002840 
#    z -0.000440 -0.002840 1.888340 
# 
# From -- ./inp_files/119512.got.cif
#   From: 2010.05.17/outbox.cif.g08.bks.cpg/sg2_60_cif.got.tgz:119512.got - 2010.06.03 11:33:40.
