data_PCOD9055418
_publ_section_title
;
Structure prediction by ZEFSAII (Michael W. Deem and Ramdas Pophale) SiO2 
 PCOD9055418
Probable space group: P -1
;
_chemical_formula_sum "Si O2"
_cell_formula_units_Z 16
_cell_length_a 17.731818
_cell_length_b 12.931704
_cell_length_c 9.852008
_cell_angle_alpha 43.105266
_cell_angle_beta 106.555359
_cell_angle_gamma 140.410293
_cell_volume 757.830406
_symmetry_space_group_name_H-M "P -1"
_symmetry_group_IT_number 2
_symmetry_cell_setting 'triclinic'
loop_
_space_group_symop_operation_xyz
x,y,z
-x,-y,-z
loop_
_atom_site_type_symbol
_atom_site_label
_atom_site_fract_x
_atom_site_fract_y
_atom_site_fract_z
Si Si1 0.249814 0.722201 0.318378
Si Si2 0.501898 0.325053 0.201077
Si Si3 0.511959 0.356599 0.713488
Si Si4 0.153247 0.641008 0.633143
Si Si5 0.006475 0.338161 0.344418
Si Si6 0.739559 0.677538 0.761953
Si Si7 0.468209 0.800364 0.396281
Si Si8 0.183204 0.521164 0.017470
O O1 0.146111 0.599713 0.510004
O O2 0.356605 0.759858 0.384777
O O3 0.138750 0.488752 0.363641
O O4 0.360509 0.040233 0.015639
O O5 0.557529 0.367263 0.338618
O O6 0.327598 0.984549 0.418791
O O7 0.500000 0.500000 0.000000
O O8 0.612051 0.427991 0.049251
O O9 0.500000 0.500000 0.500000
O O10 0.647100 0.586407 0.672984
O O11 0.544221 0.292324 0.670108
O O12 0.038675 0.577413 0.693304
O O13 0.139768 0.474344 0.883522
O O14 0.078311 0.454991 0.119555
O O15 0.853906 0.986527 0.590358
O O16 0.828764 0.674477 0.767930
O O17 0.641704 0.143947 0.181053
#
# Coordination Sequence:
#
# PCOD9055418 Si02
#       8
#     2   2   2   2   2   2   2   2
#     4  12  24  47  67 100 136 176 229 271 334 401
#     4  11  21  41  71  99 132 170 225 281 327 386
#     4  12  25  40  70 103 133 171 224 277 329 392
#     4  11  24  42  70  96 131 180 225 270 337 394
#     4  12  26  42  67  95 146 178 210 279 338 398
#     4  12  24  44  68 101 134 173 228 275 332 396
#     4  11  23  43  73 100 132 176 223 284 331 385
#     4  11  23  43  69 100 131 177 225 272 335 399
#
# _framework density 21.112901999999998
#
# number of rings (size 3 to 8) (size 9 to 14) (size 15 to 20)
#    0.000    0.500    5.000    3.750    1.750    3.000 
#    0.000    3.750    0.000    0.000    0.000    0.000 
#    0.000    0.000    0.000    0.000    0.000    0.000 
#
# Total GULP energy -89474.227594 kJ/mol
# GULP energy per Si atom -5592.139225 kJ/mol
# Density = 2.106485 g / cm^3
# Si number density = 21.112902 Si / 1000 Ang^3
#
#
#
# Elastic Constant Matrix: (Units=GPa)
#
#
# Indices 1 2 3 4 5 6 
#
# 1 98.3553 2.7095 35.2233 11.0395 -5.8284 -1.5336
# 2 2.7095 70.2098 36.2724 14.4425 2.5030 4.6048
# 3 35.2233 36.2724 65.2943 25.9220 -1.7839 14.6738
# 4 11.0395 14.4425 25.9220 35.0163 -4.0473 -4.4817
# 5 -5.8284 2.5030 -1.7839 -4.0473 28.7463 6.9521
# 6 -1.5336 4.6048 14.6738 -4.4817 6.9521 30.8361
#
#
#
# Elastic Compliance Matrix: (Units=1/GPa)
#
#
# Indices 1 2 3 4 5 6 
#
# 1 0.014886 0.005509 -0.014749 0.004977 0.000499 0.007547
# 2 0.005509 0.022531 -0.018292 0.003009 -0.003194 0.006771
# 3 -0.014749 -0.018292 0.051096 -0.028640 0.004384 -0.027467
# 4 0.004977 0.003009 -0.028640 0.049681 0.001027 0.020416
# 5 0.000499 -0.003194 0.004384 0.001027 0.038002 -0.010003
# 6 0.007547 0.006771 -0.027467 0.020416 -0.010003 0.050087
#
#
# Mechanical properties :
#
#
# Convention : Reuss Voigt Hill
#
# Bulk Modulus (GPa) = 29.89582 42.47442 36.18512
# Shear Modulus (GPa) = 17.09424 29.56336 23.32880
#
# Velocity S-wave (km/s) = 2.84854 3.74605 3.32769
# Velocity P-wave (km/s) = 5.00096 6.23474 5.65162
#
# Compressibility (1/GPa) = 0.03344949
#
# Stress axis : x y z
#
# Youngs Moduli (GPa) = 67.17764 44.38266 19.57119
#
# Poissons Ratio (x) = -0.24449 0.28865
# Poissons Ratio (y) = -0.37005 0.35799
# Poissons Ratio (z) = 0.99077 0.81183
#
# Static dielectric constant tensor:
#      x y z
#    x 1.774550 -0.004260 -0.013370 
#    y -0.004260 1.735000 0.021430 
#    z -0.013370 0.021430 1.773500 
# 
# From -- ./inp_files/185060.got.cif
#   From: 2010.05.17/outbox.cif.g08.bks.cpg/sg2_93_cif.got.tgz:185060.got - 2010.06.03 11:33:40.
