data_PCOD9055005
_publ_section_title
;
Structure prediction by ZEFSAII (Michael W. Deem and Ramdas Pophale) SiO2 
 PCOD9055005
Probable space group: P -1
;
_chemical_formula_sum "Si O2"
_cell_formula_units_Z 16
_cell_length_a 14.328954
_cell_length_b 5.544600
_cell_length_c 17.612264
_cell_angle_alpha 103.842353
_cell_angle_beta 148.142371
_cell_angle_gamma 73.055821
_cell_volume 706.390348
_symmetry_space_group_name_H-M "P -1"
_symmetry_group_IT_number 2
_symmetry_cell_setting 'triclinic'
loop_
_space_group_symop_operation_xyz
x,y,z
-x,-y,-z
loop_
_atom_site_type_symbol
_atom_site_label
_atom_site_fract_x
_atom_site_fract_y
_atom_site_fract_z
Si Si1 0.154059 0.085413 0.206942
Si Si2 0.560358 0.271232 0.085570
Si Si3 0.725809 0.110727 0.468962
Si Si4 0.309713 0.508381 0.414073
Si Si5 0.451896 0.391566 0.188717
Si Si6 0.887065 0.758914 0.978051
Si Si7 0.467786 0.828156 0.341529
Si Si8 0.968435 0.221788 0.429071
O O1 0.173591 0.360885 0.265743
O O2 0.166533 0.086620 0.124214
O O3 0.339361 0.897119 0.330558
O O4 0.000584 0.938672 0.114240
O O5 0.464954 0.368264 0.106294
O O6 0.774358 0.234922 0.253801
O O7 0.500000 0.500000 0.000000
O O8 0.500000 0.000000 0.000000
O O9 0.796989 0.243745 0.600837
O O10 0.642202 0.256467 0.346343
O O11 0.541988 0.061235 0.376561
O O12 0.869908 0.876960 0.525003
O O13 0.500000 0.500000 0.500000
O O14 0.366201 0.346813 0.516789
O O15 0.280881 0.282924 0.092855
O O16 0.417650 0.666070 0.224259
O O17 0.000000 0.500000 0.000000
O O18 0.000000 0.500000 0.500000
O O19 0.000000 0.000000 0.500000
#
# Coordination Sequence:
#
# PCOD9055005 Si02
#       8
#     2   2   2   2   2   2   2   2
#     4  11  22  38  61  96 145 191 240 297 361 445
#     4  12  29  54  80 117 162 198 256 342 421 467
#     4  11  24  42  76 107 135 194 257 305 380 462
#     4  11  23  39  63 102 146 185 235 311 372 437
#     4  11  23  45  74 101 144 196 253 311 384 470
#     4  11  23  40  62  97 139 197 250 287 357 470
#     4  11  21  39  70  98 130 190 249 294 371 447
#     4  12  26  52  86 115 149 200 267 331 385 480
#
# _framework density 22.650366000000002
#
# number of rings (size 3 to 8) (size 9 to 14) (size 15 to 20)
#    0.000    0.750    5.000    2.625    3.500    0.000 
#    4.500    0.000    0.000    0.000    0.000    0.000 
#    0.000    0.000    0.000    0.000    0.000    0.000 
#
# Total GULP energy -89097.683887 kJ/mol
# GULP energy per Si atom -5568.605243 kJ/mol
# Density = 2.259881 g / cm^3
# Si number density = 22.650366 Si / 1000 Ang^3
#
#
#
# Elastic Constant Matrix: (Units=GPa)
#
#
# Indices 1 2 3 4 5 6 
#
# 1 109.1090 43.7529 50.5238 4.6598 -14.4993 -17.7840
# 2 43.7529 129.9111 63.5877 23.3669 -8.3779 -23.0281
# 3 50.5238 63.5877 127.1416 23.7344 -1.9065 -3.4645
# 4 4.6598 23.3669 23.7344 50.5959 0.4556 -9.6361
# 5 -14.4993 -8.3779 -1.9065 0.4556 40.2020 -8.6479
# 6 -17.7840 -23.0281 -3.4645 -9.6361 -8.6479 44.0963
#
#
#
# Elastic Compliance Matrix: (Units=1/GPa)
#
#
# Indices 1 2 3 4 5 6 
#
# 1 0.013658 -0.001104 -0.005142 0.002807 0.005770 0.006273
# 2 -0.001104 0.012105 -0.005026 -0.002086 0.003123 0.005638
# 3 -0.005142 -0.005026 0.013029 -0.004291 -0.003370 -0.005273
# 4 0.002807 -0.002086 -0.004291 0.023435 0.001197 0.005062
# 5 0.005770 0.003123 -0.003370 0.001197 0.029529 0.009745
# 6 0.006273 0.005638 -0.005273 0.005062 0.009745 0.030755
#
#
# Mechanical properties :
#
#
# Convention : Reuss Voigt Hill
#
# Bulk Modulus (GPa) = 61.54184 75.76563 68.65374
# Shear Modulus (GPa) = 33.22906 40.86532 37.04719
#
# Velocity S-wave (km/s) = 3.83435 4.25217 4.04866
# Velocity P-wave (km/s) = 6.84342 7.59148 7.22714
#
# Compressibility (1/GPa) = 0.01624911
#
# Stress axis : x y z
#
# Youngs Moduli (GPa) = 73.21703 82.60848 76.75270
#
# Poissons Ratio (x) = 0.09120 0.39465
# Poissons Ratio (y) = 0.08083 0.38574
# Poissons Ratio (z) = 0.37647 0.41517
#
# Static dielectric constant tensor:
#      x y z
#    x 1.811050 0.001980 0.054580 
#    y 0.001980 2.085850 -0.118670 
#    z 0.054580 -0.118670 2.262040 
# 
# From -- ./inp_files/571767.got.cif
#   From: 2010.05.17/outbox.cif.g08.bks.cpg/sg2_286_cif.got.tgz:571767.got - 2010.06.03 11:33:40.
