data_PCOD9055521
_publ_section_title
;
Structure prediction by ZEFSAII (Michael W. Deem and Ramdas Pophale) SiO2 
 PCOD9055521
Probable space group: P -1
;
_chemical_formula_sum "Si O2"
_cell_formula_units_Z 16
_cell_length_a 28.837886
_cell_length_b 27.869543
_cell_length_c 9.302138
_cell_angle_alpha 146.129687
_cell_angle_beta 145.408343
_cell_angle_gamma 10.087057
_cell_volume 728.479705
_symmetry_space_group_name_H-M "P -1"
_symmetry_group_IT_number 2
_symmetry_cell_setting 'triclinic'
loop_
_space_group_symop_operation_xyz
x,y,z
-x,-y,-z
loop_
_atom_site_type_symbol
_atom_site_label
_atom_site_fract_x
_atom_site_fract_y
_atom_site_fract_z
Si Si1 0.743059 0.701334 0.318733
Si Si2 0.741803 0.701575 0.819179
Si Si3 0.784756 0.540743 0.278560
Si Si4 0.032006 0.016660 0.471239
Si Si5 0.301766 0.375369 0.237123
Si Si6 0.775036 0.987021 0.324187
Si Si7 0.537267 0.414378 0.730155
Si Si8 0.272962 0.963820 0.004372
O O1 0.758864 0.597414 0.189973
O O2 0.000000 0.500000 0.500000
O O3 0.500000 0.000000 0.500000
O O4 0.733315 0.678601 0.074731
O O5 0.721048 0.690324 0.575865
O O6 0.741000 0.611794 0.678516
O O7 0.000000 0.500000 0.000000
O O8 0.500000 0.000000 0.000000
O O9 0.083390 0.209313 0.233693
O O10 0.574739 0.675424 0.103050
O O11 0.746762 0.310132 0.391779
O O12 0.155837 0.985700 0.750523
O O13 0.000000 0.000000 0.500000
O O14 0.248305 0.761457 0.274289
O O15 0.587839 0.123370 0.295226
O O16 0.077807 0.668565 0.350106
O O17 0.666806 0.192468 0.549868
O O18 0.746506 0.982926 0.077303
O O19 0.500000 0.500000 0.000000
#
# Coordination Sequence:
#
# PCOD9055521 Si02
#       8
#     2   2   2   2   2   2   2   2
#     4  12  22  36  60  94 118 156 218 272 314 388
#     4  12  26  46  62  88 136 176 214 276 350 400
#     4  12  23  41  65  93 126 170 220 266 336 395
#     4  11  24  45  73 105 144 183 227 280 346 414
#     4  12  23  41  65  93 126 170 220 266 336 395
#     4  11  21  42  68  96 131 169 217 274 330 386
#     4  11  24  45  73 105 144 183 227 280 346 414
#     4  11  21  42  68  96 131 169 217 274 330 386
#
# _framework density 21.963550000000001
#
# number of rings (size 3 to 8) (size 9 to 14) (size 15 to 20)
#    0.000    0.500    2.500    8.250    0.000    0.000 
#    6.750    0.000    0.000    0.000    0.000    0.000 
#    0.000    0.000    0.000    0.000    0.000    0.000 
#
# Total GULP energy -89428.370154 kJ/mol
# GULP energy per Si atom -5589.273135 kJ/mol
# Density = 2.191356 g / cm^3
# Si number density = 21.963550 Si / 1000 Ang^3
#
#
#
# Elastic Constant Matrix: (Units=GPa)
#
#
# Indices 1 2 3 4 5 6 
#
# 1 96.9196 29.6180 12.8925 -6.2485 1.6248 -16.9768
# 2 29.6180 142.0982 42.7422 14.2497 0.1035 -24.4180
# 3 12.8925 42.7422 84.2345 15.2032 -6.4918 -4.9284
# 4 -6.2485 14.2497 15.2032 36.3940 -7.6145 2.7552
# 5 1.6248 0.1035 -6.4918 -7.6145 24.9224 -2.3236
# 6 -16.9768 -24.4180 -4.9284 2.7552 -2.3236 35.5011
#
#
#
# Elastic Compliance Matrix: (Units=1/GPa)
#
#
# Indices 1 2 3 4 5 6 
#
# 1 0.011913 -0.001695 -0.001239 0.002954 0.000196 0.004143
# 2 -0.001695 0.009861 -0.003945 -0.003224 -0.001423 0.005581
# 3 -0.001239 -0.003945 0.015005 -0.004335 0.002615 -0.000716
# 4 0.002954 -0.003224 -0.004335 0.033091 0.008483 -0.003420
# 5 0.000196 -0.001423 0.002615 0.008483 0.043546 0.001670
# 6 0.004143 0.005581 -0.000716 -0.003420 0.001670 0.034263
#
#
# Mechanical properties :
#
#
# Convention : Reuss Voigt Hill
#
# Bulk Modulus (GPa) = 43.43885 54.86198 49.15041
# Shear Modulus (GPa) = 29.56609 35.23016 32.39812
#
# Velocity S-wave (km/s) = 3.67296 4.00938 3.84485
# Velocity P-wave (km/s) = 6.14884 6.81662 6.49132
#
# Compressibility (1/GPa) = 0.02302087
#
# Stress axis : x y z
#
# Youngs Moduli (GPa) = 83.93878 101.41147 66.64329
#
# Poissons Ratio (x) = 0.17189 0.08257
# Poissons Ratio (y) = 0.14227 0.26293
# Poissons Ratio (z) = 0.10400 0.40011
#
# Static dielectric constant tensor:
#      x y z
#    x 1.776290 0.008690 0.014470 
#    y 0.008690 1.789760 0.012820 
#    z 0.014470 0.012820 1.768420 
# 
# From -- ./inp_files/358029.got.cif
#   From: 2010.05.17/outbox.cif.g08.bks.cpg/sg2_180_cif.got.tgz:358029.got - 2010.06.03 11:33:40.
