data_PCOD9055545
_publ_section_title
;
Structure prediction by ZEFSAII (Michael W. Deem and Ramdas Pophale) SiO2 
 PCOD9055545
Probable space group: P -1
;
_chemical_formula_sum "Si O2"
_cell_formula_units_Z 16
_cell_length_a 8.508916
_cell_length_b 15.547515
_cell_length_c 11.104886
_cell_angle_alpha 27.055830
_cell_angle_beta 76.172443
_cell_angle_gamma 78.783109
_cell_volume 648.305315
_symmetry_space_group_name_H-M "P -1"
_symmetry_group_IT_number 2
_symmetry_cell_setting 'triclinic'
loop_
_space_group_symop_operation_xyz
x,y,z
-x,-y,-z
loop_
_atom_site_type_symbol
_atom_site_label
_atom_site_fract_x
_atom_site_fract_y
_atom_site_fract_z
Si Si1 0.086498 0.743756 0.410720
Si Si2 0.693518 0.514334 0.448918
Si Si3 0.536655 0.858570 0.396907
Si Si4 0.796959 0.345362 0.268282
Si Si5 0.618790 0.729766 0.809804
Si Si6 0.156438 0.909592 0.636982
Si Si7 0.796580 0.825422 0.191302
Si Si8 0.678686 0.239016 0.002303
O O1 0.218881 0.593251 0.538070
O O2 0.056718 0.698516 0.613372
O O3 0.843805 0.043918 0.888224
O O4 0.935236 0.733715 0.361178
O O5 0.500000 0.500000 0.500000
O O6 0.761914 0.724834 0.196159
O O7 0.737767 0.403709 0.699760
O O8 0.351015 0.798874 0.484860
O O9 0.585079 0.755558 0.641602
O O10 0.637313 0.804707 0.329071
O O11 0.585682 0.077212 0.141990
O O12 0.826657 0.277343 0.212735
O O13 0.733928 0.555843 0.023741
O O14 0.699336 0.927427 0.598697
O O15 0.451131 0.697893 0.953302
O O16 0.169686 0.849384 0.848207
O O17 0.000000 0.000000 0.500000
#
# Coordination Sequence:
#
# PCOD9055545 Si02
#       8
#     2   2   2   2   2   2   2   2
#     4  11  27  46  64 102 137 179 225 275 336 399
#     4  12  26  44  73 101 132 176 234 279 335 396
#     4  11  21  42  69  96 132 174 221 276 333 395
#     4  12  25  41  72  97 135 176 224 273 331 403
#     4  11  23  43  66 100 133 170 224 271 333 396
#     4  11  26  42  64 100 137 179 214 273 335 399
#     4  11  26  45  70  94 137 182 221 280 339 395
#     4  11  22  44  69  98 137 172 221 281 335 392
#
# _framework density 24.679728999999998
#
# number of rings (size 3 to 8) (size 9 to 14) (size 15 to 20)
#    0.000    0.750    3.750    3.750    7.000    3.500 
#    0.000    0.000    0.000    0.000    0.000    0.000 
#    0.000    0.000    0.000    0.000    0.000    0.000 
#
# Total GULP energy -89639.705634 kJ/mol
# GULP energy per Si atom -5602.481602 kJ/mol
# Density = 2.462356 g / cm^3
# Si number density = 24.679729 Si / 1000 Ang^3
#
#
#
# Elastic Constant Matrix: (Units=GPa)
#
#
# Indices 1 2 3 4 5 6 
#
# 1 68.5077 2.0361 2.4493 -2.2992 7.9711 22.5046
# 2 2.0361 65.6857 24.1115 -20.4350 -2.5423 24.1233
# 3 2.4493 24.1115 61.5096 -5.1461 5.8762 14.1780
# 4 -2.2992 -20.4350 -5.1461 39.9260 5.8270 -0.0889
# 5 7.9711 -2.5423 5.8762 5.8270 35.7553 1.4336
# 6 22.5046 24.1233 14.1780 -0.0889 1.4336 33.1891
#
#
#
# Elastic Compliance Matrix: (Units=1/GPa)
#
#
# Indices 1 2 3 4 5 6 
#
# 1 0.022215 0.008481 0.001818 0.006512 -0.004836 -0.021778
# 2 0.008481 0.031509 -0.005251 0.015928 -0.000326 -0.026353
# 3 0.001818 -0.005251 0.019999 0.000554 -0.003924 -0.005788
# 4 0.006512 0.015928 0.000554 0.034394 -0.005378 -0.015905
# 5 -0.004836 -0.000326 -0.003924 -0.005378 0.030389 0.003866
# 6 -0.021778 -0.026353 -0.005788 -0.015905 0.003866 0.066315
#
#
# Mechanical properties :
#
#
# Convention : Reuss Voigt Hill
#
# Bulk Modulus (GPa) = 11.93065 28.09964 20.01515
# Shear Modulus (GPa) = 22.45505 32.91447 27.68476
#
# Velocity S-wave (km/s) = 3.01966 3.65590 3.35290
# Velocity P-wave (km/s) = 4.12340 5.40659 4.80800
#
# Compressibility (1/GPa) = 0.08381774
#
# Stress axis : x y z
#
# Youngs Moduli (GPa) = 45.01453 31.73647 50.00241
#
# Poissons Ratio (x) = -0.26915 -0.09088
# Poissons Ratio (y) = -0.38175 0.26257
# Poissons Ratio (z) = -0.08182 0.16665
#
# Static dielectric constant tensor:
#      x y z
#    x 1.963700 0.020410 0.001660 
#    y 0.020410 1.979320 -0.046820 
#    z 0.001660 -0.046820 1.950430 
# 
# From -- ./inp_files/398154.got.cif
#   From: 2010.05.17/outbox.cif.g08.bks.cpg/sg2_200_cif.got.tgz:398154.got - 2010.06.03 11:33:40.
