data_PCOD9055834
_publ_section_title
;
Structure prediction by ZEFSAII (Michael W. Deem and Ramdas Pophale) SiO2 
 PCOD9055834
Probable space group: P -1
;
_chemical_formula_sum "Si O2"
_cell_formula_units_Z 14
_cell_length_a 12.016033
_cell_length_b 11.948300
_cell_length_c 14.591273
_cell_angle_alpha 43.001205
_cell_angle_beta 29.795784
_cell_angle_gamma 52.328971
_cell_volume 708.242488
_symmetry_space_group_name_H-M "P -1"
_symmetry_group_IT_number 2
_symmetry_cell_setting 'triclinic'
loop_
_space_group_symop_operation_xyz
x,y,z
-x,-y,-z
loop_
_atom_site_type_symbol
_atom_site_label
_atom_site_fract_x
_atom_site_fract_y
_atom_site_fract_z
Si Si1 0.185852 0.042842 0.134829
Si Si2 0.365354 0.404041 0.787294
Si Si3 0.380413 0.515364 0.252869
Si Si4 0.220778 0.661836 0.603662
Si Si5 0.324836 0.006678 0.262415
Si Si6 0.034924 0.271975 0.579665
Si Si7 0.200344 0.361611 0.206956
O O1 0.210364 0.982541 0.258381
O O2 0.996995 0.923917 0.292587
O O3 0.196063 0.240595 0.011441
O O4 0.414742 0.005830 0.939998
O O5 0.490236 0.437303 0.774068
O O6 0.249838 0.559516 0.735929
O O7 0.564990 0.367569 0.596226
O O8 0.202508 0.651265 0.276186
O O9 0.226346 0.345560 0.467090
O O10 0.581833 0.515320 0.036351
O O11 0.998439 0.601642 0.742912
O O12 0.233035 0.859513 0.482164
O O13 0.278291 0.182763 0.229460
O O14 0.107273 0.348985 0.383149
#
# Coordination Sequence:
#
# PCOD9055834 Si02
#       7
#     2   2   2   2   2   2   2
#     4  10  17  36  59  83 111 148 191 235 278 331
#     4  10  20  39  58  84 119 150 188 231 287 340
#     4  11  22  38  56  85 119 152 188 233 283 344
#     4  10  21  33  59  90 115 148 186 241 283 333
#     4  10  18  32  59  88 113 139 193 244 277 323
#     4  11  22  36  59  84 118 151 188 237 284 329
#     4  12  20  35  59  91 111 148 191 243 276 338
#
# _framework density 19.767240999999999
#
# number of rings (size 3 to 8) (size 9 to 14) (size 15 to 20)
#    0.000    1.429    5.714    1.714    0.000    0.571 
#    0.000    0.000    0.000   12.857    0.000    0.000 
#    0.000    0.000    0.000    0.000    0.000    0.000 
#
# Total GULP energy -78185.690535 kJ/mol
# GULP energy per Si atom -5584.692181 kJ/mol
# Density = 1.972225 g / cm^3
# Si number density = 19.767241 Si / 1000 Ang^3
#
#
#
# Elastic Constant Matrix: (Units=GPa)
#
#
# Indices 1 2 3 4 5 6 
#
# 1 48.5118 25.1892 29.2788 -23.8282 -11.7836 -2.4014
# 2 25.1892 54.4721 32.0777 -16.7274 -9.2350 -5.6677
# 3 29.2788 32.0777 102.6513 -23.7619 -21.3170 -9.1871
# 4 -23.8282 -16.7274 -23.7619 43.2284 6.4195 -3.3149
# 5 -11.7836 -9.2350 -21.3170 6.4195 24.0204 -6.9023
# 6 -2.4014 -5.6677 -9.1871 -3.3149 -6.9023 27.3883
#
#
#
# Elastic Compliance Matrix: (Units=1/GPa)
#
#
# Indices 1 2 3 4 5 6 
#
# 1 0.036120 -0.009077 -0.001467 0.014421 0.010570 0.005206
# 2 -0.009077 0.026840 -0.004154 0.003046 0.002629 0.004396
# 3 -0.001467 -0.004154 0.016082 0.005135 0.012967 0.008296
# 4 0.014421 0.003046 0.005135 0.034886 0.006179 0.009397
# 5 0.010570 0.002629 0.012967 0.006179 0.064221 0.022753
# 6 0.005206 0.004396 0.008296 0.009397 0.022753 0.047532
#
#
# Mechanical properties :
#
#
# Convention : Reuss Voigt Hill
#
# Bulk Modulus (GPa) = 20.14229 42.08074 31.11151
# Shear Modulus (GPa) = 18.40762 26.86674 22.63718
#
# Velocity S-wave (km/s) = 3.05490 3.69067 3.38773
# Velocity P-wave (km/s) = 4.75973 6.28456 5.57453
#
# Compressibility (1/GPa) = 0.04964680
#
# Stress axis : x y z
#
# Youngs Moduli (GPa) = 27.68512 37.25767 62.18163
#
# Poissons Ratio (x) = 0.33819 0.09122
# Poissons Ratio (y) = 0.25130 0.25829
# Poissons Ratio (z) = 0.04061 0.15476
#
# Static dielectric constant tensor:
#      x y z
#    x 1.670560 0.021560 -0.009440 
#    y 0.021560 1.728760 0.012820 
#    z -0.009440 0.012820 1.764450 
# 
# From -- ./inp_files/348796.got.cif
#   From: 2010.05.17/outbox.cif.g08.bks.cpg/sg2_175_cif.got.tgz:348796.got - 2010.06.03 11:33:40.
