data_PCOD9055778
_publ_section_title
;
Structure prediction by ZEFSAII (Michael W. Deem and Ramdas Pophale) SiO2 
 PCOD9055778
Probable space group: P -1
;
_chemical_formula_sum "Si O2"
_cell_formula_units_Z 16
_cell_length_a 16.895385
_cell_length_b 12.057504
_cell_length_c 8.937101
_cell_angle_alpha 37.566155
_cell_angle_beta 72.931641
_cell_angle_gamma 46.784248
_cell_volume 669.670958
_symmetry_space_group_name_H-M "P -1"
_symmetry_group_IT_number 2
_symmetry_cell_setting 'triclinic'
loop_
_space_group_symop_operation_xyz
x,y,z
-x,-y,-z
loop_
_atom_site_type_symbol
_atom_site_label
_atom_site_fract_x
_atom_site_fract_y
_atom_site_fract_z
Si Si1 0.027176 0.256678 0.665497
Si Si2 0.637395 0.208835 0.813346
Si Si3 0.144696 0.614469 0.636505
Si Si4 0.188156 0.362191 0.189839
Si Si5 0.626461 0.681058 0.709223
Si Si6 0.082359 0.096084 0.118952
Si Si7 0.314001 0.805686 0.860110
Si Si8 0.372364 0.204167 0.753919
O O1 0.000000 0.500000 0.500000
O O2 0.933541 0.361088 0.472314
O O3 0.168957 0.001244 0.787443
O O4 0.027748 0.132538 0.946044
O O5 0.500000 0.500000 0.500000
O O6 0.774071 0.056897 0.827259
O O7 0.618544 0.281672 0.923002
O O8 0.658150 0.956842 0.069184
O O9 0.266236 0.482735 0.615784
O O10 0.084910 0.905665 0.415462
O O11 0.187980 0.411172 0.963629
O O12 0.246520 0.436696 0.166071
O O13 0.285064 0.033142 0.534301
O O14 0.036710 0.584025 0.084586
O O15 0.623923 0.714588 0.497023
O O16 0.500000 0.000000 0.500000
O O17 0.625415 0.467602 0.968512
O O18 0.500000 0.000000 0.000000
#
# Coordination Sequence:
#
# PCOD9055778 Si02
#       8
#     2   2   2   2   2   2   2   2
#     4  11  21  43  71 108 144 192 248 305 376 450
#     4  11  24  46  76 112 148 201 260 314 376 461
#     4  12  25  43  73 109 151 200 245 312 379 459
#     4  12  26  48  72 115 158 193 258 312 387 461
#     4  12  27  50  77 106 152 199 255 322 386 456
#     4  11  23  44  75 106 153 199 253 315 378 449
#     4  11  24  47  77 107 152 198 246 316 391 446
#     4  12  24  47  73 107 146 192 262 313 370 460
#
# _framework density 23.892330999999999
#
# number of rings (size 3 to 8) (size 9 to 14) (size 15 to 20)
#    0.000    0.500    2.500    7.500    0.000    1.000 
#    6.750    0.000    0.000    0.000    0.000    0.000 
#    0.000    0.000    0.000    0.000    0.000    0.000 
#
# Total GULP energy -89465.491901 kJ/mol
# GULP energy per Si atom -5591.593244 kJ/mol
# Density = 2.383795 g / cm^3
# Si number density = 23.892331 Si / 1000 Ang^3
#
#
#
# Elastic Constant Matrix: (Units=GPa)
#
#
# Indices 1 2 3 4 5 6 
#
# 1 108.1954 21.6074 55.0834 0.8749 -1.4583 13.2082
# 2 21.6074 91.2874 45.6479 9.9041 1.8689 -10.1320
# 3 55.0834 45.6479 163.6731 13.2426 -4.0789 13.8352
# 4 0.8749 9.9041 13.2426 55.8113 11.2356 -4.2358
# 5 -1.4583 1.8689 -4.0789 11.2356 56.4017 -8.7889
# 6 13.2082 -10.1320 13.8352 -4.2358 -8.7889 24.3375
#
#
#
# Elastic Compliance Matrix: (Units=1/GPa)
#
#
# Indices 1 2 3 4 5 6 
#
# 1 0.011864 -0.001983 -0.003026 0.000622 -0.000866 -0.005749
# 2 -0.001983 0.014656 -0.004132 -0.001032 0.000876 0.009663
# 3 -0.003026 -0.004132 0.008883 -0.001778 0.000220 -0.005357
# 4 0.000622 -0.001032 -0.001778 0.019411 -0.003582 0.002328
# 5 -0.000866 0.000876 0.000220 -0.003582 0.019520 0.007135
# 6 -0.005749 0.009663 -0.005357 0.002328 0.007135 0.054259
#
#
# Mechanical properties :
#
#
# Convention : Reuss Voigt Hill
#
# Bulk Modulus (GPa) = 58.40376 67.53705 62.97041
# Shear Modulus (GPa) = 32.76949 43.36457 38.06703
#
# Velocity S-wave (km/s) = 3.70746 4.26490 3.99591
# Velocity P-wave (km/s) = 6.54405 7.25129 6.90673
#
# Compressibility (1/GPa) = 0.01712218
#
# Stress axis : x y z
#
# Youngs Moduli (GPa) = 84.28811 68.22929 112.58021
#
# Poissons Ratio (x) = 0.13530 0.34063
# Poissons Ratio (y) = 0.16714 0.46515
# Poissons Ratio (z) = 0.25503 0.28191
#
# Static dielectric constant tensor:
#      x y z
#    x 2.034040 0.067360 -0.145230 
#    y 0.067360 1.890300 -0.038400 
#    z -0.145230 -0.038400 2.000930 
# 
# From -- ./inp_files/332738.got.cif
#   From: 2010.05.17/outbox.cif.g08.bks.cpg/sg2_167_cif.got.tgz:332738.got - 2010.06.03 11:33:40.
