data_PCOD9055272
_publ_section_title
;
Structure prediction by ZEFSAII (Michael W. Deem and Ramdas Pophale) SiO2 
 PCOD9055272
Probable space group: P -1
;
_chemical_formula_sum "Si O2"
_cell_formula_units_Z 12
_cell_length_a 14.943002
_cell_length_b 11.177423
_cell_length_c 9.470132
_cell_angle_alpha 87.910143
_cell_angle_beta 67.839408
_cell_angle_gamma 29.682934
_cell_volume 560.372498
_symmetry_space_group_name_H-M "P -1"
_symmetry_group_IT_number 2
_symmetry_cell_setting 'triclinic'
loop_
_space_group_symop_operation_xyz
x,y,z
-x,-y,-z
loop_
_atom_site_type_symbol
_atom_site_label
_atom_site_fract_x
_atom_site_fract_y
_atom_site_fract_z
Si Si1 0.397581 0.738602 0.975083
Si Si2 0.814830 0.303921 0.521796
Si Si3 0.192730 0.298839 0.765918
Si Si4 0.891756 0.782522 0.679323
Si Si5 0.571517 0.077288 0.602493
Si Si6 0.876634 0.233008 0.172780
O O1 0.566580 0.582888 0.750961
O O2 0.500000 0.500000 0.000000
O O3 0.363513 0.878517 0.106815
O O4 0.114368 0.044829 0.074545
O O5 0.795151 0.279822 0.373979
O O6 0.938313 0.294678 0.451181
O O7 0.000000 0.000000 0.500000
O O8 0.413954 0.133681 0.695756
O O9 0.042794 0.532431 0.715027
O O10 0.323378 0.038001 0.616771
O O11 0.000000 0.500000 0.000000
O O12 0.795122 0.831133 0.592555
O O13 0.366546 0.414264 0.744387
O O14 0.000000 0.000000 0.000000
#
# Coordination Sequence:
#
# PCOD9055272 Si02
#       6
#     2   2   2   2   2   2
#     4  11  21  41  65  97 142 178 224 275 338 412
#     4  11  23  42  67  98 140 187 221 279 345 406
#     4  11  26  48  71 100 137 179 235 291 342 399
#     4  11  24  45  70 100 138 180 229 284 346 411
#     4  11  25  46  71 101 139 177 234 285 341 415
#     4  11  24  42  65 105 140 178 227 281 343 416
#
# _framework density 21.414325000000002
#
# number of rings (size 3 to 8) (size 9 to 14) (size 15 to 20)
#    0.000    1.000    6.667    1.500    2.333    2.667 
#    0.000    0.000    0.000    0.000    0.000    0.000 
#    0.000    0.000    0.000    0.000    0.000    0.000 
#
# Total GULP energy -66992.764539 kJ/mol
# GULP energy per Si atom -5582.730378 kJ/mol
# Density = 2.136559 g / cm^3
# Si number density = 21.414325 Si / 1000 Ang^3
#
#
#
# Elastic Constant Matrix: (Units=GPa)
#
#
# Indices 1 2 3 4 5 6 
#
# 1 83.1474 39.4715 54.2709 -14.0741 29.7225 -13.8231
# 2 39.4715 117.3180 29.9792 -3.0333 0.8773 -2.6127
# 3 54.2709 29.9792 210.9758 -3.2984 12.1242 -1.1529
# 4 -14.0741 -3.0333 -3.2984 35.6963 4.2625 10.2150
# 5 29.7225 0.8773 12.1242 4.2625 40.3615 2.4546
# 6 -13.8231 -2.6127 -1.1529 10.2150 2.4546 29.4903
#
#
#
# Elastic Compliance Matrix: (Units=1/GPa)
#
#
# Indices 1 2 3 4 5 6 
#
# 1 0.031907 -0.008632 -0.005394 0.010656 -0.023559 0.012250
# 2 -0.008632 0.011204 0.000204 -0.002420 0.006475 -0.002746
# 3 -0.005394 0.000204 0.005927 -0.001269 0.002445 -0.002042
# 4 0.010656 -0.002420 -0.001269 0.035036 -0.010717 -0.006513
# 5 -0.023559 0.006475 0.002445 -0.010717 0.043004 -0.010241
# 6 0.012250 -0.002746 -0.002042 -0.006513 -0.010241 0.042437
#
#
# Mechanical properties :
#
#
# Convention : Reuss Voigt Hill
#
# Bulk Modulus (GPa) = 46.74403 73.20939 59.97671
# Shear Modulus (GPa) = 24.47493 40.29094 32.38294
#
# Velocity S-wave (km/s) = 3.38438 4.34233 3.89293
# Velocity P-wave (km/s) = 6.09490 7.70729 6.94803
#
# Compressibility (1/GPa) = 0.02139310
#
# Stress axis : x y z
#
# Youngs Moduli (GPa) = 31.34113 89.25388 168.72321
#
# Poissons Ratio (x) = 0.77046 0.91003
# Poissons Ratio (y) = 0.27055 -0.03434
# Poissons Ratio (z) = 0.16904 -0.01817
#
# Static dielectric constant tensor:
#      x y z
#    x 1.799710 -0.021570 0.040180 
#    y -0.021570 1.761060 -0.025290 
#    z 0.040180 -0.025290 1.803570 
# 
# From -- ./inp_files/200011.got.cif
#   From: 2010.05.17/outbox.cif.g08.bks.cpg/sg2_101_cif.got.tgz:200011.got - 2010.06.03 11:33:40.
