data_PCOD9055100
_publ_section_title
;
Structure prediction by ZEFSAII (Michael W. Deem and Ramdas Pophale) SiO2 
 PCOD9055100
Probable space group: P -1
;
_chemical_formula_sum "Si O2"
_cell_formula_units_Z 14
_cell_length_a 12.046795
_cell_length_b 11.267686
_cell_length_c 11.450415
_cell_angle_alpha 106.961179
_cell_angle_beta 35.477761
_cell_angle_gamma 84.315631
_cell_volume 686.129313
_symmetry_space_group_name_H-M "P -1"
_symmetry_group_IT_number 2
_symmetry_cell_setting 'triclinic'
loop_
_space_group_symop_operation_xyz
x,y,z
-x,-y,-z
loop_
_atom_site_type_symbol
_atom_site_label
_atom_site_fract_x
_atom_site_fract_y
_atom_site_fract_z
Si Si1 0.399409 0.882791 0.318888
Si Si2 0.754977 0.418340 0.190210
Si Si3 0.877700 0.557615 0.495269
Si Si4 0.548515 0.902114 0.815144
Si Si5 0.559970 0.349873 0.972755
Si Si6 0.185264 0.359004 0.952961
Si Si7 0.146956 0.851063 0.138387
O O1 0.439982 0.004862 0.271259
O O2 0.467887 0.753260 0.123855
O O3 0.563220 0.798303 0.267244
O O4 0.114596 0.988193 0.609286
O O5 0.500000 0.500000 0.500000
O O6 0.990484 0.352033 0.049493
O O7 0.753331 0.541141 0.144103
O O8 0.804499 0.277114 0.031221
O O9 0.787599 0.728503 0.583763
O O10 0.632554 0.578818 0.735750
O O11 0.000000 0.500000 0.500000
O O12 0.047452 0.444131 0.215888
O O13 0.337386 0.886780 0.973094
O O14 0.500000 0.000000 0.000000
O O15 0.500000 0.500000 0.000000
O O16 0.809121 0.225495 0.791573
#
# Coordination Sequence:
#
# PCOD9055100 Si02
#       7
#     2   2   2   2   2   2   2
#     4  12  24  42  65 101 144 179 222 285 355 414
#     4  11  25  49  76  96 134 182 242 294 336 413
#     4  11  21  40  66  99 136 175 227 279 338 408
#     4  11  22  39  62  95 140 183 219 274 349 411
#     4  11  23  38  65  99 137 181 228 279 340 413
#     4  11  25  46  71 104 133 184 237 284 348 415
#     4  11  25  42  65  99 136 181 228 286 345 406
#
# _framework density 20.404316000000001
#
# number of rings (size 3 to 8) (size 9 to 14) (size 15 to 20)
#    0.000    0.857    4.286    3.857    2.000    4.000 
#    0.000    1.429    0.000    0.000    0.000    0.000 
#    0.000    0.000    0.000    0.000    0.000    0.000 
#
# Total GULP energy -78191.136610 kJ/mol
# GULP energy per Si atom -5585.081186 kJ/mol
# Density = 2.035787 g / cm^3
# Si number density = 20.404316 Si / 1000 Ang^3
#
#
#
# Elastic Constant Matrix: (Units=GPa)
#
#
# Indices 1 2 3 4 5 6 
#
# 1 150.0222 60.8809 50.6582 10.9082 -19.3970 0.3857
# 2 60.8809 128.4518 32.1151 7.0298 -12.6002 2.3232
# 3 50.6582 32.1151 74.9089 4.1073 -24.0396 1.3655
# 4 10.9082 7.0298 4.1073 40.1089 -5.7614 -9.0334
# 5 -19.3970 -12.6002 -24.0396 -5.7614 33.9477 7.3003
# 6 0.3857 2.3232 1.3655 -9.0334 7.3003 41.1208
#
#
#
# Elastic Compliance Matrix: (Units=1/GPa)
#
#
# Indices 1 2 3 4 5 6 
#
# 1 0.009876 -0.003284 -0.004960 -0.001549 0.000693 -0.000206
# 2 -0.003284 0.009898 -0.001788 -0.000743 0.000563 -0.000732
# 3 -0.004960 -0.001788 0.021450 0.000653 0.012366 -0.002617
# 4 -0.001549 -0.000743 0.000653 0.027043 0.002709 0.005495
# 5 0.000693 0.000563 0.012366 0.002709 0.040805 -0.007098
# 6 -0.000206 -0.000732 -0.002617 0.005495 -0.007098 0.026916
#
#
# Mechanical properties :
#
#
# Convention : Reuss Voigt Hill
#
# Bulk Modulus (GPa) = 47.25717 71.18794 59.22256
# Shear Modulus (GPa) = 30.65506 37.01740 33.83623
#
# Velocity S-wave (km/s) = 3.88026 4.26396 4.07663
# Velocity P-wave (km/s) = 6.57920 7.69456 7.15863
#
# Compressibility (1/GPa) = 0.02116081
#
# Stress axis : x y z
#
# Youngs Moduli (GPa) = 101.25547 101.03387 46.61929
#
# Poissons Ratio (x) = 0.33183 0.23121
# Poissons Ratio (y) = 0.33256 0.08334
# Poissons Ratio (z) = 0.50218 0.18062
#
# Static dielectric constant tensor:
#      x y z
#    x 1.763570 -0.026220 -0.060530 
#    y -0.026220 1.748080 0.023980 
#    z -0.060530 0.023980 1.876940 
# 
# From -- ./inp_files/425180.got.cif
#   From: 2010.05.17/outbox.cif.g08.bks.cpg/sg2_213_cif.got.tgz:425180.got - 2010.06.03 11:33:40.
