data_PCOD9055069
_publ_section_title
;
Structure prediction by ZEFSAII (Michael W. Deem and Ramdas Pophale) SiO2 
 PCOD9055069
Probable space group: P -1
;
_chemical_formula_sum "Si O2"
_cell_formula_units_Z 12
_cell_length_a 9.307107
_cell_length_b 12.771804
_cell_length_c 8.910785
_cell_angle_alpha 92.055576
_cell_angle_beta 59.195435
_cell_angle_gamma 130.513925
_cell_volume 616.074232
_symmetry_space_group_name_H-M "P -1"
_symmetry_group_IT_number 2
_symmetry_cell_setting 'triclinic'
loop_
_space_group_symop_operation_xyz
x,y,z
-x,-y,-z
loop_
_atom_site_type_symbol
_atom_site_label
_atom_site_fract_x
_atom_site_fract_y
_atom_site_fract_z
Si Si1 0.925591 0.059229 0.436581
Si Si2 0.783574 0.128433 0.795030
Si Si3 0.587990 0.940200 0.360953
Si Si4 0.230356 0.659699 0.304597
Si Si5 0.026558 0.134389 0.939232
Si Si6 0.606386 0.659565 0.003778
O O1 0.814337 0.095394 0.609774
O O2 0.721231 0.932156 0.416903
O O3 0.000000 0.000000 0.500000
O O4 0.166328 0.206551 0.221521
O O5 0.854892 0.283295 0.751691
O O6 0.957667 0.137013 0.808679
O O7 0.500000 0.000000 0.000000
O O8 0.401029 0.790070 0.350297
O O9 0.500000 0.000000 0.500000
O O10 0.801125 0.082168 0.146957
O O11 0.398874 0.654352 0.123652
O O12 0.000000 0.500000 0.500000
O O13 0.277377 0.290138 0.887752
O O14 0.000000 0.000000 0.000000
O O15 0.500000 0.500000 0.000000
#
# Coordination Sequence:
#
# PCOD9055069 Si02
#       6
#     2   2   2   2   2   2
#     4  11  23  38  68  97 124 164 223 263 314 388
#     4  12  21  41  68 101 127 169 219 268 317 389
#     4  11  21  40  65  93 125 169 214 261 322 385
#     4  12  25  43  65  95 137 171 212 273 331 375
#     4  11  21  41  71  94 126 169 217 266 321 381
#     4  11  25  45  64  92 133 173 213 268 328 379
#
# _framework density 19.478173000000002
#
# number of rings (size 3 to 8) (size 9 to 14) (size 15 to 20)
#    0.000    0.667    5.000    4.000    2.333    0.000 
#    3.000    2.500    0.000    0.000    0.000    0.000 
#    0.000    0.000    0.000    0.000    0.000    0.000 
#
# Total GULP energy -66932.450982 kJ/mol
# GULP energy per Si atom -5577.704248 kJ/mol
# Density = 1.943384 g / cm^3
# Si number density = 19.478173 Si / 1000 Ang^3
#
#
#
# Elastic Constant Matrix: (Units=GPa)
#
#
# Indices 1 2 3 4 5 6 
#
# 1 135.9115 50.3050 20.7985 3.2558 19.4352 -2.8943
# 2 50.3050 102.4600 15.8656 7.9855 -0.7790 -10.5232
# 3 20.7985 15.8656 102.5859 11.3659 -10.6280 -15.2144
# 4 3.2558 7.9855 11.3659 40.0019 -4.8901 -1.0119
# 5 19.4352 -0.7790 -10.6280 -4.8901 38.7890 10.8331
# 6 -2.8943 -10.5232 -15.2144 -1.0119 10.8331 33.4141
#
#
#
# Elastic Compliance Matrix: (Units=1/GPa)
#
#
# Indices 1 2 3 4 5 6 
#
# 1 0.010250 -0.004735 -0.001882 -0.000062 -0.005878 0.000443
# 2 -0.004735 0.012566 -0.000193 -0.001807 0.001532 0.002908
# 3 -0.001882 -0.000193 0.011311 -0.002604 0.002591 0.004007
# 4 -0.000062 -0.001807 -0.002604 0.026442 0.003169 -0.001987
# 5 -0.005878 0.001532 0.002591 0.003169 0.032456 -0.009273
# 6 0.000443 0.002908 0.004007 -0.001987 -0.009273 0.035653
#
#
# Mechanical properties :
#
#
# Convention : Reuss Voigt Hill
#
# Bulk Modulus (GPa) = 48.76802 57.21062 52.98932
# Shear Modulus (GPa) = 33.52715 39.37356 36.45036
#
# Velocity S-wave (km/s) = 4.15332 4.50090 4.33060
# Velocity P-wave (km/s) = 6.93482 7.51307 7.22973
#
# Compressibility (1/GPa) = 0.02050524
#
# Stress axis : x y z
#
# Youngs Moduli (GPa) = 97.56165 79.58051 88.41253
#
# Poissons Ratio (x) = 0.37684 0.16640
# Poissons Ratio (y) = 0.46199 0.01707
# Poissons Ratio (z) = 0.18362 0.01537
#
# Static dielectric constant tensor:
#      x y z
#    x 1.774770 0.011820 -0.010770 
#    y 0.011820 1.710880 0.075740 
#    z -0.010770 0.075740 1.748970 
# 
# From -- ./inp_files/144954.got.cif
#   From: 2010.05.17/outbox.cif.g08.bks.cpg/sg2_73_cif.got.tgz:144954.got - 2010.06.03 11:33:40.
