data_PCOD9055258
_publ_section_title
;
Structure prediction by ZEFSAII (Michael W. Deem and Ramdas Pophale) SiO2 
 PCOD9055258
Probable space group: P -1
;
_chemical_formula_sum "Si O2"
_cell_formula_units_Z 16
_cell_length_a 22.294572
_cell_length_b 10.481028
_cell_length_c 6.723592
_cell_angle_alpha 125.412274
_cell_angle_beta 123.732812
_cell_angle_gamma 33.628420
_cell_volume 699.826486
_symmetry_space_group_name_H-M "P -1"
_symmetry_group_IT_number 2
_symmetry_cell_setting 'triclinic'
loop_
_space_group_symop_operation_xyz
x,y,z
-x,-y,-z
loop_
_atom_site_type_symbol
_atom_site_label
_atom_site_fract_x
_atom_site_fract_y
_atom_site_fract_z
Si Si1 0.163194 0.158511 0.924177
Si Si2 0.288766 0.571408 0.775777
Si Si3 0.851835 0.473826 0.625788
Si Si4 0.949319 0.893648 0.086893
Si Si5 0.400597 0.779041 0.030024
Si Si6 0.979876 0.704612 0.561869
Si Si7 0.522967 0.641618 0.757544
Si Si8 0.479927 0.186404 0.494971
O O1 0.075657 0.241095 0.997797
O O2 0.124947 0.149103 0.638447
O O3 0.174193 0.326564 0.116291
O O4 0.283671 0.894607 0.943471
O O5 0.253601 0.445528 0.573265
O O6 0.369527 0.446310 0.618719
O O7 0.163655 0.838402 0.816762
O O8 0.365935 0.508876 0.042397
O O9 0.938520 0.239157 0.717427
O O10 0.922113 0.404084 0.498757
O O11 0.963525 0.854655 0.843454
O O12 0.414703 0.882854 0.318479
O O13 0.500000 0.500000 0.000000
O O14 0.424285 0.817885 0.895214
O O15 0.000000 0.500000 0.500000
O O16 0.500000 0.500000 0.500000
O O17 0.526291 0.772040 0.714479
O O18 0.500000 0.000000 0.500000
#
# Coordination Sequence:
#
# PCOD9055258 Si02
#       8
#     2   2   2   2   2   2   2   2
#     4  11  22  39  69  98 131 182 230 284 354 415
#     4  11  27  43  68 103 138 186 233 288 368 417
#     4  11  23  44  64  99 141 178 232 288 350 422
#     4  11  23  40  68  97 139 180 227 288 340 425
#     4  11  23  41  67 102 137 181 238 290 350 420
#     4  11  21  41  65 100 133 175 235 286 342 418
#     4  11  25  45  73 101 139 184 241 294 352 430
#     4  11  25  48  69  99 146 181 234 297 355 424
#
# _framework density 22.862811000000001
#
# number of rings (size 3 to 8) (size 9 to 14) (size 15 to 20)
#    0.000    1.000    3.750    3.375    1.750    4.500 
#    4.500    0.000    0.000    0.000    0.000    0.000 
#    0.000    0.000    0.000    0.000    0.000    0.000 
#
# Total GULP energy -89134.540022 kJ/mol
# GULP energy per Si atom -5570.908751 kJ/mol
# Density = 2.281077 g / cm^3
# Si number density = 22.862811 Si / 1000 Ang^3
#
#
#
# Elastic Constant Matrix: (Units=GPa)
#
#
# Indices 1 2 3 4 5 6 
#
# 1 70.7358 12.6881 42.6435 -18.8454 0.4727 -9.5222
# 2 12.6881 74.9524 25.8742 0.2268 -1.9342 -11.6930
# 3 42.6435 25.8742 119.5344 -16.9373 -4.2530 -8.0646
# 4 -18.8454 0.2268 -16.9373 37.1877 -5.0670 6.5263
# 5 0.4727 -1.9342 -4.2530 -5.0670 55.3691 -7.5155
# 6 -9.5222 -11.6930 -8.0646 6.5263 -7.5155 35.4258
#
#
#
# Elastic Compliance Matrix: (Units=1/GPa)
#
#
# Indices 1 2 3 4 5 6 
#
# 1 0.020010 -0.001037 -0.005720 0.007151 0.000346 0.002490
# 2 -0.001037 0.015315 -0.002984 -0.002714 0.000711 0.004748
# 3 -0.005720 -0.002984 0.011432 0.002494 0.001029 -0.000161
# 4 0.007151 -0.002714 0.002494 0.032692 0.002498 -0.003898
# 5 0.000346 0.000711 0.001029 0.002498 0.018950 0.004122
# 6 0.002490 0.004748 -0.000161 -0.003898 0.004122 0.032020
#
#
# Mechanical properties :
#
#
# Convention : Reuss Voigt Hill
#
# Bulk Modulus (GPa) = 36.66571 47.51493 42.09032
# Shear Modulus (GPa) = 31.44818 37.86431 34.65624
#
# Velocity S-wave (km/s) = 3.71282 4.07400 3.89760
# Velocity P-wave (km/s) = 5.86959 6.55421 6.22133
#
# Compressibility (1/GPa) = 0.02727344
#
# Stress axis : x y z
#
# Youngs Moduli (GPa) = 49.97550 65.29681 87.47659
#
# Poissons Ratio (x) = 0.06770 0.50040
# Poissons Ratio (y) = 0.05182 0.26104
# Poissons Ratio (z) = 0.28588 0.19485
#
# Static dielectric constant tensor:
#      x y z
#    x 1.869350 0.069050 -0.030800 
#    y 0.069050 1.927030 -0.042790 
#    z -0.030800 -0.042790 1.761470 
# 
# From -- ./inp_files/123811.got.cif
#   From: 2010.05.17/outbox.cif.g08.bks.cpg/sg2_62_cif.got.tgz:123811.got - 2010.06.03 11:33:40.
