data_PCOD9055947
_publ_section_title
;
Structure prediction by ZEFSAII (Michael W. Deem and Ramdas Pophale) SiO2 
 PCOD9055947
Probable space group: P -1
;
_chemical_formula_sum "Si O2"
_cell_formula_units_Z 14
_cell_length_a 12.145692
_cell_length_b 9.553964
_cell_length_c 19.580147
_cell_angle_alpha 29.159391
_cell_angle_beta 137.070914
_cell_angle_gamma 116.786010
_cell_volume 620.171214
_symmetry_space_group_name_H-M "P -1"
_symmetry_group_IT_number 2
_symmetry_cell_setting 'triclinic'
loop_
_space_group_symop_operation_xyz
x,y,z
-x,-y,-z
loop_
_atom_site_type_symbol
_atom_site_label
_atom_site_fract_x
_atom_site_fract_y
_atom_site_fract_z
Si Si1 0.651011 0.318466 0.709158
Si Si2 0.019086 0.698090 0.076220
Si Si3 0.506032 0.525221 0.072768
Si Si4 0.123128 0.719172 0.870581
Si Si5 0.799832 0.397438 0.359653
Si Si6 0.613566 0.695051 0.290993
Si Si7 0.961929 0.850385 0.220011
O O1 0.500000 0.500000 0.500000
O O2 0.778926 0.476735 0.715422
O O3 0.536364 0.335942 0.717657
O O4 0.820349 0.916674 0.937297
O O5 0.996585 0.451731 0.121350
O O6 0.017318 0.990157 0.906607
O O7 0.345882 0.470552 0.053295
O O8 0.440377 0.915272 0.897035
O O9 0.500000 0.500000 0.000000
O O10 0.714455 0.293911 0.303627
O O11 0.125254 0.846738 0.892277
O O12 0.004275 0.065181 0.622026
O O13 0.650937 0.554479 0.290073
O O14 0.837155 0.686190 0.230201
O O15 0.823844 0.448891 0.527789
#
# Coordination Sequence:
#
# PCOD9055947 Si02
#       7
#     2   2   2   2   2   2   2
#     4  11  24  44  67  96 137 181 225 265 331 410
#     4  11  25  42  67  99 136 179 213 277 344 381
#     4  12  25  41  67 102 134 173 224 282 331 389
#     4  11  24  43  63 102 136 166 226 281 327 394
#     4  11  24  45  72  96 131 183 224 269 339 391
#     4  11  21  44  72  95 130 180 228 271 323 407
#     4  11  21  45  71  95 133 179 223 272 332 400
#
# _framework density 22.57441
#
# number of rings (size 3 to 8) (size 9 to 14) (size 15 to 20)
#    0.000    0.857    4.286    3.429    2.000    4.000 
#    0.000    1.429    0.000    0.000    0.000    0.000 
#    0.000    0.000    0.000    0.000    0.000    0.000 
#
# Total GULP energy -78308.925847 kJ/mol
# GULP energy per Si atom -5593.494703 kJ/mol
# Density = 2.252303 g / cm^3
# Si number density = 22.574410 Si / 1000 Ang^3
#
#
#
# Elastic Constant Matrix: (Units=GPa)
#
#
# Indices 1 2 3 4 5 6 
#
# 1 110.3281 30.7832 10.1681 12.1762 7.3804 16.8430
# 2 30.7832 111.6674 15.7844 28.1690 -4.6367 22.9859
# 3 10.1681 15.7844 31.7634 14.0017 -2.5971 6.0432
# 4 12.1762 28.1690 14.0017 31.1006 10.4448 -6.4165
# 5 7.3804 -4.6367 -2.5971 10.4448 30.0731 4.4226
# 6 16.8430 22.9859 6.0432 -6.4165 4.4226 33.6541
#
#
#
# Elastic Compliance Matrix: (Units=1/GPa)
#
#
# Indices 1 2 3 4 5 6 
#
# 1 0.010654 -0.000415 0.000229 -0.005161 0.000027 -0.006077
# 2 -0.000415 0.026806 0.016401 -0.047557 0.027121 -0.033677
# 3 0.000229 0.016401 0.060824 -0.062045 0.034960 -0.038662
# 4 -0.005161 -0.047557 -0.062045 0.147805 -0.075150 0.084262
# 5 0.000027 0.027121 0.034960 -0.075150 0.073728 -0.048832
# 6 -0.006077 -0.033677 -0.038662 0.084262 -0.048832 0.085182
#
#
# Mechanical properties :
#
#
# Convention : Reuss Voigt Hill
#
# Bulk Modulus (GPa) = 7.65028 40.80336 24.22682
# Shear Modulus (GPa) = 12.01513 32.10045 22.05779
#
# Velocity S-wave (km/s) = 2.30955 3.77501 3.12927
# Velocity P-wave (km/s) = 3.24165 6.09223 4.87973
#
# Compressibility (1/GPa) = 0.13071410
#
# Stress axis : x y z
#
# Youngs Moduli (GPa) = 93.85983 37.30450 16.44085
#
# Poissons Ratio (x) = 0.01549 -0.00377
# Poissons Ratio (y) = 0.03898 -0.26964
# Poissons Ratio (z) = -0.02154 -0.61182
#
# Static dielectric constant tensor:
#      x y z
#    x 1.831950 0.004740 0.023430 
#    y 0.004740 1.842180 0.021860 
#    z 0.023430 0.021860 1.861540 
# 
# From -- ./inp_files/418316.got.cif
#   From: 2010.05.17/outbox.cif.g08.bks.cpg/sg2_210_cif.got.tgz:418316.got - 2010.06.03 11:33:40.
