data_PCOD9055126
_publ_section_title
;
Structure prediction by ZEFSAII (Michael W. Deem and Ramdas Pophale) SiO2 
 PCOD9055126
Probable space group: P -1
;
_chemical_formula_sum "Si O2"
_cell_formula_units_Z 16
_cell_length_a 16.471244
_cell_length_b 28.839657
_cell_length_c 9.261926
_cell_angle_alpha 143.807859
_cell_angle_beta 133.980561
_cell_angle_gamma 17.390010
_cell_volume 701.328019
_symmetry_space_group_name_H-M "P -1"
_symmetry_group_IT_number 2
_symmetry_cell_setting 'triclinic'
loop_
_space_group_symop_operation_xyz
x,y,z
-x,-y,-z
loop_
_atom_site_type_symbol
_atom_site_label
_atom_site_fract_x
_atom_site_fract_y
_atom_site_fract_z
Si Si1 0.981879 0.773309 0.898573
Si Si2 0.802183 0.289901 0.436277
Si Si3 0.575283 0.292295 0.327211
Si Si4 0.114649 0.190580 0.793702
Si Si5 0.663525 0.872422 0.528563
Si Si6 0.068649 0.404497 0.206267
Si Si7 0.211972 0.427630 0.004997
Si Si8 0.276283 0.947014 0.922807
O O1 0.740951 0.878585 0.773477
O O2 0.298985 0.526274 0.630233
O O3 0.923157 0.805309 0.075920
O O4 0.905775 0.909034 0.083715
O O5 0.500000 0.500000 0.500000
O O6 0.783633 0.218099 0.312470
O O7 0.858588 0.316602 0.697440
O O8 0.075609 0.114929 0.222403
O O9 0.481227 0.284657 0.076277
O O10 0.700190 0.160649 0.283980
O O11 0.438685 0.955092 0.535242
O O12 0.102115 0.292277 0.009626
O O13 0.988592 0.645380 0.294634
O O14 0.500000 0.000000 0.500000
O O15 0.384340 0.236537 0.114883
O O16 0.000000 0.500000 0.500000
O O17 0.800980 0.583086 0.206785
O O18 0.000000 0.500000 0.000000
#
# Coordination Sequence:
#
# PCOD9055126 Si02
#       8
#     2   2   2   2   2   2   2   2
#     4  11  24  44  71 105 147 184 229 299 368 424
#     4  12  26  48  77 101 138 200 252 289 348 429
#     4  11  25  46  73 104 142 186 247 293 350 432
#     4  12  25  41  72 105 142 190 235 296 368 425
#     4  11  21  40  68 100 136 178 233 287 355 430
#     4  12  25  42  68 108 149 178 230 300 372 428
#     4  11  22  39  69 102 135 177 231 299 355 419
#     4  12  24  47  73 101 143 187 237 301 352 424
#
# _framework density 22.813860999999999
#
# number of rings (size 3 to 8) (size 9 to 14) (size 15 to 20)
#    0.000    0.500    5.000    3.750    1.750    0.500 
#    0.000    0.625    0.000    0.000    0.000    0.000 
#    0.000    0.000    0.000    0.000    0.000    0.000 
#
# Total GULP energy -89320.809326 kJ/mol
# GULP energy per Si atom -5582.550583 kJ/mol
# Density = 2.276194 g / cm^3
# Si number density = 22.813861 Si / 1000 Ang^3
#
#
#
# Elastic Constant Matrix: (Units=GPa)
#
#
# Indices 1 2 3 4 5 6 
#
# 1 173.8881 48.5886 52.9729 -11.0696 -7.0745 20.5951
# 2 48.5886 89.6311 54.0180 -4.6306 -15.0350 14.0636
# 3 52.9729 54.0180 77.5684 -19.0495 -16.9937 4.3041
# 4 -11.0696 -4.6306 -19.0495 32.3883 8.4686 2.7373
# 5 -7.0745 -15.0350 -16.9937 8.4686 50.1654 -2.1314
# 6 20.5951 14.0636 4.3041 2.7373 -2.1314 44.6117
#
#
#
# Elastic Compliance Matrix: (Units=1/GPa)
#
#
# Indices 1 2 3 4 5 6 
#
# 1 0.007758 -0.001266 -0.004373 0.000386 -0.000952 -0.002830
# 2 -0.001266 0.021611 -0.015057 -0.006384 0.002094 -0.004284
# 3 -0.004373 -0.015057 0.030022 0.012957 0.002990 0.003217
# 4 0.000386 -0.006384 0.012957 0.038965 -0.004133 -0.002004
# 5 -0.000952 0.002094 0.002990 -0.004133 0.022172 0.000804
# 6 -0.002830 -0.004284 0.003217 -0.002004 0.000804 0.024923
#
#
# Mechanical properties :
#
#
# Convention : Reuss Voigt Hill
#
# Bulk Modulus (GPa) = 55.55604 72.47184 64.01394
# Shear Modulus (GPa) = 25.92790 37.80029 31.86409
#
# Velocity S-wave (km/s) = 3.37486 4.07492 3.74130
# Velocity P-wave (km/s) = 6.29213 7.34680 6.83983
#
# Compressibility (1/GPa) = 0.01799984
#
# Stress axis : x y z
#
# Youngs Moduli (GPa) = 128.90394 46.27345 33.30849
#
# Poissons Ratio (x) = 0.05856 0.14567
# Poissons Ratio (y) = 0.16314 0.50151
# Poissons Ratio (z) = 0.56373 0.69672
#
# Static dielectric constant tensor:
#      x y z
#    x 1.858820 -0.002920 -0.049760 
#    y -0.002920 1.881680 -0.010030 
#    z -0.049760 -0.010030 1.611820 
# 
# From -- ./inp_files/320749.got.cif
#   From: 2010.05.17/outbox.cif.g08.bks.cpg/sg2_161_cif.got.tgz:320749.got - 2010.06.03 11:33:40.
