data_PCOD9055583
_publ_section_title
;
Structure prediction by ZEFSAII (Michael W. Deem and Ramdas Pophale) SiO2 
 PCOD9055583
Probable space group: P -1
;
_chemical_formula_sum "Si O2"
_cell_formula_units_Z 16
_cell_length_a 5.487006
_cell_length_b 11.414061
_cell_length_c 12.666392
_cell_angle_alpha 90.246173
_cell_angle_beta 87.661105
_cell_angle_gamma 60.724321
_cell_volume 691.118890
_symmetry_space_group_name_H-M "P -1"
_symmetry_group_IT_number 2
_symmetry_cell_setting 'triclinic'
loop_
_space_group_symop_operation_xyz
x,y,z
-x,-y,-z
loop_
_atom_site_type_symbol
_atom_site_label
_atom_site_fract_x
_atom_site_fract_y
_atom_site_fract_z
Si Si1 0.710845 0.216035 0.985538
Si Si2 0.052883 0.356208 0.035221
Si Si3 0.015593 0.980970 0.823107
Si Si4 0.480710 0.003098 0.302561
Si Si5 0.837611 0.698037 0.359825
Si Si6 0.239689 0.649513 0.517784
Si Si7 0.553624 0.762517 0.582635
Si Si8 0.963662 0.587162 0.723384
O O1 0.382391 0.261855 0.002205
O O2 0.827153 0.321790 0.986654
O O3 0.828723 0.127294 0.878616
O O4 0.867337 0.123053 0.083046
O O5 0.014741 0.362638 0.162501
O O6 0.000000 0.500000 0.000000
O O7 0.804291 0.955640 0.754882
O O8 0.283128 0.977597 0.763710
O O9 0.625062 0.845488 0.325081
O O10 0.422542 0.105592 0.400531
O O11 0.726017 0.680157 0.475974
O O12 0.121879 0.685526 0.400602
O O13 0.909015 0.573153 0.283099
O O14 0.500000 0.500000 0.500000
O O15 0.260014 0.779843 0.554326
O O16 0.096209 0.627300 0.624301
O O17 0.645341 0.669676 0.685587
#
# Coordination Sequence:
#
# PCOD9055583 Si02
#       8
#     2   2   2   2   2   2   2   2
#     4  11  25  51  74 101 143 187 244 292 359 427
#     4  12  28  46  74 112 147 180 238 307 357 419
#     4  11  26  48  76 100 139 195 237 294 355 438
#     4  12  28  43  72 109 142 182 243 297 362 414
#     4  11  25  42  64 104 145 186 230 298 359 416
#     4  11  21  42  70  99 136 192 240 285 345 436
#     4  11  23  44  68  99 141 189 238 286 345 431
#     4  11  24  41  71  99 140 189 239 282 358 432
#
# _framework density 23.150866000000001
#
# number of rings (size 3 to 8) (size 9 to 14) (size 15 to 20)
#    0.000    0.750    2.500    4.500   12.250    2.500 
#    0.000    0.000    0.000    0.000    0.000    0.000 
#    0.000    0.000    0.000    0.000    0.000    0.000 
#
# Total GULP energy -89258.225628 kJ/mol
# GULP energy per Si atom -5578.639102 kJ/mol
# Density = 2.309817 g / cm^3
# Si number density = 23.150866 Si / 1000 Ang^3
#
#
#
# Elastic Constant Matrix: (Units=GPa)
#
#
# Indices 1 2 3 4 5 6 
#
# 1 71.4497 -6.0715 21.6004 18.0565 4.5743 12.5962
# 2 -6.0715 79.8715 -5.2534 10.2117 4.6995 8.2223
# 3 21.6004 -5.2534 40.0420 18.2535 -5.9308 2.1901
# 4 18.0565 10.2117 18.2535 41.8324 -0.7062 4.0270
# 5 4.5743 4.6995 -5.9308 -0.7062 28.0117 5.2897
# 6 12.5962 8.2223 2.1901 4.0270 5.2897 42.1851
#
#
#
# Elastic Compliance Matrix: (Units=1/GPa)
#
#
# Indices 1 2 3 4 5 6 
#
# 1 0.018975 0.002264 -0.008148 -0.004814 -0.004443 -0.004667
# 2 0.002264 0.013977 0.003006 -0.005457 -0.001683 -0.002824
# 3 -0.008148 0.003006 0.037023 -0.013246 0.008303 0.000148
# 4 -0.004814 -0.005457 -0.013246 0.033084 -0.000281 0.000066
# 5 -0.004443 -0.001683 0.008303 -0.000281 0.039149 -0.003658
# 6 -0.004667 -0.002824 0.000148 0.000066 -0.003658 0.026094
#
#
# Mechanical properties :
#
#
# Convention : Reuss Voigt Hill
#
# Bulk Modulus (GPa) = 15.57157 23.54601 19.55879
# Shear Modulus (GPa) = 25.58002 34.47835 30.02918
#
# Velocity S-wave (km/s) = 3.32765 3.86332 3.60545
# Velocity P-wave (km/s) = 4.63736 5.48571 5.07928
#
# Compressibility (1/GPa) = 0.06421961
#
# Stress axis : x y z
#
# Youngs Moduli (GPa) = 52.70054 71.54427 27.01004
#
# Poissons Ratio (x) = -0.16197 0.22006
# Poissons Ratio (y) = -0.11931 -0.08118
# Poissons Ratio (z) = 0.42938 -0.21503
#
# Static dielectric constant tensor:
#      x y z
#    x 2.719640 -0.094990 0.037430 
#    y -0.094990 1.973380 -0.012800 
#    z 0.037430 -0.012800 1.834660 
# 
# From -- ./inp_files/364522.got.cif
#   From: 2010.05.17/outbox.cif.g08.bks.cpg/sg2_183_cif.got.tgz:364522.got - 2010.06.03 11:33:40.
