data_PCOD9055203
_publ_section_title
;
Structure prediction by ZEFSAII (Michael W. Deem and Ramdas Pophale) SiO2 
 PCOD9055203
Probable space group: P -1
;
_chemical_formula_sum "Si O2"
_cell_formula_units_Z 13
_cell_length_a 10.310395
_cell_length_b 10.666303
_cell_length_c 11.185393
_cell_angle_alpha 62.298167
_cell_angle_beta 56.054427
_cell_angle_gamma 28.406136
_cell_volume 484.368576
_symmetry_space_group_name_H-M "P -1"
_symmetry_group_IT_number 2
_symmetry_cell_setting 'triclinic'
loop_
_space_group_symop_operation_xyz
x,y,z
-x,-y,-z
loop_
_atom_site_type_symbol
_atom_site_label
_atom_site_fract_x
_atom_site_fract_y
_atom_site_fract_z
Si Si1 0.000000 0.000000 0.500000
Si Si2 0.491752 0.916336 0.310762
Si Si3 0.489204 0.676772 0.010541
Si Si4 0.134380 0.628754 0.679122
Si Si5 0.146132 0.720330 0.313802
Si Si6 0.472380 0.822991 0.692348
Si Si7 0.889003 0.782669 0.987770
O O1 0.826433 0.209856 0.610515
O O2 0.812475 0.245727 0.392562
O O3 0.640663 0.651347 0.370088
O O4 0.162399 0.134667 0.350102
O O5 0.490348 0.039637 0.355997
O O6 0.664071 0.852512 0.138844
O O7 0.338217 0.648736 0.142729
O O8 0.832783 0.409953 0.981928
O O9 0.310616 0.929383 0.066864
O O10 0.427314 0.784816 0.862893
O O11 0.036453 0.634125 0.852329
O O12 0.261107 0.470473 0.368883
O O13 0.813936 0.975198 0.328476
#
# Coordination Sequence:
#
# PCOD9055203 Si02
#       7
#     1   2   2   2   2   2   2
#     4  12  32  50  74 102 144 198 248 274 354 420
#     4  11  24  44  73 106 142 184 235 298 363 416
#     4  11  21  40  71 111 144 179 230 298 367 416
#     4  12  25  46  70 102 148 190 239 289 343 429
#     4  12  25  46  70 102 148 190 239 289 343 429
#     4  11  24  44  73 106 142 184 235 298 363 416
#     4  11  21  40  71 111 144 179 230 298 367 416
#
# _framework density 26.839067
#
# number of rings (size 3 to 8) (size 9 to 14) (size 15 to 20)
#    0.000    0.615    1.538    8.308    0.000    2.462 
#    0.000    4.615    0.000    0.000    0.000    0.000 
#    0.000    0.000    0.000    0.000    0.000    0.000 
#
# Total GULP energy -72608.716120 kJ/mol
# GULP energy per Si atom -5585.285855 kJ/mol
# Density = 2.677798 g / cm^3
# Si number density = 26.839067 Si / 1000 Ang^3
#
#
#
# Elastic Constant Matrix: (Units=GPa)
#
#
# Indices 1 2 3 4 5 6 
#
# 1 95.6506 61.9369 4.4904 -2.3110 0.3486 29.9020
# 2 61.9369 236.6641 9.8569 -12.2216 -13.0046 24.6279
# 3 4.4904 9.8569 137.4650 5.1749 9.7024 2.0769
# 4 -2.3110 -12.2216 5.1749 24.2394 11.1253 -2.2289
# 5 0.3486 -13.0046 9.7024 11.1253 45.7579 -4.3574
# 6 29.9020 24.6279 2.0769 -2.2289 -4.3574 73.8342
#
#
#
# Elastic Compliance Matrix: (Units=1/GPa)
#
#
# Indices 1 2 3 4 5 6 
#
# 1 0.014041 -0.003269 -0.000048 -0.000061 -0.001457 -0.004683
# 2 -0.003269 0.005290 -0.000419 0.001900 0.001126 -0.000305
# 3 -0.000048 -0.000419 0.007454 -0.001166 -0.001432 -0.000170
# 4 -0.000061 0.001900 -0.001166 0.047394 -0.010714 0.000222
# 5 -0.001457 0.001126 -0.001432 -0.010714 0.025229 0.001420
# 6 -0.004683 -0.000305 -0.000170 0.000222 0.001420 0.015637
#
#
# Mechanical properties :
#
#
# Convention : Reuss Voigt Hill
#
# Bulk Modulus (GPa) = 51.77847 69.14979 60.46413
# Shear Modulus (GPa) = 38.77307 54.99934 46.88621
#
# Velocity S-wave (km/s) = 3.80498 4.53175 4.18417
# Velocity P-wave (km/s) = 6.21594 7.29403 6.77646
#
# Compressibility (1/GPa) = 0.01931305
#
# Stress axis : x y z
#
# Youngs Moduli (GPa) = 71.21871 189.03497 134.16126
#
# Poissons Ratio (x) = 0.61788 0.00650
# Poissons Ratio (y) = 0.23278 0.05621
# Poissons Ratio (z) = 0.00345 0.07920
#
# Static dielectric constant tensor:
#      x y z
#    x 2.192240 0.077480 0.100880 
#    y 0.077480 2.018830 0.022190 
#    z 0.100880 0.022190 2.081790 
# 
# From -- ./inp_files/427758.got.cif
#   From: 2010.05.17/outbox.cif.g08.bks.cpg/sg2_214_cif.got.tgz:427758.got - 2010.06.03 11:33:40.
