data_PCOD9055062
_publ_section_title
;
Structure prediction by ZEFSAII (Michael W. Deem and Ramdas Pophale) SiO2 
 PCOD9055062
Probable space group: P -1
;
_chemical_formula_sum "Si O2"
_cell_formula_units_Z 16
_cell_length_a 11.266189
_cell_length_b 12.528593
_cell_length_c 9.436661
_cell_angle_alpha 65.494594
_cell_angle_beta 79.684720
_cell_angle_gamma 47.708508
_cell_volume 886.594664
_symmetry_space_group_name_H-M "P -1"
_symmetry_group_IT_number 2
_symmetry_cell_setting 'triclinic'
loop_
_space_group_symop_operation_xyz
x,y,z
-x,-y,-z
loop_
_atom_site_type_symbol
_atom_site_label
_atom_site_fract_x
_atom_site_fract_y
_atom_site_fract_z
Si Si1 0.603533 0.874394 0.900656
Si Si2 0.885358 0.663839 0.516650
Si Si3 0.630263 0.263327 0.992303
Si Si4 0.447667 0.841305 0.192706
Si Si5 0.675488 0.500587 0.873406
Si Si6 0.112231 0.429014 0.149171
Si Si7 0.463569 0.236760 0.460641
Si Si8 0.694187 0.999157 0.296675
O O1 0.719872 0.737597 0.841912
O O2 0.429737 0.983904 0.796913
O O3 0.657479 0.971295 0.868477
O O4 0.590888 0.806081 0.084192
O O5 0.953243 0.609040 0.690679
O O6 0.702757 0.729510 0.523974
O O7 0.000000 0.500000 0.500000
O O8 0.852163 0.816086 0.384472
O O9 0.447776 0.396195 0.024825
O O10 0.717780 0.110637 0.157698
O O11 0.621495 0.213758 0.864500
O O12 0.703934 0.344559 0.937933
O O13 0.489747 0.775674 0.378673
O O14 0.837755 0.472533 0.869170
O O15 0.579738 0.615955 0.695107
O O16 0.000000 0.500000 0.000000
O O17 0.599722 0.082358 0.420524
#
# Coordination Sequence:
#
# PCOD9055062 Si02
#       8
#     2   2   2   2   2   2   2   2
#     4  10  18  32  50  79 106 140 181 217 269 316
#     4  11  22  31  51  82 112 140 176 224 274 318
#     4   9  18  32  56  77 105 141 183 224 261 322
#     4  10  18  26  52  80 105 130 175 232 259 306
#     4   9  18  36  51  76 106 145 184 216 270 321
#     4  11  22  35  53  76 112 144 177 220 275 321
#     4  10  18  31  53  76 111 143 176 224 268 318
#     4  10  17  36  56  77 108 148 178 218 274 328
#
# _framework density 18.046578
#
# number of rings (size 3 to 8) (size 9 to 14) (size 15 to 20)
#    0.000    2.000    6.250    1.125    1.750    0.500 
#    0.000    0.000    0.000    7.500    0.000    0.000 
#    0.000    0.000    0.000    0.000    0.000    0.000 
#
# Total GULP energy -89078.280959 kJ/mol
# GULP energy per Si atom -5567.392560 kJ/mol
# Density = 1.800550 g / cm^3
# Si number density = 18.046578 Si / 1000 Ang^3
#
#
#
# Elastic Constant Matrix: (Units=GPa)
#
#
# Indices 1 2 3 4 5 6 
#
# 1 39.0811 27.2883 28.1044 -12.7143 4.1481 26.8024
# 2 27.2883 93.8098 53.4682 -12.4560 0.3292 29.7112
# 3 28.1044 53.4682 137.1897 2.9809 20.0800 15.9964
# 4 -12.7143 -12.4560 2.9809 33.9421 6.2932 -2.8461
# 5 4.1481 0.3292 20.0800 6.2932 19.0726 -2.0943
# 6 26.8024 29.7112 15.9964 -2.8461 -2.0943 29.7106
#
#
#
# Elastic Compliance Matrix: (Units=1/GPa)
#
#
# Indices 1 2 3 4 5 6 
#
# 1 0.138158 0.017382 -0.013603 0.057383 -0.049531 -0.132687
# 2 0.017382 0.022455 -0.008296 0.013380 -0.003431 -0.032630
# 3 -0.013603 -0.008296 0.013035 -0.006954 -0.006967 0.012393
# 4 0.057383 0.013380 -0.006954 0.057295 -0.030672 -0.058076
# 5 -0.049531 -0.003431 -0.006967 -0.030672 0.086762 0.055042
# 6 -0.132687 -0.032630 0.012393 -0.058076 0.055042 0.177632
#
#
# Mechanical properties :
#
#
# Convention : Reuss Voigt Hill
#
# Bulk Modulus (GPa) = 6.07484 54.20025 30.13755
# Shear Modulus (GPa) = 8.94066 27.29305 18.11686
#
# Velocity S-wave (km/s) = 2.22822 3.89314 3.17187
# Velocity P-wave (km/s) = 3.16124 7.09277 5.49094
#
# Compressibility (1/GPa) = 0.16461338
#
# Stress axis : x y z
#
# Youngs Moduli (GPa) = 7.23811 44.53274 76.71611
#
# Poissons Ratio (x) = -0.77407 1.04356
# Poissons Ratio (y) = -0.12581 0.63647
# Poissons Ratio (z) = 0.09846 0.36946
#
# Static dielectric constant tensor:
#      x y z
#    x 1.662280 -0.014590 0.007500 
#    y -0.014590 1.660740 -0.010670 
#    z 0.007500 -0.010670 1.688020 
# 
# From -- ./inp_files/252486.got.cif
#   From: 2010.05.17/outbox.cif.g08.bks.cpg/sg2_127_cif.got.tgz:252486.got - 2010.06.03 11:33:40.
