data_PCOD9055488
_publ_section_title
;
Structure prediction by ZEFSAII (Michael W. Deem and Ramdas Pophale) SiO2 
 PCOD9055488
Probable space group: P -1
;
_chemical_formula_sum "Si O2"
_cell_formula_units_Z 14
_cell_length_a 10.862459
_cell_length_b 13.414996
_cell_length_c 12.055961
_cell_angle_alpha 52.496832
_cell_angle_beta 40.105869
_cell_angle_gamma 32.005838
_cell_volume 595.736358
_symmetry_space_group_name_H-M "P -1"
_symmetry_group_IT_number 2
_symmetry_cell_setting 'triclinic'
loop_
_space_group_symop_operation_xyz
x,y,z
-x,-y,-z
loop_
_atom_site_type_symbol
_atom_site_label
_atom_site_fract_x
_atom_site_fract_y
_atom_site_fract_z
Si Si1 0.061138 0.379719 0.142307
Si Si2 0.467611 0.665927 0.392944
Si Si3 0.378514 0.424914 0.324174
Si Si4 0.346967 0.808830 0.126597
Si Si5 0.888907 0.208111 0.266179
Si Si6 0.231512 0.212347 0.588246
Si Si7 0.830294 0.214369 0.956474
O O1 0.786078 0.548998 0.290917
O O2 0.043940 0.248636 0.191322
O O3 0.365703 0.261177 0.062281
O O4 0.000000 0.500000 0.000000
O O5 0.500000 0.500000 0.500000
O O6 0.399056 0.736208 0.266350
O O7 0.222884 0.827924 0.535347
O O8 0.598365 0.387427 0.280162
O O9 0.365056 0.284756 0.465348
O O10 0.042265 0.627704 0.413312
O O11 0.554317 0.350653 0.136135
O O12 0.277609 0.742125 0.126217
O O13 0.092863 0.034680 0.160003
O O14 0.062841 0.214584 0.798653
O O15 0.500000 0.000000 0.500000
O O16 0.000000 0.000000 0.000000
#
# Coordination Sequence:
#
# PCOD9055488 Si02
#       7
#     2   2   2   2   2   2   2
#     4   9  21  39  62  95 127 178 227 278 345 415
#     4   9  21  40  61  93 128 176 225 281 342 407
#     4  11  26  46  71 109 142 192 237 299 358 425
#     4  11  22  41  69  96 136 184 226 286 349 419
#     4  11  21  42  66  98 137 170 236 286 350 420
#     4  11  24  46  71 102 145 190 245 286 359 424
#     4  12  24  47  70 106 148 187 236 292 362 423
#
# _framework density 23.500329000000001
#
# number of rings (size 3 to 8) (size 9 to 14) (size 15 to 20)
#    0.000    1.429    2.857    1.286    6.000    2.286 
#    7.714    0.000    0.000    0.000    0.000    0.000 
#    0.000    0.000    0.000    0.000    0.000    0.000 
#
# Total GULP energy -78067.301608 kJ/mol
# GULP energy per Si atom -5576.235829 kJ/mol
# Density = 2.344684 g / cm^3
# Si number density = 23.500329 Si / 1000 Ang^3
#
#
#
# Elastic Constant Matrix: (Units=GPa)
#
#
# Indices 1 2 3 4 5 6 
#
# 1 76.5484 9.8024 25.0002 8.5055 -3.4947 2.2835
# 2 9.8024 113.6487 21.1365 21.3001 -1.6999 -11.2396
# 3 25.0002 21.1365 121.8489 17.2129 -14.3981 5.9526
# 4 8.5055 21.3001 17.2129 40.8967 -2.4525 1.0709
# 5 -3.4947 -1.6999 -14.3981 -2.4525 41.5437 -3.0611
# 6 2.2835 -11.2396 5.9526 1.0709 -3.0611 32.3053
#
#
#
# Elastic Compliance Matrix: (Units=1/GPa)
#
#
# Indices 1 2 3 4 5 6 
#
# 1 0.014162 -0.000513 -0.002544 -0.001581 0.000148 -0.000644
# 2 -0.000513 0.010384 -0.001204 -0.004902 -0.000028 0.004031
# 3 -0.002544 -0.001204 0.009739 -0.002730 0.002828 -0.001675
# 4 -0.001581 -0.004902 -0.002730 0.028551 0.000257 -0.002013
# 5 0.000148 -0.000028 0.002828 0.000257 0.025213 0.001839
# 6 -0.000644 0.004031 -0.001675 -0.002013 0.001839 0.032952
#
#
# Mechanical properties :
#
#
# Convention : Reuss Voigt Hill
#
# Bulk Modulus (GPa) = 38.81587 47.10270 42.95929
# Shear Modulus (GPa) = 36.20251 40.02294 38.11273
#
# Velocity S-wave (km/s) = 3.92919 4.13132 4.03152
# Velocity P-wave (km/s) = 6.09408 6.54553 6.32383
#
# Compressibility (1/GPa) = 0.02576266
#
# Stress axis : x y z
#
# Youngs Moduli (GPa) = 70.61150 96.30032 102.67741
#
# Poissons Ratio (x) = 0.04945 0.26124
# Poissons Ratio (y) = 0.03626 0.12359
# Poissons Ratio (z) = 0.17966 0.11591
#
# Static dielectric constant tensor:
#      x y z
#    x 1.970930 -0.009850 0.044680 
#    y -0.009850 1.965330 0.001850 
#    z 0.044680 0.001850 2.035610 
# 
# From -- ./inp_files/432539.got.cif
#   From: 2010.05.17/outbox.cif.g08.bks.cpg/sg2_217_cif.got.tgz:432539.got - 2010.06.03 11:33:40.
