data_PCOD9055717
_publ_section_title
;
Structure prediction by ZEFSAII (Michael W. Deem and Ramdas Pophale) SiO2 
 PCOD9055717
Probable space group: P -1
;
_chemical_formula_sum "Si O2"
_cell_formula_units_Z 14
_cell_length_a 7.663038
_cell_length_b 16.979049
_cell_length_c 14.247657
_cell_angle_alpha 20.797575
_cell_angle_beta 111.415137
_cell_angle_gamma 115.987230
_cell_volume 585.886824
_symmetry_space_group_name_H-M "P -1"
_symmetry_group_IT_number 2
_symmetry_cell_setting 'triclinic'
loop_
_space_group_symop_operation_xyz
x,y,z
-x,-y,-z
loop_
_atom_site_type_symbol
_atom_site_label
_atom_site_fract_x
_atom_site_fract_y
_atom_site_fract_z
Si Si1 0.057832 0.308535 0.485196
Si Si2 0.432801 0.824649 0.095856
Si Si3 0.807448 0.674278 0.314353
Si Si4 0.617863 0.777180 0.464265
Si Si5 0.204028 0.439368 0.763361
Si Si6 0.594738 0.761821 0.689377
Si Si7 0.741483 0.981396 0.658184
O O1 0.055969 0.206980 0.703891
O O2 0.277164 0.360334 0.431366
O O3 0.952350 0.507020 0.257053
O O4 0.934291 0.134894 0.576677
O O5 0.630893 0.783867 0.141342
O O6 0.296479 0.582112 0.377953
O O7 0.500000 0.000000 0.000000
O O8 0.332739 0.958004 0.855054
O O9 0.891163 0.647820 0.258490
O O10 0.383313 0.671233 0.526438
O O11 0.672390 0.756102 0.606163
O O12 0.305796 0.259776 0.027020
O O13 0.747019 0.910651 0.629489
O O14 0.423133 0.887342 0.509969
O O15 0.500000 0.500000 0.000000
#
# Coordination Sequence:
#
# PCOD9055717 Si02
#       7
#     2   2   2   2   2   2   2
#     4  12  27  44  66 115 141 185 241 287 347 428
#     4  11  21  43  68 108 140 189 244 277 349 424
#     4  11  24  41  71 101 150 193 232 287 344 418
#     4  12  24  47  76  98 147 186 230 299 352 409
#     4  12  25  47  70 105 146 191 238 284 345 427
#     4  11  23  49  80 102 133 188 237 294 362 425
#     4  11  25  47  74 105 141 179 242 292 354 423
#
# _framework density 23.895399999999999
#
# number of rings (size 3 to 8) (size 9 to 14) (size 15 to 20)
#    0.000    0.571    5.714    2.143    2.000    1.143 
#    0.000    2.857    0.000    0.000    0.000    0.000 
#    0.000    0.000    0.000    0.000    0.000    0.000 
#
# Total GULP energy -78379.602206 kJ/mol
# GULP energy per Si atom -5598.543015 kJ/mol
# Density = 2.384101 g / cm^3
# Si number density = 23.895400 Si / 1000 Ang^3
#
#
#
# Elastic Constant Matrix: (Units=GPa)
#
#
# Indices 1 2 3 4 5 6 
#
# 1 98.7078 32.9324 40.8562 -5.8861 21.7600 -20.0663
# 2 32.9324 188.4256 22.3744 13.8721 -2.9854 -20.5405
# 3 40.8562 22.3744 138.5316 11.4601 17.6546 -18.6407
# 4 -5.8861 13.8721 11.4601 39.7068 -2.2617 -3.5352
# 5 21.7600 -2.9854 17.6546 -2.2617 25.5795 1.2715
# 6 -20.0663 -20.5405 -18.6407 -3.5352 1.2715 45.5402
#
#
#
# Elastic Compliance Matrix: (Units=1/GPa)
#
#
# Indices 1 2 3 4 5 6 
#
# 1 0.015921 -0.002357 -0.002307 0.003657 -0.012183 0.005632
# 2 -0.002357 0.006098 -0.000267 -0.002131 0.002645 0.001363
# 3 -0.002307 -0.000267 0.009127 -0.002931 -0.004752 0.002504
# 4 0.003657 -0.002131 -0.002931 0.027514 0.001018 0.001558
# 5 -0.012183 0.002645 -0.004752 0.001018 0.053511 -0.007535
# 6 0.005632 0.001363 0.002504 0.001558 -0.007535 0.026412
#
#
# Mechanical properties :
#
#
# Convention : Reuss Voigt Hill
#
# Bulk Modulus (GPa) = 46.98329 68.66566 57.82447
# Shear Modulus (GPa) = 32.14639 44.13210 38.13925
#
# Velocity S-wave (km/s) = 3.67181 4.30220 3.99945
# Velocity P-wave (km/s) = 6.13848 7.31279 6.75122
#
# Compressibility (1/GPa) = 0.02128416
#
# Stress axis : x y z
#
# Youngs Moduli (GPa) = 62.81079 163.98282 109.56508
#
# Poissons Ratio (x) = 0.38650 0.25274
# Poissons Ratio (y) = 0.14804 0.02927
# Poissons Ratio (z) = 0.14489 0.04381
#
# Static dielectric constant tensor:
#      x y z
#    x 1.911390 0.035980 -0.008710 
#    y 0.035980 1.962860 -0.022390 
#    z -0.008710 -0.022390 1.908270 
# 
# From -- ./inp_files/89061.got.cif
#   From: 2010.05.17/outbox.cif.g08.bks.cpg/sg2_45_cif.got.tgz:89061.got - 2010.06.03 11:33:40.
