data_PCOD9055632
_publ_section_title
;
Structure prediction by ZEFSAII (Michael W. Deem and Ramdas Pophale) SiO2 
 PCOD9055632
Probable space group: P -1
;
_chemical_formula_sum "Si O2"
_cell_formula_units_Z 15
_cell_length_a 8.993682
_cell_length_b 15.255999
_cell_length_c 8.464302
_cell_angle_alpha 52.569628
_cell_angle_beta 124.239225
_cell_angle_gamma 86.142567
_cell_volume 596.122174
_symmetry_space_group_name_H-M "P -1"
_symmetry_group_IT_number 2
_symmetry_cell_setting 'triclinic'
loop_
_space_group_symop_operation_xyz
x,y,z
-x,-y,-z
loop_
_atom_site_type_symbol
_atom_site_label
_atom_site_fract_x
_atom_site_fract_y
_atom_site_fract_z
Si Si1 0.397196 0.055086 0.703952
Si Si2 0.478242 0.749445 0.487407
Si Si3 0.237218 0.744601 0.611380
Si Si4 0.865559 0.257626 0.124887
Si Si5 0.165674 0.194883 0.923624
Si Si6 0.000000 0.500000 0.500000
Si Si7 0.160976 0.484169 0.257719
Si Si8 0.015423 0.934209 0.850285
O O1 0.406345 0.176432 0.510195
O O2 0.128738 0.136444 0.468582
O O3 0.500000 0.000000 0.000000
O O4 0.573618 0.917331 0.856161
O O5 0.459224 0.678489 0.706412
O O6 0.591704 0.644791 0.522932
O O7 0.212093 0.882018 0.153146
O O8 0.288337 0.669171 0.891524
O O9 0.031529 0.762415 0.372896
O O10 0.145959 0.899850 0.439428
O O11 0.837605 0.159995 0.109552
O O12 0.846480 0.380244 0.887935
O O13 0.112813 0.337994 0.785852
O O14 0.123405 0.120147 0.116360
O O15 0.100829 0.453919 0.422706
O O16 0.000000 0.500000 0.000000
#
# Coordination Sequence:
#
# PCOD9055632 Si02
#       8
#     2   2   2   2   2   1   2   2
#     4  12  21  41  73 105 133 190 243 296 360 426
#     4  11  23  44  73  97 140 196 241 282 371 436
#     4  11  22  44  72 100 141 190 232 297 361 431
#     4  12  25  42  70 107 146 180 249 303 354 427
#     4  11  21  42  72  98 137 185 235 290 361 426
#     4  12  26  48  70 106 150 186 234 308 368 416
#     4  12  26  48  71 104 149 190 242 302 357 435
#     4  11  22  44  69 103 143 182 239 300 356 434
#
# _framework density 25.162625999999999
#
# number of rings (size 3 to 8) (size 9 to 14) (size 15 to 20)
#    0.000    0.533    6.667    2.800    0.000    1.600 
#    4.800    0.000    0.000    0.000    0.000    0.000 
#    0.000    0.000    0.000    0.000    0.000    0.000 
#
# Total GULP energy -83690.752907 kJ/mol
# GULP energy per Si atom -5579.383527 kJ/mol
# Density = 2.510535 g / cm^3
# Si number density = 25.162626 Si / 1000 Ang^3
#
#
#
# Elastic Constant Matrix: (Units=GPa)
#
#
# Indices 1 2 3 4 5 6 
#
# 1 121.4842 29.3197 26.1204 5.4063 -18.1130 -41.9720
# 2 29.3197 75.9830 9.9478 -25.7174 6.2104 -28.4219
# 3 26.1204 9.9478 52.2782 -14.4986 -4.7999 -4.3498
# 4 5.4063 -25.7174 -14.4986 53.6229 -10.6975 -7.8753
# 5 -18.1130 6.2104 -4.7999 -10.6975 35.1285 7.0758
# 6 -41.9720 -28.4219 -4.3498 -7.8753 7.0758 47.1485
#
#
#
# Elastic Compliance Matrix: (Units=1/GPa)
#
#
# Indices 1 2 3 4 5 6 
#
# 1 0.014110 -0.001795 -0.005910 -0.001552 0.004292 0.010030
# 2 -0.001795 0.025012 0.001014 0.014031 -0.004272 0.016558
# 3 -0.005910 0.001014 0.024234 0.007975 0.002816 -0.001505
# 4 -0.001552 0.014031 0.007975 0.030402 0.004610 0.012198
# 5 0.004292 -0.004272 0.002816 0.004610 0.033787 -0.002795
# 6 0.010030 0.016558 -0.001505 0.012198 -0.002795 0.042438
#
#
# Mechanical properties :
#
#
# Convention : Reuss Voigt Hill
#
# Bulk Modulus (GPa) = 20.01067 42.28015 31.14541
# Shear Modulus (GPa) = 24.99717 39.47047 32.23382
#
# Velocity S-wave (km/s) = 3.15528 3.96487 3.58302
# Velocity P-wave (km/s) = 4.60914 6.14813 5.43340
#
# Compressibility (1/GPa) = 0.04997334
#
# Stress axis : x y z
#
# Youngs Moduli (GPa) = 70.87267 39.98013 41.26491
#
# Poissons Ratio (x) = 0.07178 0.24388
# Poissons Ratio (y) = 0.12724 -0.04185
# Poissons Ratio (z) = 0.41887 -0.04055
#
# Static dielectric constant tensor:
#      x y z
#    x 2.061770 -0.011510 -0.003210 
#    y -0.011510 2.023590 0.095220 
#    z -0.003210 0.095220 1.973970 
# 
# From -- ./inp_files/205716.got.cif
#   From: 2010.05.17/outbox.cif.g08.bks.cpg/sg2_103_cif.got.tgz:205716.got - 2010.06.03 11:33:40.
