data_PCOD9055499
_publ_section_title
;
Structure prediction by ZEFSAII (Michael W. Deem and Ramdas Pophale) SiO2 
 PCOD9055499
Probable space group: P -1
;
_chemical_formula_sum "Si O2"
_cell_formula_units_Z 14
_cell_length_a 11.436283
_cell_length_b 8.343172
_cell_length_c 8.311723
_cell_angle_alpha 52.795021
_cell_angle_beta 58.864266
_cell_angle_gamma 77.272875
_cell_volume 535.679486
_symmetry_space_group_name_H-M "P -1"
_symmetry_group_IT_number 2
_symmetry_cell_setting 'triclinic'
loop_
_space_group_symop_operation_xyz
x,y,z
-x,-y,-z
loop_
_atom_site_type_symbol
_atom_site_label
_atom_site_fract_x
_atom_site_fract_y
_atom_site_fract_z
Si Si1 0.075407 0.520195 0.265065
Si Si2 0.726816 0.188190 0.217669
Si Si3 0.159381 0.126632 0.476899
Si Si4 0.825181 0.498312 0.242988
Si Si5 0.439304 0.899982 0.899525
Si Si6 0.562230 0.330659 0.661662
Si Si7 0.841290 0.964255 0.838214
O O1 0.187437 0.367184 0.290948
O O2 0.000000 0.500000 0.500000
O O3 0.971454 0.451371 0.233519
O O4 0.144672 0.742033 0.035304
O O5 0.759615 0.358232 0.228902
O O6 0.744967 0.972107 0.409128
O O7 0.592530 0.177628 0.210122
O O8 0.172664 0.036918 0.344733
O O9 0.999797 0.068836 0.683444
O O10 0.720230 0.429634 0.503526
O O11 0.832512 0.734058 0.051472
O O12 0.492246 0.737616 0.081058
O O13 0.291971 0.947633 0.049909
O O14 0.533455 0.117155 0.714999
O O15 0.500000 0.500000 0.500000
#
# Coordination Sequence:
#
# PCOD9055499 Si02
#       7
#     2   2   2   2   2   2   2
#     4  12  25  40  65 101 138 174 220 266 325 394
#     4  12  25  42  65 102 137 167 217 272 332 394
#     4  11  23  38  66  96 135 178 210 261 330 393
#     4  12  23  44  68  95 138 175 216 278 327 379
#     4  11  26  44  70  99 128 172 226 272 325 392
#     4  11  24  47  73  92 126 177 224 276 326 383
#     4  11  21  42  67  95 133 177 218 259 327 394
#
# _framework density 26.13503
#
# number of rings (size 3 to 8) (size 9 to 14) (size 15 to 20)
#    0.000    0.571    4.286    5.571    2.000    2.857 
#    0.000    0.714    0.000    0.000    0.000    0.000 
#    0.000    0.000    0.000    0.000    0.000    0.000 
#
# Total GULP energy -78418.024504 kJ/mol
# GULP energy per Si atom -5601.287465 kJ/mol
# Density = 2.607555 g / cm^3
# Si number density = 26.135030 Si / 1000 Ang^3
#
#
#
# Elastic Constant Matrix: (Units=GPa)
#
#
# Indices 1 2 3 4 5 6 
#
# 1 115.0002 29.6185 48.8805 -23.3924 26.0874 13.7047
# 2 29.6185 55.6861 18.7202 -4.0405 20.3518 1.4176
# 3 48.8805 18.7202 144.3471 -28.8089 21.7976 -6.0860
# 4 -23.3924 -4.0405 -28.8089 35.3114 -22.3851 3.5760
# 5 26.0874 20.3518 21.7976 -22.3851 60.3855 3.3864
# 6 13.7047 1.4176 -6.0860 3.5760 3.3864 44.8222
#
#
#
# Elastic Compliance Matrix: (Units=1/GPa)
#
#
# Indices 1 2 3 4 5 6 
#
# 1 0.013093 -0.005381 -0.002653 0.006146 -0.000345 -0.004658
# 2 -0.005381 0.023610 -0.001406 -0.007211 -0.007904 0.001880
# 3 -0.002653 -0.001406 0.009143 0.005559 0.000289 0.001632
# 4 0.006146 -0.007211 0.005559 0.046370 0.015281 -0.005750
# 5 -0.000345 -0.007904 0.000289 0.015281 0.025086 -0.002720
# 6 -0.004658 0.001880 0.001632 -0.005750 -0.002720 0.024561
#
#
# Mechanical properties :
#
#
# Convention : Reuss Voigt Hill
#
# Bulk Modulus (GPa) = 37.08540 56.60797 46.84668
# Shear Modulus (GPa) = 29.45799 42.62478 36.04139
#
# Velocity S-wave (km/s) = 3.36094 4.04288 3.71758
# Velocity P-wave (km/s) = 5.41128 6.59545 6.03249
#
# Compressibility (1/GPa) = 0.02696479
#
# Stress axis : x y z
#
# Youngs Moduli (GPa) = 76.37728 42.35464 109.37030
#
# Poissons Ratio (x) = 0.22792 0.29021
# Poissons Ratio (y) = 0.41100 0.15380
# Poissons Ratio (z) = 0.20266 0.05956
#
# Static dielectric constant tensor:
#      x y z
#    x 2.056720 -0.011800 -0.011970 
#    y -0.011800 2.103670 0.060300 
#    z -0.011970 0.060300 2.059160 
# 
# From -- ./inp_files/206182.got.cif
#   From: 2010.05.17/outbox.cif.g08.bks.cpg/sg2_104_cif.got.tgz:206182.got - 2010.06.03 11:33:40.
