data_PCOD9055539
_publ_section_title
;
Structure prediction by ZEFSAII (Michael W. Deem and Ramdas Pophale) SiO2 
 PCOD9055539
Probable space group: P -1
;
_chemical_formula_sum "Si O2"
_cell_formula_units_Z 16
_cell_length_a 7.028068
_cell_length_b 21.258281
_cell_length_c 17.981770
_cell_angle_alpha 19.880752
_cell_angle_beta 63.945775
_cell_angle_gamma 68.616028
_cell_volume 810.382240
_symmetry_space_group_name_H-M "P -1"
_symmetry_group_IT_number 2
_symmetry_cell_setting 'triclinic'
loop_
_space_group_symop_operation_xyz
x,y,z
-x,-y,-z
loop_
_atom_site_type_symbol
_atom_site_label
_atom_site_fract_x
_atom_site_fract_y
_atom_site_fract_z
Si Si1 0.098995 0.361565 0.192526
Si Si2 0.104580 0.700956 0.462867
Si Si3 0.454604 0.299230 0.694761
Si Si4 0.906122 0.378950 0.952208
Si Si5 0.824737 0.946640 0.699120
Si Si6 0.551052 0.829263 0.731910
Si Si7 0.628052 0.991610 0.836155
Si Si8 0.193887 0.149399 0.767636
O O1 0.116102 0.471266 0.145560
O O2 0.322869 0.310248 0.180981
O O3 0.949628 0.158443 0.445777
O O4 0.000000 0.500000 0.000000
O O5 0.315632 0.735822 0.336405
O O6 0.044854 0.492985 0.736686
O O7 0.907092 0.749505 0.394914
O O8 0.180263 0.840330 0.363084
O O9 0.500000 0.500000 0.500000
O O10 0.292020 0.278939 0.675724
O O11 0.370639 0.154160 0.934888
O O12 0.669379 0.286926 0.070921
O O13 0.019596 0.208896 0.150809
O O14 0.696581 0.914515 0.680390
O O15 0.672899 0.916852 0.830678
O O16 0.500000 0.000000 0.500000
O O17 0.396523 0.058454 0.805509
O O18 0.000000 0.000000 0.000000
#
# Coordination Sequence:
#
# PCOD9055539 Si02
#       8
#     2   2   2   2   2   2   2   2
#     4  12  24  47  77  97 141 189 225 285 362 419
#     4  11  23  43  68 101 133 182 235 277 344 414
#     4  11  23  41  66  97 138 181 225 278 344 414
#     4  12  26  45  72 105 141 181 236 295 343 420
#     4  12  26  47  70 106 145 178 232 298 349 412
#     4  12  26  47  74 106 140 182 238 288 355 427
#     4  11  23  42  70  97 138 184 228 282 348 413
#     4  11  21  42  69  92 133 186 232 277 338 408
#
# _framework density 19.743769
#
# number of rings (size 3 to 8) (size 9 to 14) (size 15 to 20)
#    0.000    0.500    6.250    3.000    0.000    6.500 
#    2.250    0.000    0.000    0.000    0.000    0.000 
#    0.000    0.000    0.000    0.000    0.000    0.000 
#
# Total GULP energy -89431.655804 kJ/mol
# GULP energy per Si atom -5589.478488 kJ/mol
# Density = 1.969883 g / cm^3
# Si number density = 19.743769 Si / 1000 Ang^3
#
#
#
# Elastic Constant Matrix: (Units=GPa)
#
#
# Indices 1 2 3 4 5 6 
#
# 1 124.1404 31.2430 41.8142 -11.1022 6.2526 1.7263
# 2 31.2430 97.3888 17.7437 -13.3590 3.7020 0.8229
# 3 41.8142 17.7437 118.5144 -3.7446 -2.2289 -6.2166
# 4 -11.1022 -13.3590 -3.7446 37.9747 -0.7862 -5.8922
# 5 6.2526 3.7020 -2.2289 -0.7862 38.7595 1.1576
# 6 1.7263 0.8229 -6.2166 -5.8922 1.1576 17.8658
#
#
#
# Elastic Compliance Matrix: (Units=1/GPa)
#
#
# Indices 1 2 3 4 5 6 
#
# 1 0.009956 -0.002330 -0.003216 0.001530 -0.001497 -0.001372
# 2 -0.002330 0.011652 -0.000798 0.003415 -0.000731 0.000584
# 3 -0.003216 -0.000798 0.009926 0.000378 0.001058 0.003858
# 4 0.001530 0.003415 0.000378 0.029499 -0.000239 0.009571
# 5 -0.001497 -0.000731 0.001058 -0.000239 0.026204 -0.001230
# 6 -0.001372 0.000584 0.003858 0.009571 -0.001230 0.060657
#
#
# Mechanical properties :
#
#
# Convention : Reuss Voigt Hill
#
# Bulk Modulus (GPa) = 53.05621 57.96060 55.50841
# Shear Modulus (GPa) = 29.96454 35.53619 32.75036
#
# Velocity S-wave (km/s) = 3.89996 4.24709 4.07722
# Velocity P-wave (km/s) = 6.87097 7.31235 7.09509
#
# Compressibility (1/GPa) = 0.01884793
#
# Stress axis : x y z
#
# Youngs Moduli (GPa) = 100.44011 85.82121 100.74563
#
# Poissons Ratio (x) = 0.19994 0.32397
# Poissons Ratio (y) = 0.23400 0.08037
# Poissons Ratio (z) = 0.32298 0.06846
#
# Static dielectric constant tensor:
#      x y z
#    x 1.664800 -0.012080 -0.001700 
#    y -0.012080 1.711440 0.026900 
#    z -0.001700 0.026900 1.650560 
# 
# From -- ./inp_files/550957.got.cif
#   From: 2010.05.17/outbox.cif.g08.bks.cpg/sg2_276_cif.got.tgz:550957.got - 2010.06.03 11:33:40.
