data_PCOD9055034
_publ_section_title
;
Structure prediction by ZEFSAII (Michael W. Deem and Ramdas Pophale) SiO2 
 PCOD9055034
Probable space group: P -1
;
_chemical_formula_sum "Si O2"
_cell_formula_units_Z 14
_cell_length_a 13.400111
_cell_length_b 15.856692
_cell_length_c 9.469573
_cell_angle_alpha 147.113425
_cell_angle_beta 135.958419
_cell_angle_gamma 39.211441
_cell_volume 676.917117
_symmetry_space_group_name_H-M "P -1"
_symmetry_group_IT_number 2
_symmetry_cell_setting 'triclinic'
loop_
_space_group_symop_operation_xyz
x,y,z
-x,-y,-z
loop_
_atom_site_type_symbol
_atom_site_label
_atom_site_fract_x
_atom_site_fract_y
_atom_site_fract_z
Si Si1 0.693498 0.051684 0.373303
Si Si2 0.898782 0.401811 0.706095
Si Si3 0.670192 0.338632 0.921047
Si Si4 0.987718 0.186885 0.218560
Si Si5 0.346024 0.266436 0.214205
Si Si6 0.112743 0.307526 0.279143
Si Si7 0.881708 0.232092 0.734802
O O1 0.663560 0.154023 0.634764
O O2 0.537580 0.172020 0.290316
O O3 0.851432 0.062385 0.489836
O O4 0.702891 0.863332 0.107264
O O5 0.989210 0.278853 0.494692
O O6 0.731604 0.549362 0.682081
O O7 0.874305 0.293712 0.655478
O O8 0.000000 0.500000 0.000000
O O9 0.728872 0.364327 0.861341
O O10 0.500000 0.500000 0.000000
O O11 0.815520 0.299566 0.122293
O O12 0.125321 0.183019 0.247666
O O13 0.000000 0.000000 0.000000
O O14 0.267805 0.290518 0.326366
O O15 0.000000 0.500000 0.500000
O O16 0.020858 0.253690 0.990171
#
# Coordination Sequence:
#
# PCOD9055034 Si02
#       7
#     2   2   2   2   2   2   2
#     4   9  23  40  62  90 120 172 206 256 308 389
#     4  12  23  39  60  93 130 160 202 267 314 369
#     4   9  20  42  65  86 121 167 213 251 314 383
#     4  11  25  38  63  97 125 158 219 268 309 368
#     4  11  22  39  64  91 129 160 212 259 317 375
#     4  11  21  40  61  91 121 169 207 257 320 374
#     4   9  22  38  63  88 117 169 208 250 313 376
#
# _framework density 20.682001
#
# number of rings (size 3 to 8) (size 9 to 14) (size 15 to 20)
#    0.857    0.857    2.857    0.857    6.000    1.143 
#    0.000    0.000    0.000    1.714    0.000    0.000 
#    0.000    0.000    0.000    0.000    0.000    0.000 
#
# Total GULP energy -78048.047943 kJ/mol
# GULP energy per Si atom -5574.860567 kJ/mol
# Density = 2.063493 g / cm^3
# Si number density = 20.682001 Si / 1000 Ang^3
#
#
#
# Elastic Constant Matrix: (Units=GPa)
#
#
# Indices 1 2 3 4 5 6 
#
# 1 46.0841 20.1558 10.8662 -13.0990 -6.6069 14.4085
# 2 20.1558 65.8666 12.7979 4.9090 -3.3288 17.5367
# 3 10.8662 12.7979 128.9609 0.8809 -8.1168 5.3794
# 4 -13.0990 4.9090 0.8809 28.2920 3.4495 0.8947
# 5 -6.6069 -3.3288 -8.1168 3.4495 36.3856 -5.6304
# 6 14.4085 17.5367 5.3794 0.8947 -5.6304 39.5025
#
#
#
# Elastic Compliance Matrix: (Units=1/GPa)
#
#
# Indices 1 2 3 4 5 6 
#
# 1 0.033792 -0.009031 -0.001598 0.017272 0.002047 -0.008198
# 2 -0.009031 0.020107 -0.000969 -0.007454 -0.000138 -0.005351
# 3 -0.001598 -0.000969 0.008083 -0.001017 0.001545 0.000156
# 4 0.017272 -0.007454 -0.001017 0.045133 -0.002711 -0.004261
# 5 0.002047 -0.000138 0.001545 -0.002711 0.028954 0.003292
# 6 -0.008198 -0.005351 0.000156 -0.004261 0.003292 0.031225
#
#
# Mechanical properties :
#
#
# Convention : Reuss Voigt Hill
#
# Bulk Modulus (GPa) = 25.78282 36.50569 31.14426
# Shear Modulus (GPa) = 24.57971 33.97546 29.27759
#
# Velocity S-wave (km/s) = 3.45114 4.05749 3.76654
# Velocity P-wave (km/s) = 5.32671 6.29605 5.83156
#
# Compressibility (1/GPa) = 0.03878552
#
# Stress axis : x y z
#
# Youngs Moduli (GPa) = 29.59249 49.73279 123.71955
#
# Poissons Ratio (x) = 0.44915 0.19773
# Poissons Ratio (y) = 0.26726 0.11988
# Poissons Ratio (z) = 0.04730 0.04819
#
# Static dielectric constant tensor:
#      x y z
#    x 1.763630 -0.024740 0.012980 
#    y -0.024740 1.775570 0.027340 
#    z 0.012980 0.027340 1.810790 
# 
# From -- ./inp_files/314281.got.cif
#   From: 2010.05.17/outbox.cif.g08.bks.cpg/sg2_158_cif.got.tgz:314281.got - 2010.06.03 11:33:40.
