data_PCOD9055683
_publ_section_title
;
Structure prediction by ZEFSAII (Michael W. Deem and Ramdas Pophale) SiO2 
 PCOD9055683
Probable space group: P -1
;
_chemical_formula_sum "Si O2"
_cell_formula_units_Z 14
_cell_length_a 15.729947
_cell_length_b 20.573568
_cell_length_c 6.931469
_cell_angle_alpha 49.421940
_cell_angle_beta 35.867744
_cell_angle_gamma 25.852307
_cell_volume 545.177795
_symmetry_space_group_name_H-M "P -1"
_symmetry_group_IT_number 2
_symmetry_cell_setting 'triclinic'
loop_
_space_group_symop_operation_xyz
x,y,z
-x,-y,-z
loop_
_atom_site_type_symbol
_atom_site_label
_atom_site_fract_x
_atom_site_fract_y
_atom_site_fract_z
Si Si1 0.190116 0.152472 0.712474
Si Si2 0.122492 0.218304 0.256698
Si Si3 0.161692 0.979351 0.027638
Si Si4 0.314430 0.359948 0.213043
Si Si5 0.728018 0.447237 0.257201
Si Si6 0.791729 0.016969 0.528499
Si Si7 0.719158 0.670509 0.260505
O O1 0.167046 0.191751 0.454588
O O2 0.500000 0.000000 0.500000
O O3 0.070812 0.115033 0.014367
O O4 0.992026 0.305711 0.911876
O O5 0.818921 0.379222 0.436524
O O6 0.215403 0.082774 0.249759
O O7 0.250474 0.244234 0.897078
O O8 0.458177 0.823152 0.869697
O O9 0.161986 0.994526 0.765487
O O10 0.005872 0.966192 0.351844
O O11 0.351943 0.357167 0.379703
O O12 0.000000 0.500000 0.500000
O O13 0.370439 0.409080 0.873091
O O14 0.500000 0.500000 0.500000
O O15 0.514017 0.203405 0.706322
O O16 0.000000 0.500000 0.000000
#
# Coordination Sequence:
#
# PCOD9055683 Si02
#       7
#     2   2   2   2   2   2   2
#     4  11  26  45  75 107 141 188 249 297 356 438
#     4  11  24  45  71 102 144 188 242 296 353 436
#     4   9  20  41  67  95 133 185 229 292 349 420
#     4  11  21  43  65  92 142 183 228 284 357 422
#     4  12  27  45  71 109 146 190 235 300 372 425
#     4   9  20  39  67  96 132 180 234 284 360 414
#     4  11  23  38  68 102 135 183 235 293 356 427
#
# _framework density 25.679697000000001
#
# number of rings (size 3 to 8) (size 9 to 14) (size 15 to 20)
#    0.000    1.429    1.429    3.000    6.000    2.857 
#    0.000    1.429    0.000    0.000    0.000    0.000 
#    0.000    0.000    0.000    0.000    0.000    0.000 
#
# Total GULP energy -78262.804318 kJ/mol
# GULP energy per Si atom -5590.200308 kJ/mol
# Density = 2.562125 g / cm^3
# Si number density = 25.679697 Si / 1000 Ang^3
#
#
#
# Elastic Constant Matrix: (Units=GPa)
#
#
# Indices 1 2 3 4 5 6 
#
# 1 134.2631 43.9471 31.8984 -11.4311 -4.6620 -17.5174
# 2 43.9471 145.1399 34.3753 -20.7045 -8.1789 -6.7560
# 3 31.8984 34.3753 79.5911 -8.7877 -21.5690 -5.7563
# 4 -11.4311 -20.7045 -8.7877 36.4867 -3.7186 -6.0344
# 5 -4.6620 -8.1789 -21.5690 -3.7186 39.9513 -1.9243
# 6 -17.5174 -6.7560 -5.7563 -6.0344 -1.9243 60.8695
#
#
#
# Elastic Compliance Matrix: (Units=1/GPa)
#
#
# Indices 1 2 3 4 5 6 
#
# 1 0.009087 -0.001830 -0.002655 0.001497 -0.000498 0.002294
# 2 -0.001830 0.008624 -0.002324 0.003934 0.000694 0.000623
# 3 -0.002655 -0.002324 0.017522 0.003195 0.009031 0.001237
# 4 0.001497 0.003934 0.003195 0.032235 0.005924 0.004553
# 5 -0.000498 0.000694 0.009031 0.005924 0.030654 0.002344
# 6 0.002294 0.000623 0.001237 0.004553 0.002344 0.017800
#
#
# Mechanical properties :
#
#
# Convention : Reuss Voigt Hill
#
# Bulk Modulus (GPa) = 46.26595 64.38173 55.32384
# Shear Modulus (GPa) = 36.56424 44.04640 40.30532
#
# Velocity S-wave (km/s) = 3.77750 4.14602 3.96604
# Velocity P-wave (km/s) = 6.08947 6.93143 6.52405
#
# Compressibility (1/GPa) = 0.02161417
#
# Stress axis : x y z
#
# Youngs Moduli (GPa) = 110.04131 115.95887 57.07269
#
# Poissons Ratio (x) = 0.21225 0.15154
# Poissons Ratio (y) = 0.20142 0.13262
# Poissons Ratio (z) = 0.29219 0.26945
#
# Static dielectric constant tensor:
#      x y z
#    x 2.047630 -0.024970 0.027160 
#    y -0.024970 2.005910 -0.000520 
#    z 0.027160 -0.000520 2.074620 
# 
# From -- ./inp_files/338661.got.cif
#   From: 2010.05.17/outbox.cif.g08.bks.cpg/sg2_170_cif.got.tgz:338661.got - 2010.06.03 11:33:40.
