data_PCOD9055445
_publ_section_title
;
Structure prediction by ZEFSAII (Michael W. Deem and Ramdas Pophale) SiO2 
 PCOD9055445
Probable space group: P -1
;
_chemical_formula_sum "Si O2"
_cell_formula_units_Z 16
_cell_length_a 16.449265
_cell_length_b 18.578400
_cell_length_c 9.358540
_cell_angle_alpha 35.142651
_cell_angle_beta 145.049334
_cell_angle_gamma 154.765953
_cell_volume 663.522886
_symmetry_space_group_name_H-M "P -1"
_symmetry_group_IT_number 2
_symmetry_cell_setting 'triclinic'
loop_
_space_group_symop_operation_xyz
x,y,z
-x,-y,-z
loop_
_atom_site_type_symbol
_atom_site_label
_atom_site_fract_x
_atom_site_fract_y
_atom_site_fract_z
Si Si1 0.216397 0.489815 0.000032
Si Si2 0.691127 0.649044 0.434683
Si Si3 0.195360 0.777299 0.306258
Si Si4 0.375124 0.747319 0.073587
Si Si5 0.763143 0.531353 0.461718
Si Si6 0.206684 0.058325 0.741531
Si Si7 0.227696 0.890784 0.489525
Si Si8 0.469851 0.712725 0.743341
O O1 0.282888 0.633161 0.979324
O O2 0.396320 0.593403 0.974254
O O3 0.028693 0.403730 0.769089
O O4 0.156599 0.337529 0.266004
O O5 0.500000 0.500000 0.500000
O O6 0.686542 0.583492 0.381946
O O7 0.740383 0.823798 0.236436
O O8 0.250483 0.847182 0.434457
O O9 0.343548 0.763063 0.490892
O O10 0.208217 0.917689 0.019491
O O11 0.346854 0.877727 0.797767
O O12 0.248014 0.609591 0.243955
O O13 0.600916 0.826938 0.276397
O O14 0.618379 0.423434 0.292995
O O15 0.989493 0.718779 0.451720
O O16 0.000000 0.000000 0.500000
O O17 0.309783 0.085709 0.291794
#
# Coordination Sequence:
#
# PCOD9055445 Si02
#       8
#     2   2   2   2   2   2   2   2
#     4  11  21  41  74  97 138 191 232 290 350 423
#     4  11  24  48  72  93 139 195 243 281 345 426
#     4  12  23  41  73 109 141 188 238 296 352 429
#     4  11  23  45  69 102 145 188 229 297 360 418
#     4  11  26  44  70 109 145 184 232 301 360 420
#     4  12  24  43  74 102 136 192 255 280 337 436
#     4  12  24  43  71 110 150 180 233 295 374 421
#     4  12  24  43  71 107 147 179 235 296 368 414
#
# _framework density 24.113714000000002
#
# number of rings (size 3 to 8) (size 9 to 14) (size 15 to 20)
#    0.000    0.500    7.500    2.625    0.000    2.500 
#    0.000    1.250    2.750    0.000    0.000    0.000 
#    0.000    0.000    0.000    0.000    0.000    0.000 
#
# Total GULP energy -89237.069959 kJ/mol
# GULP energy per Si atom -5577.316872 kJ/mol
# Density = 2.405883 g / cm^3
# Si number density = 24.113714 Si / 1000 Ang^3
#
#
#
# Elastic Constant Matrix: (Units=GPa)
#
#
# Indices 1 2 3 4 5 6 
#
# 1 91.2468 39.3518 21.5891 -4.4087 -13.8895 -14.5081
# 2 39.3518 104.8701 30.3689 8.5239 -13.5776 18.0264
# 3 21.5891 30.3689 33.3886 -8.4886 3.8895 1.7373
# 4 -4.4087 8.5239 -8.4886 37.1288 0.9171 -7.1211
# 5 -13.8895 -13.5776 3.8895 0.9171 41.3436 4.4350
# 6 -14.5081 18.0264 1.7373 -7.1211 4.4350 30.6291
#
#
#
# Elastic Compliance Matrix: (Units=1/GPa)
#
#
# Indices 1 2 3 4 5 6 
#
# 1 0.018709 -0.009089 -0.003189 0.006538 0.001776 0.015655
# 2 -0.009089 0.026365 -0.022454 -0.017148 0.010681 -0.024082
# 3 -0.003189 -0.022454 0.059014 0.021687 -0.016167 0.015740
# 4 0.006538 -0.017148 0.021687 0.041199 -0.008837 0.022817
# 5 0.001776 0.010681 -0.016167 -0.008837 0.031200 -0.011100
# 6 0.015655 -0.024082 0.015740 0.022817 -0.011100 0.060256
#
#
# Mechanical properties :
#
#
# Convention : Reuss Voigt Hill
#
# Bulk Modulus (GPa) = 28.88326 45.79169 37.33747
# Shear Modulus (GPa) = 15.73561 31.03333 23.38447
#
# Velocity S-wave (km/s) = 2.55729 3.59131 3.11747
# Velocity P-wave (km/s) = 4.55232 6.01895 5.33626
#
# Compressibility (1/GPa) = 0.03462213
#
# Stress axis : x y z
#
# Youngs Moduli (GPa) = 53.44963 37.92908 16.94508
#
# Poissons Ratio (x) = 0.34475 0.05405
# Poissons Ratio (y) = 0.48582 0.38049
# Poissons Ratio (z) = 0.17048 0.85167
#
# Static dielectric constant tensor:
#      x y z
#    x 1.882720 0.091520 0.051810 
#    y 0.091520 2.144200 0.150260 
#    z 0.051810 0.150260 2.402370 
# 
# From -- ./inp_files/317986.got.cif
#   From: 2010.05.17/outbox.cif.g08.bks.cpg/sg2_159_cif.got.tgz:317986.got - 2010.06.03 11:33:40.
