data_PCOD9055240
_publ_section_title
;
Structure prediction by ZEFSAII (Michael W. Deem and Ramdas Pophale) SiO2 
 PCOD9055240
Probable space group: P -1
;
_chemical_formula_sum "Si O2"
_cell_formula_units_Z 12
_cell_length_a 16.264322
_cell_length_b 5.647056
_cell_length_c 17.797964
_cell_angle_alpha 47.655448
_cell_angle_beta 156.628696
_cell_angle_gamma 124.636248
_cell_volume 472.266996
_symmetry_space_group_name_H-M "P -1"
_symmetry_group_IT_number 2
_symmetry_cell_setting 'triclinic'
loop_
_space_group_symop_operation_xyz
x,y,z
-x,-y,-z
loop_
_atom_site_type_symbol
_atom_site_label
_atom_site_fract_x
_atom_site_fract_y
_atom_site_fract_z
Si Si1 0.504510 0.816593 0.621901
Si Si2 0.365755 0.132941 0.126478
Si Si3 0.498798 0.878442 0.911945
Si Si4 0.910320 0.464390 0.684504
Si Si5 0.218600 0.862005 0.813141
Si Si6 0.970508 0.621484 0.036133
O O1 0.539153 0.012691 0.684780
O O2 0.294706 0.668219 0.483956
O O3 0.729439 0.582815 0.857504
O O4 0.500000 0.000000 0.500000
O O5 0.504347 0.994628 0.201945
O O6 0.369580 0.523391 0.038730
O O7 0.112448 0.168367 0.905492
O O8 0.313812 0.002174 0.789206
O O9 0.500000 0.500000 0.000000
O O10 0.733909 0.904142 0.131615
O O11 0.992664 0.757593 0.646961
O O12 0.902915 0.550354 0.749274
O O13 0.000000 0.500000 0.000000
O O14 0.000000 0.000000 0.000000
#
# Coordination Sequence:
#
# PCOD9055240 Si02
#       6
#     2   2   2   2   2   2
#     4  11  21  41  62  89 130 166 212 263 312 376
#     4   8  19  34  58  86 118 160 201 247 314 371
#     4   9  15  33  63  84 110 159 202 249 318 380
#     4   9  20  37  57  92 122 160 208 258 314 371
#     4   8  17  33  57  86 119 153 201 255 314 377
#     4  11  24  44  65  90 126 173 220 265 321 378
#
# _framework density 25.409355000000001
#
# number of rings (size 3 to 8) (size 9 to 14) (size 15 to 20)
#    1.000    1.667    1.667    0.000    0.000    3.333 
#    0.000    0.833    0.000    5.000    0.000    0.000 
#    0.000    0.000    0.000    0.000    0.000    0.000 
#
# Total GULP energy -66801.898855 kJ/mol
# GULP energy per Si atom -5566.824905 kJ/mol
# Density = 2.535152 g / cm^3
# Si number density = 25.409355 Si / 1000 Ang^3
#
#
#
# Elastic Constant Matrix: (Units=GPa)
#
#
# Indices 1 2 3 4 5 6 
#
# 1 206.3086 15.1453 47.4897 24.2983 -6.8622 1.0408
# 2 15.1453 69.2386 22.3431 20.9428 21.2706 19.1707
# 3 47.4897 22.3431 118.8030 32.7750 18.0623 7.0973
# 4 24.2983 20.9428 32.7750 39.3993 15.6454 10.5532
# 5 -6.8622 21.2706 18.0623 15.6454 51.6590 14.0476
# 6 1.0408 19.1707 7.0973 10.5532 14.0476 35.2597
#
#
#
# Elastic Compliance Matrix: (Units=1/GPa)
#
#
# Indices 1 2 3 4 5 6 
#
# 1 0.005707 -0.000700 -0.001786 -0.002723 0.002376 0.000440
# 2 -0.000700 0.019936 -0.000758 -0.005904 -0.004294 -0.007188
# 3 -0.001786 -0.000758 0.011629 -0.007707 -0.001990 0.001224
# 4 -0.002723 -0.005904 -0.007707 0.040333 -0.006152 -0.004779
# 5 0.002376 -0.004294 -0.001990 -0.006152 0.025542 -0.005670
# 6 0.000440 -0.007188 0.001224 -0.004779 -0.005670 0.035699
#
#
# Mechanical properties :
#
#
# Convention : Reuss Voigt Hill
#
# Bulk Modulus (GPa) = 32.48511 62.70072 47.59292
# Shear Modulus (GPa) = 32.13434 45.88840 39.01137
#
# Velocity S-wave (km/s) = 3.56007 4.25427 3.92256
# Velocity P-wave (km/s) = 5.45080 6.99011 6.26789
#
# Compressibility (1/GPa) = 0.03078333
#
# Stress axis : x y z
#
# Youngs Moduli (GPa) = 175.21910 50.16113 85.98829
#
# Poissons Ratio (x) = 0.03512 0.15357
# Poissons Ratio (y) = 0.12268 0.06522
# Poissons Ratio (z) = 0.31292 0.03805
#
# Static dielectric constant tensor:
#      x y z
#    x 2.132640 -0.057640 -0.062380 
#    y -0.057640 2.118940 -0.023660 
#    z -0.062380 -0.023660 2.038960 
# 
# From -- ./inp_files/574780.got.cif
#   From: 2010.05.17/outbox.cif.g08.bks.cpg/sg2_288_cif.got.tgz:574780.got - 2010.06.03 11:33:40.
