data_PCOD9055500
_publ_section_title
;
Structure prediction by ZEFSAII (Michael W. Deem and Ramdas Pophale) SiO2 
 PCOD9055500
Probable space group: P -1
;
_chemical_formula_sum "Si O2"
_cell_formula_units_Z 14
_cell_length_a 9.366874
_cell_length_b 22.004451
_cell_length_c 9.745202
_cell_angle_alpha 53.302979
_cell_angle_beta 48.469859
_cell_angle_gamma 26.957470
_cell_volume 681.523844
_symmetry_space_group_name_H-M "P -1"
_symmetry_group_IT_number 2
_symmetry_cell_setting 'triclinic'
loop_
_space_group_symop_operation_xyz
x,y,z
-x,-y,-z
loop_
_atom_site_type_symbol
_atom_site_label
_atom_site_fract_x
_atom_site_fract_y
_atom_site_fract_z
Si Si1 0.181613 0.678777 0.701327
Si Si2 0.867490 0.849506 0.928465
Si Si3 0.114282 0.294023 0.423359
Si Si4 0.284806 0.367677 0.592509
Si Si5 0.712537 0.378233 0.829398
Si Si6 0.102479 0.472825 0.127845
Si Si7 0.288848 0.860973 0.583028
O O1 0.412823 0.673078 0.514219
O O2 0.456383 0.533524 0.797229
O O3 0.909976 0.800280 0.816578
O O4 0.000453 0.697947 0.662927
O O5 0.116302 0.841463 0.779685
O O6 0.989653 0.741571 0.095570
O O7 0.500000 0.000000 0.000000
O O8 0.071683 0.398934 0.308437
O O9 0.501499 0.159771 0.409630
O O10 0.869711 0.336925 0.634166
O O11 0.442582 0.252297 0.551115
O O12 0.000000 0.500000 0.500000
O O13 0.114230 0.404059 0.797042
O O14 0.469761 0.386952 0.997276
O O15 0.000000 0.500000 0.000000
O O16 0.000000 0.000000 0.500000
#
# Coordination Sequence:
#
# PCOD9055500 Si02
#       7
#     2   2   2   2   2   2   2
#     4  11  23  41  69  98 132 174 217 276 334 381
#     4  11  25  44  65  98 131 174 229 265 322 404
#     4  12  23  44  66 100 136 168 218 276 335 382
#     4  11  21  42  67  97 132 175 224 264 326 395
#     4  12  22  39  71  97 132 172 218 269 326 388
#     4  12  22  38  65 103 135 166 214 277 325 386
#     4  11  24  45  69  92 135 180 216 273 332 392
#
# _framework density 20.542203000000001
#
# number of rings (size 3 to 8) (size 9 to 14) (size 15 to 20)
#    0.000    0.571    5.714    3.429    0.000    2.286 
#    0.000    8.571    0.000    0.000    0.000    0.000 
#    0.000    0.000    0.000    0.000    0.000    0.000 
#
# Total GULP energy -78163.651414 kJ/mol
# GULP energy per Si atom -5583.117958 kJ/mol
# Density = 2.049545 g / cm^3
# Si number density = 20.542203 Si / 1000 Ang^3
#
#
#
# Elastic Constant Matrix: (Units=GPa)
#
#
# Indices 1 2 3 4 5 6 
#
# 1 107.8975 41.7324 45.6172 14.8411 -8.7869 -4.3334
# 2 41.7324 119.7437 49.5466 13.5096 15.8872 -12.8122
# 3 45.6172 49.5466 146.6866 18.0001 2.4553 2.1175
# 4 14.8411 13.5096 18.0001 36.2496 3.5408 1.2151
# 5 -8.7869 15.8872 2.4553 3.5408 29.3916 -0.5593
# 6 -4.3334 -12.8122 2.1175 1.2151 -0.5593 18.8276
#
#
#
# Elastic Compliance Matrix: (Units=1/GPa)
#
#
# Indices 1 2 3 4 5 6 
#
# 1 0.012796 -0.003856 -0.002398 -0.003282 0.006525 0.000996
# 2 -0.003856 0.012965 -0.003012 -0.001288 -0.007600 0.008131
# 3 -0.002398 -0.003012 0.008898 -0.002235 0.000372 -0.003447
# 4 -0.003282 -0.001288 -0.002235 0.031018 -0.003902 -0.003498
# 5 0.006525 -0.007600 0.000372 -0.003902 0.040478 -0.002257
# 6 0.000996 0.008131 -0.003447 -0.003498 -0.002257 0.059423
#
#
# Mechanical properties :
#
#
# Convention : Reuss Voigt Hill
#
# Bulk Modulus (GPa) = 62.00822 72.01337 67.01079
# Shear Modulus (GPa) = 26.38718 32.72251 29.55485
#
# Velocity S-wave (km/s) = 3.58793 3.99550 3.79718
# Velocity P-wave (km/s) = 6.88590 7.51117 7.20532
#
# Compressibility (1/GPa) = 0.01612690
#
# Stress axis : x y z
#
# Youngs Moduli (GPa) = 78.14901 77.13028 112.38333
#
# Poissons Ratio (x) = 0.29744 0.26946
# Poissons Ratio (y) = 0.30137 0.33852
# Poissons Ratio (z) = 0.18738 0.23233
#
# Static dielectric constant tensor:
#      x y z
#    x 1.804220 -0.018330 -0.015940 
#    y -0.018330 1.740940 -0.027950 
#    z -0.015940 -0.027950 1.741060 
# 
# From -- ./inp_files/223365.got.cif
#   From: 2010.05.17/outbox.cif.g08.bks.cpg/sg2_112_cif.got.tgz:223365.got - 2010.06.03 11:33:40.
