data_PCOD9055022
_publ_section_title
;
Structure prediction by ZEFSAII (Michael W. Deem and Ramdas Pophale) SiO2 
 PCOD9055022
Probable space group: P -1
;
_chemical_formula_sum "Si O2"
_cell_formula_units_Z 16
_cell_length_a 9.430626
_cell_length_b 8.308489
_cell_length_c 11.675788
_cell_angle_alpha 105.007154
_cell_angle_beta 107.618116
_cell_angle_gamma 111.069307
_cell_volume 740.830125
_symmetry_space_group_name_H-M "P -1"
_symmetry_group_IT_number 2
_symmetry_cell_setting 'triclinic'
loop_
_space_group_symop_operation_xyz
x,y,z
-x,-y,-z
loop_
_atom_site_type_symbol
_atom_site_label
_atom_site_fract_x
_atom_site_fract_y
_atom_site_fract_z
Si Si1 0.232045 0.012153 0.988711
Si Si2 0.814248 0.345282 0.201996
Si Si3 0.477534 0.559288 0.878262
Si Si4 0.918891 0.015602 0.806034
Si Si5 0.301053 0.816567 0.615683
Si Si6 0.419105 0.277728 0.422407
Si Si7 0.145279 0.698880 0.304082
Si Si8 0.501673 0.767398 0.314948
O O1 0.093955 0.015142 0.867946
O O2 0.273415 0.849922 0.925779
O O3 0.385834 0.222903 0.070671
O O4 0.142177 0.952090 0.078960
O O5 0.704617 0.453453 0.182337
O O6 0.811545 0.292336 0.324376
O O7 0.001610 0.481678 0.228069
O O8 0.499640 0.416311 0.771860
O O9 0.500000 0.500000 0.000000
O O10 0.924595 0.171166 0.747747
O O11 0.768202 0.815492 0.690098
O O12 0.456397 0.768769 0.632072
O O13 0.201158 0.756659 0.460144
O O14 0.388512 0.042845 0.694849
O O15 0.500000 0.500000 0.500000
O O16 0.417455 0.192741 0.531229
O O17 0.311953 0.732743 0.281482
#
# Coordination Sequence:
#
# PCOD9055022 Si02
#       8
#     2   2   2   2   2   2   2   2
#     4  11  27  43  68  99 139 184 229 284 341 412
#     4  12  27  45  69 101 143 182 226 288 358 405
#     4  12  27  47  69 101 140 186 233 278 352 422
#     4  11  23  44  67 103 137 174 237 287 334 402
#     4  11  22  45  68 106 141 181 226 286 354 412
#     4  11  21  39  72 103 135 179 234 286 339 405
#     4  11  24  43  71 105 138 179 230 290 341 410
#     4  11  23  43  75 102 133 184 236 280 341 412
#
# _framework density 21.597393
#
# number of rings (size 3 to 8) (size 9 to 14) (size 15 to 20)
#    0.000    0.750    2.500    5.250    8.750    0.500 
#    2.250    1.250    0.000    0.000    0.000    0.000 
#    0.000    0.000    0.000    0.000    0.000    0.000 
#
# Total GULP energy -89595.986717 kJ/mol
# GULP energy per Si atom -5599.749170 kJ/mol
# Density = 2.154824 g / cm^3
# Si number density = 21.597393 Si / 1000 Ang^3
#
#
#
# Elastic Constant Matrix: (Units=GPa)
#
#
# Indices 1 2 3 4 5 6 
#
# 1 41.9117 16.1162 18.8054 1.6326 6.1745 -5.7523
# 2 16.1162 105.4741 25.1979 8.5656 1.8276 -3.0057
# 3 18.8054 25.1979 69.9116 8.1510 8.7882 -4.2869
# 4 1.6326 8.5656 8.1510 48.0884 -4.0881 -5.5934
# 5 6.1745 1.8276 8.7882 -4.0881 35.4946 3.2244
# 6 -5.7523 -3.0057 -4.2869 -5.5934 3.2244 25.7504
#
#
#
# Elastic Compliance Matrix: (Units=1/GPa)
#
#
# Indices 1 2 3 4 5 6 
#
# 1 0.028985 -0.002825 -0.006045 0.000895 -0.003825 0.005812
# 2 -0.002825 0.010727 -0.003043 -0.001278 0.000567 -0.000234
# 3 -0.006045 -0.003043 0.017836 -0.002444 -0.003597 0.001183
# 4 0.000895 -0.001278 -0.002444 0.022113 0.002689 0.004110
# 5 -0.003825 0.000567 -0.003597 0.002689 0.030429 -0.004613
# 6 0.005812 -0.000234 0.001183 0.004110 -0.004613 0.041773
#
#
# Mechanical properties :
#
#
# Convention : Reuss Voigt Hill
#
# Bulk Modulus (GPa) = 29.65517 37.50406 33.57961
# Shear Modulus (GPa) = 26.74790 32.34522 29.54656
#
# Velocity S-wave (km/s) = 3.52302 3.87414 3.70274
# Velocity P-wave (km/s) = 5.50542 6.11676 5.81912
#
# Compressibility (1/GPa) = 0.03372093
#
# Stress axis : x y z
#
# Youngs Moduli (GPa) = 34.50072 93.22317 56.06547
#
# Poissons Ratio (x) = 0.26339 0.33894
# Poissons Ratio (y) = 0.09748 0.17060
# Poissons Ratio (z) = 0.20857 0.28366
#
# Static dielectric constant tensor:
#      x y z
#    x 1.743290 0.002830 -0.001680 
#    y 0.002830 1.782290 -0.014870 
#    z -0.001680 -0.014870 1.777630 
# 
# From -- ./inp_files/382996.got.cif
#   From: 2010.05.17/outbox.cif.g08.bks.cpg/sg2_192_cif.got.tgz:382996.got - 2010.06.03 11:33:40.
