data_PCOD9055812
_publ_section_title
;
Structure prediction by ZEFSAII (Michael W. Deem and Ramdas Pophale) SiO2 
 PCOD9055812
Probable space group: P -1
;
_chemical_formula_sum "Si O2"
_cell_formula_units_Z 16
_cell_length_a 8.981411
_cell_length_b 8.456935
_cell_length_c 16.213685
_cell_angle_alpha 62.557066
_cell_angle_beta 87.484676
_cell_angle_gamma 130.665842
_cell_volume 712.443736
_symmetry_space_group_name_H-M "P -1"
_symmetry_group_IT_number 2
_symmetry_cell_setting 'triclinic'
loop_
_space_group_symop_operation_xyz
x,y,z
-x,-y,-z
loop_
_atom_site_type_symbol
_atom_site_label
_atom_site_fract_x
_atom_site_fract_y
_atom_site_fract_z
Si Si1 0.939771 0.714427 0.247657
Si Si2 0.829927 0.698668 0.609224
Si Si3 0.735537 0.735434 0.987284
Si Si4 0.379763 0.376755 0.621642
Si Si5 0.488711 0.790448 0.085698
Si Si6 0.996026 0.261076 0.225369
Si Si7 0.253842 0.605344 0.828764
Si Si8 0.667348 0.204178 0.738487
O O1 0.130516 0.736399 0.247235
O O2 0.805064 0.637480 0.352341
O O3 0.758590 0.489878 0.238162
O O4 0.071470 0.005381 0.137895
O O5 0.579610 0.561518 0.641050
O O6 0.777397 0.463985 0.620468
O O7 0.949396 0.738667 0.680633
O O8 0.000000 0.000000 0.500000
O O9 0.685524 0.838612 0.035745
O O10 0.793915 0.597397 0.057956
O O11 0.500000 0.500000 0.000000
O O12 0.500000 0.500000 0.500000
O O13 0.222494 0.058424 0.711995
O O14 0.460886 0.809383 0.179222
O O15 0.255387 0.484004 0.133065
O O16 0.500000 0.000000 0.000000
O O17 0.926849 0.397934 0.169039
O O18 0.492433 0.914856 0.768648
#
# Coordination Sequence:
#
# PCOD9055812 Si02
#       8
#     2   2   2   2   2   2   2   2
#     4  12  26  47  70 108 152 188 247 302 361 441
#     4  11  23  47  77 102 137 180 249 312 364 432
#     4  12  24  44  71 114 150 202 241 295 361 431
#     4  12  27  48  78 107 134 194 253 303 380 437
#     4  11  21  43  73 102 154 194 240 291 357 438
#     4  11  24  44  72 105 146 193 239 298 366 438
#     4  12  24  44  72 107 156 193 238 295 366 437
#     4  11  24  45  72 107 145 189 235 301 366 434
#
# _framework density 22.457913999999999
#
# number of rings (size 3 to 8) (size 9 to 14) (size 15 to 20)
#    0.000    0.500    7.500    1.125    3.500    0.000 
#    0.000    6.875    0.000    0.000    0.000    0.000 
#    0.000    0.000    0.000    0.000    0.000    0.000 
#
# Total GULP energy -89269.486315 kJ/mol
# GULP energy per Si atom -5579.342895 kJ/mol
# Density = 2.240680 g / cm^3
# Si number density = 22.457914 Si / 1000 Ang^3
#
#
#
# Elastic Constant Matrix: (Units=GPa)
#
#
# Indices 1 2 3 4 5 6 
#
# 1 97.9851 35.6274 61.5807 6.4077 9.1282 8.2216
# 2 35.6274 137.7220 45.8927 -29.9188 -12.0082 10.9968
# 3 61.5807 45.8927 119.5148 -20.6934 2.3553 -10.5659
# 4 6.4077 -29.9188 -20.6934 44.9748 -4.1236 2.2127
# 5 9.1282 -12.0082 2.3553 -4.1236 42.5913 -0.1308
# 6 8.2216 10.9968 -10.5659 2.2127 -0.1308 36.3674
#
#
#
# Elastic Compliance Matrix: (Units=1/GPa)
#
#
# Indices 1 2 3 4 5 6 
#
# 1 0.020658 -0.003968 -0.011469 -0.011108 -0.006006 -0.006148
# 2 -0.003968 0.011116 -0.001224 0.008000 0.004817 -0.003289
# 3 -0.011469 -0.001224 0.016807 0.008376 0.002017 0.007343
# 4 -0.011108 0.008000 0.008376 0.033650 0.007433 0.000505
# 5 -0.006006 0.004817 0.002017 0.007433 0.026733 0.000131
# 6 -0.006148 -0.003289 0.007343 0.000505 0.000131 0.031985
#
#
# Mechanical properties :
#
#
# Convention : Reuss Voigt Hill
#
# Bulk Modulus (GPa) = 65.54083 71.26928 68.40505
# Shear Modulus (GPa) = 27.87722 38.92811 33.40267
#
# Velocity S-wave (km/s) = 3.52704 4.16791 3.86080
# Velocity P-wave (km/s) = 6.77008 7.41387 7.09927
#
# Compressibility (1/GPa) = 0.01525767
#
# Stress axis : x y z
#
# Youngs Moduli (GPa) = 48.40672 89.95908 59.50072
#
# Poissons Ratio (x) = 0.35698 0.68242
# Poissons Ratio (y) = 0.19209 0.07285
# Poissons Ratio (z) = 0.55518 0.11014
#
# Static dielectric constant tensor:
#      x y z
#    x 1.866890 -0.007890 0.005920 
#    y -0.007890 1.884630 0.011420 
#    z 0.005920 0.011420 1.870780 
# 
# From -- ./inp_files/556088.got.cif
#   From: 2010.05.17/outbox.cif.g08.bks.cpg/sg2_279_cif.got.tgz:556088.got - 2010.06.03 11:33:40.
