data_PCOD9055248
_publ_section_title
;
Structure prediction by ZEFSAII (Michael W. Deem and Ramdas Pophale) SiO2 
 PCOD9055248
Probable space group: P -1
;
_chemical_formula_sum "Si O2"
_cell_formula_units_Z 16
_cell_length_a 14.437857
_cell_length_b 14.123838
_cell_length_c 14.954915
_cell_angle_alpha 129.362269
_cell_angle_beta 42.962348
_cell_angle_gamma 160.435944
_cell_volume 675.188290
_symmetry_space_group_name_H-M "P -1"
_symmetry_group_IT_number 2
_symmetry_cell_setting 'triclinic'
loop_
_space_group_symop_operation_xyz
x,y,z
-x,-y,-z
loop_
_atom_site_type_symbol
_atom_site_label
_atom_site_fract_x
_atom_site_fract_y
_atom_site_fract_z
Si Si1 0.582433 0.156036 0.900973
Si Si2 0.442787 0.677825 0.308851
Si Si3 0.807617 0.004312 0.065797
Si Si4 0.340796 0.753373 0.720246
Si Si5 0.307550 0.920569 0.514062
Si Si6 0.245385 0.047294 0.202556
Si Si7 0.562184 0.614844 0.885941
Si Si8 0.434270 0.579258 0.634757
O O1 0.380519 0.069666 0.919160
O O2 0.964011 0.473982 0.806697
O O3 0.466572 0.924039 0.822810
O O4 0.489011 0.141297 0.052032
O O5 0.636597 0.881892 0.207484
O O6 0.430422 0.522108 0.218910
O O7 0.071108 0.416579 0.416810
O O8 0.626794 0.885056 0.387129
O O9 0.753197 0.819379 0.960577
O O10 0.185460 0.342709 0.001319
O O11 0.383826 0.643203 0.634989
O O12 0.545650 0.972662 0.624047
O O13 0.500000 0.000000 0.500000
O O14 0.287034 0.190440 0.187705
O O15 0.302814 0.153091 0.322054
O O16 0.891797 0.699673 0.243661
O O17 0.500000 0.500000 0.500000
#
# Coordination Sequence:
#
# PCOD9055248 Si02
#       8
#     2   2   2   2   2   2   2   2
#     4  11  23  44  72  99 136 173 230 285 338 407
#     4  12  24  39  68  93 137 180 227 279 328 418
#     4  11  21  41  64 102 137 174 218 281 346 388
#     4  12  26  44  70 100 135 184 230 280 342 396
#     4  12  26  44  65  98 135 181 228 274 339 398
#     4  11  25  45  71 101 133 179 224 282 347 390
#     4  11  23  39  68  98 136 173 226 278 338 406
#     4  12  28  46  70  98 141 178 226 282 336 410
#
# _framework density 23.697092999999999
#
# number of rings (size 3 to 8) (size 9 to 14) (size 15 to 20)
#    0.000    0.500    0.000    9.750    3.500    3.000 
#    0.000    0.000    0.000    0.000    0.000    0.000 
#    0.000    0.000    0.000    0.000    0.000    0.000 
#
# Total GULP energy -89683.190497 kJ/mol
# GULP energy per Si atom -5605.199406 kJ/mol
# Density = 2.364316 g / cm^3
# Si number density = 23.697093 Si / 1000 Ang^3
#
#
#
# Elastic Constant Matrix: (Units=GPa)
#
#
# Indices 1 2 3 4 5 6 
#
# 1 83.5267 0.2859 36.7647 -7.6583 6.4376 -20.3869
# 2 0.2859 101.7908 13.9907 -4.9540 -2.1861 2.6584
# 3 36.7647 13.9907 101.4303 5.7380 -6.3731 -7.0755
# 4 -7.6583 -4.9540 5.7380 65.2198 -7.6615 -6.2929
# 5 6.4376 -2.1861 -6.3731 -7.6615 25.8746 6.3766
# 6 -20.3869 2.6584 -7.0755 -6.2929 6.3766 36.5753
#
#
#
# Elastic Compliance Matrix: (Units=1/GPa)
#
#
# Indices 1 2 3 4 5 6 
#
# 1 0.018432 0.000551 -0.006667 0.002899 -0.007993 0.010836
# 2 0.000551 0.010134 -0.001655 0.001003 0.000785 -0.000714
# 3 -0.006667 -0.001655 0.012739 -0.001693 0.004708 -0.002244
# 4 0.002899 0.001003 -0.001693 0.016591 0.002984 0.003550
# 5 -0.007993 0.000785 0.004708 0.002984 0.045461 -0.011014
# 6 0.010836 -0.000714 -0.002244 0.003550 -0.011014 0.035530
#
#
# Mechanical properties :
#
#
# Convention : Reuss Voigt Hill
#
# Bulk Modulus (GPa) = 38.81539 43.20337 41.00938
# Shear Modulus (GPa) = 30.67175 41.24770 35.95972
#
# Velocity S-wave (km/s) = 3.60158 4.17660 3.89970
# Velocity P-wave (km/s) = 5.80608 6.44436 6.13353
#
# Compressibility (1/GPa) = 0.02576297
#
# Stress axis : x y z
#
# Youngs Moduli (GPa) = 54.25436 98.67485 78.49963
#
# Poissons Ratio (x) = -0.05437 0.52337
# Poissons Ratio (y) = -0.02990 0.12990
# Poissons Ratio (z) = 0.36172 0.16329
#
# Static dielectric constant tensor:
#      x y z
#    x 1.920850 -0.029180 -0.044000 
#    y -0.029180 1.856060 0.047270 
#    z -0.044000 0.047270 1.919260 
# 
# From -- ./inp_files/533784.got.cif
#   From: 2010.05.17/outbox.cif.g08.bks.cpg/sg2_267_cif.got.tgz:533784.got - 2010.06.03 11:33:40.
