data_PCOD9055762
_publ_section_title
;
Structure prediction by ZEFSAII (Michael W. Deem and Ramdas Pophale) SiO2 
 PCOD9055762
Probable space group: P -1
;
_chemical_formula_sum "Si O2"
_cell_formula_units_Z 16
_cell_length_a 8.698524
_cell_length_b 16.165708
_cell_length_c 9.791307
_cell_angle_alpha 68.045756
_cell_angle_beta 138.500649
_cell_angle_gamma 119.660899
_cell_volume 792.752541
_symmetry_space_group_name_H-M "P -1"
_symmetry_group_IT_number 2
_symmetry_cell_setting 'triclinic'
loop_
_space_group_symop_operation_xyz
x,y,z
-x,-y,-z
loop_
_atom_site_type_symbol
_atom_site_label
_atom_site_fract_x
_atom_site_fract_y
_atom_site_fract_z
Si Si1 0.697882 0.057151 0.208126
Si Si2 0.887850 0.441329 0.597151
Si Si3 0.264950 0.104144 0.497463
Si Si4 0.635235 0.254303 0.127691
Si Si5 0.545495 0.740853 0.691514
Si Si6 0.491980 0.280700 0.732891
Si Si7 0.922964 0.630748 0.989662
Si Si8 0.181484 0.407335 0.355155
O O1 0.667919 0.155622 0.168559
O O2 0.970452 0.078192 0.314307
O O3 0.677621 0.989557 0.367476
O O4 0.500000 0.000000 0.000000
O O5 0.688822 0.340757 0.482140
O O6 0.764220 0.502257 0.568036
O O7 0.000000 0.500000 0.500000
O O8 0.091635 0.426291 0.844485
O O9 0.389205 0.162385 0.410488
O O10 0.363564 0.178252 0.642377
O O11 0.517692 0.248325 0.201082
O O12 0.904664 0.336625 0.252137
O O13 0.472443 0.276588 0.885782
O O14 0.774982 0.703049 0.856943
O O15 0.361124 0.349409 0.541401
O O16 0.783892 0.315826 0.871890
O O17 0.824564 0.570347 0.823639
#
# Coordination Sequence:
#
# PCOD9055762 Si02
#       8
#     2   2   2   2   2   2   2   2
#     4  11  23  42  73  99 127 171 226 271 323 401
#     4  12  26  43  66 102 135 177 220 277 332 386
#     4  11  22  43  71  97 130 171 221 272 328 392
#     4  11  24  41  67 100 136 174 215 275 339 383
#     4  12  26  44  65 101 140 174 216 277 337 391
#     4  11  21  43  70  95 126 180 223 265 323 395
#     4  11  24  42  66  94 132 180 222 268 323 392
#     4  11  23  44  69  96 132 177 230 268 320 398
#
# _framework density 20.182841
#
# number of rings (size 3 to 8) (size 9 to 14) (size 15 to 20)
#    0.000    0.750    6.250    1.125    1.750    5.000 
#    0.000    0.625    0.000    0.000    0.000    0.000 
#    0.000    0.000    0.000    0.000    0.000    0.000 
#
# Total GULP energy -89518.399741 kJ/mol
# GULP energy per Si atom -5594.899984 kJ/mol
# Density = 2.013690 g / cm^3
# Si number density = 20.182841 Si / 1000 Ang^3
#
#
#
# Elastic Constant Matrix: (Units=GPa)
#
#
# Indices 1 2 3 4 5 6 
#
# 1 50.6652 9.1791 43.7836 -2.3177 -26.9936 16.1734
# 2 9.1791 79.8593 35.0502 -9.0751 -16.5581 17.9332
# 3 43.7836 35.0502 131.1110 -9.7653 -21.0473 19.5438
# 4 -2.3177 -9.0751 -9.7653 42.3376 4.3383 -3.8383
# 5 -26.9936 -16.5581 -21.0473 4.3383 38.9460 -7.9884
# 6 16.1734 17.9332 19.5438 -3.8383 -7.9884 36.0789
#
#
#
# Elastic Compliance Matrix: (Units=1/GPa)
#
#
# Indices 1 2 3 4 5 6 
#
# 1 0.046889 0.008007 -0.011685 -0.002369 0.027207 -0.012898
# 2 0.008007 0.017324 -0.004671 0.001498 0.008667 -0.007592
# 3 -0.011685 -0.004671 0.012281 0.001583 -0.003566 0.000286
# 4 -0.002369 0.001498 0.001583 0.024577 -0.002579 0.001504
# 5 0.027207 0.008667 -0.003566 -0.002579 0.045604 -0.004750
# 6 -0.012898 -0.007592 0.000286 0.001504 -0.004750 0.036226
#
#
# Mechanical properties :
#
#
# Convention : Reuss Voigt Hill
#
# Bulk Modulus (GPa) = 16.72344 48.62902 32.67623
# Shear Modulus (GPa) = 22.77600 35.04735 28.91167
#
# Velocity S-wave (km/s) = 3.36293 4.17164 3.78893
# Velocity P-wave (km/s) = 4.83560 6.88114 5.94698
#
# Compressibility (1/GPa) = 0.05979632
#
# Stress axis : x y z
#
# Youngs Moduli (GPa) = 21.32702 57.72440 81.42801
#
# Poissons Ratio (x) = -0.46222 0.95151
# Poissons Ratio (y) = -0.17077 0.38032
# Poissons Ratio (z) = 0.24921 0.26961
#
# Static dielectric constant tensor:
#      x y z
#    x 1.694640 0.021610 -0.005750 
#    y 0.021610 1.721080 -0.016750 
#    z -0.005750 -0.016750 1.726770 
# 
# From -- ./inp_files/56715.got.cif
#   From: 2010.05.17/outbox.cif.g08.bks.cpg/sg2_29_cif.got.tgz:56715.got - 2010.06.03 11:33:40.
