data_PCOD9055307
_publ_section_title
;
Structure prediction by ZEFSAII (Michael W. Deem and Ramdas Pophale) SiO2 
 PCOD9055307
Probable space group: P -1
;
_chemical_formula_sum "Si O2"
_cell_formula_units_Z 16
_cell_length_a 23.763519
_cell_length_b 16.754195
_cell_length_c 11.565817
_cell_angle_alpha 28.618079
_cell_angle_beta 28.483707
_cell_angle_gamma 20.126420
_cell_volume 715.855863
_symmetry_space_group_name_H-M "P -1"
_symmetry_group_IT_number 2
_symmetry_cell_setting 'triclinic'
loop_
_space_group_symop_operation_xyz
x,y,z
-x,-y,-z
loop_
_atom_site_type_symbol
_atom_site_label
_atom_site_fract_x
_atom_site_fract_y
_atom_site_fract_z
Si Si1 0.278207 0.000577 0.316751
Si Si2 0.923625 0.947567 0.797531
Si Si3 0.777730 0.323906 0.231271
Si Si4 0.949243 0.547843 0.164813
Si Si5 0.544789 0.665527 0.435925
Si Si6 0.389808 0.273853 0.527242
Si Si7 0.513759 0.383927 0.980426
Si Si8 0.444510 0.214644 0.108573
O O1 0.257502 0.821502 0.573606
O O2 0.400621 0.920419 0.305478
O O3 0.094606 0.280558 0.299363
O O4 0.386651 0.935879 0.087981
O O5 0.027487 0.865503 0.833378
O O6 0.720038 0.186678 0.870573
O O7 0.000000 0.000000 0.500000
O O8 0.948748 0.732320 0.983326
O O9 0.661380 0.466280 0.377099
O O10 0.712653 0.536804 0.992796
O O11 0.759002 0.663442 0.356414
O O12 0.000000 0.500000 0.000000
O O13 0.656214 0.643245 0.360696
O O14 0.449065 0.620341 0.738132
O O15 0.555509 0.979954 0.612178
O O16 0.432247 0.399050 0.225064
O O17 0.476916 0.281856 0.080740
#
# Coordination Sequence:
#
# PCOD9055307 Si02
#       8
#     2   2   2   2   2   2   2   2
#     4  11  22  41  69  95 131 162 219 274 318 371
#     4  12  24  40  68  97 127 169 218 267 316 382
#     4  11  22  40  69  95 126 168 218 271 316 377
#     4  12  24  41  63 101 131 163 216 271 321 372
#     4  11  23  42  67  96 128 172 218 262 321 380
#     4  12  27  41  66  97 135 171 210 268 318 392
#     4  12  23  46  66  92 133 176 217 252 324 393
#     4  11  21  41  67  93 125 177 213 260 322 377
#
# _framework density 22.350867999999998
#
# number of rings (size 3 to 8) (size 9 to 14) (size 15 to 20)
#    0.000    0.500    6.250    3.000    3.500    1.000 
#    0.000    2.500    0.000    0.000    0.000    0.000 
#    0.000    0.000    0.000    0.000    0.000    0.000 
#
# Total GULP energy -89523.464647 kJ/mol
# GULP energy per Si atom -5595.216540 kJ/mol
# Density = 2.230000 g / cm^3
# Si number density = 22.350868 Si / 1000 Ang^3
#
#
#
# Elastic Constant Matrix: (Units=GPa)
#
#
# Indices 1 2 3 4 5 6 
#
# 1 108.9086 37.6390 22.3762 -1.9753 5.0090 -14.7675
# 2 37.6390 80.5105 22.3916 -26.5190 9.9616 -23.2882
# 3 22.3762 22.3916 67.7681 -13.8385 -2.1448 -6.1979
# 4 -1.9753 -26.5190 -13.8385 33.0404 0.1497 -2.9437
# 5 5.0090 9.9616 -2.1448 0.1497 33.2403 -6.4881
# 6 -14.7675 -23.2882 -6.1979 -2.9437 -6.4881 36.8436
#
#
#
# Elastic Compliance Matrix: (Units=1/GPa)
#
#
# Indices 1 2 3 4 5 6 
#
# 1 0.012023 -0.007019 -0.002976 -0.006216 0.000008 -0.000613
# 2 -0.007019 0.029386 -0.001065 0.024229 -0.004668 0.016696
# 3 -0.002976 -0.001065 0.017685 0.006545 0.002276 0.002033
# 4 -0.006216 0.024229 0.006545 0.053675 -0.002681 0.017741
# 5 0.000008 -0.004668 0.002276 -0.002681 0.032205 0.002893
# 6 -0.000613 0.016696 0.002033 0.017741 0.002893 0.039718
#
#
# Mechanical properties :
#
#
# Convention : Reuss Voigt Hill
#
# Bulk Modulus (GPa) = 27.04594 46.88898 36.96746
# Shear Modulus (GPa) = 22.81684 32.27689 27.54686
#
# Velocity S-wave (km/s) = 3.19854 3.80425 3.51447
# Velocity P-wave (km/s) = 5.07619 6.34985 5.74841
#
# Compressibility (1/GPa) = 0.03697412
#
# Stress axis : x y z
#
# Youngs Moduli (GPa) = 83.17459 34.02998 56.54441
#
# Poissons Ratio (x) = 0.23886 0.16827
# Poissons Ratio (y) = 0.58380 0.06023
# Poissons Ratio (z) = 0.24751 0.03625
#
# Static dielectric constant tensor:
#      x y z
#    x 1.840130 0.007010 -0.023460 
#    y 0.007010 1.833970 -0.015020 
#    z -0.023460 -0.015020 1.853390 
# 
# From -- ./inp_files/475327.got.cif
#   From: 2010.05.17/outbox.cif.g08.bks.cpg/sg2_238_cif.got.tgz:475327.got - 2010.06.03 11:33:40.
