data_PCOD9055193
_publ_section_title
;
Structure prediction by ZEFSAII (Michael W. Deem and Ramdas Pophale) SiO2 
 PCOD9055193
Probable space group: P -1
;
_chemical_formula_sum "Si O2"
_cell_formula_units_Z 10
_cell_length_a 11.985842
_cell_length_b 10.215620
_cell_length_c 15.656488
_cell_angle_alpha 152.593949
_cell_angle_beta 137.518692
_cell_angle_gamma 60.597350
_cell_volume 506.504005
_symmetry_space_group_name_H-M "P -1"
_symmetry_group_IT_number 2
_symmetry_cell_setting 'triclinic'
loop_
_space_group_symop_operation_xyz
x,y,z
-x,-y,-z
loop_
_atom_site_type_symbol
_atom_site_label
_atom_site_fract_x
_atom_site_fract_y
_atom_site_fract_z
Si Si1 0.580558 0.282818 0.459988
Si Si2 0.021399 0.757927 0.936743
Si Si3 0.458564 0.568668 0.898560
Si Si4 0.585002 0.828091 0.508232
Si Si5 0.828080 0.696304 0.280099
O O1 0.500000 0.500000 0.500000
O O2 0.518072 0.235814 0.495833
O O3 0.812517 0.494182 0.704327
O O4 0.498922 0.929268 0.160041
O O5 0.099675 0.557206 0.813252
O O6 0.185657 0.952139 0.213752
O O7 0.000000 0.000000 0.000000
O O8 0.452803 0.496184 0.753539
O O9 0.259678 0.281365 0.665980
O O10 0.637954 0.554079 0.031028
O O11 0.500000 0.000000 0.500000
O O12 0.000000 0.000000 0.500000
#
# Coordination Sequence:
#
# PCOD9055193 Si02
#       5
#     2   2   2   2   2
#     4  12  25  47  70  96 146 187 220 288 353 402
#     4  12  24  45  69  98 142 183 223 282 351 404
#     4  11  23  42  68 101 137 175 232 285 333 410
#     4  12  25  43  70 106 135 175 237 285 335 412
#     4  11  21  40  70  98 138 183 222 280 349 404
#
# _framework density 19.743181
#
# number of rings (size 3 to 8) (size 9 to 14) (size 15 to 20)
#    0.000    0.400    8.000    1.200    0.000    3.200 
#    0.000    2.000    0.000    0.000    0.000    0.000 
#    0.000    0.000    0.000    0.000    0.000    0.000 
#
# Total GULP energy -55814.897338 kJ/mol
# GULP energy per Si atom -5581.489734 kJ/mol
# Density = 1.969824 g / cm^3
# Si number density = 19.743181 Si / 1000 Ang^3
#
#
#
# Elastic Constant Matrix: (Units=GPa)
#
#
# Indices 1 2 3 4 5 6 
#
# 1 156.9438 47.1289 86.7492 0.4427 4.1254 -0.5649
# 2 47.1289 135.5256 42.3546 4.8667 -2.8272 -13.0413
# 3 86.7492 42.3546 106.2721 -0.8430 9.8665 4.6909
# 4 0.4427 4.8667 -0.8430 32.0814 -4.0566 2.6847
# 5 4.1254 -2.8272 9.8665 -4.0566 47.5917 -7.6747
# 6 -0.5649 -13.0413 4.6909 2.6847 -7.6747 37.1330
#
#
#
# Elastic Compliance Matrix: (Units=1/GPa)
#
#
# Indices 1 2 3 4 5 6 
#
# 1 0.011875 -0.001031 -0.009436 -0.000227 0.001047 0.001244
# 2 -0.001031 0.009230 -0.003202 -0.001583 0.001831 0.004123
# 3 -0.009436 -0.003202 0.018964 0.000995 -0.003953 -0.004553
# 4 -0.000227 -0.001583 0.000995 0.031912 0.002024 -0.002574
# 5 0.001047 0.001831 -0.003953 0.002024 0.022950 0.005756
# 6 0.001244 0.004123 -0.004553 -0.002574 0.005756 0.030348
#
#
# Mechanical properties :
#
#
# Convention : Reuss Voigt Hill
#
# Bulk Modulus (GPa) = 78.54617 83.46743 81.00680
# Shear Modulus (GPa) = 31.87563 38.19514 35.03539
#
# Velocity S-wave (km/s) = 4.02246 4.40318 4.21712
# Velocity P-wave (km/s) = 7.83862 8.25948 8.05180
#
# Compressibility (1/GPa) = 0.01273137
#
# Stress axis : x y z
#
# Youngs Moduli (GPa) = 84.21313 108.34804 52.73015
#
# Poissons Ratio (x) = 0.11167 0.49758
# Poissons Ratio (y) = 0.08680 0.16882
# Poissons Ratio (z) = 0.79466 0.34689
#
# Static dielectric constant tensor:
#      x y z
#    x 1.709760 -0.013560 -0.009200 
#    y -0.013560 1.709610 0.026150 
#    z -0.009200 0.026150 1.756010 
# 
# From -- ./inp_files/144463.got.cif
#   From: 2010.05.17/outbox.cif.g08.bks.cpg/sg2_73_cif.got.tgz:144463.got - 2010.06.03 11:33:40.
