data_PCOD9055670
_publ_section_title
;
Structure prediction by ZEFSAII (Michael W. Deem and Ramdas Pophale) SiO2 
 PCOD9055670
Probable space group: P -1
;
_chemical_formula_sum "Si O2"
_cell_formula_units_Z 16
_cell_length_a 18.433888
_cell_length_b 8.241667
_cell_length_c 11.966255
_cell_angle_alpha 34.389692
_cell_angle_beta 121.907798
_cell_angle_gamma 97.649235
_cell_volume 675.470616
_symmetry_space_group_name_H-M "P -1"
_symmetry_group_IT_number 2
_symmetry_cell_setting 'triclinic'
loop_
_space_group_symop_operation_xyz
x,y,z
-x,-y,-z
loop_
_atom_site_type_symbol
_atom_site_label
_atom_site_fract_x
_atom_site_fract_y
_atom_site_fract_z
Si Si1 0.934488 0.461039 0.810524
Si Si2 0.145872 0.335476 0.115333
Si Si3 0.399658 0.604937 0.527011
Si Si4 0.240081 0.750266 0.898447
Si Si5 0.682859 0.517981 0.280911
Si Si6 0.372409 0.322013 0.461896
Si Si7 0.579552 0.807757 0.807037
Si Si8 0.788962 0.364662 0.664014
O O1 0.903667 0.518611 0.883985
O O2 0.909035 0.193401 0.898139
O O3 0.054592 0.347014 0.966442
O O4 0.849912 0.836081 0.456274
O O5 0.180531 0.563570 0.960336
O O6 0.252592 0.908937 0.456314
O O7 0.416882 0.368159 0.783863
O O8 0.436271 0.398971 0.555671
O O9 0.264838 0.842069 0.268186
O O10 0.440570 0.830048 0.461718
O O11 0.294916 0.651434 0.122681
O O12 0.343261 0.524003 0.025766
O O13 0.759136 0.534323 0.419037
O O14 0.650444 0.724377 0.022714
O O15 0.292322 0.332288 0.478406
O O16 0.461827 0.951222 0.675693
#
# Coordination Sequence:
#
# PCOD9055670 Si02
#       8
#     2   2   2   2   2   2   2   2
#     4  11  23  38  65  82 112 161 187 239 298 334
#     4  11  21  43  59  85 116 148 200 239 285 347
#     4   8  20  38  59  80 119 152 191 239 273 331
#     4  12  22  39  60  88 120 147 192 242 285 342
#     4   9  21  38  60  84 118 150 192 240 277 342
#     4   9  22  37  58  87 121 150 192 233 281 344
#     4  12  20  37  61  88 115 161 187 226 295 335
#     4   8  20  40  57  86 117 150 189 243 280 329
#
# _framework density 23.687189
#
# number of rings (size 3 to 8) (size 9 to 14) (size 15 to 20)
#    1.500    0.250    3.750    1.125    1.750    2.500 
#    2.250    1.250    0.000    3.000    0.000    0.000 
#    0.000    0.000    0.000    0.000    0.000    0.000 
#
# Total GULP energy -89076.797231 kJ/mol
# GULP energy per Si atom -5567.299827 kJ/mol
# Density = 2.363328 g / cm^3
# Si number density = 23.687189 Si / 1000 Ang^3
#
#
#
# Elastic Constant Matrix: (Units=GPa)
#
#
# Indices 1 2 3 4 5 6 
#
# 1 79.5825 11.8134 7.2600 0.9636 11.8126 -7.8094
# 2 11.8134 30.3861 3.0440 14.5111 -3.5978 -13.3539
# 3 7.2600 3.0440 58.9698 15.6746 -4.3667 -5.1144
# 4 0.9636 14.5111 15.6746 35.0534 -8.2493 -6.4067
# 5 11.8126 -3.5978 -4.3667 -8.2493 25.4579 5.2426
# 6 -7.8094 -13.3539 -5.1144 -6.4067 5.2426 39.3903
#
#
#
# Elastic Compliance Matrix: (Units=1/GPa)
#
#
# Indices 1 2 3 4 5 6 
#
# 1 0.015153 -0.006715 -0.002465 0.001873 -0.008167 0.001799
# 2 -0.006715 0.050521 0.004815 -0.020073 0.001920 0.012901
# 3 -0.002465 0.004815 0.019990 -0.010150 0.001578 0.001878
# 4 0.001873 -0.020073 -0.010150 0.043068 0.008907 -0.001932
# 5 -0.008167 0.001920 0.001578 0.008907 0.047663 -0.005658
# 6 0.001799 0.012901 0.001878 -0.001932 -0.005658 0.030800
#
#
# Mechanical properties :
#
#
# Convention : Reuss Voigt Hill
#
# Bulk Modulus (GPa) = 12.99790 23.68590 18.34190
# Shear Modulus (GPa) = 20.69791 29.76840 25.23316
#
# Velocity S-wave (km/s) = 2.95922 3.54888 3.26738
# Velocity P-wave (km/s) = 4.14430 5.17822 4.68984
#
# Compressibility (1/GPa) = 0.07693549
#
# Stress axis : x y z
#
# Youngs Moduli (GPa) = 65.99207 19.79378 50.02379
#
# Poissons Ratio (x) = 0.13291 0.12333
# Poissons Ratio (y) = 0.44312 -0.24089
# Poissons Ratio (z) = 0.16270 -0.09532
#
# Static dielectric constant tensor:
#      x y z
#    x 1.931240 -0.022750 0.010390 
#    y -0.022750 1.959320 0.024110 
#    z 0.010390 0.024110 1.883080 
# 
# From -- ./inp_files/398848.got.cif
#   From: 2010.05.17/outbox.cif.g08.bks.cpg/sg2_200_cif.got.tgz:398848.got - 2010.06.03 11:33:40.
