data_PCOD9055752
_publ_section_title
;
Structure prediction by ZEFSAII (Michael W. Deem and Ramdas Pophale) SiO2 
 PCOD9055752
Probable space group: P -1
;
_chemical_formula_sum "Si O2"
_cell_formula_units_Z 16
_cell_length_a 11.365845
_cell_length_b 9.116503
_cell_length_c 10.765604
_cell_angle_alpha 60.009689
_cell_angle_beta 124.094589
_cell_angle_gamma 87.625360
_cell_volume 715.121596
_symmetry_space_group_name_H-M "P -1"
_symmetry_group_IT_number 2
_symmetry_cell_setting 'triclinic'
loop_
_space_group_symop_operation_xyz
x,y,z
-x,-y,-z
loop_
_atom_site_type_symbol
_atom_site_label
_atom_site_fract_x
_atom_site_fract_y
_atom_site_fract_z
Si Si1 0.412881 0.538774 0.204687
Si Si2 0.676669 0.196798 0.395593
Si Si3 0.224222 0.552872 0.833225
Si Si4 0.546620 0.830179 0.193778
Si Si5 0.167704 0.191978 0.235964
Si Si6 0.084405 0.422395 0.451095
Si Si7 0.848332 0.442300 0.795483
Si Si8 0.394408 0.129142 0.164131
O O1 0.558975 0.330232 0.375380
O O2 0.490048 0.679674 0.176500
O O3 0.306284 0.576703 0.247287
O O4 0.297861 0.559356 0.009042
O O5 0.722668 0.332657 0.280989
O O6 0.561488 0.134727 0.277149
O O7 0.813114 0.001362 0.608544
O O8 0.035258 0.635113 0.672234
O O9 0.288960 0.326386 0.945217
O O10 0.735854 0.736265 0.362271
O O11 0.441130 0.932075 0.208222
O O12 0.500000 0.000000 0.000000
O O13 0.184578 0.345488 0.270849
O O14 0.304258 0.142146 0.233670
O O15 0.999259 0.299803 0.022916
O O16 0.105745 0.578133 0.312709
O O17 0.000000 0.500000 0.500000
#
# Coordination Sequence:
#
# PCOD9055752 Si02
#       8
#     2   2   2   2   2   2   2   2
#     4  11  24  45  72 107 142 186 243 293 347 424
#     4  11  22  38  72 110 139 182 243 296 344 418
#     4  11  22  47  77 100 145 190 239 290 349 426
#     4  12  27  45  71 106 147 188 232 293 364 421
#     4  11  22  42  71 108 141 182 240 296 355 418
#     4  12  26  46  70 101 143 191 232 287 364 424
#     4  11  23  45  72 100 142 190 237 294 356 426
#     4  11  21  43  70 103 147 185 235 291 359 422
#
# _framework density 22.373816999999999
#
# number of rings (size 3 to 8) (size 9 to 14) (size 15 to 20)
#    0.000    0.750    3.750    6.375    1.750    1.500 
#    2.250    5.625    0.000    0.000    0.000    0.000 
#    0.000    0.000    0.000    0.000    0.000    0.000 
#
# Total GULP energy -89471.127626 kJ/mol
# GULP energy per Si atom -5591.945477 kJ/mol
# Density = 2.232289 g / cm^3
# Si number density = 22.373817 Si / 1000 Ang^3
#
#
#
# Elastic Constant Matrix: (Units=GPa)
#
#
# Indices 1 2 3 4 5 6 
#
# 1 115.0486 18.7257 26.0827 -9.0969 -2.3097 -20.9323
# 2 18.7257 83.2419 39.0957 -11.8209 10.9683 -2.6957
# 3 26.0827 39.0957 114.4120 -20.4520 5.7815 -5.1023
# 4 -9.0969 -11.8209 -20.4520 20.0870 10.9298 -3.8787
# 5 -2.3097 10.9683 5.7815 10.9298 36.8016 3.1203
# 6 -20.9323 -2.6957 -5.1023 -3.8787 3.1203 26.9421
#
#
#
# Elastic Compliance Matrix: (Units=1/GPa)
#
#
# Indices 1 2 3 4 5 6 
#
# 1 0.011229 -0.000702 -0.000516 0.007098 -0.001944 0.009803
# 2 -0.000702 0.016285 -0.002813 0.011421 -0.008113 0.003135
# 3 -0.000516 -0.002813 0.013227 0.016027 -0.006445 0.004877
# 4 0.007098 0.011421 0.016027 0.102492 -0.038365 0.028891
# 5 -0.001944 -0.008113 -0.006445 -0.038365 0.043067 -0.014054
# 6 0.009803 0.003135 0.004877 0.028891 -0.014054 0.051757
#
#
# Mechanical properties :
#
#
# Convention : Reuss Voigt Hill
#
# Bulk Modulus (GPa) = 30.60074 53.39008 41.99541
# Shear Modulus (GPa) = 19.45426 32.01935 25.73681
#
# Velocity S-wave (km/s) = 2.95194 3.78710 3.39530
# Velocity P-wave (km/s) = 5.03243 6.56029 5.84649
#
# Compressibility (1/GPa) = 0.03267895
#
# Stress axis : x y z
#
# Youngs Moduli (GPa) = 89.05470 61.40668 75.60053
#
# Poissons Ratio (x) = 0.04312 0.03899
# Poissons Ratio (y) = 0.06254 0.21268
# Poissons Ratio (z) = 0.04593 0.17275
#
# Static dielectric constant tensor:
#      x y z
#    x 1.850850 -0.065580 -0.029170 
#    y -0.065580 1.944940 0.071190 
#    z -0.029170 0.071190 1.864210 
# 
# From -- ./inp_files/419210.got.cif
#   From: 2010.05.17/outbox.cif.g08.bks.cpg/sg2_210_cif.got.tgz:419210.got - 2010.06.03 11:33:40.
