data_PCOD9055979
_publ_section_title
;
Structure prediction by ZEFSAII (Michael W. Deem and Ramdas Pophale) SiO2 
 PCOD9055979
Probable space group: P -1
;
_chemical_formula_sum "Si O2"
_cell_formula_units_Z 15
_cell_length_a 9.335219
_cell_length_b 14.032307
_cell_length_c 11.748216
_cell_angle_alpha 119.679164
_cell_angle_beta 131.134795
_cell_angle_gamma 35.224062
_cell_volume 665.363110
_symmetry_space_group_name_H-M "P -1"
_symmetry_group_IT_number 2
_symmetry_cell_setting 'triclinic'
loop_
_space_group_symop_operation_xyz
x,y,z
-x,-y,-z
loop_
_atom_site_type_symbol
_atom_site_label
_atom_site_fract_x
_atom_site_fract_y
_atom_site_fract_z
Si Si1 0.000000 0.000000 0.500000
Si Si2 0.563917 0.884623 0.703162
Si Si3 0.827780 0.847515 0.035409
Si Si4 0.169438 0.317269 0.511230
Si Si5 0.861342 0.064837 0.088761
Si Si6 0.667038 0.766417 0.218700
Si Si7 0.140456 0.539605 0.167496
Si Si8 0.170240 0.750085 0.633885
O O1 0.327666 0.902459 0.636151
O O2 0.056262 0.866879 0.534859
O O3 0.674067 0.797048 0.586425
O O4 0.436180 0.062926 0.735425
O O5 0.810475 0.790614 0.872854
O O6 0.023405 0.699528 0.138665
O O7 0.931801 0.925537 0.114104
O O8 0.500000 0.000000 0.000000
O O9 0.378696 0.254475 0.689413
O O10 0.000000 0.500000 0.500000
O O11 0.962310 0.312505 0.452146
O O12 0.934840 0.136834 0.243716
O O13 0.525017 0.207450 0.963462
O O14 0.000000 0.000000 0.000000
O O15 0.991329 0.605940 0.252249
O O16 0.483241 0.395931 0.269722
O O17 0.000000 0.500000 0.000000
#
# Coordination Sequence:
#
# PCOD9055979 Si02
#       8
#     1   2   2   2   2   2   2   2
#     4  12  26  42  78 104 142 188 252 292 372 430
#     4  11  24  46  74 103 146 199 247 294 359 448
#     4  11  21  44  74 106 141 191 238 296 364 429
#     4  12  30  49  68 106 157 195 239 301 382 437
#     4  11  24  43  74 105 137 189 257 290 356 436
#     4  11  24  47  70 103 146 195 240 299 362 438
#     4  12  24  44  74 114 153 177 246 315 369 428
#     4  12  27  48  75 111 143 196 243 310 370 437
#
# _framework density 22.544080999999998
#
# number of rings (size 3 to 8) (size 9 to 14) (size 15 to 20)
#    0.000    0.533    5.333    3.600    5.600    2.667 
#    0.000    2.000    0.000    0.000    0.000    0.000 
#    0.000    0.000    0.000    0.000    0.000    0.000 
#
# Total GULP energy -83685.892298 kJ/mol
# GULP energy per Si atom -5579.059487 kJ/mol
# Density = 2.249277 g / cm^3
# Si number density = 22.544081 Si / 1000 Ang^3
#
#
#
# Elastic Constant Matrix: (Units=GPa)
#
#
# Indices 1 2 3 4 5 6 
#
# 1 81.1902 37.0082 14.6667 13.9090 1.1089 15.4400
# 2 37.0082 88.0656 29.9873 -0.2059 -6.5070 13.0006
# 3 14.6667 29.9873 84.6624 8.7733 -10.2029 10.0941
# 4 13.9090 -0.2059 8.7733 35.0742 -1.9680 -5.1789
# 5 1.1089 -6.5070 -10.2029 -1.9680 43.1988 4.7307
# 6 15.4400 13.0006 10.0941 -5.1789 4.7307 46.6882
#
#
#
# Elastic Compliance Matrix: (Units=1/GPa)
#
#
# Indices 1 2 3 4 5 6 
#
# 1 0.017725 -0.007084 0.000699 -0.008022 -0.001196 -0.004809
# 2 -0.007084 0.016173 -0.004591 0.004020 0.001816 -0.000906
# 3 0.000699 -0.004591 0.014424 -0.004170 0.002816 -0.002819
# 4 -0.008022 0.004020 -0.004170 0.033699 0.000693 0.006103
# 5 -0.001196 0.001816 0.002816 0.000693 0.024492 -0.003124
# 6 -0.004809 -0.000906 -0.002819 0.006103 -0.003124 0.024864
#
#
# Mechanical properties :
#
#
# Convention : Reuss Voigt Hill
#
# Bulk Modulus (GPa) = 37.92122 46.36029 42.14075
# Shear Modulus (GPa) = 30.84171 36.47596 33.65883
#
# Velocity S-wave (km/s) = 3.70275 4.02678 3.86816
# Velocity P-wave (km/s) = 5.92772 6.49838 6.21960
#
# Compressibility (1/GPa) = 0.02637046
#
# Stress axis : x y z
#
# Youngs Moduli (GPa) = 56.41880 61.83297 69.32744
#
# Poissons Ratio (x) = 0.43801 -0.04847
# Poissons Ratio (y) = 0.39966 0.31827
# Poissons Ratio (z) = -0.03944 0.28387
#
# Static dielectric constant tensor:
#      x y z
#    x 1.905720 -0.075070 0.015310 
#    y -0.075070 1.846670 -0.028860 
#    z 0.015310 -0.028860 1.900930 
# 
# From -- ./inp_files/377695.got.cif
#   From: 2010.05.17/outbox.cif.g08.bks.cpg/sg2_189_cif.got.tgz:377695.got - 2010.06.03 11:33:40.
