data_PCOD9055469
_publ_section_title
;
Structure prediction by ZEFSAII (Michael W. Deem and Ramdas Pophale) SiO2 
 PCOD9055469
Probable space group: P -1
;
_chemical_formula_sum "Si O2"
_cell_formula_units_Z 14
_cell_length_a 23.620250
_cell_length_b 16.362830
_cell_length_c 9.673695
_cell_angle_alpha 33.773347
_cell_angle_beta 26.479448
_cell_angle_gamma 23.982400
_cell_volume 675.724021
_symmetry_space_group_name_H-M "P -1"
_symmetry_group_IT_number 2
_symmetry_cell_setting 'triclinic'
loop_
_space_group_symop_operation_xyz
x,y,z
-x,-y,-z
loop_
_atom_site_type_symbol
_atom_site_label
_atom_site_fract_x
_atom_site_fract_y
_atom_site_fract_z
Si Si1 0.541914 0.142572 0.875126
Si Si2 0.176572 0.820462 0.785954
Si Si3 0.359702 0.438863 0.090050
Si Si4 0.990421 0.048921 0.611186
Si Si5 0.411966 0.654624 0.849696
Si Si6 0.889618 0.448335 0.272570
Si Si7 0.646560 0.729397 0.169199
O O1 0.679980 0.165852 0.516913
O O2 0.382839 0.266494 0.936884
O O3 0.469589 0.231218 0.061464
O O4 0.630329 0.913629 0.984182
O O5 0.234587 0.616035 0.002156
O O6 0.128075 0.862257 0.671911
O O7 0.000000 0.000000 0.000000
O O8 0.259482 0.457431 0.417070
O O9 0.460297 0.505192 0.829598
O O10 0.008856 0.209764 0.354505
O O11 0.795160 0.175243 0.917077
O O12 0.000000 0.000000 0.500000
O O13 0.484524 0.760187 0.533236
O O14 0.500000 0.500000 0.000000
O O15 0.806498 0.535286 0.179591
O O16 0.000000 0.500000 0.000000
#
# Coordination Sequence:
#
# PCOD9055469 Si02
#       7
#     2   2   2   2   2   2   2
#     4  11  26  40  66  99 123 171 215 262 319 376
#     4  12  22  42  65  95 132 162 211 264 315 380
#     4  11  24  41  69  95 123 170 220 259 316 375
#     4  11  25  38  65  97 122 167 212 259 318 373
#     4  11  21  42  65  91 128 167 213 260 313 376
#     4  11  24  44  62  92 132 168 206 268 325 374
#     4  11  23  42  65  88 134 164 211 262 320 377
#
# _framework density 20.718518
#
# number of rings (size 3 to 8) (size 9 to 14) (size 15 to 20)
#    0.000    0.857    7.143    1.286    4.000    1.714 
#    0.000    0.714    0.000    0.000    0.000    0.000 
#    0.000    0.000    0.000    0.000    0.000    0.000 
#
# Total GULP energy -78126.145136 kJ/mol
# GULP energy per Si atom -5580.438938 kJ/mol
# Density = 2.067136 g / cm^3
# Si number density = 20.718518 Si / 1000 Ang^3
#
#
#
# Elastic Constant Matrix: (Units=GPa)
#
#
# Indices 1 2 3 4 5 6 
#
# 1 114.1002 12.1577 7.9295 2.7775 9.4072 -7.2957
# 2 12.1577 19.4688 -6.4721 1.2330 5.9960 0.1282
# 3 7.9295 -6.4721 59.7647 -11.1276 -15.5840 11.9717
# 4 2.7775 1.2330 -11.1276 23.2727 -2.2298 6.7934
# 5 9.4072 5.9960 -15.5840 -2.2298 35.5586 -3.9594
# 6 -7.2957 0.1282 11.9717 6.7934 -3.9594 48.7172
#
#
#
# Elastic Compliance Matrix: (Units=1/GPa)
#
#
# Indices 1 2 3 4 5 6 
#
# 1 0.010344 -0.006595 -0.004351 -0.004154 -0.003465 0.002933
# 2 -0.006595 0.059401 0.006796 0.001363 -0.005593 -0.003459
# 3 -0.004351 0.006796 0.025608 0.015898 0.011305 -0.008260
# 4 -0.004154 0.001363 0.015898 0.055290 0.010031 -0.011427
# 5 -0.003465 -0.005593 0.011305 0.010031 0.035365 -0.001807
# 6 0.002933 -0.003459 -0.008260 -0.011427 -0.001807 0.024451
#
#
# Mechanical properties :
#
#
# Convention : Reuss Voigt Hill
#
# Bulk Modulus (GPa) = 11.48736 24.50713 17.99724
# Shear Modulus (GPa) = 20.17948 33.49096 26.83522
#
# Velocity S-wave (km/s) = 3.12426 4.02490 3.60283
# Velocity P-wave (km/s) = 4.30943 5.78395 5.10026
#
# Compressibility (1/GPa) = 0.08705223
#
# Stress axis : x y z
#
# Youngs Moduli (GPa) = 96.67762 16.83487 39.05009
#
# Poissons Ratio (x) = 0.11102 0.16991
# Poissons Ratio (y) = 0.63757 -0.26538
# Poissons Ratio (z) = 0.42065 -0.11441
#
# Static dielectric constant tensor:
#      x y z
#    x 1.798220 -0.033830 0.035410 
#    y -0.033830 1.748740 0.002210 
#    z 0.035410 0.002210 1.759310 
# 
# From -- ./inp_files/212899.got.cif
#   From: 2010.05.17/outbox.cif.g08.bks.cpg/sg2_107_cif.got.tgz:212899.got - 2010.06.03 11:33:40.
