data_PCOD9055280
_publ_section_title
;
Structure prediction by ZEFSAII (Michael W. Deem and Ramdas Pophale) SiO2 
 PCOD9055280
Probable space group: P -1
;
_chemical_formula_sum "Si O2"
_cell_formula_units_Z 16
_cell_length_a 11.453122
_cell_length_b 15.299224
_cell_length_c 17.814985
_cell_angle_alpha 153.822412
_cell_angle_beta 150.901698
_cell_angle_gamma 42.959541
_cell_volume 649.476838
_symmetry_space_group_name_H-M "P -1"
_symmetry_group_IT_number 2
_symmetry_cell_setting 'triclinic'
loop_
_space_group_symop_operation_xyz
x,y,z
-x,-y,-z
loop_
_atom_site_type_symbol
_atom_site_label
_atom_site_fract_x
_atom_site_fract_y
_atom_site_fract_z
Si Si1 0.717579 0.022055 0.944555
Si Si2 0.679125 0.625603 0.047204
Si Si3 0.013410 0.329857 0.230933
Si Si4 0.275089 0.077006 0.561183
Si Si5 0.262425 0.746210 0.128763
Si Si6 0.140885 0.041314 0.862509
Si Si7 0.513008 0.626041 0.787098
Si Si8 0.768415 0.260294 0.609538
O O1 0.861104 0.850316 0.866358
O O2 0.435177 0.905461 0.678619
O O3 0.764674 0.049873 0.080831
O O4 0.837283 0.221192 0.115872
O O5 0.645527 0.760720 0.203123
O O6 0.973829 0.676543 0.238739
O O7 0.609814 0.391155 0.852988
O O8 0.557831 0.665773 0.931591
O O9 0.230528 0.516664 0.524358
O O10 0.867947 0.378082 0.113444
O O11 0.516447 0.082493 0.651345
O O12 0.187874 0.856388 0.380513
O O13 0.044034 0.116627 0.416336
O O14 0.049664 0.826332 0.112602
O O15 0.361060 0.184037 0.048698
O O16 0.661815 0.452677 0.717441
#
# Coordination Sequence:
#
# PCOD9055280 Si02
#       8
#     2   2   2   2   2   2   2   2
#     4   9  20  37  63  92 120 155 202 255 300 356
#     4  12  25  41  62  90 128 163 200 252 305 357
#     4   9  20  38  62  92 121 154 202 254 304 354
#     4  12  25  42  61  89 127 164 205 249 301 362
#     4  11  23  42  65  90 121 161 206 251 302 360
#     4  11  23  39  65  95 120 157 207 252 302 359
#     4  11  23  39  64  96 122 156 204 254 302 360
#     4  11  21  41  66  87 122 163 204 247 301 360
#
# _framework density 24.635213
#
# number of rings (size 3 to 8) (size 9 to 14) (size 15 to 20)
#    0.000    1.250    3.750    2.250    5.250    1.500 
#    0.000    2.500    0.000    0.000    0.000    0.000 
#    0.000    0.000    0.000    0.000    0.000    0.000 
#
# Total GULP energy -89656.867245 kJ/mol
# GULP energy per Si atom -5603.554203 kJ/mol
# Density = 2.457914 g / cm^3
# Si number density = 24.635213 Si / 1000 Ang^3
#
#
#
# Elastic Constant Matrix: (Units=GPa)
#
#
# Indices 1 2 3 4 5 6 
#
# 1 130.4087 27.9751 58.4650 3.5646 -5.8835 16.3713
# 2 27.9751 84.2002 20.0859 -7.1589 -13.7671 25.4692
# 3 58.4650 20.0859 125.7569 -25.8485 -4.8971 11.3896
# 4 3.5646 -7.1589 -25.8485 42.8265 8.6961 -12.6371
# 5 -5.8835 -13.7671 -4.8971 8.6961 37.7734 -6.8321
# 6 16.3713 25.4692 11.3896 -12.6371 -6.8321 40.4766
#
#
#
# Elastic Compliance Matrix: (Units=1/GPa)
#
#
# Indices 1 2 3 4 5 6 
#
# 1 0.011318 -0.001588 -0.005881 -0.006061 0.001162 -0.003620
# 2 -0.001588 0.015877 -0.001113 -0.001302 0.004113 -0.008747
# 3 -0.005881 -0.001113 0.012407 0.008674 -0.001336 0.002070
# 4 -0.006061 -0.001302 0.008674 0.033098 -0.006080 0.010137
# 5 0.001162 0.004113 -0.001336 -0.006080 0.029451 0.000391
# 6 -0.003620 -0.008747 0.002070 0.010137 0.000391 0.034322
#
#
# Mechanical properties :
#
#
# Convention : Reuss Voigt Hill
#
# Bulk Modulus (GPa) = 44.56530 61.49086 53.02808
# Shear Modulus (GPa) = 31.03361 39.80462 35.41911
#
# Velocity S-wave (km/s) = 3.55311 4.02401 3.79587
# Velocity P-wave (km/s) = 5.91288 6.82678 6.38620
#
# Compressibility (1/GPa) = 0.02243898
#
# Stress axis : x y z
#
# Youngs Moduli (GPa) = 88.35600 62.98359 80.59979
#
# Poissons Ratio (x) = 0.10000 0.47399
# Poissons Ratio (y) = 0.14029 0.08970
# Poissons Ratio (z) = 0.51961 0.07010
#
# Static dielectric constant tensor:
#      x y z
#    x 1.927160 -0.024380 -0.054600 
#    y -0.024380 1.982060 -0.019880 
#    z -0.054600 -0.019880 1.901990 
# 
# From -- ./inp_files/184130.got.cif
#   From: 2010.05.17/outbox.cif.g08.bks.cpg/sg2_93_cif.got.tgz:184130.got - 2010.06.03 11:33:40.
