data_PCOD9055390
_publ_section_title
;
Structure prediction by ZEFSAII (Michael W. Deem and Ramdas Pophale) SiO2 
 PCOD9055390
Probable space group: P -1
;
_chemical_formula_sum "Si O2"
_cell_formula_units_Z 12
_cell_length_a 11.793956
_cell_length_b 8.677615
_cell_length_c 13.119281
_cell_angle_alpha 84.102247
_cell_angle_beta 55.856276
_cell_angle_gamma 131.255133
_cell_volume 542.962755
_symmetry_space_group_name_H-M "P -1"
_symmetry_group_IT_number 2
_symmetry_cell_setting 'triclinic'
loop_
_space_group_symop_operation_xyz
x,y,z
-x,-y,-z
loop_
_atom_site_type_symbol
_atom_site_label
_atom_site_fract_x
_atom_site_fract_y
_atom_site_fract_z
Si Si1 0.446933 0.123214 0.625886
Si Si2 0.672376 0.331675 0.197191
Si Si3 0.483787 0.602444 0.091624
Si Si4 0.656246 0.662843 0.209627
Si Si5 0.145015 0.484823 0.137830
Si Si6 0.023555 0.690166 0.176995
O O1 0.407804 0.250771 0.693297
O O2 0.732324 0.410427 0.400160
O O3 0.458227 0.967083 0.691961
O O4 0.180246 0.849267 0.704544
O O5 0.575870 0.403088 0.289403
O O6 0.968223 0.610856 0.089525
O O7 0.702798 0.392232 0.056892
O O8 0.468146 0.512921 0.215687
O O9 0.245362 0.482208 0.181347
O O10 0.500000 0.500000 0.000000
O O11 0.786222 0.978798 0.919899
O O12 0.000000 0.000000 0.000000
O O13 0.190026 0.706017 0.129223
#
# Coordination Sequence:
#
# PCOD9055390 Si02
#       6
#     2   2   2   2   2   2
#     4  11  24  44  67  99 131 168 217 273 320 381
#     4  11  21  41  71  94 125 175 222 254 316 393
#     4  12  23  42  65  97 129 168 221 267 316 388
#     4  12  22  43  69  95 126 177 222 259 316 400
#     4  11  21  41  70  95 125 172 219 262 318 386
#     4  11  24  42  66  98 131 171 212 270 328 376
#
# _framework density 22.100961999999999
#
# number of rings (size 3 to 8) (size 9 to 14) (size 15 to 20)
#    0.000    0.667    5.000    5.500    0.000    0.667 
#    3.000    5.833    0.000    0.000    0.000    0.000 
#    0.000    0.000    0.000    0.000    0.000    0.000 
#
# Total GULP energy -66876.582247 kJ/mol
# GULP energy per Si atom -5573.048521 kJ/mol
# Density = 2.205066 g / cm^3
# Si number density = 22.100962 Si / 1000 Ang^3
#
#
#
# Elastic Constant Matrix: (Units=GPa)
#
#
# Indices 1 2 3 4 5 6 
#
# 1 206.2230 45.2167 294.9837 -65.6062 262.5765 129.5664
# 2 45.2167 88.9821 153.1534 -17.9427 110.0452 38.5320
# 3 294.9837 153.1534 2443.3801 -633.4570 2215.3697 1114.5819
# 4 -65.6062 -17.9427 -633.4570 195.7182 -595.6944 -305.8312
# 5 262.5765 110.0452 2215.3697 -595.6944 2054.6817 1040.7253
# 6 129.5664 38.5320 1114.5819 -305.8312 1040.7253 585.7924
#
#
#
# Elastic Compliance Matrix: (Units=1/GPa)
#
#
# Indices 1 2 3 4 5 6 
#
# 1 0.006275 -0.002270 0.000286 -0.001669 -0.001281 -0.000379
# 2 -0.002270 0.018731 -0.009854 -0.005890 0.006338 0.003685
# 3 0.000286 -0.009854 0.025023 -0.003733 -0.027610 0.000079
# 4 -0.001669 -0.005890 -0.003733 0.049425 0.018299 0.001153
# 5 -0.001281 0.006338 -0.027610 0.018299 0.040005 -0.009118
# 6 -0.000379 0.003685 0.000079 0.001153 -0.009118 0.018200
#
#
# Mechanical properties :
#
#
# Convention : Reuss Voigt Hill
#
# Bulk Modulus (GPa) = 37.94506 413.92141 225.93324
# Shear Modulus (GPa) = 26.29937 716.92056 371.60997
#
# Velocity S-wave (km/s) = 3.45333 18.03021 12.98102
# Velocity P-wave (km/s) = 5.75386 24.92277 18.08662
#
# Compressibility (1/GPa) = 0.02635389
#
# Stress axis : x y z
#
# Youngs Moduli (GPa) = 159.34996 53.38640 39.96396
#
# Poissons Ratio (x) = 0.12118 -0.01145
# Poissons Ratio (y) = 0.36171 0.39382
# Poissons Ratio (z) = -0.04565 0.52609
#
# Static dielectric constant tensor:
#      x y z
#    x 1.966660 -0.095840 0.081460 
#    y -0.095840 1.866230 -0.036330 
#    z 0.081460 -0.036330 1.905150 
# 
# From -- ./inp_files/149300.got.cif
#   From: 2010.05.17/outbox.cif.g08.bks.cpg/sg2_75_cif.got.tgz:149300.got - 2010.06.03 11:33:40.
