data_PCOD9055157
_publ_section_title
;
Structure prediction by ZEFSAII (Michael W. Deem and Ramdas Pophale) SiO2 
 PCOD9055157
Probable space group: P -1
;
_chemical_formula_sum "Si O2"
_cell_formula_units_Z 14
_cell_length_a 9.122058
_cell_length_b 9.789716
_cell_length_c 8.609741
_cell_angle_alpha 100.697944
_cell_angle_beta 104.043507
_cell_angle_gamma 63.117915
_cell_volume 662.723113
_symmetry_space_group_name_H-M "P -1"
_symmetry_group_IT_number 2
_symmetry_cell_setting 'triclinic'
loop_
_space_group_symop_operation_xyz
x,y,z
-x,-y,-z
loop_
_atom_site_type_symbol
_atom_site_label
_atom_site_fract_x
_atom_site_fract_y
_atom_site_fract_z
Si Si1 0.525951 0.932339 0.664802
Si Si2 0.135351 0.329928 0.382421
Si Si3 0.520645 0.766628 0.120149
Si Si4 0.868899 0.482397 0.081597
Si Si5 0.403364 0.715590 0.746773
Si Si6 0.862213 0.350193 0.504880
Si Si7 0.317261 0.628976 0.227093
O O1 0.717791 0.807967 0.692942
O O2 0.422856 0.835461 0.659190
O O3 0.500000 0.000000 0.500000
O O4 0.487640 0.069708 0.803739
O O5 0.189119 0.465885 0.467098
O O6 0.979980 0.405477 0.242255
O O7 0.058723 0.280474 0.500728
O O8 0.710895 0.640194 0.119491
O O9 0.428244 0.715624 0.221451
O O10 0.425449 0.766967 0.935984
O O11 0.786374 0.384913 0.950786
O O12 0.000000 0.500000 0.000000
O O13 0.237350 0.697266 0.659308
O O14 0.553559 0.545071 0.731956
O O15 0.807279 0.308356 0.646806
#
# Coordination Sequence:
#
# PCOD9055157 Si02
#       7
#     2   2   2   2   2   2   2
#     4  12  27  44  65  98 138 176 219 267 338 398
#     4  11  24  42  65 100 132 175 216 276 335 381
#     4  11  25  43  70 100 134 172 218 276 329 397
#     4  11  21  41  67 100 129 169 225 269 325 386
#     4  11  22  43  66  99 131 175 219 271 329 392
#     4  11  22  38  70  94 133 166 227 271 318 377
#     4  11  21  40  69 104 126 173 226 271 321 393
#
# _framework density 21.124959
#
# number of rings (size 3 to 8) (size 9 to 14) (size 15 to 20)
#    0.000    0.857    2.857    6.000    6.000    0.000 
#    0.000    7.143    0.000    0.000    0.000    0.000 
#    0.000    0.000    0.000    0.000    0.000    0.000 
#
# Total GULP energy -78292.872528 kJ/mol
# GULP energy per Si atom -5592.348038 kJ/mol
# Density = 2.107688 g / cm^3
# Si number density = 21.124959 Si / 1000 Ang^3
#
#
#
# Elastic Constant Matrix: (Units=GPa)
#
#
# Indices 1 2 3 4 5 6 
#
# 1 133.6265 46.3746 32.4672 7.8491 -11.2644 20.4120
# 2 46.3746 71.9465 29.5485 1.0081 9.4719 12.9867
# 3 32.4672 29.5485 84.9115 0.7774 7.5813 -1.7522
# 4 7.8491 1.0081 0.7774 26.0033 6.0077 -12.9809
# 5 -11.2644 9.4719 7.5813 6.0077 44.2947 -3.1325
# 6 20.4120 12.9867 -1.7522 -12.9809 -3.1325 36.3388
#
#
#
# Elastic Compliance Matrix: (Units=1/GPa)
#
#
# Indices 1 2 3 4 5 6 
#
# 1 0.012484 -0.005944 -0.003286 -0.008540 0.005628 -0.007612
# 2 -0.005944 0.021331 -0.004753 -0.000110 -0.005601 -0.005035
# 3 -0.003286 -0.004753 0.014991 0.004061 -0.002547 0.005498
# 4 -0.008540 -0.000110 0.004061 0.054820 -0.008590 0.023874
# 5 0.005628 -0.005601 -0.002547 -0.008590 0.026661 -0.002053
# 6 -0.007612 -0.005035 0.005498 0.023874 -0.002053 0.042210
#
#
# Mechanical properties :
#
#
# Convention : Reuss Voigt Hill
#
# Bulk Modulus (GPa) = 47.98747 56.36279 52.17513
# Shear Modulus (GPa) = 24.10690 33.46697 28.78694
#
# Velocity S-wave (km/s) = 3.38177 3.98457 3.69548
# Velocity P-wave (km/s) = 6.16553 6.92153 6.55444
#
# Compressibility (1/GPa) = 0.02083877
#
# Stress axis : x y z
#
# Youngs Moduli (GPa) = 80.10425 46.88109 66.70619
#
# Poissons Ratio (x) = 0.27868 0.21921
# Poissons Ratio (y) = 0.47617 0.31704
# Poissons Ratio (z) = 0.26323 0.22282
#
# Static dielectric constant tensor:
#      x y z
#    x 1.773370 0.013450 -0.041210 
#    y 0.013450 1.740750 -0.032490 
#    z -0.041210 -0.032490 1.818370 
# 
# From -- ./inp_files/158210.got.cif
#   From: 2010.05.17/outbox.cif.g08.bks.cpg/sg2_80_cif.got.tgz:158210.got - 2010.06.03 11:33:40.
