data_PCOD9055175
_publ_section_title
;
Structure prediction by ZEFSAII (Michael W. Deem and Ramdas Pophale) SiO2 
 PCOD9055175
Probable space group: P -1
;
_chemical_formula_sum "Si O2"
_cell_formula_units_Z 14
_cell_length_a 13.959912
_cell_length_b 11.842612
_cell_length_c 20.445871
_cell_angle_alpha 23.177097
_cell_angle_beta 150.470013
_cell_angle_gamma 147.850087
_cell_volume 636.341844
_symmetry_space_group_name_H-M "P -1"
_symmetry_group_IT_number 2
_symmetry_cell_setting 'triclinic'
loop_
_space_group_symop_operation_xyz
x,y,z
-x,-y,-z
loop_
_atom_site_type_symbol
_atom_site_label
_atom_site_fract_x
_atom_site_fract_y
_atom_site_fract_z
Si Si1 0.075674 0.291711 0.432311
Si Si2 0.724348 0.577843 0.121911
Si Si3 0.409602 0.512083 0.185097
Si Si4 0.014189 0.741746 0.935900
Si Si5 0.582064 0.891669 0.205689
Si Si6 0.259959 0.772204 0.188255
Si Si7 0.201683 0.419903 0.683043
O O1 0.205452 0.194277 0.618908
O O2 0.235883 0.535093 0.356932
O O3 0.886349 0.424095 0.267197
O O4 0.000000 0.000000 0.500000
O O5 0.733877 0.508772 0.241669
O O6 0.500000 0.500000 0.000000
O O7 0.789187 0.933168 0.968947
O O8 0.216599 0.248437 0.201270
O O9 0.440936 0.659444 0.196782
O O10 0.613102 0.429529 0.331491
O O11 0.389773 0.780660 0.981646
O O12 0.155386 0.063599 0.835508
O O13 0.000000 0.500000 0.000000
O O14 0.093482 0.641860 0.103952
O O15 0.468877 0.864774 0.222876
O O16 0.000000 0.500000 0.500000
#
# Coordination Sequence:
#
# PCOD9055175 Si02
#       7
#     2   2   2   2   2   2   2
#     4  12  26  42  69 100 134 178 238 282 338 408
#     4  11  25  47  65  97 139 187 225 280 356 400
#     4  11  21  41  71  95 140 177 222 275 352 398
#     4  11  21  40  70 100 130 178 228 273 346 405
#     4  11  21  41  66 103 133 175 224 286 330 407
#     4  11  23  44  68  99 139 179 229 279 345 416
#     4  11  25  45  68 101 140 175 232 289 332 414
#
# _framework density 22.000753
#
# number of rings (size 3 to 8) (size 9 to 14) (size 15 to 20)
#    0.000    0.857    4.286    4.286    2.000    1.714 
#    2.571    0.000    0.000    0.000    0.000    0.000 
#    0.000    0.000    0.000    0.000    0.000    0.000 
#
# Total GULP energy -78256.351954 kJ/mol
# GULP energy per Si atom -5589.739425 kJ/mol
# Density = 2.195068 g / cm^3
# Si number density = 22.000753 Si / 1000 Ang^3
#
#
#
# Elastic Constant Matrix: (Units=GPa)
#
#
# Indices 1 2 3 4 5 6 
#
# 1 92.8874 32.1937 35.7761 -3.2261 29.6669 1.7402
# 2 32.1937 108.1476 23.2420 26.5463 14.0344 -2.9865
# 3 35.7761 23.2420 95.9247 23.9585 30.4225 -8.1565
# 4 -3.2261 26.5463 23.9585 41.0858 5.0095 6.8950
# 5 29.6669 14.0344 30.4225 5.0095 27.4139 6.9373
# 6 1.7402 -2.9865 -8.1565 6.8950 6.9373 36.1869
#
#
#
# Elastic Compliance Matrix: (Units=1/GPa)
#
#
# Indices 1 2 3 4 5 6 
#
# 1 0.019180 -0.005075 -0.002914 0.008563 -0.016364 -0.000492
# 2 -0.005075 0.013540 0.003214 -0.011357 -0.004211 0.005057
# 3 -0.002914 0.003214 0.023848 -0.015377 -0.025593 0.013617
# 4 0.008563 -0.011357 -0.015377 0.042629 0.009560 -0.014770
# 5 -0.016364 -0.004211 -0.025593 0.009560 0.089132 -0.024238
# 6 -0.000492 0.005057 0.013617 -0.014770 -0.024238 0.038606
#
#
# Mechanical properties :
#
#
# Convention : Reuss Voigt Hill
#
# Bulk Modulus (GPa) = 21.26823 53.26480 37.26651
# Shear Modulus (GPa) = 19.82871 34.65385 27.24128
#
# Velocity S-wave (km/s) = 3.00538 3.97309 3.52262
# Velocity P-wave (km/s) = 4.66166 6.73129 5.78970
#
# Compressibility (1/GPa) = 0.04701849
#
# Stress axis : x y z
#
# Youngs Moduli (GPa) = 52.13671 73.85278 41.93147
#
# Poissons Ratio (x) = 0.37481 0.12220
# Poissons Ratio (y) = 0.26460 -0.13477
# Poissons Ratio (z) = 0.15194 -0.23737
#
# Static dielectric constant tensor:
#      x y z
#    x 1.869120 0.022550 0.026110 
#    y 0.022550 1.796670 0.041160 
#    z 0.026110 0.041160 1.826550 
# 
# From -- ./inp_files/597912.got.cif
#   From: 2010.05.17/outbox.cif.g08.bks.cpg/sg2_299_cif.got.tgz:597912.got - 2010.06.03 11:33:40.
