data_PCOD9055498
_publ_section_title
;
Structure prediction by ZEFSAII (Michael W. Deem and Ramdas Pophale) SiO2 
 PCOD9055498
Probable space group: P -1
;
_chemical_formula_sum "Si O2"
_cell_formula_units_Z 16
_cell_length_a 13.738259
_cell_length_b 15.419164
_cell_length_c 14.404441
_cell_angle_alpha 151.790433
_cell_angle_beta 30.392217
_cell_angle_gamma 152.491923
_cell_volume 618.661119
_symmetry_space_group_name_H-M "P -1"
_symmetry_group_IT_number 2
_symmetry_cell_setting 'triclinic'
loop_
_space_group_symop_operation_xyz
x,y,z
-x,-y,-z
loop_
_atom_site_type_symbol
_atom_site_label
_atom_site_fract_x
_atom_site_fract_y
_atom_site_fract_z
Si Si1 0.264448 0.935050 0.922306
Si Si2 0.487568 0.491019 0.392030
Si Si3 0.867403 0.461661 0.477615
Si Si4 0.064399 0.920665 0.671417
Si Si5 0.417024 0.386639 0.862749
Si Si6 0.875861 0.571001 0.007329
Si Si7 0.206338 0.869450 0.312510
Si Si8 0.614820 0.869939 0.749125
O O1 0.186999 0.751106 0.732602
O O2 0.107714 0.792871 0.004383
O O3 0.535789 0.073294 0.832736
O O4 0.159955 0.079778 0.117963
O O5 0.500000 0.500000 0.500000
O O6 0.478107 0.709776 0.615325
O O7 0.347223 0.228233 0.277603
O O8 0.705361 0.553605 0.211809
O O9 0.628471 0.436906 0.672901
O O10 0.000000 0.500000 0.500000
O O11 0.012922 0.683281 0.509856
O O12 0.141939 0.962995 0.540314
O O13 0.263777 0.126674 0.755521
O O14 0.500000 0.500000 0.000000
O O15 0.270116 0.460503 0.995864
O O16 0.935674 0.390740 0.810276
O O17 0.175239 0.948935 0.313654
O O18 0.500000 0.000000 0.000000
#
# Coordination Sequence:
#
# PCOD9055498 Si02
#       8
#     2   2   2   2   2   2   2   2
#     4  11  25  41  63 102 124 167 232 260 319 404
#     4   8  19  33  63  93 127 170 207 264 325 374
#     4  12  25  43  65  95 130 167 223 274 323 398
#     4  11  25  44  66  92 133 172 212 277 325 382
#     4  11  25  43  68  96 131 176 220 270 333 383
#     4  11  21  42  67  94 135 171 218 276 323 388
#     4  12  21  41  72  92 129 181 211 264 341 380
#     4   9  17  34  61  95 126 170 213 256 325 389
#
# _framework density 25.862300999999999
#
# number of rings (size 3 to 8) (size 9 to 14) (size 15 to 20)
#    0.750    0.500    3.750    3.750    0.000    3.500 
#    0.000    0.625    0.000    3.750    0.000    0.000 
#    0.000    0.000    0.000    0.000    0.000    0.000 
#
# Total GULP energy -89068.923316 kJ/mol
# GULP energy per Si atom -5566.807707 kJ/mol
# Density = 2.580344 g / cm^3
# Si number density = 25.862301 Si / 1000 Ang^3
#
#
#
# Elastic Constant Matrix: (Units=GPa)
#
#
# Indices 1 2 3 4 5 6 
#
# 1 55.5341 23.6456 34.4144 -8.7487 11.8928 10.0276
# 2 23.6456 101.8825 26.6944 4.4210 -5.2288 0.5841
# 3 34.4144 26.6944 156.6615 2.0500 17.5407 6.8470
# 4 -8.7487 4.4210 2.0500 52.3749 -4.6415 -0.9886
# 5 11.8928 -5.2288 17.5407 -4.6415 40.8974 -2.9232
# 6 10.0276 0.5841 6.8470 -0.9886 -2.9232 38.8575
#
#
#
# Elastic Compliance Matrix: (Units=1/GPa)
#
#
# Indices 1 2 3 4 5 6 
#
# 1 0.025927 -0.005508 -0.003799 0.004241 -0.006585 -0.006326
# 2 -0.005508 0.011655 -0.001230 -0.001507 0.003569 0.001693
# 3 -0.003799 -0.001230 0.007751 -0.001070 -0.002540 -0.000585
# 4 0.004241 -0.001507 -0.001070 0.020080 0.001292 -0.000275
# 5 -0.006585 0.003569 -0.002540 0.001292 0.028363 0.004260
# 6 -0.006326 0.001693 -0.000585 -0.000275 0.004260 0.027759
#
#
# Mechanical properties :
#
#
# Convention : Reuss Voigt Hill
#
# Bulk Modulus (GPa) = 41.21987 53.73186 47.47586
# Shear Modulus (GPa) = 33.17984 41.71421 37.44702
#
# Velocity S-wave (km/s) = 3.58570 4.02049 3.80931
# Velocity P-wave (km/s) = 5.75464 6.50951 6.14368
#
# Compressibility (1/GPa) = 0.02426014
#
# Stress axis : x y z
#
# Youngs Moduli (GPa) = 38.57019 85.80292 129.01149
#
# Poissons Ratio (x) = 0.47258 0.49007
# Poissons Ratio (y) = 0.21243 0.15867
# Poissons Ratio (z) = 0.14651 0.10553
#
# Static dielectric constant tensor:
#      x y z
#    x 2.286020 -0.025350 -0.145810 
#    y -0.025350 1.851740 -0.139950 
#    z -0.145810 -0.139950 1.935610 
# 
# From -- ./inp_files/534540.got.cif
#   From: 2010.05.17/outbox.cif.g08.bks.cpg/sg2_268_cif.got.tgz:534540.got - 2010.06.03 11:33:40.
