data_PCOD9055596
_publ_section_title
;
Structure prediction by ZEFSAII (Michael W. Deem and Ramdas Pophale) SiO2 
 PCOD9055596
Probable space group: P -1
;
_chemical_formula_sum "Si O2"
_cell_formula_units_Z 14
_cell_length_a 9.333623
_cell_length_b 13.368003
_cell_length_c 12.282544
_cell_angle_alpha 149.677725
_cell_angle_beta 129.708677
_cell_angle_gamma 66.204864
_cell_volume 550.299068
_symmetry_space_group_name_H-M "P -1"
_symmetry_group_IT_number 2
_symmetry_cell_setting 'triclinic'
loop_
_space_group_symop_operation_xyz
x,y,z
-x,-y,-z
loop_
_atom_site_type_symbol
_atom_site_label
_atom_site_fract_x
_atom_site_fract_y
_atom_site_fract_z
Si Si1 0.588227 0.725333 0.608690
Si Si2 0.570629 0.054425 0.745778
Si Si3 0.306898 0.142246 0.968473
Si Si4 0.950271 0.315350 0.519492
Si Si5 0.731055 0.389574 0.283753
Si Si6 0.884068 0.567550 0.911692
Si Si7 0.355006 0.246623 0.684371
O O1 0.603873 0.943535 0.766606
O O2 0.650781 0.754397 0.792480
O O3 0.725969 0.623876 0.515556
O O4 0.353748 0.578551 0.339489
O O5 0.588279 0.887786 0.508817
O O6 0.378707 0.112099 0.674857
O O7 0.727483 0.296570 0.073851
O O8 0.511843 0.252166 0.104204
O O9 0.129611 0.200715 0.881896
O O10 0.236119 0.889335 0.713959
O O11 0.892973 0.355296 0.408166
O O12 0.972704 0.514681 0.794350
O O13 0.137668 0.246631 0.557322
O O14 0.000000 0.500000 0.000000
O O15 0.500000 0.500000 0.000000
#
# Coordination Sequence:
#
# PCOD9055596 Si02
#       7
#     2   2   2   2   2   2   2
#     4  11  21  43  70 100 140 175 210 268 335 395
#     4  11  25  46  72  90 128 177 228 277 332 383
#     4  11  22  42  66 104 144 170 212 263 333 405
#     4  12  24  42  69  97 131 175 223 273 324 396
#     4  11  21  42  71 104 133 174 212 268 332 395
#     4  11  25  37  65 106 143 176 210 262 332 407
#     4  11  29  50  65  92 131 176 229 283 334 382
#
# _framework density 25.440711
#
# number of rings (size 3 to 8) (size 9 to 14) (size 15 to 20)
#    0.000    0.857    4.286    3.000    8.000    2.286 
#    0.000    1.429    0.000    0.000    0.000    0.000 
#    0.000    0.000    0.000    0.000    0.000    0.000 
#
# Total GULP energy -78287.853340 kJ/mol
# GULP energy per Si atom -5591.989524 kJ/mol
# Density = 2.538281 g / cm^3
# Si number density = 25.440711 Si / 1000 Ang^3
#
#
#
# Elastic Constant Matrix: (Units=GPa)
#
#
# Indices 1 2 3 4 5 6 
#
# 1 64.9536 30.7942 35.8873 0.6963 -3.4102 -27.4214
# 2 30.7942 203.7578 37.2269 -14.7023 -1.1217 -40.9570
# 3 35.8873 37.2269 99.2638 -4.2035 -27.2036 -17.9731
# 4 0.6963 -14.7023 -4.2035 49.1808 -8.2137 -1.8591
# 5 -3.4102 -1.1217 -27.2036 -8.2137 40.3283 0.8660
# 6 -27.4214 -40.9570 -17.9731 -1.8591 0.8660 44.6693
#
#
#
# Elastic Compliance Matrix: (Units=1/GPa)
#
#
# Indices 1 2 3 4 5 6 
#
# 1 0.024561 0.000012 -0.007765 -0.001165 -0.003655 0.011986
# 2 0.000012 0.006390 -0.001508 0.001888 -0.000569 0.005349
# 3 -0.007765 -0.001508 0.016725 0.002974 0.011178 0.000487
# 4 -0.001165 0.001888 0.002974 0.022359 0.006449 0.003018
# 5 -0.003655 -0.000569 0.011178 0.006449 0.033296 0.001355
# 6 0.011986 0.005349 0.000487 0.003018 0.001355 0.034944
#
#
# Mechanical properties :
#
#
# Convention : Reuss Voigt Hill
#
# Bulk Modulus (GPa) = 34.30163 63.97689 49.13926
# Shear Modulus (GPa) = 30.02725 44.44016 37.23370
#
# Velocity S-wave (km/s) = 3.43925 4.18402 3.82978
# Velocity P-wave (km/s) = 5.41142 6.96731 6.23807
#
# Compressibility (1/GPa) = 0.02915314
#
# Stress axis : x y z
#
# Youngs Moduli (GPa) = 40.71503 156.49905 59.79231
#
# Poissons Ratio (x) = -0.00186 0.46428
# Poissons Ratio (y) = -0.00048 0.09017
# Poissons Ratio (z) = 0.31615 0.23602
#
# Static dielectric constant tensor:
#      x y z
#    x 2.075900 0.069440 0.036030 
#    y 0.069440 1.991630 0.049380 
#    z 0.036030 0.049380 2.103040 
# 
# From -- ./inp_files/400186.got.cif
#   From: 2010.05.17/outbox.cif.g08.bks.cpg/sg2_201_cif.got.tgz:400186.got - 2010.06.03 11:33:40.
