data_PCOD9055956
_publ_section_title
;
Structure prediction by ZEFSAII (Michael W. Deem and Ramdas Pophale) SiO2 
 PCOD9055956
Probable space group: P -1
;
_chemical_formula_sum "Si O2"
_cell_formula_units_Z 12
_cell_length_a 13.163645
_cell_length_b 10.226517
_cell_length_c 7.861766
_cell_angle_alpha 79.110955
_cell_angle_beta 64.553369
_cell_angle_gamma 34.798497
_cell_volume 517.061654
_symmetry_space_group_name_H-M "P -1"
_symmetry_group_IT_number 2
_symmetry_cell_setting 'triclinic'
loop_
_space_group_symop_operation_xyz
x,y,z
-x,-y,-z
loop_
_atom_site_type_symbol
_atom_site_label
_atom_site_fract_x
_atom_site_fract_y
_atom_site_fract_z
Si Si1 0.458801 0.810578 0.297362
Si Si2 0.817975 0.598006 0.023402
Si Si3 0.481822 0.673266 0.936739
Si Si4 0.740119 0.452598 0.468711
Si Si5 0.077652 0.320060 0.355210
Si Si6 0.015557 0.117883 0.071371
O O1 0.547502 0.637817 0.431677
O O2 0.219819 0.071445 0.405420
O O3 0.599028 0.803416 0.220401
O O4 0.505572 0.717254 0.093606
O O5 0.784851 0.722766 0.852984
O O6 0.000000 0.500000 0.000000
O O7 0.902251 0.360995 0.013968
O O8 0.647035 0.535712 0.703431
O O9 0.500000 0.500000 0.000000
O O10 0.250119 0.927696 0.978803
O O11 0.885373 0.439952 0.375339
O O12 0.902993 0.197987 0.314150
O O13 0.000000 0.500000 0.500000
O O14 0.000000 0.000000 0.000000
#
# Coordination Sequence:
#
# PCOD9055956 Si02
#       6
#     2   2   2   2   2   2
#     4  11  24  47  73 108 153 197 247 313 377 440
#     4  11  21  44  73 100 151 194 241 308 369 432
#     4  12  26  48  77 108 148 204 253 307 381 451
#     4  11  26  50  73 111 151 192 254 315 372 446
#     4  12  25  43  72 112 147 196 251 305 381 448
#     4  11  25  47  76 109 152 199 248 315 375 439
#
# _framework density 23.208062999999999
#
# number of rings (size 3 to 8) (size 9 to 14) (size 15 to 20)
#    0.000    0.667    5.000    3.500    2.333    5.333 
#    0.000    0.000    0.000    0.000    0.000    0.000 
#    0.000    0.000    0.000    0.000    0.000    0.000 
#
# Total GULP energy -66863.213049 kJ/mol
# GULP energy per Si atom -5571.934421 kJ/mol
# Density = 2.315524 g / cm^3
# Si number density = 23.208063 Si / 1000 Ang^3
#
#
#
# Elastic Constant Matrix: (Units=GPa)
#
#
# Indices 1 2 3 4 5 6 
#
# 1 129.6698 42.9037 22.2803 12.1641 20.0969 -10.1124
# 2 42.9037 81.7029 13.3707 14.0334 -7.4602 -7.6908
# 3 22.2803 13.3707 92.0012 18.0043 10.0249 7.0507
# 4 12.1641 14.0334 18.0043 26.5280 8.3925 -4.7564
# 5 20.0969 -7.4602 10.0249 8.3925 39.5710 7.4882
# 6 -10.1124 -7.6908 7.0507 -4.7564 7.4882 34.7149
#
#
#
# Elastic Compliance Matrix: (Units=1/GPa)
#
#
# Indices 1 2 3 4 5 6 
#
# 1 0.011522 -0.006543 -0.001840 0.002756 -0.008035 0.004391
# 2 -0.006543 0.018037 -0.000059 -0.009547 0.008980 -0.001143
# 3 -0.001840 -0.000059 0.013436 -0.009177 0.000338 -0.004608
# 4 0.002756 -0.009547 -0.009177 0.054289 -0.014492 0.011116
# 5 -0.008035 0.008980 0.000338 -0.014492 0.035955 -0.010161
# 6 0.004391 -0.001143 -0.004608 0.011116 -0.010161 0.034483
#
#
# Mechanical properties :
#
#
# Convention : Reuss Voigt Hill
#
# Bulk Modulus (GPa) = 38.29841 51.16480 44.73161
# Shear Modulus (GPa) = 25.86522 35.15071 30.50797
#
# Velocity S-wave (km/s) = 3.34202 3.89600 3.62959
# Velocity P-wave (km/s) = 5.60626 6.50633 6.07300
#
# Compressibility (1/GPa) = 0.02611074
#
# Stress axis : x y z
#
# Youngs Moduli (GPa) = 86.79018 55.44115 74.42784
#
# Poissons Ratio (x) = 0.36275 0.13693
# Poissons Ratio (y) = 0.56787 0.00442
# Poissons Ratio (z) = 0.15967 0.00329
#
# Static dielectric constant tensor:
#      x y z
#    x 1.948330 -0.051200 0.071540 
#    y -0.051200 1.907830 -0.004280 
#    z 0.071540 -0.004280 1.895670 
# 
# From -- ./inp_files/243365.got.cif
#   From: 2010.05.17/outbox.cif.g08.bks.cpg/sg2_122_cif.got.tgz:243365.got - 2010.06.03 11:33:40.
