data_PCOD9055633
_publ_section_title
;
Structure prediction by ZEFSAII (Michael W. Deem and Ramdas Pophale) SiO2 
 PCOD9055633
Probable space group: P -1
;
_chemical_formula_sum "Si O2"
_cell_formula_units_Z 16
_cell_length_a 12.309885
_cell_length_b 12.218158
_cell_length_c 11.973179
_cell_angle_alpha 112.444701
_cell_angle_beta 42.401115
_cell_angle_gamma 79.917564
_cell_volume 763.125372
_symmetry_space_group_name_H-M "P -1"
_symmetry_group_IT_number 2
_symmetry_cell_setting 'triclinic'
loop_
_space_group_symop_operation_xyz
x,y,z
-x,-y,-z
loop_
_atom_site_type_symbol
_atom_site_label
_atom_site_fract_x
_atom_site_fract_y
_atom_site_fract_z
Si Si1 0.387538 0.824945 0.124497
Si Si2 0.451328 0.523527 0.678594
Si Si3 0.700387 0.026143 0.230732
Si Si4 0.935761 0.083748 0.907102
Si Si5 0.939748 0.159072 0.475096
Si Si6 0.739422 0.743804 0.995056
Si Si7 0.744366 0.630676 0.188307
Si Si8 0.796452 0.457346 0.558602
O O1 0.238919 0.796670 0.280042
O O2 0.203730 0.004188 0.264710
O O3 0.510133 0.831429 0.133119
O O4 0.597483 0.656046 0.826494
O O5 0.500000 0.500000 0.500000
O O6 0.369969 0.437036 0.739533
O O7 0.680092 0.442247 0.541430
O O8 0.238108 0.729158 0.945628
O O9 0.436481 0.185399 0.538557
O O10 0.775275 0.088135 0.111158
O O11 0.877236 0.948111 0.170433
O O12 0.730644 0.884837 0.093839
O O13 0.061999 0.930518 0.663251
O O14 0.869442 0.325985 0.549386
O O15 0.971577 0.604142 0.688395
O O16 0.759035 0.657584 0.058728
O O17 0.000000 0.500000 0.000000
#
# Coordination Sequence:
#
# PCOD9055633 Si02
#       8
#     2   2   2   2   2   2   2   2
#     4  11  26  47  68 101 138 180 237 287 339 410
#     4  12  23  41  71 102 138 179 230 282 339 415
#     4  11  23  42  69 100 137 181 224 281 347 414
#     4  11  21  42  73 100 131 180 232 284 339 409
#     4  11  24  46  73  99 133 184 237 284 341 405
#     4  12  26  45  68 100 143 178 226 286 347 410
#     4  12  26  42  65 107 143 179 222 284 353 409
#     4  12  24  46  71 101 136 185 233 283 344 409
#
# _framework density 20.96641
#
# number of rings (size 3 to 8) (size 9 to 14) (size 15 to 20)
#    0.000    0.500    3.750    5.625    0.000    1.500 
#    2.250    0.000    0.000    0.000    0.000    0.000 
#    0.000    0.000    0.000    0.000    0.000    0.000 
#
# Total GULP energy -89622.532354 kJ/mol
# GULP energy per Si atom -5601.408272 kJ/mol
# Density = 2.091869 g / cm^3
# Si number density = 20.966410 Si / 1000 Ang^3
#
#
#
# Elastic Constant Matrix: (Units=GPa)
#
#
# Indices 1 2 3 4 5 6 
#
# 1 118.1478 26.9020 19.4033 5.4009 -23.5244 -13.6397
# 2 26.9020 67.6715 32.4170 7.7930 -10.4419 -9.6129
# 3 19.4033 32.4170 105.3621 -1.7577 -18.9417 -8.6317
# 4 5.4009 7.7930 -1.7577 24.6213 -6.4963 -2.9953
# 5 -23.5244 -10.4419 -18.9417 -6.4963 23.9384 2.8330
# 6 -13.6397 -9.6129 -8.6317 -2.9953 2.8330 27.1991
#
#
#
# Elastic Compliance Matrix: (Units=1/GPa)
#
#
# Indices 1 2 3 4 5 6 
#
# 1 0.011547 -0.003092 0.001165 0.001922 0.010953 0.004138
# 2 -0.003092 0.019597 -0.005428 -0.005721 -0.000705 0.003096
# 3 0.001165 -0.005428 0.013084 0.005404 0.010319 0.002338
# 4 0.001922 -0.005721 0.005404 0.047110 0.015959 0.004183
# 5 0.010953 -0.000705 0.010319 0.015959 0.064302 0.003578
# 6 0.004138 0.003096 0.002338 0.004183 0.003578 0.040765
#
#
# Mechanical properties :
#
#
# Convention : Reuss Voigt Hill
#
# Bulk Modulus (GPa) = 33.87925 49.84732 41.86328
# Shear Modulus (GPa) = 22.62901 29.31569 25.97235
#
# Velocity S-wave (km/s) = 3.28883 3.74334 3.52342
# Velocity P-wave (km/s) = 5.53315 6.51996 6.04672
#
# Compressibility (1/GPa) = 0.02951659
#
# Stress axis : x y z
#
# Youngs Moduli (GPa) = 86.59984 51.02873 76.43153
#
# Poissons Ratio (x) = 0.15778 -0.08904
# Poissons Ratio (y) = 0.26777 0.41491
# Poissons Ratio (z) = -0.10088 0.27701
#
# Static dielectric constant tensor:
#      x y z
#    x 1.751580 -0.001990 0.014000 
#    y -0.001990 1.727040 0.008390 
#    z 0.014000 0.008390 1.749140 
# 
# From -- ./inp_files/285768.got.cif
#   From: 2010.05.17/outbox.cif.g08.bks.cpg/sg2_143_cif.got.tgz:285768.got - 2010.06.03 11:33:40.
