data_PCOD9055076
_publ_section_title
;
Structure prediction by ZEFSAII (Michael W. Deem and Ramdas Pophale) SiO2 
 PCOD9055076
Probable space group: P -1
;
_chemical_formula_sum "Si O2"
_cell_formula_units_Z 14
_cell_length_a 15.755507
_cell_length_b 12.214369
_cell_length_c 22.232724
_cell_angle_alpha 150.533484
_cell_angle_beta 19.158547
_cell_angle_gamma 151.650050
_cell_volume 645.191650
_symmetry_space_group_name_H-M "P -1"
_symmetry_group_IT_number 2
_symmetry_cell_setting 'triclinic'
loop_
_space_group_symop_operation_xyz
x,y,z
-x,-y,-z
loop_
_atom_site_type_symbol
_atom_site_label
_atom_site_fract_x
_atom_site_fract_y
_atom_site_fract_z
Si Si1 0.578816 0.837387 0.539488
Si Si2 0.838914 0.456877 0.149430
Si Si3 0.597419 0.013277 0.747817
Si Si4 0.217484 0.301429 0.913631
Si Si5 0.048154 0.504972 0.234956
Si Si6 0.099398 0.192835 0.151263
Si Si7 0.227631 0.742254 0.486616
O O1 0.769502 0.683676 0.324762
O O2 0.265025 0.655415 0.650360
O O3 0.613546 0.928631 0.628369
O O4 0.662511 0.060531 0.544772
O O5 0.556175 0.225602 0.225950
O O6 0.000000 0.500000 0.000000
O O7 0.034385 0.398021 0.039206
O O8 0.876381 0.211533 0.680612
O O9 0.382260 0.156233 0.959949
O O10 0.510591 0.325133 0.701013
O O11 0.050020 0.020287 0.897068
O O12 0.238616 0.430501 0.024445
O O13 0.112520 0.431199 0.223035
O O14 0.906930 0.159267 0.322330
O O15 0.000000 0.500000 0.500000
#
# Coordination Sequence:
#
# PCOD9055076 Si02
#       7
#     2   2   2   2   2   2   2
#     4  12  24  46  70  97 139 178 219 279 335 394
#     4  11  26  47  70  93 140 178 221 280 338 396
#     4  11  24  43  68 102 134 174 229 272 331 405
#     4  11  23  43  68  96 134 181 220 273 342 394
#     4  12  23  40  72  99 134 176 225 275 334 395
#     4  11  21  40  66 100 138 172 221 278 333 392
#     4  12  25  42  69 103 136 175 229 276 332 400
#
# _framework density 21.698979000000001
#
# number of rings (size 3 to 8) (size 9 to 14) (size 15 to 20)
#    0.000    0.571    4.286    6.000    2.000    0.571 
#    0.000    1.429    0.000    0.000    0.000    0.000 
#    0.000    0.000    0.000    0.000    0.000    0.000 
#
# Total GULP energy -78342.325519 kJ/mol
# GULP energy per Si atom -5595.880394 kJ/mol
# Density = 2.164959 g / cm^3
# Si number density = 21.698979 Si / 1000 Ang^3
#
#
#
# Elastic Constant Matrix: (Units=GPa)
#
#
# Indices 1 2 3 4 5 6 
#
# 1 49.4809 43.6106 25.1578 -2.5601 29.4000 -5.5154
# 2 43.6106 153.7292 36.9540 2.9795 18.2752 14.8258
# 3 25.1578 36.9540 132.7321 9.0893 18.2418 0.4211
# 4 -2.5601 2.9795 9.0893 25.8017 -5.3028 0.5779
# 5 29.4000 18.2752 18.2418 -5.3028 47.1145 -3.8357
# 6 -5.5154 14.8258 0.4211 0.5779 -3.8357 36.7381
#
#
#
# Elastic Compliance Matrix: (Units=1/GPa)
#
#
# Indices 1 2 3 4 5 6 
#
# 1 0.044810 -0.010300 -0.002761 0.001898 -0.021985 0.008590
# 2 -0.010300 0.009921 -0.001045 -0.001184 0.002421 -0.005267
# 3 -0.002761 -0.001045 0.008832 -0.003612 -0.001715 -0.000216
# 4 0.001898 -0.001184 -0.003612 0.041448 0.005397 0.000716
# 5 -0.021985 0.002421 -0.001715 0.005397 0.035222 -0.000666
# 6 0.008590 -0.005267 -0.000216 0.000716 -0.000666 0.030556
#
#
# Mechanical properties :
#
#
# Convention : Reuss Voigt Hill
#
# Bulk Modulus (GPa) = 28.28790 60.82076 44.55433
# Shear Modulus (GPa) = 23.72088 37.27885 30.49987
#
# Velocity S-wave (km/s) = 3.30991 4.14937 3.75319
# Velocity P-wave (km/s) = 5.26044 7.14469 6.27371
#
# Compressibility (1/GPa) = 0.03535080
#
# Stress axis : x y z
#
# Youngs Moduli (GPa) = 22.31647 100.79625 113.22367
#
# Poissons Ratio (x) = 1.03818 0.31266
# Poissons Ratio (y) = 0.22985 0.11831
# Poissons Ratio (z) = 0.06162 0.10532
#
# Static dielectric constant tensor:
#      x y z
#    x 1.789350 0.015460 -0.033510 
#    y 0.015460 1.827320 -0.018800 
#    z -0.033510 -0.018800 1.798760 
# 
# From -- ./inp_files/209244.got.cif
#   From: 2010.05.17/outbox.cif.g08.bks.cpg/sg2_105_cif.got.tgz:209244.got - 2010.06.03 11:33:40.
