data_PCOD9055699
_publ_section_title
;
Structure prediction by ZEFSAII (Michael W. Deem and Ramdas Pophale) SiO2 
 PCOD9055699
Probable space group: P -1
;
_chemical_formula_sum "Si O2"
_cell_formula_units_Z 16
_cell_length_a 14.231560
_cell_length_b 8.810392
_cell_length_c 11.076663
_cell_angle_alpha 82.822465
_cell_angle_beta 29.632280
_cell_angle_gamma 91.183168
_cell_volume 657.238050
_symmetry_space_group_name_H-M "P -1"
_symmetry_group_IT_number 2
_symmetry_cell_setting 'triclinic'
loop_
_space_group_symop_operation_xyz
x,y,z
-x,-y,-z
loop_
_atom_site_type_symbol
_atom_site_label
_atom_site_fract_x
_atom_site_fract_y
_atom_site_fract_z
Si Si1 0.446646 0.828054 0.791889
Si Si2 0.928613 0.795227 0.496821
Si Si3 0.216251 0.690361 0.551602
Si Si4 0.056224 0.641969 0.135550
Si Si5 0.523794 0.321117 0.975121
Si Si6 0.169917 0.159613 0.772040
Si Si7 0.422394 0.186293 0.728431
Si Si8 0.049162 0.159067 0.275540
O O1 0.671811 0.831242 0.512396
O O2 0.431252 0.007889 0.772139
O O3 0.287664 0.719876 0.887915
O O4 0.395336 0.748132 0.988864
O O5 0.996879 0.762542 0.557192
O O6 0.965382 0.685551 0.359585
O O7 0.699872 0.785518 0.772688
O O8 0.037699 0.975593 0.326238
O O9 0.353127 0.686987 0.282122
O O10 0.358946 0.705130 0.504859
O O11 0.025899 0.543079 0.774692
O O12 0.118313 0.835127 0.633679
O O13 0.954628 0.717957 0.135601
O O14 0.500000 0.500000 0.000000
O O15 0.316072 0.184508 0.720193
O O16 0.000000 0.000000 0.000000
O O17 0.269263 0.239906 0.981000
#
# Coordination Sequence:
#
# PCOD9055699 Si02
#       8
#     2   2   2   2   2   2   2   2
#     4  12  26  45  79 105 136 193 249 284 356 434
#     4  11  21  43  67 100 145 189 232 291 348 422
#     4  12  28  43  71 110 150 189 226 295 371 423
#     4  12  26  47  73 109 141 192 244 290 352 431
#     4  12  24  42  72 105 151 186 233 287 356 428
#     4  12  26  49  79 103 138 184 251 306 343 416
#     4  12  27  45  72 105 142 189 241 298 355 420
#     4  11  25  42  69 103 149 184 238 297 356 416
#
# _framework density 24.344297999999998
#
# number of rings (size 3 to 8) (size 9 to 14) (size 15 to 20)
#    0.000    0.250    6.250    1.875    5.250    3.500 
#    0.000    1.250    0.000    0.000    0.000    0.000 
#    0.000    0.000    0.000    0.000    0.000    0.000 
#
# Total GULP energy -89531.726325 kJ/mol
# GULP energy per Si atom -5595.732895 kJ/mol
# Density = 2.428889 g / cm^3
# Si number density = 24.344298 Si / 1000 Ang^3
#
#
#
# Elastic Constant Matrix: (Units=GPa)
#
#
# Indices 1 2 3 4 5 6 
#
# 1 142.0393 21.8882 10.8127 -3.7166 -22.3546 1.3713
# 2 21.8882 36.2889 15.2486 -13.5308 0.8176 8.5339
# 3 10.8127 15.2486 100.0726 1.0080 -30.6552 1.9639
# 4 -3.7166 -13.5308 1.0080 21.0394 2.4878 -5.8451
# 5 -22.3546 0.8176 -30.6552 2.4878 48.7545 -4.0898
# 6 1.3713 8.5339 1.9639 -5.8451 -4.0898 28.1549
#
#
#
# Elastic Compliance Matrix: (Units=1/GPa)
#
#
# Indices 1 2 3 4 5 6 
#
# 1 0.009001 -0.008479 0.002162 -0.004122 0.006006 0.001998
# 2 -0.008479 0.051910 -0.011541 0.031340 -0.014462 -0.010110
# 3 0.002162 -0.011541 0.015001 -0.008471 0.011235 0.002220
# 4 -0.004122 0.031340 -0.008471 0.069824 -0.010953 0.004197
# 5 0.006006 -0.014462 0.011235 -0.010953 0.031602 0.005624
# 6 0.001998 -0.010110 0.002220 0.004197 0.005624 0.040018
#
#
# Mechanical properties :
#
#
# Convention : Reuss Voigt Hill
#
# Bulk Modulus (GPa) = 24.87912 41.58886 33.23399
# Shear Modulus (GPa) = 18.76372 34.95319 26.85846
#
# Velocity S-wave (km/s) = 2.77928 3.79329 3.32516
# Velocity P-wave (km/s) = 4.53222 6.02545 5.33137
#
# Compressibility (1/GPa) = 0.04019435
#
# Stress axis : x y z
#
# Youngs Moduli (GPa) = 111.10494 19.26424 66.66104
#
# Poissons Ratio (x) = 0.16334 -0.14410
# Poissons Ratio (y) = 0.94207 0.76934
# Poissons Ratio (z) = -0.24017 0.22233
#
# Static dielectric constant tensor:
#      x y z
#    x 2.013740 -0.001900 0.073350 
#    y -0.001900 1.952490 -0.023490 
#    z 0.073350 -0.023490 1.966790 
# 
# From -- ./inp_files/447321.got.cif
#   From: 2010.05.17/outbox.cif.g08.bks.cpg/sg2_224_cif.got.tgz:447321.got - 2010.06.03 11:33:40.
