data_PCOD9055188
_publ_section_title
;
Structure prediction by ZEFSAII (Michael W. Deem and Ramdas Pophale) SiO2 
 PCOD9055188
Probable space group: P -1
;
_chemical_formula_sum "Si O2"
_cell_formula_units_Z 14
_cell_length_a 8.602885
_cell_length_b 17.823774
_cell_length_c 11.233151
_cell_angle_alpha 48.214113
_cell_angle_beta 78.739516
_cell_angle_gamma 40.312848
_cell_volume 632.498383
_symmetry_space_group_name_H-M "P -1"
_symmetry_group_IT_number 2
_symmetry_cell_setting 'triclinic'
loop_
_space_group_symop_operation_xyz
x,y,z
-x,-y,-z
loop_
_atom_site_type_symbol
_atom_site_label
_atom_site_fract_x
_atom_site_fract_y
_atom_site_fract_z
Si Si1 0.785543 0.045563 0.060709
Si Si2 0.162070 0.522972 0.942452
Si Si3 0.046186 0.421078 0.704357
Si Si4 0.125756 0.106879 0.335352
Si Si5 0.142089 0.923707 0.713501
Si Si6 0.807294 0.713316 0.572983
Si Si7 0.837713 0.807060 0.217774
O O1 0.813104 0.061076 0.176768
O O2 0.940324 0.855427 0.202486
O O3 0.412101 0.240305 0.877562
O O4 0.000000 0.000000 0.000000
O O5 0.032536 0.695179 0.846252
O O6 0.101897 0.581270 0.750211
O O7 0.523754 0.301049 0.147490
O O8 0.000000 0.500000 0.000000
O O9 0.965849 0.352303 0.748853
O O10 0.000000 0.500000 0.500000
O O11 0.838457 0.578679 0.675395
O O12 0.066649 0.063184 0.278889
O O13 0.041733 0.076016 0.488678
O O14 0.502707 0.913313 0.480619
O O15 0.803175 0.763848 0.390402
O O16 0.500000 0.000000 0.000000
#
# Coordination Sequence:
#
# PCOD9055188 Si02
#       7
#     2   2   2   2   2   2   2
#     4  11  23  41  63  93 128 172 216 270 334 383
#     4  12  24  42  69 100 131 174 227 277 334 392
#     4   9  20  39  62  91 124 160 217 268 318 387
#     4  11  26  43  69  99 135 182 220 270 346 400
#     4  11  25  46  64  97 144 174 220 278 333 405
#     4  11  21  40  70  95 127 170 226 277 324 398
#     4   9  21  38  64  90 128 170 218 270 320 393
#
# _framework density 22.134443000000001
#
# number of rings (size 3 to 8) (size 9 to 14) (size 15 to 20)
#    0.000    1.429    2.857    1.714    8.000    0.000 
#    0.000    2.857    0.000    0.000    0.000    0.000 
#    0.000    0.000    0.000    0.000    0.000    0.000 
#
# Total GULP energy -77949.850366 kJ/mol
# GULP energy per Si atom -5567.846455 kJ/mol
# Density = 2.208406 g / cm^3
# Si number density = 22.134443 Si / 1000 Ang^3
#
#
#
# Elastic Constant Matrix: (Units=GPa)
#
#
# Indices 1 2 3 4 5 6 
#
# 1 109.8257 48.5865 38.8047 -5.2248 -22.5235 37.3503
# 2 48.5865 83.0417 15.0640 -6.7626 -13.6468 37.1581
# 3 38.8047 15.0640 68.8993 7.8110 -1.8107 15.1917
# 4 -5.2248 -6.7626 7.8110 40.0933 17.3740 1.2375
# 5 -22.5235 -13.6468 -1.8107 17.3740 38.3007 -5.2523
# 6 37.3503 37.1581 15.1917 1.2375 -5.2523 46.8687
#
#
#
# Elastic Compliance Matrix: (Units=1/GPa)
#
#
# Indices 1 2 3 4 5 6 
#
# 1 0.017644 -0.004539 -0.007127 -0.000083 0.007457 -0.007315
# 2 -0.004539 0.020923 0.000636 0.002368 0.001956 -0.013020
# 3 -0.007127 0.000636 0.019020 -0.003863 -0.001457 -0.001051
# 4 -0.000083 0.002368 -0.003863 0.032477 -0.014538 -0.003045
# 5 0.007457 0.001956 -0.001457 -0.014538 0.037381 -0.002448
# 6 -0.007315 -0.013020 -0.001051 -0.003045 -0.002448 0.037634
#
#
# Mechanical properties :
#
#
# Convention : Reuss Voigt Hill
#
# Bulk Modulus (GPa) = 28.14757 51.85300 40.00028
# Shear Modulus (GPa) = 25.12779 35.67329 30.40054
#
# Velocity S-wave (km/s) = 3.37298 4.01891 3.71003
# Velocity P-wave (km/s) = 5.28333 6.70915 6.03847
#
# Compressibility (1/GPa) = 0.03552705
#
# Stress axis : x y z
#
# Youngs Moduli (GPa) = 56.67525 47.79467 52.57553
#
# Poissons Ratio (x) = 0.21694 0.37470
# Poissons Ratio (y) = 0.25725 -0.03342
# Poissons Ratio (z) = 0.40392 -0.03038
#
# Static dielectric constant tensor:
#      x y z
#    x 2.221920 0.116940 -0.312470 
#    y 0.116940 1.828270 -0.069870 
#    z -0.312470 -0.069870 2.101510 
# 
# From -- ./inp_files/180801.got.cif
#   From: 2010.05.17/outbox.cif.g08.bks.cpg/sg2_91_cif.got.tgz:180801.got - 2010.06.03 11:33:40.
