data_PCOD9055584
_publ_section_title
;
Structure prediction by ZEFSAII (Michael W. Deem and Ramdas Pophale) SiO2 
 PCOD9055584
Probable space group: P -1
;
_chemical_formula_sum "Si O2"
_cell_formula_units_Z 16
_cell_length_a 11.210332
_cell_length_b 6.221551
_cell_length_c 11.088207
_cell_angle_alpha 88.120067
_cell_angle_beta 100.466402
_cell_angle_gamma 110.533103
_cell_volume 711.771563
_symmetry_space_group_name_H-M "P -1"
_symmetry_group_IT_number 2
_symmetry_cell_setting 'triclinic'
loop_
_space_group_symop_operation_xyz
x,y,z
-x,-y,-z
loop_
_atom_site_type_symbol
_atom_site_label
_atom_site_fract_x
_atom_site_fract_y
_atom_site_fract_z
Si Si1 0.514812 0.688698 0.103569
Si Si2 0.345440 0.057866 0.262733
Si Si3 0.289118 0.346481 0.454283
Si Si4 0.867362 0.369580 0.647696
Si Si5 0.392519 0.608340 0.694383
Si Si6 0.881347 0.072651 0.436374
Si Si7 0.861863 0.367378 0.218609
Si Si8 0.296332 0.889116 0.011359
O O1 0.552483 0.573070 0.228841
O O2 0.623283 0.925636 0.076094
O O3 0.500000 0.500000 0.000000
O O4 0.383612 0.746814 0.081129
O O5 0.340439 0.256347 0.348837
O O6 0.500436 0.137388 0.271096
O O7 0.257868 0.821061 0.312897
O O8 0.281068 0.037444 0.119652
O O9 0.167843 0.405693 0.382094
O O10 0.371478 0.558447 0.548659
O O11 0.244181 0.139930 0.545433
O O12 0.885361 0.279170 0.521294
O O13 0.001411 0.426994 0.743111
O O14 0.258326 0.585597 0.738170
O O15 0.877617 0.155011 0.299649
O O16 0.000000 0.000000 0.500000
O O17 0.823791 0.288312 0.076857
#
# Coordination Sequence:
#
# PCOD9055584 Si02
#       8
#     2   2   2   2   2   2   2   2
#     4  11  21  43  69 101 136 173 219 293 337 381
#     4  11  27  44  64  99 144 184 216 273 336 410
#     4  11  24  44  66 100 137 183 220 276 342 405
#     4  11  25  44  67  97 144 176 223 276 340 401
#     4  12  23  44  75 101 130 175 233 280 342 390
#     4  11  21  42  71 100 136 169 225 287 338 388
#     4  12  23  43  75 104 128 178 229 285 334 391
#     4  11  24  43  67 102 138 173 231 273 332 407
#
# _framework density 22.479120999999999
#
# number of rings (size 3 to 8) (size 9 to 14) (size 15 to 20)
#    0.000    0.750    5.000    3.000    1.750    1.000 
#    0.000    0.625    0.000    0.000    0.000    0.000 
#    0.000    0.000    0.000    0.000    0.000    0.000 
#
# Total GULP energy -89383.368958 kJ/mol
# GULP energy per Si atom -5586.460560 kJ/mol
# Density = 2.242796 g / cm^3
# Si number density = 22.479121 Si / 1000 Ang^3
#
#
#
# Elastic Constant Matrix: (Units=GPa)
#
#
# Indices 1 2 3 4 5 6 
#
# 1 63.6829 42.6129 34.7397 -4.3921 14.8302 6.9370
# 2 42.6129 71.4846 22.3916 1.5846 10.8709 15.8114
# 3 34.7397 22.3916 141.8724 21.4290 12.3286 7.0379
# 4 -4.3921 1.5846 21.4290 49.5529 -0.1647 7.3290
# 5 14.8302 10.8709 12.3286 -0.1647 36.4782 4.6903
# 6 6.9370 15.8114 7.0379 7.3290 4.6903 32.0252
#
#
#
# Elastic Compliance Matrix: (Units=1/GPa)
#
#
# Indices 1 2 3 4 5 6 
#
# 1 0.031406 -0.016708 -0.005428 0.005299 -0.006231 0.002339
# 2 -0.016708 0.025744 0.000660 -0.001265 0.000043 -0.008953
# 3 -0.005428 0.000660 0.009032 -0.004416 -0.001066 0.000032
# 4 0.005299 -0.001265 -0.004416 0.023335 0.000459 -0.004960
# 5 -0.006231 0.000043 -0.001066 0.000459 0.030687 -0.003036
# 6 0.002339 -0.008953 0.000032 -0.004960 -0.003036 0.036712
#
#
# Mechanical properties :
#
#
# Convention : Reuss Voigt Hill
#
# Bulk Modulus (GPa) = 43.05133 52.94760 47.99947
# Shear Modulus (GPa) = 24.08334 35.43097 29.75715
#
# Velocity S-wave (km/s) = 3.27672 3.97441 3.64231
# Velocity P-wave (km/s) = 5.78871 6.68330 6.25203
#
# Compressibility (1/GPa) = 0.02322809
#
# Stress axis : x y z
#
# Youngs Moduli (GPa) = 31.84120 38.84356 110.72054
#
# Poissons Ratio (x) = 0.64902 0.60099
# Poissons Ratio (y) = 0.53202 -0.07303
# Poissons Ratio (z) = 0.17283 -0.02562
#
# Static dielectric constant tensor:
#      x y z
#    x 1.918580 0.022060 -0.017750 
#    y 0.022060 1.855090 0.017690 
#    z -0.017750 0.017690 1.819490 
# 
# From -- ./inp_files/365038.got.cif
#   From: 2010.05.17/outbox.cif.g08.bks.cpg/sg2_183_cif.got.tgz:365038.got - 2010.06.03 11:33:40.
