data_PCOD9055587
_publ_section_title
;
Structure prediction by ZEFSAII (Michael W. Deem and Ramdas Pophale) SiO2 
 PCOD9055587
Probable space group: P -1
;
_chemical_formula_sum "Si O2"
_cell_formula_units_Z 16
_cell_length_a 11.717164
_cell_length_b 14.562667
_cell_length_c 7.945248
_cell_angle_alpha 127.503157
_cell_angle_beta 126.229282
_cell_angle_gamma 42.823863
_cell_volume 704.349602
_symmetry_space_group_name_H-M "P -1"
_symmetry_group_IT_number 2
_symmetry_cell_setting 'triclinic'
loop_
_space_group_symop_operation_xyz
x,y,z
-x,-y,-z
loop_
_atom_site_type_symbol
_atom_site_label
_atom_site_fract_x
_atom_site_fract_y
_atom_site_fract_z
Si Si1 0.590906 0.672516 0.535723
Si Si2 0.248614 0.506755 0.987841
Si Si3 0.908337 0.846393 0.449163
Si Si4 0.815003 0.654868 0.018757
Si Si5 0.867639 0.357137 0.283203
Si Si6 0.379540 0.709423 0.943168
Si Si7 0.571154 0.090805 0.607927
Si Si8 0.266212 0.713376 0.473424
O O1 0.724515 0.507805 0.414638
O O2 0.565777 0.776019 0.480130
O O3 0.399506 0.716004 0.469615
O O4 0.684119 0.686072 0.791427
O O5 0.439899 0.430689 0.991941
O O6 0.242684 0.596869 0.241425
O O7 0.255401 0.371677 0.903636
O O8 0.101399 0.601992 0.827228
O O9 0.842059 0.777512 0.191878
O O10 0.986306 0.739713 0.560545
O O11 0.066481 0.840339 0.491404
O O12 0.745234 0.993829 0.539887
O O13 0.000000 0.500000 0.000000
O O14 0.778228 0.275727 0.080679
O O15 0.359678 0.680404 0.699441
O O16 0.379859 0.845846 0.126756
O O17 0.500000 0.000000 0.500000
#
# Coordination Sequence:
#
# PCOD9055587 Si02
#       8
#     2   2   2   2   2   2   2   2
#     4  12  24  45  75 105 135 189 238 281 356 414
#     4  12  20  37  69 109 136 170 232 293 348 399
#     4  11  27  47  66 107 147 182 234 286 354 414
#     4  12  23  41  69 106 143 177 227 299 346 404
#     4  11  23  39  75 108 132 179 235 295 344 402
#     4  11  21  42  71 100 137 179 231 284 344 407
#     4  12  29  50  68  98 148 193 231 276 354 437
#     4  11  23  41  74 105 137 176 234 300 345 404
#
# _framework density 22.715993000000001
#
# number of rings (size 3 to 8) (size 9 to 14) (size 15 to 20)
#    0.000    0.500    6.250    3.000    0.000    4.500 
#    0.000    0.000    0.000    0.000    0.000    0.000 
#    0.000    0.000    0.000    0.000    0.000    0.000 
#
# Total GULP energy -89363.031190 kJ/mol
# GULP energy per Si atom -5585.189449 kJ/mol
# Density = 2.266429 g / cm^3
# Si number density = 22.715993 Si / 1000 Ang^3
#
#
#
# Elastic Constant Matrix: (Units=GPa)
#
#
# Indices 1 2 3 4 5 6 
#
# 1 50.8379 18.8155 20.9038 -1.8062 8.7651 5.0614
# 2 18.8155 72.1435 28.6909 9.1984 5.2378 0.9843
# 3 20.9038 28.6909 105.0241 -4.0656 3.2975 6.8344
# 4 -1.8062 9.1984 -4.0656 27.3185 -3.6534 -8.0465
# 5 8.7651 5.2378 3.2975 -3.6534 26.7014 0.1226
# 6 5.0614 0.9843 6.8344 -8.0465 0.1226 46.5729
#
#
#
# Elastic Compliance Matrix: (Units=1/GPa)
#
#
# Indices 1 2 3 4 5 6 
#
# 1 0.024025 -0.004701 -0.003128 0.001319 -0.006389 -0.001808
# 2 -0.004701 0.017858 -0.004118 -0.007425 -0.002465 -0.000539
# 3 -0.003128 -0.004118 0.011401 0.002757 0.000807 -0.000772
# 4 0.001319 -0.007425 0.002757 0.042511 0.006468 0.006937
# 5 -0.006389 -0.002465 0.000807 0.006468 0.040810 0.001638
# 6 -0.001808 -0.000539 -0.000772 0.006937 0.001638 0.022987
#
#
# Mechanical properties :
#
#
# Convention : Reuss Voigt Hill
#
# Bulk Modulus (GPa) = 34.02636 40.53622 37.28129
# Shear Modulus (GPa) = 25.86887 30.75827 28.31357
#
# Velocity S-wave (km/s) = 3.37827 3.68371 3.53429
# Velocity P-wave (km/s) = 5.49804 5.99804 5.75348
#
# Compressibility (1/GPa) = 0.02938898
#
# Stress axis : x y z
#
# Youngs Moduli (GPa) = 41.62309 55.99735 87.71348
#
# Poissons Ratio (x) = 0.26327 0.27439
# Poissons Ratio (y) = 0.19569 0.36118
# Poissons Ratio (z) = 0.13021 0.23058
#
# Static dielectric constant tensor:
#      x y z
#    x 2.054430 -0.046630 0.024680 
#    y -0.046630 1.811190 -0.012180 
#    z 0.024680 -0.012180 1.864510 
# 
# From -- ./inp_files/274472.got.cif
#   From: 2010.05.17/outbox.cif.g08.bks.cpg/sg2_138_cif.got.tgz:274472.got - 2010.06.03 11:33:40.
