data_PCOD9055560
_publ_section_title
;
Structure prediction by ZEFSAII (Michael W. Deem and Ramdas Pophale) SiO2 
 PCOD9055560
Probable space group: P -1
;
_chemical_formula_sum "Si O2"
_cell_formula_units_Z 16
_cell_length_a 6.032715
_cell_length_b 18.461582
_cell_length_c 9.324767
_cell_angle_alpha 43.667340
_cell_angle_beta 92.707846
_cell_angle_gamma 101.384800
_cell_volume 695.927098
_symmetry_space_group_name_H-M "P -1"
_symmetry_group_IT_number 2
_symmetry_cell_setting 'triclinic'
loop_
_space_group_symop_operation_xyz
x,y,z
-x,-y,-z
loop_
_atom_site_type_symbol
_atom_site_label
_atom_site_fract_x
_atom_site_fract_y
_atom_site_fract_z
Si Si1 0.010080 0.599560 0.054588
Si Si2 0.724297 0.569395 0.822219
Si Si3 0.456664 0.871640 0.436634
Si Si4 0.665617 0.181938 0.168329
Si Si5 0.666875 0.912323 0.938900
Si Si6 0.096272 0.994910 0.669881
Si Si7 0.735817 0.479719 0.460611
Si Si8 0.490897 0.723397 0.418374
O O1 0.145426 0.508514 0.147448
O O2 0.794151 0.555672 0.213962
O O3 0.193484 0.696194 0.993717
O O4 0.901181 0.629415 0.861579
O O5 0.649287 0.651827 0.594354
O O6 0.500000 0.500000 0.000000
O O7 0.353021 0.861007 0.607593
O O8 0.370961 0.768243 0.483779
O O9 0.433571 0.981730 0.203383
O O10 0.725130 0.893796 0.448097
O O11 0.428242 0.155955 0.111668
O O12 0.795154 0.107727 0.191036
O O13 0.924736 0.967274 0.833877
O O14 0.618495 0.829439 0.185317
O O15 0.000000 0.000000 0.500000
O O16 0.500000 0.500000 0.500000
O O17 0.671282 0.356363 0.581268
O O18 0.000000 0.500000 0.500000
#
# Coordination Sequence:
#
# PCOD9055560 Si02
#       8
#     2   2   2   2   2   2   2   2
#     4  11  26  45  75 107 147 198 255 316 384 470
#     4  11  24  48  70 107 149 192 256 321 381 459
#     4  11  24  45  69 110 146 189 252 310 374 461
#     4  11  23  42  75 104 143 194 246 302 381 454
#     4  11  24  46  69 106 151 188 248 310 378 457
#     4  11  21  42  70 103 142 193 242 305 367 451
#     4  12  28  53  76 111 160 203 258 327 393 474
#     4  12  27  47  77 107 147 199 248 318 391 454
#
# _framework density 22.990915000000001
#
# number of rings (size 3 to 8) (size 9 to 14) (size 15 to 20)
#    0.000    0.750    3.750    3.375    5.250    1.500 
#    6.750    0.000    0.000    0.000    0.000    0.000 
#    0.000    0.000    0.000    0.000    0.000    0.000 
#
# Total GULP energy -89339.921545 kJ/mol
# GULP energy per Si atom -5583.745097 kJ/mol
# Density = 2.293859 g / cm^3
# Si number density = 22.990915 Si / 1000 Ang^3
#
#
#
# Elastic Constant Matrix: (Units=GPa)
#
#
# Indices 1 2 3 4 5 6 
#
# 1 96.1116 40.9091 28.8705 4.9540 -7.5755 -5.4700
# 2 40.9091 121.6416 0.3449 -2.9123 3.7910 -0.9430
# 3 28.8705 0.3449 105.5156 3.9004 8.1282 -6.7239
# 4 4.9540 -2.9123 3.9004 26.8377 4.4472 -4.4021
# 5 -7.5755 3.7910 8.1282 4.4472 31.1785 0.7250
# 6 -5.4700 -0.9430 -6.7239 -4.4021 0.7250 15.5742
#
#
#
# Elastic Compliance Matrix: (Units=1/GPa)
#
#
# Indices 1 2 3 4 5 6 
#
# 1 0.014557 -0.005125 -0.004166 -0.003280 0.005672 0.001812
# 2 -0.005125 0.010101 0.001549 0.002403 -0.003227 0.000310
# 3 -0.004166 0.001549 0.011163 0.000655 -0.004293 0.003835
# 4 -0.003280 0.002403 0.000655 0.041099 -0.007383 0.011237
# 5 0.005672 -0.003227 -0.004293 -0.007383 0.036105 -0.003825
# 6 0.001812 0.000310 0.003835 0.011237 -0.003825 0.069874
#
#
# Mechanical properties :
#
#
# Convention : Reuss Voigt Hill
#
# Bulk Modulus (GPa) = 49.17582 51.50198 50.33890
# Shear Modulus (GPa) = 24.37101 31.59438 27.98270
#
# Velocity S-wave (km/s) = 3.25934 3.71106 3.49251
# Velocity P-wave (km/s) = 5.96658 6.38845 6.18111
#
# Compressibility (1/GPa) = 0.02033520
#
# Stress axis : x y z
#
# Youngs Moduli (GPa) = 68.69643 99.00442 89.58089
#
# Poissons Ratio (x) = 0.50740 0.37323
# Poissons Ratio (y) = 0.35207 -0.13874
# Poissons Ratio (z) = 0.28622 -0.15333
#
# Static dielectric constant tensor:
#      x y z
#    x 1.966170 0.064170 0.058110 
#    y 0.064170 1.873730 0.061610 
#    z 0.058110 0.061610 1.899830 
# 
# From -- ./inp_files/138565.got.cif
#   From: 2010.05.17/outbox.cif.g08.bks.cpg/sg2_70_cif.got.tgz:138565.got - 2010.06.03 11:33:40.
