data_PCOD9055702
_publ_section_title
;
Structure prediction by ZEFSAII (Michael W. Deem and Ramdas Pophale) SiO2 
 PCOD9055702
Probable space group: P -1
;
_chemical_formula_sum "Si O2"
_cell_formula_units_Z 14
_cell_length_a 11.979829
_cell_length_b 19.912426
_cell_length_c 4.972972
_cell_angle_alpha 79.922918
_cell_angle_beta 106.064876
_cell_angle_gamma 152.459264
_cell_volume 520.438328
_symmetry_space_group_name_H-M "P -1"
_symmetry_group_IT_number 2
_symmetry_cell_setting 'triclinic'
loop_
_space_group_symop_operation_xyz
x,y,z
-x,-y,-z
loop_
_atom_site_type_symbol
_atom_site_label
_atom_site_fract_x
_atom_site_fract_y
_atom_site_fract_z
Si Si1 0.480365 0.397494 0.939403
Si Si2 0.997238 0.323240 0.714275
Si Si3 0.508764 0.751258 0.055088
Si Si4 0.150001 0.223403 0.371537
Si Si5 0.299605 0.960103 0.151186
Si Si6 0.184928 0.706994 0.881859
Si Si7 0.781482 0.949642 0.611086
O O1 0.308419 0.340571 0.632581
O O2 0.550234 0.358598 0.903527
O O3 0.323901 0.304685 0.172162
O O4 0.740376 0.567970 0.071081
O O5 0.784578 0.155043 0.702651
O O6 0.016322 0.365440 0.404380
O O7 0.905129 0.334106 0.846679
O O8 0.277599 0.680603 0.874558
O O9 0.725839 0.875602 0.888512
O O10 0.594739 0.827628 0.341836
O O11 0.044865 0.099129 0.528474
O O12 0.903686 0.131176 0.154584
O O13 0.572933 0.117014 0.107549
O O14 0.267393 0.001042 0.329236
#
# Coordination Sequence:
#
# PCOD9055702 Si02
#       7
#     2   2   2   2   2   2   2
#     4  12  28  45  63 107 135 191 213 260 345 420
#     4  12  28  44  71  96 143 178 226 268 337 406
#     4  11  24  43  71  98 142 166 230 277 338 392
#     4  12  24  45  70 101 141 168 231 270 343 400
#     4  11  25  45  74 104 130 172 227 292 333 383
#     4  11  24  45  69 102 128 178 229 287 326 383
#     4  11  21  43  67 104 128 172 217 286 333 377
#
# _framework density 26.900404000000002
#
# number of rings (size 3 to 8) (size 9 to 14) (size 15 to 20)
#    0.000    0.571    4.286    4.286    2.000    5.714 
#    0.000    0.000    0.000    0.000    0.000    0.000 
#    0.000    0.000    0.000    0.000    0.000    0.000 
#
# Total GULP energy -78506.615363 kJ/mol
# GULP energy per Si atom -5607.615383 kJ/mol
# Density = 2.683918 g / cm^3
# Si number density = 26.900404 Si / 1000 Ang^3
#
#
#
# Elastic Constant Matrix: (Units=GPa)
#
#
# Indices 1 2 3 4 5 6 
#
# 1 58.3399 22.4676 41.5883 2.4960 -7.0943 -13.7539
# 2 22.4676 92.2856 29.3111 2.3350 -21.8277 7.1654
# 3 41.5883 29.3111 177.9529 2.7547 -16.6812 1.8578
# 4 2.4960 2.3350 2.7547 46.4063 6.5834 2.5842
# 5 -7.0943 -21.8277 -16.6812 6.5834 32.8899 2.0724
# 6 -13.7539 7.1654 1.8578 2.5842 2.0724 36.2209
#
#
#
# Elastic Compliance Matrix: (Units=1/GPa)
#
#
# Indices 1 2 3 4 5 6 
#
# 1 0.025675 -0.005762 -0.005286 -0.001204 -0.001439 0.011329
# 2 -0.005762 0.014942 -0.000170 -0.001431 0.009225 -0.005561
# 3 -0.005286 -0.000170 0.007158 -0.000365 0.002606 -0.002464
# 4 -0.001204 -0.001431 -0.000365 0.022614 -0.005830 -0.001435
# 5 -0.001439 0.009225 0.002606 -0.005830 0.038977 -0.004319
# 6 0.011329 -0.005561 -0.002464 -0.001435 -0.004319 0.033486
#
#
# Mechanical properties :
#
#
# Convention : Reuss Voigt Hill
#
# Bulk Modulus (GPa) = 39.46106 57.25691 48.35899
# Shear Modulus (GPa) = 28.77952 38.78418 33.78185
#
# Velocity S-wave (km/s) = 3.27441 3.80118 3.54759
# Velocity P-wave (km/s) = 5.38487 6.37152 5.89886
#
# Compressibility (1/GPa) = 0.02534144
#
# Stress axis : x y z
#
# Youngs Moduli (GPa) = 38.94814 66.92399 139.69544
#
# Poissons Ratio (x) = 0.38558 0.73842
# Poissons Ratio (y) = 0.22440 0.02372
# Poissons Ratio (z) = 0.20588 0.01136
#
# Static dielectric constant tensor:
#      x y z
#    x 2.107530 0.020940 0.041250 
#    y 0.020940 2.097820 0.025140 
#    z 0.041250 0.025140 2.059230 
# 
# From -- ./inp_files/82673.got.cif
#   From: 2010.05.17/outbox.cif.g08.bks.cpg/sg2_42_cif.got.tgz:82673.got - 2010.06.03 11:33:40.
