data_PCOD9055036
_publ_section_title
;
Structure prediction by ZEFSAII (Michael W. Deem and Ramdas Pophale) SiO2 
 PCOD9055036
Probable space group: P -1
;
_chemical_formula_sum "Si O2"
_cell_formula_units_Z 16
_cell_length_a 15.209468
_cell_length_b 12.251725
_cell_length_c 18.512371
_cell_angle_alpha 154.800391
_cell_angle_beta 32.405647
_cell_angle_gamma 152.645200
_cell_volume 660.184840
_symmetry_space_group_name_H-M "P -1"
_symmetry_group_IT_number 2
_symmetry_cell_setting 'triclinic'
loop_
_space_group_symop_operation_xyz
x,y,z
-x,-y,-z
loop_
_atom_site_type_symbol
_atom_site_label
_atom_site_fract_x
_atom_site_fract_y
_atom_site_fract_z
Si Si1 0.484353 0.735078 0.770150
Si Si2 0.859115 0.163067 0.163237
Si Si3 0.743519 0.336941 0.744705
Si Si4 0.806829 0.668442 0.428809
Si Si5 0.388795 0.147647 0.982771
Si Si6 0.468832 0.988293 0.599468
Si Si7 0.302604 0.295038 0.275907
Si Si8 0.146092 0.144124 0.642482
O O1 0.615079 0.657981 0.581225
O O2 0.431909 0.936157 0.878359
O O3 0.632569 0.885953 0.825706
O O4 0.307477 0.424565 0.746118
O O5 0.830646 0.429247 0.312574
O O6 0.795460 0.974918 0.018692
O O7 0.701936 0.987470 0.230969
O O8 0.069286 0.343844 0.165586
O O9 0.566043 0.280913 0.883485
O O10 0.660660 0.239843 0.662057
O O11 0.788565 0.072698 0.565765
O O12 0.826590 0.636479 0.311251
O O13 0.000000 0.000000 0.500000
O O14 0.374655 0.342767 0.172429
O O15 0.385061 0.626496 0.451730
O O16 0.500000 0.000000 0.500000
O O17 0.066696 0.079641 0.312159
#
# Coordination Sequence:
#
# PCOD9055036 Si02
#       8
#     2   2   2   2   2   2   2   2
#     4  12  20  35  58  89 130 173 207 236 302 371
#     4  11  21  40  61  92 124 162 212 249 302 377
#     4  11  21  41  67  89 117 168 207 255 303 368
#     4  12  17  32  62  89 123 165 213 249 282 362
#     4  11  25  36  60  93 137 168 194 245 312 374
#     4  11  24  44  70  92 114 155 216 272 311 358
#     4  12  25  41  56  96 134 160 205 263 307 356
#     4  12  21  34  63  90 126 166 210 248 294 365
#
# _framework density 24.235636
#
# number of rings (size 3 to 8) (size 9 to 14) (size 15 to 20)
#    0.000    0.500    8.750    1.500    0.000    2.000 
#    0.000    2.500    0.000    1.500    0.000    0.000 
#    0.000    0.000    0.000    0.000    0.000    0.000 
#
# Total GULP energy -89086.530717 kJ/mol
# GULP energy per Si atom -5567.908170 kJ/mol
# Density = 2.418047 g / cm^3
# Si number density = 24.235636 Si / 1000 Ang^3
#
#
#
# Elastic Constant Matrix: (Units=GPa)
#
#
# Indices 1 2 3 4 5 6 
#
# 1 112.9321 35.4577 41.8243 -6.8280 26.7067 15.8237
# 2 35.4577 66.4346 20.1116 5.8803 1.3321 16.6754
# 3 41.8243 20.1116 98.6668 2.7706 32.2292 10.4468
# 4 -6.8280 5.8803 2.7706 27.8559 -4.0915 14.5482
# 5 26.7067 1.3321 32.2292 -4.0915 47.2855 0.7341
# 6 15.8237 16.6754 10.4468 14.5482 0.7341 34.2611
#
#
#
# Elastic Compliance Matrix: (Units=1/GPa)
#
#
# Indices 1 2 3 4 5 6 
#
# 1 0.014193 -0.005827 -0.002677 0.007263 -0.005308 -0.005873
# 2 -0.005827 0.020438 -0.002434 -0.001822 0.004307 -0.005833
# 3 -0.002677 -0.002434 0.014760 -0.002436 -0.008677 -0.000859
# 4 0.007263 -0.001822 -0.002436 0.050862 0.002374 -0.023373
# 5 -0.005308 0.004307 -0.008677 0.002374 0.030123 0.001347
# 6 -0.005873 -0.005833 -0.000859 -0.023373 0.001347 0.044897
#
#
# Mechanical properties :
#
#
# Convention : Reuss Voigt Hill
#
# Bulk Modulus (GPa) = 36.34422 52.53565 44.43993
# Shear Modulus (GPa) = 24.23404 33.92317 29.07860
#
# Velocity S-wave (km/s) = 3.16560 3.74535 3.46761
# Velocity P-wave (km/s) = 5.32824 6.35827 5.86591
#
# Compressibility (1/GPa) = 0.02751469
#
# Stress axis : x y z
#
# Youngs Moduli (GPa) = 70.45673 48.92775 67.75199
#
# Poissons Ratio (x) = 0.28511 0.18137
# Poissons Ratio (y) = 0.41056 0.16492
# Poissons Ratio (z) = 0.18861 0.11910
#
# Static dielectric constant tensor:
#      x y z
#    x 1.777510 -0.190690 -0.170010 
#    y -0.190690 1.813740 -0.022730 
#    z -0.170010 -0.022730 1.895940 
# 
# From -- ./inp_files/532025.got.cif
#   From: 2010.05.17/outbox.cif.g08.bks.cpg/sg2_267_cif.got.tgz:532025.got - 2010.06.03 11:33:40.
