data_PCOD9055800
_publ_section_title
;
Structure prediction by ZEFSAII (Michael W. Deem and Ramdas Pophale) SiO2 
 PCOD9055800
Probable space group: P -1
;
_chemical_formula_sum "Si O2"
_cell_formula_units_Z 16
_cell_length_a 9.379256
_cell_length_b 23.926063
_cell_length_c 9.948401
_cell_angle_alpha 51.802824
_cell_angle_beta 93.920385
_cell_angle_gamma 137.688746
_cell_volume 800.642852
_symmetry_space_group_name_H-M "P -1"
_symmetry_group_IT_number 2
_symmetry_cell_setting 'triclinic'
loop_
_space_group_symop_operation_xyz
x,y,z
-x,-y,-z
loop_
_atom_site_type_symbol
_atom_site_label
_atom_site_fract_x
_atom_site_fract_y
_atom_site_fract_z
Si Si1 0.237545 0.864025 0.077136
Si Si2 0.712849 0.405921 0.706778
Si Si3 0.366216 0.981014 0.390326
Si Si4 0.202827 0.353084 0.288578
Si Si5 0.267293 0.139890 0.704218
Si Si6 0.100719 0.668091 0.525957
Si Si7 0.831225 0.944783 0.711536
Si Si8 0.655993 0.681300 0.404677
O O1 0.117171 0.734126 0.310717
O O2 0.981731 0.812273 0.153228
O O3 0.500000 0.000000 0.000000
O O4 0.385096 0.921703 0.856267
O O5 0.583990 0.411141 0.593091
O O6 0.000000 0.500000 0.500000
O O7 0.854837 0.500693 0.711061
O O8 0.433528 0.227630 0.993148
O O9 0.041411 0.805969 0.568469
O O10 0.500000 0.000000 0.500000
O O11 0.321021 0.044320 0.322819
O O12 0.336761 0.379224 0.397481
O O13 0.012464 0.339175 0.340200
O O14 0.500000 0.500000 0.000000
O O15 0.560632 0.217157 0.608410
O O16 0.369068 0.261249 0.587027
O O17 0.102585 0.069362 0.655299
O O18 0.000000 0.000000 0.000000
O O19 0.000000 0.000000 0.500000
#
# Coordination Sequence:
#
# PCOD9055800 Si02
#       8
#     2   2   2   2   2   2   2   2
#     4  11  21  43  72 102 133 176 247 277 341 420
#     4  12  25  45  71 109 143 177 237 297 355 417
#     4  12  27  45  70 101 140 183 230 294 348 415
#     4  11  27  46  66  98 142 188 237 278 355 420
#     4  12  21  43  75 101 136 182 235 288 352 423
#     4  11  25  42  74 104 137 184 231 293 347 421
#     4  12  29  45  72 106 144 183 238 295 355 419
#     4  11  23  41  76  99 134 187 233 287 345 416
#
# _framework density 19.983941999999999
#
# number of rings (size 3 to 8) (size 9 to 14) (size 15 to 20)
#    0.000    0.500    6.250    2.250    5.250    4.000 
#    0.000    1.250    0.000    0.000    0.000    0.000 
#    0.000    0.000    0.000    0.000    0.000    0.000 
#
# Total GULP energy -89365.825068 kJ/mol
# GULP energy per Si atom -5585.364067 kJ/mol
# Density = 1.993846 g / cm^3
# Si number density = 19.983942 Si / 1000 Ang^3
#
#
#
# Elastic Constant Matrix: (Units=GPa)
#
#
# Indices 1 2 3 4 5 6 
#
# 1 144.0073 47.4311 52.5119 7.4427 -23.1260 9.5175
# 2 47.4311 96.8184 36.1752 13.4610 -3.8230 11.6957
# 3 52.5119 36.1752 112.2057 14.3502 -25.4486 -3.5099
# 4 7.4427 13.4610 14.3502 40.1677 -7.3336 -1.2866
# 5 -23.1260 -3.8230 -25.4486 -7.3336 35.1691 0.5899
# 6 9.5175 11.6957 -3.5099 -1.2866 0.5899 43.6032
#
#
#
# Elastic Compliance Matrix: (Units=1/GPa)
#
#
# Indices 1 2 3 4 5 6 
#
# 1 0.009850 -0.003659 -0.002606 0.001099 0.004446 -0.001406
# 2 -0.003659 0.014145 -0.003396 -0.003693 -0.004040 -0.003323
# 3 -0.002606 -0.003396 0.013109 -0.001706 0.007007 0.002390
# 4 0.001099 -0.003693 -0.001706 0.027457 0.004789 0.001359
# 5 0.004446 -0.004040 0.007007 0.004789 0.036982 0.000318
# 6 -0.001406 -0.003323 0.002390 0.001359 0.000318 0.024361
#
#
# Mechanical properties :
#
#
# Convention : Reuss Voigt Hill
#
# Bulk Modulus (GPa) = 56.23733 69.47420 62.85576
# Shear Modulus (GPa) = 33.07905 38.24890 35.66397
#
# Velocity S-wave (km/s) = 4.07293 4.37965 4.22907
# Velocity P-wave (km/s) = 7.09371 7.77275 7.44098
#
# Compressibility (1/GPa) = 0.01778178
#
# Stress axis : x y z
#
# Youngs Moduli (GPa) = 101.52652 70.69424 76.28381
#
# Poissons Ratio (x) = 0.25867 0.19880
# Poissons Ratio (y) = 0.37148 0.25906
# Poissons Ratio (z) = 0.26459 0.24008
#
# Static dielectric constant tensor:
#      x y z
#    x 1.787740 0.037990 0.063390 
#    y 0.037990 1.754550 0.005640 
#    z 0.063390 0.005640 1.735550 
# 
# From -- ./inp_files/226164.got.cif
#   From: 2010.05.17/outbox.cif.g08.bks.cpg/sg2_114_cif.got.tgz:226164.got - 2010.06.03 11:33:40.
