data_PCOD9055452
_publ_section_title
;
Structure prediction by ZEFSAII (Michael W. Deem and Ramdas Pophale) SiO2 
 PCOD9055452
Probable space group: P -1
;
_chemical_formula_sum "Si O2"
_cell_formula_units_Z 14
_cell_length_a 12.018307
_cell_length_b 8.128678
_cell_length_c 9.973293
_cell_angle_alpha 131.144754
_cell_angle_beta 118.970247
_cell_angle_gamma 46.579501
_cell_volume 531.997040
_symmetry_space_group_name_H-M "P -1"
_symmetry_group_IT_number 2
_symmetry_cell_setting 'triclinic'
loop_
_space_group_symop_operation_xyz
x,y,z
-x,-y,-z
loop_
_atom_site_type_symbol
_atom_site_label
_atom_site_fract_x
_atom_site_fract_y
_atom_site_fract_z
Si Si1 0.170716 0.755125 0.172226
Si Si2 0.946505 0.462204 0.798137
Si Si3 0.500876 0.320153 0.110568
Si Si4 0.922335 0.350789 0.430159
Si Si5 0.674408 0.860869 0.496368
Si Si6 0.309426 0.076605 0.769768
Si Si7 0.773156 0.044190 0.914792
O O1 0.134241 0.582634 0.151037
O O2 0.356049 0.610387 0.219180
O O3 0.161793 0.795380 0.026617
O O4 0.036755 0.048384 0.299682
O O5 0.900985 0.380749 0.592271
O O6 0.885119 0.770844 0.913645
O O7 0.870166 0.737544 0.200507
O O8 0.603466 0.186967 0.231868
O O9 0.406375 0.197520 0.935767
O O10 0.623498 0.238180 0.019317
O O11 0.755823 0.543791 0.373185
O O12 0.000000 0.500000 0.500000
O O13 0.690991 0.943045 0.401595
O O14 0.500000 0.000000 0.500000
O O15 0.737463 0.931387 0.700865
#
# Coordination Sequence:
#
# PCOD9055452 Si02
#       7
#     2   2   2   2   2   2   2
#     4  12  24  44  69 101 139 183 226 282 341 416
#     4  11  23  43  75  99 137 179 234 284 335 404
#     4  11  26  41  68  98 149 182 223 279 345 409
#     4  11  21  44  71 100 135 179 228 290 341 397
#     4  11  21  41  78  96 130 183 230 281 343 398
#     4  11  22  45  67 108 135 186 228 278 345 402
#     4  11  23  48  71 101 139 182 226 287 339 402
#
# _framework density 26.315937999999999
#
# number of rings (size 3 to 8) (size 9 to 14) (size 15 to 20)
#    0.000    0.857    5.714    2.571    2.000    2.286 
#    2.571    6.429    0.000    0.000    0.000    0.000 
#    0.000    0.000    0.000    0.000    0.000    0.000 
#
# Total GULP energy -78257.183455 kJ/mol
# GULP energy per Si atom -5589.798818 kJ/mol
# Density = 2.625604 g / cm^3
# Si number density = 26.315938 Si / 1000 Ang^3
#
#
#
# Elastic Constant Matrix: (Units=GPa)
#
#
# Indices 1 2 3 4 5 6 
#
# 1 159.6082 85.4938 47.8945 0.1876 -61.6083 -3.4531
# 2 85.4938 245.2875 76.0208 -4.6680 -45.3496 -15.9934
# 3 47.8945 76.0208 170.4676 -11.7982 -41.5806 -2.4058
# 4 0.1876 -4.6680 -11.7982 50.1010 -0.9300 -10.9220
# 5 -61.6083 -45.3496 -41.5806 -0.9300 57.2060 1.9945
# 6 -3.4531 -15.9934 -2.4058 -10.9220 1.9945 53.8039
#
#
#
# Elastic Compliance Matrix: (Units=1/GPa)
#
#
# Indices 1 2 3 4 5 6 
#
# 1 0.011539 -0.002121 0.000393 -0.000005 0.011041 -0.000283
# 2 -0.002121 0.005599 -0.001617 0.000498 0.000934 0.001522
# 3 0.000393 -0.001617 0.007778 0.001785 0.004820 0.000076
# 4 -0.000005 0.000498 0.001785 0.021445 0.001878 0.004511
# 5 0.011041 0.000934 0.004820 0.001878 0.033634 0.000336
# 6 -0.000283 0.001522 0.000076 0.004511 0.000336 0.019927
#
#
# Mechanical properties :
#
#
# Convention : Reuss Voigt Hill
#
# Bulk Modulus (GPa) = 54.87085 110.46461 82.66773
# Shear Modulus (GPa) = 44.37054 56.61911 50.49483
#
# Velocity S-wave (km/s) = 4.11063 4.64347 4.38515
# Velocity P-wave (km/s) = 6.58983 8.41526 7.55786
#
# Compressibility (1/GPa) = 0.01822461
#
# Stress axis : x y z
#
# Youngs Moduli (GPa) = 86.66027 178.61533 128.57568
#
# Poissons Ratio (x) = 0.37881 -0.05047
# Poissons Ratio (y) = 0.18379 0.20793
# Poissons Ratio (z) = -0.03402 0.28885
#
# Static dielectric constant tensor:
#      x y z
#    x 2.164980 0.044020 0.105780 
#    y 0.044020 2.155510 0.033160 
#    z 0.105780 0.033160 2.060220 
# 
# From -- ./inp_files/299218.got.cif
#   From: 2010.05.17/outbox.cif.g08.bks.cpg/sg2_150_cif.got.tgz:299218.got - 2010.06.03 11:33:40.
