data_PCOD9055326
_publ_section_title
;
Structure prediction by ZEFSAII (Michael W. Deem and Ramdas Pophale) SiO2 
 PCOD9055326
Probable space group: P -1
;
_chemical_formula_sum "Si O2"
_cell_formula_units_Z 13
_cell_length_a 14.237301
_cell_length_b 10.846567
_cell_length_c 15.114474
_cell_angle_alpha 26.613470
_cell_angle_beta 30.182307
_cell_angle_gamma 31.341313
_cell_volume 490.281403
_symmetry_space_group_name_H-M "P -1"
_symmetry_group_IT_number 2
_symmetry_cell_setting 'triclinic'
loop_
_space_group_symop_operation_xyz
x,y,z
-x,-y,-z
loop_
_atom_site_type_symbol
_atom_site_label
_atom_site_fract_x
_atom_site_fract_y
_atom_site_fract_z
Si Si1 0.277128 0.204650 0.534113
Si Si2 0.201611 0.910993 0.606115
Si Si3 0.707018 0.295837 0.920394
Si Si4 0.500000 0.000000 0.000000
Si Si5 0.607613 0.758593 0.269332
Si Si6 0.946446 0.559203 0.897202
Si Si7 0.958540 0.454734 0.757264
O O1 0.248083 0.520634 0.313438
O O2 0.185144 0.283053 0.655829
O O3 0.500000 0.000000 0.500000
O O4 0.207073 0.040364 0.617497
O O5 0.426597 0.749901 0.486028
O O6 0.076771 0.695007 0.856181
O O7 0.105984 0.203828 0.437690
O O8 0.857994 0.288803 0.879831
O O9 0.500000 0.500000 0.000000
O O10 0.678821 0.011829 0.088167
O O11 0.477857 0.125137 0.833495
O O12 0.248491 0.146378 0.118353
O O13 0.818944 0.477130 0.280269
O O14 0.901330 0.454210 0.904241
#
# Coordination Sequence:
#
# PCOD9055326 Si02
#       7
#     2   2   2   1   2   2   2
#     4  11  23  36  66 108 147 188 228 276 361 444
#     4  11  24  45  72 110 144 186 237 288 362 441
#     4  11  21  41  68 103 151 183 224 288 354 430
#     4  12  28  54  76  98 144 188 254 318 350 406
#     4  12  25  50  74 107 144 191 246 295 358 427
#     4  12  27  49  78 103 144 194 238 304 364 415
#     4  11  23  45  68 110 151 182 231 290 352 446
#
# _framework density 26.515384999999998
#
# number of rings (size 3 to 8) (size 9 to 14) (size 15 to 20)
#    0.000    0.615    4.615    5.077    4.308    1.846 
#    2.769    1.538    0.000    0.000    0.000    0.000 
#    0.000    0.000    0.000    0.000    0.000    0.000 
#
# Total GULP energy -72513.359284 kJ/mol
# GULP energy per Si atom -5577.950714 kJ/mol
# Density = 2.645503 g / cm^3
# Si number density = 26.515385 Si / 1000 Ang^3
#
#
#
# Elastic Constant Matrix: (Units=GPa)
#
#
# Indices 1 2 3 4 5 6 
#
# 1 42.2599 25.5722 -2.3782 -13.7793 -0.4768 -12.7913
# 2 25.5722 174.2842 31.9749 39.8285 -6.1871 -28.3017
# 3 -2.3782 31.9749 85.8107 0.1598 -14.1955 8.4947
# 4 -13.7793 39.8285 0.1598 52.8449 8.3512 8.1371
# 5 -0.4768 -6.1871 -14.1955 8.3512 51.0847 9.6179
# 6 -12.7913 -28.3017 8.4947 8.1371 9.6179 52.5142
#
#
#
# Elastic Compliance Matrix: (Units=1/GPa)
#
#
# Indices 1 2 3 4 5 6 
#
# 1 0.035558 -0.009888 0.004161 0.017045 -0.002588 0.000492
# 2 -0.009888 0.012325 -0.005418 -0.013041 0.000709 0.007001
# 3 0.004161 -0.005418 0.014980 0.005431 0.003761 -0.005860
# 4 0.017045 -0.013041 0.005431 0.035124 -0.004061 -0.008454
# 5 -0.002588 0.000709 0.003761 -0.004061 0.022153 -0.004285
# 6 0.000492 0.007001 -0.005860 -0.008454 -0.004285 0.025978
#
#
# Mechanical properties :
#
#
# Convention : Reuss Voigt Hill
#
# Bulk Modulus (GPa) = 24.64679 45.85475 35.25077
# Shear Modulus (GPa) = 27.48286 47.76781 37.62534
#
# Velocity S-wave (km/s) = 3.22295 4.24903 3.77105
# Velocity P-wave (km/s) = 4.81303 6.43456 5.68194
#
# Compressibility (1/GPa) = 0.04057323
#
# Stress axis : x y z
#
# Youngs Moduli (GPa) = 28.12299 81.13638 66.75616
#
# Poissons Ratio (x) = 0.80228 -0.27779
# Poissons Ratio (y) = 0.27808 0.36169
# Poissons Ratio (z) = -0.11703 0.43961
#
# Static dielectric constant tensor:
#      x y z
#    x 2.115320 0.030930 0.026550 
#    y 0.030930 2.073020 -0.022080 
#    z 0.026550 -0.022080 2.028390 
# 
# From -- ./inp_files/455312.got.cif
#   From: 2010.05.17/outbox.cif.g08.bks.cpg/sg2_228_cif.got.tgz:455312.got - 2010.06.03 11:33:40.
