data_PCOD9055010
_publ_section_title
;
Structure prediction by ZEFSAII (Michael W. Deem and Ramdas Pophale) SiO2 
 PCOD9055010
Probable space group: P -1
;
_chemical_formula_sum "Si O2"
_cell_formula_units_Z 16
_cell_length_a 7.524859
_cell_length_b 9.531955
_cell_length_c 13.009919
_cell_angle_alpha 69.587932
_cell_angle_beta 62.073293
_cell_angle_gamma 102.412509
_cell_volume 687.371824
_symmetry_space_group_name_H-M "P -1"
_symmetry_group_IT_number 2
_symmetry_cell_setting 'triclinic'
loop_
_space_group_symop_operation_xyz
x,y,z
-x,-y,-z
loop_
_atom_site_type_symbol
_atom_site_label
_atom_site_fract_x
_atom_site_fract_y
_atom_site_fract_z
Si Si1 0.249889 0.114194 0.520139
Si Si2 0.961383 0.566007 0.193263
Si Si3 0.678158 0.179283 0.101591
Si Si4 0.601726 0.632342 0.847628
Si Si5 0.507850 0.517730 0.684946
Si Si6 0.930551 0.206585 0.226024
Si Si7 0.801598 0.422090 0.491504
Si Si8 0.230654 0.923100 0.368453
O O1 0.446348 0.303573 0.424590
O O2 0.018352 0.130503 0.596281
O O3 0.253212 0.055449 0.417561
O O4 0.249508 0.966031 0.627514
O O5 0.754289 0.583021 0.192326
O O6 0.893257 0.536653 0.337679
O O7 0.952975 0.390061 0.202502
O O8 0.192309 0.728760 0.060234
O O9 0.585323 0.305595 0.137902
O O10 0.860140 0.178299 0.133469
O O11 0.445860 0.005240 0.212611
O O12 0.641582 0.562552 0.746203
O O13 0.832030 0.773999 0.798274
O O14 0.500000 0.500000 0.000000
O O15 0.590081 0.425912 0.604241
O O16 0.763896 0.233430 0.535417
O O17 0.000000 0.500000 0.500000
#
# Coordination Sequence:
#
# PCOD9055010 Si02
#       8
#     2   2   2   2   2   2   2   2
#     4  11  21  39  71 104 135 173 235 291 340 400
#     4  12  25  44  67 101 143 186 227 286 348 417
#     4  12  25  42  69 106 144 176 232 286 354 413
#     4  12  22  39  70 103 138 179 224 288 343 404
#     4  12  25  45  70 102 139 184 239 280 344 419
#     4  12  22  38  69 107 139 174 227 288 348 395
#     4  12  26  46  71  99 134 188 239 280 343 420
#     4  11  22  43  69 104 137 178 229 293 344 404
#
# _framework density 23.277069000000001
#
# number of rings (size 3 to 8) (size 9 to 14) (size 15 to 20)
#    0.000    0.250    7.500    3.000    1.750    1.000 
#    0.000    1.250    2.750    0.000    0.000    0.000 
#    0.000    0.000    0.000    0.000    0.000    0.000 
#
# Total GULP energy -89403.715504 kJ/mol
# GULP energy per Si atom -5587.732219 kJ/mol
# Density = 2.322409 g / cm^3
# Si number density = 23.277069 Si / 1000 Ang^3
#
#
#
# Elastic Constant Matrix: (Units=GPa)
#
#
# Indices 1 2 3 4 5 6 
#
# 1 77.0942 1.6284 33.6957 -1.2532 -6.8191 2.1093
# 2 1.6284 39.0836 19.1306 2.6317 -3.6859 -8.5431
# 3 33.6957 19.1306 165.4715 -19.7571 -6.0190 -1.8538
# 4 -1.2532 2.6317 -19.7571 25.1346 -3.7273 0.8288
# 5 -6.8191 -3.6859 -6.0190 -3.7273 41.8406 -1.9891
# 6 2.1093 -8.5431 -1.8538 0.8288 -1.9891 22.4664
#
#
#
# Elastic Compliance Matrix: (Units=1/GPa)
#
#
# Indices 1 2 3 4 5 6 
#
# 1 0.014514 0.001022 -0.003212 -0.001607 0.001802 -0.001020
# 2 0.001022 0.030906 -0.004366 -0.006674 0.002225 0.011739
# 3 -0.003212 -0.004366 0.008028 0.006756 0.000807 -0.000874
# 4 -0.001607 -0.006674 0.006756 0.046429 0.004107 -0.003179
# 5 0.001802 0.002225 0.000807 0.004107 0.025005 0.002806
# 6 -0.001020 0.011739 -0.000874 -0.003179 0.002806 0.049364
#
#
# Mechanical properties :
#
#
# Convention : Reuss Voigt Hill
#
# Bulk Modulus (GPa) = 24.79012 43.39542 34.09277
# Shear Modulus (GPa) = 24.90005 33.03462 28.96734
#
# Velocity S-wave (km/s) = 3.27421 3.77130 3.53151
# Velocity P-wave (km/s) = 4.99671 6.13572 5.59527
#
# Compressibility (1/GPa) = 0.04033865
#
# Stress axis : x y z
#
# Youngs Moduli (GPa) = 68.89702 32.35656 124.55924
#
# Poissons Ratio (x) = -0.03308 0.40003
# Poissons Ratio (y) = -0.07044 0.54379
# Poissons Ratio (z) = 0.22127 0.14126
#
# Static dielectric constant tensor:
#      x y z
#    x 1.932130 -0.019880 -0.017660 
#    y -0.019880 1.877040 -0.026340 
#    z -0.017660 -0.026340 1.902500 
# 
# From -- ./inp_files/492444.got.cif
#   From: 2010.05.17/outbox.cif.g08.bks.cpg/sg2_247_cif.got.tgz:492444.got - 2010.06.03 11:33:40.
