data_PCOD9055743
_publ_section_title
;
Structure prediction by ZEFSAII (Michael W. Deem and Ramdas Pophale) SiO2 
 PCOD9055743
Probable space group: P -1
;
_chemical_formula_sum "Si O2"
_cell_formula_units_Z 14
_cell_length_a 5.736676
_cell_length_b 15.716558
_cell_length_c 7.797180
_cell_angle_alpha 106.080492
_cell_angle_beta 121.813392
_cell_angle_gamma 86.690875
_cell_volume 570.648551
_symmetry_space_group_name_H-M "P -1"
_symmetry_group_IT_number 2
_symmetry_cell_setting 'triclinic'
loop_
_space_group_symop_operation_xyz
x,y,z
-x,-y,-z
loop_
_atom_site_type_symbol
_atom_site_label
_atom_site_fract_x
_atom_site_fract_y
_atom_site_fract_z
Si Si1 0.114641 0.693569 0.866508
Si Si2 0.245774 0.076344 0.593224
Si Si3 0.315511 0.521193 0.699907
Si Si4 0.788589 0.409437 0.851935
Si Si5 0.287866 0.045760 0.207370
Si Si6 0.466172 0.343440 0.385228
Si Si7 0.465193 0.175357 0.041290
O O1 0.282807 0.609099 0.847127
O O2 0.826527 0.676095 0.647292
O O3 0.091091 0.671120 0.044820
O O4 0.252442 0.791080 0.930861
O O5 0.246042 0.097836 0.401059
O O6 0.253756 0.150946 0.788150
O O7 0.523684 0.030652 0.711161
O O8 0.000000 0.000000 0.500000
O O9 0.483278 0.442999 0.791252
O O10 0.527313 0.565503 0.665136
O O11 0.000000 0.500000 0.500000
O O12 0.729528 0.363978 0.617917
O O13 0.000000 0.500000 0.000000
O O14 0.433155 0.099436 0.131867
O O15 0.000000 0.000000 0.000000
O O16 0.457158 0.261901 0.206183
#
# Coordination Sequence:
#
# PCOD9055743 Si02
#       7
#     2   2   2   2   2   2   2
#     4  11  25  43  64 103 143 185 236 293 368 417
#     4  11  25  47  77 112 138 189 245 279 351 438
#     4  11  21  43  69  95 135 186 242 294 351 423
#     4  12  23  43  73  96 137 191 245 298 348 421
#     4  11  25  47  77 109 143 188 239 289 347 426
#     4  11  25  44  64 104 144 186 229 304 369 407
#     4  11  27  46  70 106 153 186 230 298 361 429
#
# _framework density 24.533491000000001
#
# number of rings (size 3 to 8) (size 9 to 14) (size 15 to 20)
#    0.000    0.857    4.286    2.143    4.000    0.000 
#    0.000    0.000    0.000    0.000    0.000    0.000 
#    0.000    0.000    0.000    0.000    0.000    0.000 
#
# Total GULP energy -77945.169857 kJ/mol
# GULP energy per Si atom -5567.512133 kJ/mol
# Density = 2.447765 g / cm^3
# Si number density = 24.533491 Si / 1000 Ang^3
#
#
#
# Elastic Constant Matrix: (Units=GPa)
#
#
# Indices 1 2 3 4 5 6 
#
# 1 45.4471 25.9894 51.6799 6.6904 16.3783 10.4632
# 2 25.9894 104.3829 65.9249 -7.9962 9.2823 29.9435
# 3 51.6799 65.9249 208.5868 9.9903 -0.5204 10.9294
# 4 6.6904 -7.9962 9.9903 34.6034 -2.9894 -5.9621
# 5 16.3783 9.2823 -0.5204 -2.9894 57.8588 11.0800
# 6 10.4632 29.9435 10.9294 -5.9621 11.0800 46.2185
#
#
#
# Elastic Compliance Matrix: (Units=1/GPa)
#
#
# Indices 1 2 3 4 5 6 
#
# 1 0.038460 -0.003251 -0.008009 -0.007308 -0.010202 -0.003204
# 2 -0.003251 0.015335 -0.003820 0.003939 0.000126 -0.007818
# 3 -0.008009 -0.003820 0.007960 -0.001127 0.002579 0.001642
# 4 -0.007308 0.003939 -0.001127 0.032270 0.002534 0.002924
# 5 -0.010202 0.000126 0.002579 0.002534 0.020892 -0.003064
# 6 -0.003204 -0.007818 0.001642 0.002924 -0.003064 0.028150
#
#
# Mechanical properties :
#
#
# Convention : Reuss Voigt Hill
#
# Bulk Modulus (GPa) = 31.65028 71.73389 51.69209
# Shear Modulus (GPa) = 27.20936 42.05764 34.63350
#
# Velocity S-wave (km/s) = 3.33388 4.14490 3.76131
# Velocity P-wave (km/s) = 5.26769 7.22562 6.32290
#
# Compressibility (1/GPa) = 0.03159530
#
# Stress axis : x y z
#
# Youngs Moduli (GPa) = 26.00092 65.20831 125.62560
#
# Poissons Ratio (x) = 0.21202 1.00613
# Poissons Ratio (y) = 0.08454 0.47989
# Poissons Ratio (z) = 0.20824 0.24910
#
# Static dielectric constant tensor:
#      x y z
#    x 2.400000 0.148480 -0.285950 
#    y 0.148480 2.069430 -0.163120 
#    z -0.285950 -0.163120 2.172750 
# 
# From -- ./inp_files/138008.got.cif
#   From: 2010.05.17/outbox.cif.g08.bks.cpg/sg2_70_cif.got.tgz:138008.got - 2010.06.03 11:33:40.
