data_PCOD9055401
_publ_section_title
;
Structure prediction by ZEFSAII (Michael W. Deem and Ramdas Pophale) SiO2 
 PCOD9055401
Probable space group: P -1
;
_chemical_formula_sum "Si O2"
_cell_formula_units_Z 16
_cell_length_a 8.673724
_cell_length_b 12.006767
_cell_length_c 9.884911
_cell_angle_alpha 110.353573
_cell_angle_beta 111.578245
_cell_angle_gamma 49.631458
_cell_volume 720.580805
_symmetry_space_group_name_H-M "P -1"
_symmetry_group_IT_number 2
_symmetry_cell_setting 'triclinic'
loop_
_space_group_symop_operation_xyz
x,y,z
-x,-y,-z
loop_
_atom_site_type_symbol
_atom_site_label
_atom_site_fract_x
_atom_site_fract_y
_atom_site_fract_z
Si Si1 0.132482 0.344841 0.648743
Si Si2 0.429484 0.949786 0.335191
Si Si3 0.497075 0.571400 0.889862
Si Si4 0.052667 0.956455 0.340426
Si Si5 0.797504 0.842562 0.886477
Si Si6 0.109352 0.628777 0.677692
Si Si7 0.044355 0.676822 0.144792
Si Si8 0.800659 0.093651 0.076500
O O1 0.371641 0.215141 0.697250
O O2 0.105115 0.493852 0.665884
O O3 0.023864 0.314639 0.479547
O O4 0.025107 0.356779 0.757016
O O5 0.247989 0.942138 0.331184
O O6 0.500000 0.000000 0.500000
O O7 0.373734 0.069561 0.249857
O O8 0.345957 0.570944 0.732194
O O9 0.732471 0.471171 0.879993
O O10 0.383613 0.743632 0.956097
O O11 0.500000 0.500000 0.000000
O O12 0.066090 0.810323 0.242221
O O13 0.000000 0.000000 0.500000
O O14 0.867973 0.091228 0.249260
O O15 0.997513 0.752309 0.812353
O O16 0.882307 0.727189 0.989551
O O17 0.731971 0.987866 0.007127
O O18 0.000000 0.000000 0.000000
#
# Coordination Sequence:
#
# PCOD9055401 Si02
#       8
#     2   2   2   2   2   2   2   2
#     4  11  27  45  66 100 140 182 226 278 347 413
#     4  12  23  41  72  97 135 189 219 271 352 407
#     4  12  23  41  74 101 130 180 225 281 349 399
#     4  11  24  43  70 102 137 174 230 291 331 399
#     4  11  23  43  72  98 135 174 232 284 337 411
#     4  11  23  46  70  94 138 181 224 281 343 418
#     4  11  26  45  68 104 136 173 235 292 337 401
#     4  11  21  41  71 100 130 171 226 285 336 397
#
# _framework density 22.204308999999999
#
# number of rings (size 3 to 8) (size 9 to 14) (size 15 to 20)
#    0.000    0.750    5.000    2.250    3.500    1.500 
#    4.500    1.250    0.000    0.000    0.000    0.000 
#    0.000    0.000    0.000    0.000    0.000    0.000 
#
# Total GULP energy -89195.994577 kJ/mol
# GULP energy per Si atom -5574.749661 kJ/mol
# Density = 2.215377 g / cm^3
# Si number density = 22.204309 Si / 1000 Ang^3
#
#
#
# Elastic Constant Matrix: (Units=GPa)
#
#
# Indices 1 2 3 4 5 6 
#
# 1 51.5957 29.1978 26.3377 -1.8828 -5.9719 -14.9503
# 2 29.1978 156.0136 40.0558 -9.0068 -9.4238 -28.2644
# 3 26.3377 40.0558 142.7651 -25.6691 -5.9257 -20.2971
# 4 -1.8828 -9.0068 -25.6691 37.3389 -5.2012 7.7106
# 5 -5.9719 -9.4238 -5.9257 -5.2012 37.3187 3.0694
# 6 -14.9503 -28.2644 -20.2971 7.7106 3.0694 17.5754
#
#
#
# Elastic Compliance Matrix: (Units=1/GPa)
#
#
# Indices 1 2 3 4 5 6 
#
# 1 0.027137 -0.000889 -0.002639 -0.004688 0.001366 0.020424
# 2 -0.000889 0.009191 -0.000619 -0.000941 0.000832 0.013576
# 3 -0.002639 -0.000619 0.009389 0.005299 0.001234 0.005062
# 4 -0.004688 -0.000941 0.005299 0.033931 0.005840 -0.015288
# 5 0.001366 0.000832 0.001234 0.005840 0.028533 -0.003619
# 6 0.020424 0.013576 0.005062 -0.015288 -0.003619 0.109289
#
#
# Mechanical properties :
#
#
# Convention : Reuss Voigt Hill
#
# Bulk Modulus (GPa) = 26.72282 60.17300 43.44791
# Shear Modulus (GPa) = 20.98747 35.43216 28.20981
#
# Velocity S-wave (km/s) = 3.07774 3.99900 3.56823
# Velocity P-wave (km/s) = 4.96901 6.96284 6.04865
#
# Compressibility (1/GPa) = 0.03742120
#
# Stress axis : x y z
#
# Youngs Moduli (GPa) = 36.85023 108.80753 106.51138
#
# Poissons Ratio (x) = 0.09673 0.28112
# Poissons Ratio (y) = 0.03276 0.06594
# Poissons Ratio (z) = 0.09726 0.06736
#
# Static dielectric constant tensor:
#      x y z
#    x 1.971280 -0.046830 0.042450 
#    y -0.046830 2.074790 0.038720 
#    z 0.042450 0.038720 1.820840 
# 
# From -- ./inp_files/188647.got.cif
#   From: 2010.05.17/outbox.cif.g08.bks.cpg/sg2_95_cif.got.tgz:188647.got - 2010.06.03 11:33:40.
