data_PCOD9055037
_publ_section_title
;
Structure prediction by ZEFSAII (Michael W. Deem and Ramdas Pophale) SiO2 
 PCOD9055037
Probable space group: P -1
;
_chemical_formula_sum "Si O2"
_cell_formula_units_Z 16
_cell_length_a 10.324273
_cell_length_b 20.634230
_cell_length_c 7.810889
_cell_angle_alpha 113.933583
_cell_angle_beta 130.184806
_cell_angle_gamma 35.190843
_cell_volume 704.090111
_symmetry_space_group_name_H-M "P -1"
_symmetry_group_IT_number 2
_symmetry_cell_setting 'triclinic'
loop_
_space_group_symop_operation_xyz
x,y,z
-x,-y,-z
loop_
_atom_site_type_symbol
_atom_site_label
_atom_site_fract_x
_atom_site_fract_y
_atom_site_fract_z
Si Si1 0.449898 0.928985 0.012933
Si Si2 0.215902 0.110314 0.486108
Si Si3 0.580749 0.740646 0.134524
Si Si4 0.575246 0.425903 0.645728
Si Si5 0.054073 0.903918 0.012525
Si Si6 0.059869 0.653395 0.610616
Si Si7 0.824864 0.733767 0.874781
Si Si8 0.702634 0.619896 0.792163
O O1 0.656721 0.921634 0.250338
O O2 0.510614 0.839837 0.091650
O O3 0.554252 0.867846 0.852417
O O4 0.132179 0.052154 0.932765
O O5 0.028955 0.242958 0.440055
O O6 0.500000 0.000000 0.500000
O O7 0.030376 0.112475 0.244144
O O8 0.897293 0.645149 0.362072
O O9 0.387745 0.788418 0.184559
O O10 0.537119 0.697668 0.905124
O O11 0.500000 0.500000 0.500000
O O12 0.465795 0.383771 0.459362
O O13 0.382457 0.524211 0.736437
O O14 0.902949 0.326927 0.856803
O O15 0.000000 0.000000 0.000000
O O16 0.917156 0.708457 0.731668
O O17 0.762248 0.672740 0.798213
O O18 0.000000 0.500000 0.000000
#
# Coordination Sequence:
#
# PCOD9055037 Si02
#       8
#     2   2   2   2   2   2   2   2
#     4   8  17  36  56  83 111 155 205 245 301 360
#     4   9  18  35  61  84 112 154 209 248 296 363
#     4   9  18  34  58  84 118 151 203 254 301 356
#     4  12  23  40  66  90 122 166 218 250 301 372
#     4   9  17  31  58  88 110 143 205 262 295 350
#     4  11  23  40  57  93 128 161 200 256 317 366
#     4  11  24  41  60  87 138 163 199 260 308 369
#     4  11  21  40  62  91 117 167 214 256 301 363
#
# _framework density 22.724366
#
# number of rings (size 3 to 8) (size 9 to 14) (size 15 to 20)
#    0.000    2.000    2.500    2.625    3.500    0.500 
#    2.250    3.125    0.000    0.000    0.000    0.000 
#    0.000    0.000    0.000    0.000    0.000    0.000 
#
# Total GULP energy -89135.932617 kJ/mol
# GULP energy per Si atom -5570.995789 kJ/mol
# Density = 2.267264 g / cm^3
# Si number density = 22.724366 Si / 1000 Ang^3
#
#
#
# Elastic Constant Matrix: (Units=GPa)
#
#
# Indices 1 2 3 4 5 6 
#
# 1 65.2284 34.4270 29.1168 7.0801 14.7597 -14.0410
# 2 34.4270 89.4237 19.8454 12.7045 22.1978 -21.2278
# 3 29.1168 19.8454 76.9860 24.1448 32.4786 8.6102
# 4 7.0801 12.7045 24.1448 34.5269 -2.9090 3.0130
# 5 14.7597 22.1978 32.4786 -2.9090 34.3279 7.5565
# 6 -14.0410 -21.2278 8.6102 3.0130 7.5565 39.8701
#
#
#
# Elastic Compliance Matrix: (Units=1/GPa)
#
#
# Indices 1 2 3 4 5 6 
#
# 1 0.023862 -0.007149 -0.011430 0.005591 0.004371 0.005814
# 2 -0.007149 0.026402 0.016597 -0.024277 -0.035390 0.016497
# 3 -0.011430 0.016597 0.052466 -0.046367 -0.061280 0.008599
# 4 0.005591 -0.024277 -0.046367 0.076612 0.067973 -0.019616
# 5 0.004371 -0.035390 -0.061280 0.067973 0.120948 -0.032129
# 6 0.005814 0.016497 0.008599 -0.019616 -0.032129 0.041627
#
#
# Mechanical properties :
#
#
# Convention : Reuss Voigt Hill
#
# Bulk Modulus (GPa) = 10.12487 44.26849 27.19668
# Shear Modulus (GPa) = 13.19948 31.62825 22.41387
#
# Velocity S-wave (km/s) = 2.41270 3.73476 3.14401
# Velocity P-wave (km/s) = 3.49667 6.17421 5.01735
#
# Compressibility (1/GPa) = 0.09876666
#
# Stress axis : x y z
#
# Youngs Moduli (GPa) = 41.90844 37.87609 19.05979
#
# Poissons Ratio (x) = 0.27078 0.21785
# Poissons Ratio (y) = 0.29960 -0.31634
# Poissons Ratio (z) = 0.47900 -0.62863
#
# Static dielectric constant tensor:
#      x y z
#    x 1.895460 -0.045370 -0.003250 
#    y -0.045370 1.955820 0.047150 
#    z -0.003250 0.047150 1.909640 
# 
# From -- ./inp_files/285588.got.cif
#   From: 2010.05.17/outbox.cif.g08.bks.cpg/sg2_143_cif.got.tgz:285588.got - 2010.06.03 11:33:40.
