data_PCOD9055642
_publ_section_title
;
Structure prediction by ZEFSAII (Michael W. Deem and Ramdas Pophale) SiO2 
 PCOD9055642
Probable space group: P -1
;
_chemical_formula_sum "Si O2"
_cell_formula_units_Z 12
_cell_length_a 17.815527
_cell_length_b 8.585164
_cell_length_c 5.985573
_cell_angle_alpha 79.624942
_cell_angle_beta 62.736414
_cell_angle_gamma 39.470880
_cell_volume 492.315855
_symmetry_space_group_name_H-M "P -1"
_symmetry_group_IT_number 2
_symmetry_cell_setting 'triclinic'
loop_
_space_group_symop_operation_xyz
x,y,z
-x,-y,-z
loop_
_atom_site_type_symbol
_atom_site_label
_atom_site_fract_x
_atom_site_fract_y
_atom_site_fract_z
Si Si1 0.066919 0.868801 0.191407
Si Si2 0.869171 0.598542 0.738371
Si Si3 0.667949 0.959480 0.277199
Si Si4 0.429193 0.190202 0.259321
Si Si5 0.319328 0.629696 0.091334
Si Si6 0.356380 0.858139 0.314273
O O1 0.103001 0.628559 0.220286
O O2 0.202153 0.780520 0.031481
O O3 0.000000 0.000000 0.500000
O O4 0.000000 0.000000 0.000000
O O5 0.000000 0.500000 0.500000
O O6 0.741785 0.846769 0.693603
O O7 0.813565 0.731252 0.022002
O O8 0.625934 0.860933 0.487346
O O9 0.542594 0.140844 0.225685
O O10 0.665974 0.113668 0.397457
O O11 0.306709 0.485307 0.284870
O O12 0.500000 0.000000 0.000000
O O13 0.306000 0.795442 0.234683
O O14 0.477249 0.385979 0.858065
#
# Coordination Sequence:
#
# PCOD9055642 Si02
#       6
#     2   2   2   2   2   2
#     4  12  31  57  85 121 163 226 285 348 423 506
#     4  12  28  54  77 115 169 216 279 343 417 506
#     4  11  23  41  78 114 150 219 268 335 423 491
#     4  11  21  42  73 114 157 199 273 339 413 488
#     4  11  24  49  78 115 170 202 277 347 407 504
#     4  11  25  48  75 124 158 212 271 342 424 488
#
# _framework density 24.374594999999999
#
# number of rings (size 3 to 8) (size 9 to 14) (size 15 to 20)
#    0.000    0.667    3.333    3.000    7.000    1.333 
#    9.000    0.000    0.000    0.000    0.000    0.000 
#    0.000    0.000    0.000    0.000    0.000    0.000 
#
# Total GULP energy -66961.935786 kJ/mol
# GULP energy per Si atom -5580.161315 kJ/mol
# Density = 2.431912 g / cm^3
# Si number density = 24.374595 Si / 1000 Ang^3
#
#
#
# Elastic Constant Matrix: (Units=GPa)
#
#
# Indices 1 2 3 4 5 6 
#
# 1 191.7313 88.0814 79.1920 5.8669 11.5730 -21.8926
# 2 88.0814 138.7008 55.1013 4.2756 16.8143 -2.2487
# 3 79.1920 55.1013 165.0902 18.6986 2.9252 -4.0528
# 4 5.8669 4.2756 18.6986 28.6330 6.5424 2.7815
# 5 11.5730 16.8143 2.9252 6.5424 52.8619 0.8329
# 6 -21.8926 -2.2487 -4.0528 2.7815 0.8329 45.8267
#
#
#
# Elastic Compliance Matrix: (Units=1/GPa)
#
#
# Indices 1 2 3 4 5 6 
#
# 1 0.008797 -0.004411 -0.002688 0.000358 -0.000477 0.003735
# 2 -0.004411 0.010909 -0.001647 0.001095 -0.002521 -0.001738
# 3 -0.002688 -0.001647 0.008428 -0.004963 0.001266 -0.000341
# 4 0.000358 0.001095 -0.004963 0.039310 -0.004978 -0.002510
# 5 -0.000477 -0.002521 0.001266 -0.004978 0.020375 -0.000308
# 6 0.003735 -0.001738 -0.000341 -0.002510 -0.000308 0.023648
#
#
# Mechanical properties :
#
#
# Convention : Reuss Voigt Hill
#
# Bulk Modulus (GPa) = 93.97345 104.47465 99.22405
# Shear Modulus (GPa) = 37.73437 43.67417 40.70427
#
# Velocity S-wave (km/s) = 3.93886 4.23755 4.09093
# Velocity P-wave (km/s) = 7.70219 8.17909 7.94422
#
# Compressibility (1/GPa) = 0.01064130
#
# Stress axis : x y z
#
# Youngs Moduli (GPa) = 113.68062 91.66660 118.65711
#
# Poissons Ratio (x) = 0.40435 0.31892
# Poissons Ratio (y) = 0.50146 0.19545
# Poissons Ratio (z) = 0.30554 0.15099
#
# Static dielectric constant tensor:
#      x y z
#    x 2.011080 -0.044870 0.032030 
#    y -0.044870 1.997350 -0.092830 
#    z 0.032030 -0.092830 2.056440 
# 
# From -- ./inp_files/41540.got.cif
#   From: 2010.05.17/outbox.cif.g08.bks.cpg/sg2_21_cif.got.tgz:41540.got - 2010.06.03 11:33:40.
