data_PCOD9055279
_publ_section_title
;
Structure prediction by ZEFSAII (Michael W. Deem and Ramdas Pophale) SiO2 
 PCOD9055279
Probable space group: P -1
;
_chemical_formula_sum "Si O2"
_cell_formula_units_Z 16
_cell_length_a 9.060050
_cell_length_b 13.001135
_cell_length_c 9.395033
_cell_angle_alpha 109.700784
_cell_angle_beta 68.865579
_cell_angle_gamma 68.639394
_cell_volume 809.553987
_symmetry_space_group_name_H-M "P -1"
_symmetry_group_IT_number 2
_symmetry_cell_setting 'triclinic'
loop_
_space_group_symop_operation_xyz
x,y,z
-x,-y,-z
loop_
_atom_site_type_symbol
_atom_site_label
_atom_site_fract_x
_atom_site_fract_y
_atom_site_fract_z
Si Si1 0.074548 0.072118 0.415937
Si Si2 0.633641 0.373799 0.989407
Si Si3 0.944989 0.744560 0.271909
Si Si4 0.441808 0.215791 0.499093
Si Si5 0.559350 0.178473 0.758353
Si Si6 0.004569 0.883491 0.862529
Si Si7 0.298663 0.087885 0.819665
Si Si8 0.420080 0.638524 0.667639
O O1 0.016474 0.205790 0.572616
O O2 0.009709 0.090563 0.286870
O O3 0.297356 0.970711 0.311155
O O4 0.000000 0.000000 0.500000
O O5 0.621417 0.260465 0.863035
O O6 0.842769 0.350881 0.907857
O O7 0.500000 0.500000 0.000000
O O8 0.562249 0.382552 0.178820
O O9 0.781201 0.718762 0.355223
O O10 0.839776 0.861136 0.246268
O O11 0.550045 0.204931 0.604520
O O12 0.476067 0.296029 0.407796
O O13 0.541643 0.064743 0.341275
O O14 0.363710 0.188946 0.857602
O O15 0.196688 0.745470 0.766092
O O16 0.818888 0.895016 0.991779
O O17 0.000000 0.000000 0.000000
O O18 0.500000 0.500000 0.500000
#
# Coordination Sequence:
#
# PCOD9055279 Si02
#       8
#     2   2   2   2   2   2   2   2
#     4  12  21  33  64  97 129 167 214 266 330 384
#     4  12  27  46  68  91 129 180 232 270 322 402
#     4  11  22  42  67 100 133 169 214 274 331 394
#     4  11  22  42  70 101 139 171 213 273 341 395
#     4  11  22  39  66 100 134 168 213 274 325 391
#     4  12  24  39  66  97 135 175 222 278 331 393
#     4  11  21  41  66 105 136 169 213 275 344 391
#     4  12  27  47  66  94 135 182 222 272 338 399
#
# _framework density 19.763967999999998
#
# number of rings (size 3 to 8) (size 9 to 14) (size 15 to 20)
#    0.000    0.500    6.250    3.750    1.750    1.500 
#    2.250    2.500    0.000    0.000    0.000    0.000 
#    0.000    0.000    0.000    0.000    0.000    0.000 
#
# Total GULP energy -89261.370018 kJ/mol
# GULP energy per Si atom -5578.835626 kJ/mol
# Density = 1.971898 g / cm^3
# Si number density = 19.763968 Si / 1000 Ang^3
#
#
#
# Elastic Constant Matrix: (Units=GPa)
#
#
# Indices 1 2 3 4 5 6 
#
# 1 82.3551 36.3870 42.1983 -11.9803 -6.6150 -1.3422
# 2 36.3870 109.0116 53.4411 -22.1005 -6.9218 -11.4763
# 3 42.1983 53.4411 104.3445 -18.9042 6.4678 -2.2448
# 4 -11.9803 -22.1005 -18.9042 43.0092 -5.1760 1.4059
# 5 -6.6150 -6.9218 6.4678 -5.1760 35.5968 -10.0576
# 6 -1.3422 -11.4763 -2.2448 1.4059 -10.0576 23.0084
#
#
#
# Elastic Compliance Matrix: (Units=1/GPa)
#
#
# Indices 1 2 3 4 5 6 
#
# 1 0.016493 -0.002077 -0.005562 0.001553 0.004218 0.001132
# 2 -0.002077 0.015590 -0.006454 0.005159 0.007375 0.009934
# 3 -0.005562 -0.006454 0.015683 0.001428 -0.006302 -0.004856
# 4 0.001553 0.005159 0.001428 0.027574 0.006113 0.003790
# 5 0.004218 0.007375 -0.006302 0.006113 0.037848 0.019481
# 6 0.001132 0.009934 -0.004856 0.003790 0.019481 0.056294
#
#
# Mechanical properties :
#
#
# Convention : Reuss Voigt Hill
#
# Bulk Modulus (GPa) = 51.06810 62.19600 56.63205
# Shear Modulus (GPa) = 24.48638 31.23521 27.86080
#
# Velocity S-wave (km/s) = 3.52368 3.97975 3.75864
# Velocity P-wave (km/s) = 6.51538 7.25642 6.89586
#
# Compressibility (1/GPa) = 0.01958170
#
# Stress axis : x y z
#
# Youngs Moduli (GPa) = 60.63085 64.14226 63.76188
#
# Poissons Ratio (x) = 0.13320 0.35466
# Poissons Ratio (y) = 0.12591 0.41150
# Poissons Ratio (z) = 0.33724 0.41396
#
# Static dielectric constant tensor:
#      x y z
#    x 4.538110 -0.340680 -1.387330 
#    y -0.340680 1.706140 0.162980 
#    z -1.387330 0.162980 2.369310 
# 
# From -- ./inp_files/189151.got.cif
#   From: 2010.05.17/outbox.cif.g08.bks.cpg/sg2_95_cif.got.tgz:189151.got - 2010.06.03 11:33:40.
