data_PCOD9055780
_publ_section_title
;
Structure prediction by ZEFSAII (Michael W. Deem and Ramdas Pophale) SiO2 
 PCOD9055780
Probable space group: P -1
;
_chemical_formula_sum "Si O2"
_cell_formula_units_Z 16
_cell_length_a 11.739397
_cell_length_b 18.536615
_cell_length_c 9.437625
_cell_angle_alpha 114.237958
_cell_angle_beta 56.195662
_cell_angle_gamma 151.731142
_cell_volume 791.568039
_symmetry_space_group_name_H-M "P -1"
_symmetry_group_IT_number 2
_symmetry_cell_setting 'triclinic'
loop_
_space_group_symop_operation_xyz
x,y,z
-x,-y,-z
loop_
_atom_site_type_symbol
_atom_site_label
_atom_site_fract_x
_atom_site_fract_y
_atom_site_fract_z
Si Si1 0.314133 0.409224 0.913936
Si Si2 0.972886 0.574026 0.221848
Si Si3 0.447824 0.391589 0.522779
Si Si4 0.899257 0.036489 0.572693
Si Si5 0.288870 0.956847 0.034813
Si Si6 0.387259 0.872455 0.306969
Si Si7 0.572852 0.146966 0.419373
Si Si8 0.035780 0.429738 0.105467
O O1 0.446077 0.416896 0.710300
O O2 0.995908 0.223089 0.966651
O O3 0.500000 0.500000 0.000000
O O4 0.277448 0.485872 0.978775
O O5 0.659294 0.429285 0.359414
O O6 0.082915 0.546968 0.190835
O O7 0.095815 0.714694 0.316051
O O8 0.053241 0.614912 0.034022
O O9 0.500000 0.500000 0.500000
O O10 0.159011 0.220307 0.528676
O O11 0.755011 0.000449 0.780501
O O12 0.687783 0.933502 0.509503
O O13 0.000000 0.000000 0.500000
O O14 0.500000 0.000000 0.000000
O O15 0.414196 0.062097 0.896557
O O16 0.376061 0.824395 0.426180
O O17 0.482997 0.010563 0.355023
O O18 0.818263 0.292695 0.263127
#
# Coordination Sequence:
#
# PCOD9055780 Si02
#       8
#     2   2   2   2   2   2   2   2
#     4  11  24  41  65  96 134 170 208 269 336 383
#     4  11  24  41  67  96 125 167 223 262 323 383
#     4  11  23  39  62  94 128 164 211 263 319 389
#     4  11  23  41  64  92 128 169 208 266 326 380
#     4  11  21  43  71  92 122 175 228 258 306 397
#     4  11  23  39  68  96 122 165 222 267 310 372
#     4  11  23  40  67  94 126 164 222 264 314 381
#     4  11  23  44  65  94 126 172 214 270 314 391
#
# _framework density 20.213044
#
# number of rings (size 3 to 8) (size 9 to 14) (size 15 to 20)
#    0.000    1.000    3.750    3.000    1.750    2.500 
#    4.500    0.625    0.000    0.000    0.000    0.000 
#    0.000    0.000    0.000    0.000    0.000    0.000 
#
# Total GULP energy -89096.978276 kJ/mol
# GULP energy per Si atom -5568.561142 kJ/mol
# Density = 2.016704 g / cm^3
# Si number density = 20.213044 Si / 1000 Ang^3
#
#
#
# Elastic Constant Matrix: (Units=GPa)
#
#
# Indices 1 2 3 4 5 6 
#
# 1 86.2030 22.5494 30.8766 2.3738 1.1001 -15.2161
# 2 22.5494 53.0184 30.5128 1.5073 13.8410 -1.8720
# 3 30.8766 30.5128 89.9736 -15.5847 6.4910 -2.9793
# 4 2.3738 1.5073 -15.5847 23.8439 -4.8413 3.9066
# 5 1.1001 13.8410 6.4910 -4.8413 38.8621 5.9634
# 6 -15.2161 -1.8720 -2.9793 3.9066 5.9634 31.0251
#
#
#
# Elastic Compliance Matrix: (Units=1/GPa)
#
#
# Indices 1 2 3 4 5 6 
#
# 1 0.015850 -0.003242 -0.005102 -0.006093 -0.000419 0.007936
# 2 -0.003242 0.028829 -0.009624 -0.010274 -0.010230 0.002485
# 3 -0.005102 -0.009624 0.018267 0.014238 0.002858 -0.003671
# 4 -0.006093 -0.010274 0.014238 0.056429 0.010219 -0.011311
# 5 -0.000419 -0.010230 0.002858 0.010219 0.031390 -0.007868
# 6 0.007936 0.002485 -0.003671 -0.011311 -0.007868 0.038858
#
#
# Mechanical properties :
#
#
# Convention : Reuss Voigt Hill
#
# Bulk Modulus (GPa) = 37.02217 44.11918 40.57067
# Shear Modulus (GPa) = 21.31615 28.42997 24.87306
#
# Velocity S-wave (km/s) = 3.25094 3.75442 3.51172
# Velocity P-wave (km/s) = 5.69625 6.37720 6.04632
#
# Compressibility (1/GPa) = 0.02701084
#
# Stress axis : x y z
#
# Youngs Moduli (GPa) = 63.09118 34.68712 54.74219
#
# Poissons Ratio (x) = 0.11246 0.27931
# Poissons Ratio (y) = 0.20455 0.52681
# Poissons Ratio (z) = 0.32191 0.33381
#
# Static dielectric constant tensor:
#      x y z
#    x 1.706160 0.010970 -0.017280 
#    y 0.010970 1.715840 0.007060 
#    z -0.017280 0.007060 1.777880 
# 
# From -- ./inp_files/278089.got.cif
#   From: 2010.05.17/outbox.cif.g08.bks.cpg/sg2_140_cif.got.tgz:278089.got - 2010.06.03 11:33:40.
