data_PCOD9055327
_publ_section_title
;
Structure prediction by ZEFSAII (Michael W. Deem and Ramdas Pophale) SiO2 
 PCOD9055327
Probable space group: P -1
;
_chemical_formula_sum "Si O2"
_cell_formula_units_Z 16
_cell_length_a 5.503243
_cell_length_b 23.180909
_cell_length_c 16.397759
_cell_angle_alpha 157.012818
_cell_angle_beta 67.136223
_cell_angle_gamma 110.134301
_cell_volume 752.213807
_symmetry_space_group_name_H-M "P -1"
_symmetry_group_IT_number 2
_symmetry_cell_setting 'triclinic'
loop_
_space_group_symop_operation_xyz
x,y,z
-x,-y,-z
loop_
_atom_site_type_symbol
_atom_site_label
_atom_site_fract_x
_atom_site_fract_y
_atom_site_fract_z
Si Si1 0.674284 0.809743 0.007266
Si Si2 0.772169 0.963981 0.600623
Si Si3 0.617385 0.178698 0.199652
Si Si4 0.010298 0.742820 0.600077
Si Si5 0.276179 0.129816 0.685712
Si Si6 0.353642 0.653467 0.732216
Si Si7 0.863564 0.599679 0.833697
Si Si8 0.881005 0.955961 0.760015
O O1 0.463711 0.914724 0.217066
O O2 0.559047 0.776576 0.891041
O O3 0.703547 0.650927 0.840280
O O4 0.926856 0.909189 0.103998
O O5 0.027644 0.051946 0.656784
O O6 0.744999 0.848056 0.380353
O O7 0.782238 0.912874 0.627032
O O8 0.310278 0.238580 0.321308
O O9 0.756572 0.299564 0.280288
O O10 0.800311 0.178649 0.256727
O O11 0.666499 0.025255 0.942846
O O12 0.035982 0.824039 0.615255
O O13 0.106884 0.570798 0.367468
O O14 0.500000 0.000000 0.500000
O O15 0.266391 0.289560 0.938200
O O16 0.500000 0.500000 0.500000
O O17 0.151428 0.644418 0.821626
#
# Coordination Sequence:
#
# PCOD9055327 Si02
#       8
#     2   2   2   2   2   2   2   2
#     4  12  21  41  69  95 133 181 230 280 340 409
#     4  11  22  39  70  98 128 168 230 288 339 400
#     4  12  24  45  66  98 138 192 235 272 333 417
#     4  12  30  43  66 102 146 186 225 288 344 411
#     4  11  21  41  68 104 125 168 228 291 345 407
#     4  12  23  38  66  98 140 177 226 280 343 397
#     4  12  24  42  66 104 137 177 223 291 349 405
#     4  12  25  43  66 100 136 187 233 275 337 415
#
# _framework density 21.270548000000002
#
# number of rings (size 3 to 8) (size 9 to 14) (size 15 to 20)
#    0.000    0.250    7.500    2.250    1.750    1.000 
#    0.000    0.625    0.000    3.000    0.000    0.000 
#    0.000    0.000    0.000    0.000    0.000    0.000 
#
# Total GULP energy -89194.193292 kJ/mol
# GULP energy per Si atom -5574.637081 kJ/mol
# Density = 2.122214 g / cm^3
# Si number density = 21.270548 Si / 1000 Ang^3
#
#
#
# Elastic Constant Matrix: (Units=GPa)
#
#
# Indices 1 2 3 4 5 6 
#
# 1 90.2112 25.5260 39.9383 -13.7169 -14.2246 -10.7369
# 2 25.5260 114.0930 62.4999 4.7605 -0.8637 -45.1021
# 3 39.9383 62.4999 129.3637 -2.5325 -13.0620 -15.2352
# 4 -13.7169 4.7605 -2.5325 45.1007 -7.1888 -5.5790
# 5 -14.2246 -0.8637 -13.0620 -7.1888 37.7013 -7.5806
# 6 -10.7369 -45.1021 -15.2352 -5.5790 -7.5806 38.5476
#
#
#
# Elastic Compliance Matrix: (Units=1/GPa)
#
#
# Indices 1 2 3 4 5 6 
#
# 1 0.015165 0.000592 -0.003471 0.006166 0.006872 0.005788
# 2 0.000592 0.022413 -0.007869 0.000816 0.002989 0.023984
# 3 -0.003471 -0.007869 0.012195 0.000122 0.001755 -0.004991
# 4 0.006166 0.000816 0.000122 0.026452 0.009108 0.008339
# 5 0.006872 0.002989 0.001755 0.009108 0.034382 0.014184
# 6 0.005788 0.023984 -0.004991 0.008339 0.014184 0.057640
#
#
# Mechanical properties :
#
#
# Convention : Reuss Voigt Hill
#
# Bulk Modulus (GPa) = 35.36603 65.51069 50.43836
# Shear Modulus (GPa) = 25.10436 37.98351 31.54394
#
# Velocity S-wave (km/s) = 3.43919 4.23038 3.85513
# Velocity P-wave (km/s) = 5.69505 7.39778 6.60154
#
# Compressibility (1/GPa) = 0.02827572
#
# Stress axis : x y z
#
# Youngs Moduli (GPa) = 65.94335 44.61787 81.99937
#
# Poissons Ratio (x) = -0.02639 0.28464
# Poissons Ratio (y) = -0.03901 0.64521
# Poissons Ratio (z) = 0.22891 0.35108
#
# Static dielectric constant tensor:
#      x y z
#    x 1.885530 0.003090 -0.028130 
#    y 0.003090 1.852700 -0.029010 
#    z -0.028130 -0.029010 1.802520 
# 
# From -- ./inp_files/118537.got.cif
#   From: 2010.05.17/outbox.cif.g08.bks.cpg/sg2_60_cif.got.tgz:118537.got - 2010.06.03 11:33:40.
