data_PCOD9055221
_publ_section_title
;
Structure prediction by ZEFSAII (Michael W. Deem and Ramdas Pophale) SiO2 
 PCOD9055221
Probable space group: P -1
;
_chemical_formula_sum "Si O2"
_cell_formula_units_Z 16
_cell_length_a 8.849076
_cell_length_b 12.147064
_cell_length_c 14.956494
_cell_angle_alpha 150.753484
_cell_angle_beta 72.751251
_cell_angle_gamma 102.934691
_cell_volume 748.036229
_symmetry_space_group_name_H-M "P -1"
_symmetry_group_IT_number 2
_symmetry_cell_setting 'triclinic'
loop_
_space_group_symop_operation_xyz
x,y,z
-x,-y,-z
loop_
_atom_site_type_symbol
_atom_site_label
_atom_site_fract_x
_atom_site_fract_y
_atom_site_fract_z
Si Si1 0.673030 0.543937 0.540113
Si Si2 0.404600 0.465326 0.257088
Si Si3 0.372671 0.152555 0.572622
Si Si4 0.167500 0.858494 0.862226
Si Si5 0.835612 0.614935 0.075260
Si Si6 0.712671 0.794883 0.052651
Si Si7 0.326708 0.919579 0.066852
Si Si8 0.655272 0.187490 0.815223
O O1 0.500000 0.500000 0.500000
O O2 0.678092 0.468854 0.589305
O O3 0.677547 0.812444 0.730854
O O4 0.808029 0.400108 0.358803
O O5 0.532657 0.640431 0.333938
O O6 0.285167 0.422253 0.167321
O O7 0.503507 0.221062 0.077419
O O8 0.500000 0.000000 0.500000
O O9 0.306122 0.011344 0.402824
O O10 0.239422 0.240691 0.727607
O O11 0.258540 0.993663 0.865822
O O12 0.235368 0.865290 0.954987
O O13 0.000000 0.000000 0.000000
O O14 0.835778 0.760684 0.087844
O O15 0.714597 0.422059 0.937520
O O16 0.000000 0.500000 0.000000
O O17 0.534823 0.814409 0.138701
O O18 0.272086 0.839241 0.116882
#
# Coordination Sequence:
#
# PCOD9055221 Si02
#       8
#     2   2   2   2   2   2   2   2
#     4  12  22  40  70 102 131 181 235 278 338 409
#     4  11  21  40  73 104 131 177 240 296 323 403
#     4  12  23  42  72 102 135 184 238 280 344 413
#     4  12  28  44  67 102 149 184 221 288 359 413
#     4  12  27  46  70 103 145 178 222 297 354 401
#     4  11  22  46  71  98 137 185 233 282 339 415
#     4  11  23  42  67 101 140 173 231 287 337 402
#     4  11  24  43  75 105 132 182 238 282 333 420
#
# _framework density 21.389339
#
# number of rings (size 3 to 8) (size 9 to 14) (size 15 to 20)
#    0.000    0.500    6.250    4.500    1.750    1.000 
#    0.000    0.000    0.000    0.000    0.000    0.000 
#    0.000    0.000    0.000    0.000    0.000    0.000 
#
# Total GULP energy -89416.159840 kJ/mol
# GULP energy per Si atom -5588.509990 kJ/mol
# Density = 2.134066 g / cm^3
# Si number density = 21.389339 Si / 1000 Ang^3
#
#
#
# Elastic Constant Matrix: (Units=GPa)
#
#
# Indices 1 2 3 4 5 6 
#
# 1 45.9488 16.1326 32.0225 -2.4043 -20.9123 -16.3523
# 2 16.1326 105.7709 41.5717 -5.6021 5.6582 -26.1836
# 3 32.0225 41.5717 170.4361 -25.1736 -2.1770 -9.8015
# 4 -2.4043 -5.6021 -25.1736 24.9457 -8.8219 6.0747
# 5 -20.9123 5.6582 -2.1770 -8.8219 34.2667 0.2148
# 6 -16.3523 -26.1836 -9.8015 6.0747 0.2148 28.0373
#
#
#
# Elastic Compliance Matrix: (Units=1/GPa)
#
#
# Indices 1 2 3 4 5 6 
#
# 1 0.049954 0.000180 -0.007261 0.001888 0.030317 0.026123
# 2 0.000180 0.013942 -0.003446 -0.004812 -0.003732 0.012992
# 3 -0.007261 -0.003446 0.008997 0.008763 -0.000996 -0.006199
# 4 0.001888 -0.004812 0.008763 0.057298 0.017335 -0.012877
# 5 0.030317 -0.003732 -0.000996 0.017335 0.052640 0.009689
# 6 0.026123 0.012992 -0.006199 -0.012877 0.009689 0.063584
#
#
# Mechanical properties :
#
#
# Convention : Reuss Voigt Hill
#
# Bulk Modulus (GPa) = 19.29057 55.73440 37.51248
# Shear Modulus (GPa) = 17.55930 32.94521 25.25226
#
# Velocity S-wave (km/s) = 2.86831 3.92888 3.43971
# Velocity P-wave (km/s) = 4.47302 6.83338 5.77508
#
# Compressibility (1/GPa) = 0.05183881
#
# Stress axis : x y z
#
# Youngs Moduli (GPa) = 20.01839 71.72474 111.14648
#
# Poissons Ratio (x) = -0.01288 0.80705
# Poissons Ratio (y) = -0.00360 0.38298
# Poissons Ratio (z) = 0.14536 0.24715
#
# Static dielectric constant tensor:
#      x y z
#    x 1.766470 -0.037280 0.015320 
#    y -0.037280 1.788790 0.013210 
#    z 0.015320 0.013210 1.779400 
# 
# From -- ./inp_files/501143.got.cif
#   From: 2010.05.17/outbox.cif.g08.bks.cpg/sg2_251_cif.got.tgz:501143.got - 2010.06.03 11:33:40.
