data_PCOD9055827
_publ_section_title
;
Structure prediction by ZEFSAII (Michael W. Deem and Ramdas Pophale) SiO2 
 PCOD9055827
Probable space group: P -1
;
_chemical_formula_sum "Si O2"
_cell_formula_units_Z 12
_cell_length_a 9.807782
_cell_length_b 6.788053
_cell_length_c 10.217698
_cell_angle_alpha 115.177776
_cell_angle_beta 63.023586
_cell_angle_gamma 70.232791
_cell_volume 412.841726
_symmetry_space_group_name_H-M "P -1"
_symmetry_group_IT_number 2
_symmetry_cell_setting 'triclinic'
loop_
_space_group_symop_operation_xyz
x,y,z
-x,-y,-z
loop_
_atom_site_type_symbol
_atom_site_label
_atom_site_fract_x
_atom_site_fract_y
_atom_site_fract_z
Si Si1 0.391315 0.226268 0.227444
Si Si2 0.975296 0.170858 0.434031
Si Si3 0.650013 0.319067 0.006337
Si Si4 0.651970 0.232122 0.413265
Si Si5 0.969745 0.259196 0.017218
Si Si6 0.359425 0.216017 0.539036
O O1 0.158967 0.499841 0.374420
O O2 0.388191 0.131867 0.348103
O O3 0.518539 0.337998 0.186805
O O4 0.500000 0.000000 0.000000
O O5 0.828437 0.170097 0.405442
O O6 0.000000 0.000000 0.500000
O O7 0.182339 0.001266 0.217247
O O8 0.500000 0.500000 0.000000
O O9 0.793130 0.379209 0.018078
O O10 0.571686 0.090416 0.506991
O O11 0.601734 0.536179 0.444768
O O12 0.794022 0.933150 0.176739
O O13 0.868303 0.531489 0.233867
O O14 0.000000 0.000000 0.000000
#
# Coordination Sequence:
#
# PCOD9055827 Si02
#       6
#     2   2   2   2   2   2
#     4  12  27  46  68 104 149 185 229 294 359 416
#     4  11  23  42  74 108 133 182 240 284 352 423
#     4  11  24  43  76 103 137 182 236 290 349 420
#     4  11  21  43  74 100 135 180 240 290 338 418
#     4  11  22  42  76 101 131 181 244 285 344 415
#     4  12  27  44  70 106 144 186 234 292 355 412
#
# _framework density 29.066827
#
# number of rings (size 3 to 8) (size 9 to 14) (size 15 to 20)
#    0.000    0.667    5.000    3.000    2.333    1.333 
#    0.000    1.667    0.000    0.000    0.000    0.000 
#    0.000    0.000    0.000    0.000    0.000    0.000 
#
# Total GULP energy -67046.532664 kJ/mol
# GULP energy per Si atom -5587.211055 kJ/mol
# Density = 2.900067 g / cm^3
# Si number density = 29.066827 Si / 1000 Ang^3
#
#
#
# Elastic Constant Matrix: (Units=GPa)
#
#
# Indices 1 2 3 4 5 6 
#
# 1 103.3661 50.4782 38.8270 19.2131 -7.9419 -22.8445
# 2 50.4782 280.5983 92.0414 -2.9733 -16.9177 -33.4902
# 3 38.8270 92.0414 284.7407 11.4999 -24.4683 -30.2135
# 4 19.2131 -2.9733 11.4999 53.5551 0.5320 -3.1297
# 5 -7.9419 -16.9177 -24.4683 0.5320 57.9639 0.3743
# 6 -22.8445 -33.4902 -30.2135 -3.1297 0.3743 61.8117
#
#
#
# Elastic Compliance Matrix: (Units=1/GPa)
#
#
# Indices 1 2 3 4 5 6 
#
# 1 0.012226 -0.001627 -0.000554 -0.004183 0.000985 0.003149
# 2 -0.001627 0.004409 -0.001057 0.001127 0.000599 0.001325
# 3 -0.000554 -0.001057 0.004208 -0.000705 0.001391 0.001236
# 4 -0.004183 0.001127 -0.000705 0.020380 -0.000727 -0.000244
# 5 0.000985 0.000599 0.001391 -0.000727 0.018148 0.001221
# 6 0.003149 0.001325 0.001236 -0.000244 0.001221 0.018644
#
#
# Mechanical properties :
#
#
# Convention : Reuss Voigt Hill
#
# Bulk Modulus (GPa) = 69.59673 114.59982 92.09827
# Shear Modulus (GPa) = 56.00409 67.15673 61.58041
#
# Velocity S-wave (km/s) = 4.39422 4.81190 4.60780
# Velocity P-wave (km/s) = 7.05275 8.38954 7.75002
#
# Compressibility (1/GPa) = 0.01436849
#
# Stress axis : x y z
#
# Youngs Moduli (GPa) = 81.79371 226.79167 237.63195
#
# Poissons Ratio (x) = 0.36898 0.13154
# Poissons Ratio (y) = 0.13308 0.25116
# Poissons Ratio (z) = 0.04528 0.23971
#
# Static dielectric constant tensor:
#      x y z
#    x 2.377920 0.165040 0.169450 
#    y 0.165040 2.395530 -0.003490 
#    z 0.169450 -0.003490 2.309330 
# 
# From -- ./inp_files/185494.got.cif
#   From: 2010.05.17/outbox.cif.g08.bks.cpg/sg2_93_cif.got.tgz:185494.got - 2010.06.03 11:33:40.
