data_PCOD9055528
_publ_section_title
;
Structure prediction by ZEFSAII (Michael W. Deem and Ramdas Pophale) SiO2 
 PCOD9055528
Probable space group: P -1
;
_chemical_formula_sum "Si O2"
_cell_formula_units_Z 16
_cell_length_a 13.908743
_cell_length_b 11.686231
_cell_length_c 9.107450
_cell_angle_alpha 54.029404
_cell_angle_beta 103.670515
_cell_angle_gamma 138.627053
_cell_volume 731.754584
_symmetry_space_group_name_H-M "P -1"
_symmetry_group_IT_number 2
_symmetry_cell_setting 'triclinic'
loop_
_space_group_symop_operation_xyz
x,y,z
-x,-y,-z
loop_
_atom_site_type_symbol
_atom_site_label
_atom_site_fract_x
_atom_site_fract_y
_atom_site_fract_z
Si Si1 0.671471 0.217871 0.328842
Si Si2 0.844980 0.688883 0.019799
Si Si3 0.989291 0.438082 0.213787
Si Si4 0.816610 0.924891 0.002890
Si Si5 0.364197 0.455899 0.531938
Si Si6 0.892537 0.741273 0.652855
Si Si7 0.700515 0.089898 0.895465
Si Si8 0.505113 0.897042 0.262724
O O1 0.829848 0.302173 0.346059
O O2 0.500000 0.000000 0.500000
O O3 0.639946 0.136066 0.210429
O O4 0.719028 0.431606 0.213906
O O5 0.857394 0.677603 0.859441
O O6 0.809156 0.812847 0.946120
O O7 0.005932 0.843843 0.053630
O O8 0.021493 0.306173 0.333314
O O9 0.131746 0.682138 0.152498
O O10 0.000000 0.500000 0.000000
O O11 0.745684 0.751385 0.239823
O O12 0.719140 0.960308 0.922728
O O13 0.500000 0.500000 0.500000
O O14 0.256616 0.392985 0.405469
O O15 0.452120 0.687303 0.461382
O O16 0.000000 0.000000 0.500000
O O17 0.642306 0.162097 0.734116
O O18 0.571294 0.936244 0.094938
#
# Coordination Sequence:
#
# PCOD9055528 Si02
#       8
#     2   2   2   2   2   2   2   2
#     4  12  26  45  70 106 144 180 235 298 363 415
#     4  11  24  45  70 101 144 186 236 296 355 428
#     4  12  22  44  77  99 135 192 243 290 345 428
#     4  11  23  44  70  98 142 193 229 285 368 422
#     4  12  25  42  68 107 146 182 234 301 359 420
#     4  12  25  45  73 109 135 184 255 293 343 433
#     4  11  21  42  69 100 127 190 238 280 348 422
#     4  11  24  41  68 101 141 174 236 298 346 414
#
# _framework density 21.865255999999999
#
# number of rings (size 3 to 8) (size 9 to 14) (size 15 to 20)
#    0.000    0.500    7.500    0.750    3.500    0.000 
#    2.250    1.875    0.000    0.000    0.000    0.000 
#    0.000    0.000    0.000    0.000    0.000    0.000 
#
# Total GULP energy -89334.237970 kJ/mol
# GULP energy per Si atom -5583.389873 kJ/mol
# Density = 2.181549 g / cm^3
# Si number density = 21.865256 Si / 1000 Ang^3
#
#
#
# Elastic Constant Matrix: (Units=GPa)
#
#
# Indices 1 2 3 4 5 6 
#
# 1 184.5566 32.3742 23.7439 -18.3480 10.5992 -17.9868
# 2 32.3742 77.9306 8.9043 -27.7813 2.3197 -7.9657
# 3 23.7439 8.9043 54.3665 -33.2523 -6.0823 -2.0710
# 4 -18.3480 -27.7813 -33.2523 40.0760 -4.5011 3.7338
# 5 10.5992 2.3197 -6.0823 -4.5011 34.5624 -9.9175
# 6 -17.9868 -7.9657 -2.0710 3.7338 -9.9175 42.0546
#
#
#
# Elastic Compliance Matrix: (Units=1/GPa)
#
#
# Indices 1 2 3 4 5 6 
#
# 1 0.006554 -0.003246 -0.004837 -0.003715 -0.002652 0.001655
# 2 -0.003246 0.022061 0.014924 0.026658 0.006377 0.002662
# 3 -0.004837 0.014924 0.053135 0.053945 0.017646 0.002747
# 4 -0.003715 0.026658 0.053945 0.088581 0.021321 0.003280
# 5 -0.002652 0.006377 0.017646 0.021321 0.037463 0.007884
# 6 0.001655 0.002662 0.002747 0.003280 0.007884 0.026694
#
#
# Mechanical properties :
#
#
# Convention : Reuss Voigt Hill
#
# Bulk Modulus (GPa) = 10.47854 49.65539 30.06696
# Shear Modulus (GPa) = 19.79286 40.12736 29.96011
#
# Velocity S-wave (km/s) = 3.01195 4.28858 3.70566
# Velocity P-wave (km/s) = 4.11078 6.87616 5.66481
#
# Compressibility (1/GPa) = 0.09543318
#
# Stress axis : x y z
#
# Youngs Moduli (GPa) = 152.56954 45.32906 18.81989
#
# Poissons Ratio (x) = 0.14716 0.09103
# Poissons Ratio (y) = 0.49531 -0.28088
# Poissons Ratio (z) = 0.73793 -0.67651
#
# Static dielectric constant tensor:
#      x y z
#    x 1.759020 -0.073360 -0.033410 
#    y -0.073360 1.719080 0.025330 
#    z -0.033410 0.025330 1.893590 
# 
# From -- ./inp_files/304831.got.cif
#   From: 2010.05.17/outbox.cif.g08.bks.cpg/sg2_153_cif.got.tgz:304831.got - 2010.06.03 11:33:40.
