data_PCOD9055317
_publ_section_title
;
Structure prediction by ZEFSAII (Michael W. Deem and Ramdas Pophale) SiO2 
 PCOD9055317
Probable space group: P -1
;
_chemical_formula_sum "Si O2"
_cell_formula_units_Z 16
_cell_length_a 6.506576
_cell_length_b 14.237984
_cell_length_c 11.949751
_cell_angle_alpha 67.662046
_cell_angle_beta 42.215294
_cell_angle_gamma 82.737687
_cell_volume 666.253419
_symmetry_space_group_name_H-M "P -1"
_symmetry_group_IT_number 2
_symmetry_cell_setting 'triclinic'
loop_
_space_group_symop_operation_xyz
x,y,z
-x,-y,-z
loop_
_atom_site_type_symbol
_atom_site_label
_atom_site_fract_x
_atom_site_fract_y
_atom_site_fract_z
Si Si1 0.791902 0.317838 0.337981
Si Si2 0.270972 0.656446 0.260833
Si Si3 0.838665 0.056740 0.632283
Si Si4 0.519316 0.194253 0.303684
Si Si5 0.770914 0.079957 0.060053
Si Si6 0.563742 0.533753 0.588391
Si Si7 0.494933 0.623866 0.939713
Si Si8 0.581455 0.789004 0.272200
O O1 0.692564 0.223342 0.336317
O O2 0.731450 0.425255 0.266493
O O3 0.575004 0.303321 0.540815
O O4 0.136695 0.323736 0.232992
O O5 0.394993 0.564065 0.311864
O O6 0.460759 0.757991 0.208283
O O7 0.890386 0.622582 0.440074
O O8 0.348444 0.652119 0.101313
O O9 0.596531 0.122666 0.658524
O O10 0.151242 0.142267 0.508463
O O11 0.566678 0.965527 0.846121
O O12 0.000000 0.000000 0.500000
O O13 0.655895 0.112665 0.212042
O O14 0.601540 0.305601 0.152021
O O15 0.045032 0.181769 0.870048
O O16 0.000000 0.000000 0.000000
O O17 0.500000 0.500000 0.500000
O O18 0.500000 0.500000 0.000000
#
# Coordination Sequence:
#
# PCOD9055317 Si02
#       8
#     2   2   2   2   2   2   2   2
#     4  12  25  40  67  98 134 179 221 268 330 394
#     4  11  25  41  67  95 136 174 225 271 324 390
#     4   9  19  42  70  93 132 172 215 278 332 395
#     4  11  23  44  70  95 138 178 216 274 336 389
#     4   9  21  41  72  97 129 171 223 279 331 398
#     4  11  23  41  65  98 132 177 222 271 323 387
#     4  12  27  43  65 100 137 177 224 270 324 400
#     4  11  21  41  67  98 133 169 221 275 329 395
#
# _framework density 24.014885
#
# number of rings (size 3 to 8) (size 9 to 14) (size 15 to 20)
#    0.000    1.250    2.500    3.000    3.500    4.000 
#    0.000    6.250   11.000    0.000    0.000    0.000 
#    0.000    0.000    0.000    0.000    0.000    0.000 
#
# Total GULP energy -89106.012552 kJ/mol
# GULP energy per Si atom -5569.125785 kJ/mol
# Density = 2.396023 g / cm^3
# Si number density = 24.014885 Si / 1000 Ang^3
#
#
#
# Elastic Constant Matrix: (Units=GPa)
#
#
# Indices 1 2 3 4 5 6 
#
# 1 4.7974 17.8565 36.7765 -8.6093 40.8253 -11.8948
# 2 17.8565 112.0529 9.2931 15.8195 0.0105 2.5933
# 3 36.7765 9.2931 92.1207 5.5061 -38.3671 24.9893
# 4 -8.6093 15.8195 5.5061 27.8143 13.5246 -19.8830
# 5 40.8253 0.0105 -38.3671 13.5246 -12.9433 33.9669
# 6 -11.8948 2.5933 24.9893 -19.8830 33.9669 17.9932
#
#
#
# Elastic Compliance Matrix: (Units=1/GPa)
#
#
# Indices 1 2 3 4 5 6 
#
# 1 0.026477 -0.002168 0.001268 -0.011866 0.012609 -0.020860
# 2 -0.002168 0.009886 -0.001527 -0.003654 -0.003133 0.001139
# 3 0.001268 -0.001527 0.007496 0.004401 -0.004267 0.003565
# 4 -0.011866 -0.003654 0.004401 0.035276 0.008976 0.008608
# 5 0.012609 -0.003133 -0.004267 0.008976 0.008259 0.009040
# 6 -0.020860 0.001139 0.003565 0.008608 0.009040 0.029117
#
#
# Mechanical properties :
#
#
# Convention : Reuss Voigt Hill
#
# Bulk Modulus (GPa) = 25.63736 37.42481 31.53108
# Shear Modulus (GPa) = 37.21177 16.24251 26.72714
#
# Velocity S-wave (km/s) = 3.94068 2.60350 3.33970
# Velocity P-wave (km/s) = 5.60393 4.96542 5.29431
#
# Compressibility (1/GPa) = 0.03900558
#
# Stress axis : x y z
#
# Youngs Moduli (GPa) = 37.76884 101.15015 133.40611
#
# Poissons Ratio (x) = 0.21926 -0.16916
# Poissons Ratio (y) = 0.08187 0.20373
# Poissons Ratio (z) = -0.04789 0.15447
#
# Static dielectric constant tensor:
#      x y z
#    x 1.647100 0.283050 -0.152050 
#    y 0.283050 1.783110 0.040660 
#    z -0.152050 0.040660 1.886350 
# 
# From -- ./inp_files/367659.got.cif
#   From: 2010.05.17/outbox.cif.g08.bks.cpg/sg2_184_cif.got.tgz:367659.got - 2010.06.03 11:33:40.
