data_PCOD9055998
_publ_section_title
;
Structure prediction by ZEFSAII (Michael W. Deem and Ramdas Pophale) SiO2 
 PCOD9055998
Probable space group: P -1
;
_chemical_formula_sum "Si O2"
_cell_formula_units_Z 13
_cell_length_a 8.581259
_cell_length_b 6.277686
_cell_length_c 11.507735
_cell_angle_alpha 104.883997
_cell_angle_beta 92.037848
_cell_angle_gamma 60.348000
_cell_volume 517.568806
_symmetry_space_group_name_H-M "P -1"
_symmetry_group_IT_number 2
_symmetry_cell_setting 'triclinic'
loop_
_space_group_symop_operation_xyz
x,y,z
-x,-y,-z
loop_
_atom_site_type_symbol
_atom_site_label
_atom_site_fract_x
_atom_site_fract_y
_atom_site_fract_z
Si Si1 0.000000 0.500000 0.000000
Si Si2 0.381148 0.172300 0.917789
Si Si3 0.296567 0.817664 0.499157
Si Si4 0.980316 0.783941 0.814745
Si Si5 0.028063 0.622784 0.403156
Si Si6 0.353242 0.744285 0.748611
Si Si7 0.360032 0.762103 0.240434
O O1 0.790560 0.572041 0.009232
O O2 0.051739 0.249403 0.056203
O O3 0.513584 0.199765 0.838828
O O4 0.298468 0.027262 0.823096
O O5 0.500000 0.000000 0.000000
O O6 0.191606 0.673448 0.434356
O O7 0.394910 0.700514 0.606254
O O8 0.379098 0.845913 0.384376
O O9 0.145787 0.100221 0.575001
O O10 0.947428 0.566690 0.725673
O O11 0.183759 0.711469 0.775040
O O12 0.842089 0.053335 0.786399
O O13 0.000000 0.500000 0.500000
O O14 0.538061 0.543789 0.789326
#
# Coordination Sequence:
#
# PCOD9055998 Si02
#       7
#     1   2   2   2   2   2   2
#     4  12  26  52  80 100 144 198 250 304 362 434
#     4  12  29  53  75 108 146 195 251 311 365 429
#     4  11  24  43  75 112 150 198 237 299 370 442
#     4  12  25  50  76 108 148 199 244 305 366 431
#     4  11  21  44  76 109 153 195 242 297 368 437
#     4  12  28  48  75 113 147 192 253 292 371 452
#     4  12  27  48  74 115 149 192 242 309 370 433
#
# _framework density 25.117433999999999
#
# number of rings (size 3 to 8) (size 9 to 14) (size 15 to 20)
#    0.000    0.308    6.154    2.308    2.154    3.077 
#    2.769    0.000    0.000    0.000    0.000    0.000 
#    0.000    0.000    0.000    0.000    0.000    0.000 
#
# Total GULP energy -72537.077857 kJ/mol
# GULP energy per Si atom -5579.775220 kJ/mol
# Density = 2.506027 g / cm^3
# Si number density = 25.117434 Si / 1000 Ang^3
#
#
#
# Elastic Constant Matrix: (Units=GPa)
#
#
# Indices 1 2 3 4 5 6 
#
# 1 54.5693 16.6309 0.2722 -20.5748 -27.5923 -38.4455
# 2 16.6309 74.4397 -36.0219 -34.9694 2.7892 -36.3483
# 3 0.2722 -36.0219 -4.7575 -34.4408 -28.4399 -21.6585
# 4 -20.5748 -34.9694 -34.4408 42.2855 17.1476 -2.2725
# 5 -27.5923 2.7892 -28.4399 17.1476 40.4680 -5.5430
# 6 -38.4455 -36.3483 -21.6585 -2.2725 -5.5430 38.3737
#
#
#
# Elastic Compliance Matrix: (Units=1/GPa)
#
#
# Indices 1 2 3 4 5 6 
#
# 1 0.052749 -0.020279 -0.020669 -0.020825 0.035199 0.025825
# 2 -0.020279 0.016089 -0.004049 0.008898 -0.022942 -0.010149
# 3 -0.020669 -0.004049 0.007704 -0.004450 -0.009505 -0.021832
# 4 -0.020825 0.008898 -0.004450 0.029653 -0.032964 -0.017952
# 5 0.035199 -0.022942 -0.009505 -0.032964 0.059611 0.014828
# 6 0.025825 -0.010149 -0.021832 -0.017952 0.014828 0.031076
#
#
# Mechanical properties :
#
#
# Convention : Reuss Voigt Hill
#
# Bulk Modulus (GPa) = -74.33694 9.55710 -32.38992
# Shear Modulus (GPa) = 17.70591 33.78345 25.74468
#
# Velocity S-wave (km/s) = 2.65792 3.67143 3.20499
# Velocity P-wave (km/s) = 4.49896 4.66752 0.87896
#
# Compressibility (1/GPa) = -0.01345226
#
# Stress axis : x y z
#
# Youngs Moduli (GPa) = 18.95761 62.15448 129.81034
#
# Poissons Ratio (x) = 1.26041 2.68309
# Poissons Ratio (y) = 0.38444 0.52561
# Poissons Ratio (z) = 0.39184 0.25167
#
# Static dielectric constant tensor:
#      x y z
#    x 1.969270 -0.053890 -0.034170 
#    y -0.053890 2.106540 -0.021590 
#    z -0.034170 -0.021590 2.077330 
# 
# From -- ./inp_files/373238.got.cif
#   From: 2010.05.17/outbox.cif.g08.bks.cpg/sg2_187_cif.got.tgz:373238.got - 2010.06.03 11:33:40.
