data_PCOD9055788
_publ_section_title
;
Structure prediction by ZEFSAII (Michael W. Deem and Ramdas Pophale) SiO2 
 PCOD9055788
Probable space group: P -1
;
_chemical_formula_sum "Si O2"
_cell_formula_units_Z 14
_cell_length_a 22.476686
_cell_length_b 9.566902
_cell_length_c 18.262367
_cell_angle_alpha 154.542093
_cell_angle_beta 21.204614
_cell_angle_gamma 145.359047
_cell_volume 605.957780
_symmetry_space_group_name_H-M "P -1"
_symmetry_group_IT_number 2
_symmetry_cell_setting 'triclinic'
loop_
_space_group_symop_operation_xyz
x,y,z
-x,-y,-z
loop_
_atom_site_type_symbol
_atom_site_label
_atom_site_fract_x
_atom_site_fract_y
_atom_site_fract_z
Si Si1 0.415805 0.157315 0.324440
Si Si2 0.774013 0.859376 0.739583
Si Si3 0.072447 0.676656 0.804914
Si Si4 0.893122 0.726017 0.168790
Si Si5 0.423346 0.679972 0.459267
Si Si6 0.698976 0.256053 0.870329
Si Si7 0.994143 0.552758 0.617237
O O1 0.295989 0.211163 0.556676
O O2 0.460610 0.512111 0.415417
O O3 0.309090 0.012870 0.311844
O O4 0.588381 0.918457 0.014390
O O5 0.843055 0.558620 0.465503
O O6 0.896890 0.762339 0.620036
O O7 0.771433 0.138263 0.811188
O O8 0.228019 0.736402 0.703958
O O9 0.935173 0.563832 0.964108
O O10 0.000000 0.000000 0.000000
O O11 0.944595 0.093620 0.274113
O O12 0.000000 0.500000 0.000000
O O13 0.500000 0.000000 0.500000
O O14 0.510722 0.405235 0.173133
O O15 0.808888 0.527052 0.845092
O O16 0.000000 0.500000 0.500000
#
# Coordination Sequence:
#
# PCOD9055788 Si02
#       7
#     2   2   2   2   2   2   2
#     4  11  22  44  71  98 135 183 219 282 342 400
#     4  11  23  45  70  99 135 178 236 273 332 410
#     4  12  23  42  69 102 133 181 227 272 335 406
#     4  12  24  43  69  96 140 177 221 274 346 399
#     4  11  22  40  66  98 136 172 229 275 334 398
#     4  11  21  43  71  97 131 179 227 280 330 406
#     4  12  26  43  66 103 137 179 223 283 341 396
#
# _framework density 23.103919999999999
#
# number of rings (size 3 to 8) (size 9 to 14) (size 15 to 20)
#    0.000    0.571    7.143    2.143    0.000    0.571 
#    2.571    0.000    0.000    1.714    0.000    0.000 
#    0.000    0.000    0.000    0.000    0.000    0.000 
#
# Total GULP energy -78122.043647 kJ/mol
# GULP energy per Si atom -5580.145975 kJ/mol
# Density = 2.305133 g / cm^3
# Si number density = 23.103920 Si / 1000 Ang^3
#
#
#
# Elastic Constant Matrix: (Units=GPa)
#
#
# Indices 1 2 3 4 5 6 
#
# 1 72.8420 0.5581 30.4257 -4.6707 -0.5029 -28.8370
# 2 0.5581 108.3269 45.8893 -13.3009 8.2275 -17.0606
# 3 30.4257 45.8893 176.7922 -31.9416 5.6465 -23.4593
# 4 -4.6707 -13.3009 -31.9416 47.2467 -4.7203 6.3932
# 5 -0.5029 8.2275 5.6465 -4.7203 18.5094 -2.5493
# 6 -28.8370 -17.0606 -23.4593 6.3932 -2.5493 27.0896
#
#
#
# Elastic Compliance Matrix: (Units=1/GPa)
#
#
# Indices 1 2 3 4 5 6 
#
# 1 0.026457 0.005166 -0.002217 -0.001203 0.002932 0.030057
# 2 0.005166 0.012213 -0.002450 0.000557 -0.002930 0.010662
# 3 -0.002217 -0.002450 0.007633 0.004010 -0.000035 0.001757
# 4 -0.001203 0.000557 0.004010 0.024745 0.004410 -0.002882
# 5 0.002932 -0.002930 -0.000035 0.004410 0.057315 0.005598
# 6 0.030057 0.010662 0.001757 -0.002882 0.005598 0.078354
#
#
# Mechanical properties :
#
#
# Convention : Reuss Voigt Hill
#
# Bulk Modulus (GPa) = 21.14128 56.85636 38.99882
# Shear Modulus (GPa) = 22.57493 37.30834 29.94164
#
# Velocity S-wave (km/s) = 3.12926 4.02282 3.60384
# Velocity P-wave (km/s) = 4.71452 6.79999 5.85092
#
# Compressibility (1/GPa) = 0.04730083
#
# Stress axis : x y z
#
# Youngs Moduli (GPa) = 37.79723 81.88185 131.01671
#
# Poissons Ratio (x) = -0.42301 0.29043
# Poissons Ratio (y) = -0.19527 0.32101
# Poissons Ratio (z) = 0.08379 0.20062
#
# Static dielectric constant tensor:
#      x y z
#    x 1.929950 0.018220 0.022610 
#    y 0.018220 1.896920 0.037350 
#    z 0.022610 0.037350 1.924270 
# 
# From -- ./inp_files/181209.got.cif
#   From: 2010.05.17/outbox.cif.g08.bks.cpg/sg2_91_cif.got.tgz:181209.got - 2010.06.03 11:33:40.
