data_PCOD9055078
_publ_section_title
;
Structure prediction by ZEFSAII (Michael W. Deem and Ramdas Pophale) SiO2 
 PCOD9055078
Probable space group: P -1
;
_chemical_formula_sum "Si O2"
_cell_formula_units_Z 16
_cell_length_a 15.357486
_cell_length_b 11.498609
_cell_length_c 11.934758
_cell_angle_alpha 73.169665
_cell_angle_beta 152.176657
_cell_angle_gamma 124.055108
_cell_volume 690.105746
_symmetry_space_group_name_H-M "P -1"
_symmetry_group_IT_number 2
_symmetry_cell_setting 'triclinic'
loop_
_space_group_symop_operation_xyz
x,y,z
-x,-y,-z
loop_
_atom_site_type_symbol
_atom_site_label
_atom_site_fract_x
_atom_site_fract_y
_atom_site_fract_z
Si Si1 0.413825 0.609115 0.643025
Si Si2 0.620780 0.049840 0.745633
Si Si3 0.819710 0.151201 0.521807
Si Si4 0.668154 0.468558 0.977960
Si Si5 0.832335 0.336668 0.053046
Si Si6 0.845215 0.122459 0.306223
Si Si7 0.382771 0.236806 0.922781
Si Si8 0.105111 0.053588 0.979822
O O1 0.473764 0.492872 0.733674
O O2 0.611871 0.764798 0.745416
O O3 0.121584 0.505216 0.318770
O O4 0.496015 0.685676 0.840223
O O5 0.500000 0.000000 0.500000
O O6 0.402945 0.919020 0.624218
O O7 0.851748 0.055977 0.000934
O O8 0.721506 0.224655 0.849089
O O9 0.738267 0.106233 0.312464
O O10 0.052000 0.348613 0.741336
O O11 0.933551 0.070189 0.708849
O O12 0.587973 0.361113 0.027659
O O13 0.670905 0.376504 0.904688
O O14 0.830398 0.228978 0.175440
O O15 0.141903 0.220079 0.638905
O O16 0.723890 0.945667 0.167513
O O17 0.000000 0.000000 0.000000
#
# Coordination Sequence:
#
# PCOD9055078 Si02
#       8
#     2   2   2   2   2   2   2   2
#     4  11  23  45  68 102 143 178 232 283 345 410
#     4  12  27  48  72  99 135 179 241 291 334 408
#     4  11  24  46  71 103 142 181 231 287 343 406
#     4  11  23  41  66 102 148 183 220 283 342 413
#     4  12  27  43  71 106 139 186 225 278 357 412
#     4  11  23  40  70 108 142 183 230 276 342 417
#     4  11  21  40  66 101 145 185 217 285 332 409
#     4  11  23  46  78  96 127 190 230 284 349 398
#
# _framework density 23.184854000000001
#
# number of rings (size 3 to 8) (size 9 to 14) (size 15 to 20)
#    0.000    0.750    5.000    3.375    1.750    6.000 
#    0.000    3.125    0.000    0.000    0.000    0.000 
#    0.000    0.000    0.000    0.000    0.000    0.000 
#
# Total GULP energy -89736.525772 kJ/mol
# GULP energy per Si atom -5608.532861 kJ/mol
# Density = 2.313208 g / cm^3
# Si number density = 23.184854 Si / 1000 Ang^3
#
#
#
# Elastic Constant Matrix: (Units=GPa)
#
#
# Indices 1 2 3 4 5 6 
#
# 1 169.5061 34.5033 48.2011 10.9401 2.6396 -11.9907
# 2 34.5033 58.5377 6.4946 3.6308 -4.3680 -18.3736
# 3 48.2011 6.4946 74.7201 6.7732 -7.7744 -3.6403
# 4 10.9401 3.6308 6.7732 35.3242 1.4438 9.1182
# 5 2.6396 -4.3680 -7.7744 1.4438 43.4164 3.9534
# 6 -11.9907 -18.3736 -3.6403 9.1182 3.9534 51.7453
#
#
#
# Elastic Compliance Matrix: (Units=1/GPa)
#
#
# Indices 1 2 3 4 5 6 
#
# 1 0.008353 -0.004296 -0.005079 -0.001201 -0.001846 0.000406
# 2 -0.004296 0.022109 0.001738 -0.003272 0.002233 0.007383
# 3 -0.005079 0.001738 0.017118 -0.002231 0.003553 0.000766
# 4 -0.001201 -0.003272 -0.002231 0.031304 -0.001056 -0.007033
# 5 -0.001846 0.002233 0.003553 -0.001056 0.024136 -0.001043
# 6 0.000406 0.007383 0.000766 -0.007033 -0.001043 0.023414
#
#
# Mechanical properties :
#
#
# Convention : Reuss Voigt Hill
#
# Bulk Modulus (GPa) = 30.95256 53.46243 42.20749
# Shear Modulus (GPa) = 32.79215 40.33483 36.56349
#
# Velocity S-wave (km/s) = 3.76490 4.17550 3.97551
# Velocity P-wave (km/s) = 5.68143 6.80850 6.27034
#
# Compressibility (1/GPa) = 0.03230751
#
# Stress axis : x y z
#
# Youngs Moduli (GPa) = 119.71671 45.22964 58.41948
#
# Poissons Ratio (x) = 0.19431 0.29669
# Poissons Ratio (y) = 0.51430 -0.10155
# Poissons Ratio (z) = 0.60799 -0.07862
#
# Static dielectric constant tensor:
#      x y z
#    x 1.844280 -0.013140 0.031050 
#    y -0.013140 1.890530 -0.014880 
#    z 0.031050 -0.014880 1.877300 
# 
# From -- ./inp_files/452303.got.cif
#   From: 2010.05.17/outbox.cif.g08.bks.cpg/sg2_227_cif.got.tgz:452303.got - 2010.06.03 11:33:40.
