data_PCOD9055380
_publ_section_title
;
Structure prediction by ZEFSAII (Michael W. Deem and Ramdas Pophale) SiO2 
 PCOD9055380
Probable space group: P -1
;
_chemical_formula_sum "Si O2"
_cell_formula_units_Z 15
_cell_length_a 8.684296
_cell_length_b 22.964211
_cell_length_c 15.560881
_cell_angle_alpha 160.019292
_cell_angle_beta 40.607905
_cell_angle_gamma 139.885954
_cell_volume 671.597113
_symmetry_space_group_name_H-M "P -1"
_symmetry_group_IT_number 2
_symmetry_cell_setting 'triclinic'
loop_
_space_group_symop_operation_xyz
x,y,z
-x,-y,-z
loop_
_atom_site_type_symbol
_atom_site_label
_atom_site_fract_x
_atom_site_fract_y
_atom_site_fract_z
Si Si1 0.039238 0.656908 0.104991
Si Si2 0.225680 0.904483 0.508959
Si Si3 0.295085 0.368755 0.347572
Si Si4 0.392809 0.281111 0.714068
Si Si5 0.000000 0.500000 0.500000
Si Si6 0.364966 0.883260 0.147470
Si Si7 0.915348 0.324998 0.593853
Si Si8 0.945153 0.776475 0.051561
O O1 0.757043 0.654486 0.209388
O O2 0.149080 0.715373 0.231417
O O3 0.175261 0.822401 0.220431
O O4 0.076861 0.483924 0.802194
O O5 0.170970 0.847065 0.550365
O O6 0.500000 0.000000 0.500000
O O7 0.072613 0.041015 0.731970
O O8 0.500000 0.500000 0.500000
O O9 0.197159 0.448389 0.415349
O O10 0.065683 0.304190 0.417915
O O11 0.414572 0.206016 0.051696
O O12 0.669170 0.383220 0.752604
O O13 0.245205 0.257381 0.834515
O O14 0.420678 0.089938 0.407284
O O15 0.087786 0.375954 0.215858
O O16 0.211929 0.803375 0.017953
#
# Coordination Sequence:
#
# PCOD9055380 Si02
#       8
#     2   2   2   2   1   2   2   2
#     4  11  21  41  70 106 141 188 242 303 371 427
#     4  12  24  44  71 109 147 189 248 304 364 442
#     4  12  26  51  71 102 152 193 247 304 371 438
#     4  11  22  44  73 105 146 185 247 309 361 441
#     4  12  28  44  78 108 136 200 246 294 374 456
#     4  11  21  45  77  98 145 201 239 306 372 432
#     4  12  26  43  70 110 144 195 242 306 370 430
#     4  11  22  44  72 107 142 195 249 293 375 434
#
# _framework density 22.334819
#
# number of rings (size 3 to 8) (size 9 to 14) (size 15 to 20)
#    0.000    0.533    6.667    2.400    3.733    0.533 
#    4.800    0.667    0.000    0.000    0.000    0.000 
#    0.000    0.000    0.000    0.000    0.000    0.000 
#
# Total GULP energy -83562.392339 kJ/mol
# GULP energy per Si atom -5570.826156 kJ/mol
# Density = 2.228398 g / cm^3
# Si number density = 22.334819 Si / 1000 Ang^3
#
#
#
# Elastic Constant Matrix: (Units=GPa)
#
#
# Indices 1 2 3 4 5 6 
#
# 1 147.7688 34.8222 40.4037 -15.6816 0.8289 -2.9059
# 2 34.8222 59.7933 5.2716 -2.3627 5.8979 7.7265
# 3 40.4037 5.2716 109.0731 -8.5671 8.4379 11.4698
# 4 -15.6816 -2.3627 -8.5671 26.6626 -0.0578 -5.0602
# 5 0.8289 5.8979 8.4379 -0.0578 50.8933 1.8451
# 6 -2.9059 7.7265 11.4698 -5.0602 1.8451 29.5850
#
#
#
# Elastic Compliance Matrix: (Units=1/GPa)
#
#
# Indices 1 2 3 4 5 6 
#
# 1 0.009706 -0.005839 -0.003482 0.004951 0.000934 0.004617
# 2 -0.005839 0.021013 0.001892 -0.002305 -0.002401 -0.007039
# 3 -0.003482 0.001892 0.011081 0.000748 -0.001822 -0.004891
# 4 0.004951 -0.002305 0.000748 0.041969 -0.000179 0.007988
# 5 0.000934 -0.002401 -0.001822 -0.000179 0.020209 0.000134
# 6 0.004617 -0.007039 -0.004891 0.007988 0.000134 0.039347
#
#
# Mechanical properties :
#
#
# Convention : Reuss Voigt Hill
#
# Bulk Modulus (GPa) = 37.11607 53.07003 45.09305
# Shear Modulus (GPa) = 29.91089 37.17071 33.54080
#
# Velocity S-wave (km/s) = 3.66348 4.08395 3.87942
# Velocity P-wave (km/s) = 5.87783 6.78608 6.34822
#
# Compressibility (1/GPa) = 0.02694251
#
# Stress axis : x y z
#
# Youngs Moduli (GPa) = 103.02575 47.58905 90.24835
#
# Poissons Ratio (x) = 0.27786 0.31426
# Poissons Ratio (y) = 0.60155 -0.17077
# Poissons Ratio (z) = 0.35876 -0.09005
#
# Static dielectric constant tensor:
#      x y z
#    x 1.906020 -0.005180 0.001840 
#    y -0.005180 1.812300 0.043760 
#    z 0.001840 0.043760 1.868230 
# 
# From -- ./inp_files/508627.got.cif
#   From: 2010.05.17/outbox.cif.g08.bks.cpg/sg2_255_cif.got.tgz:508627.got - 2010.06.03 11:33:40.
