data_PCOD9055187
_publ_section_title
;
Structure prediction by ZEFSAII (Michael W. Deem and Ramdas Pophale) SiO2 
 PCOD9055187
Probable space group: P -1
;
_chemical_formula_sum "Si O2"
_cell_formula_units_Z 16
_cell_length_a 18.936956
_cell_length_b 9.758948
_cell_length_c 9.147178
_cell_angle_alpha 107.034468
_cell_angle_beta 126.764320
_cell_angle_gamma 37.807150
_cell_volume 772.412720
_symmetry_space_group_name_H-M "P -1"
_symmetry_group_IT_number 2
_symmetry_cell_setting 'triclinic'
loop_
_space_group_symop_operation_xyz
x,y,z
-x,-y,-z
loop_
_atom_site_type_symbol
_atom_site_label
_atom_site_fract_x
_atom_site_fract_y
_atom_site_fract_z
Si Si1 0.006723 0.371828 0.843958
Si Si2 0.843669 0.559574 0.405970
Si Si3 0.260549 0.074916 0.831051
Si Si4 0.421976 0.558281 0.270154
Si Si5 0.977242 0.939145 0.598244
Si Si6 0.914321 0.021141 0.022853
Si Si7 0.660369 0.350738 0.294787
Si Si8 0.586683 0.669223 0.052411
O O1 0.158192 0.201651 0.887077
O O2 0.877029 0.546092 0.614429
O O3 0.000000 0.500000 0.000000
O O4 0.007380 0.217338 0.878926
O O5 0.824650 0.725334 0.337459
O O6 0.701797 0.647149 0.216439
O O7 0.981976 0.277899 0.444723
O O8 0.300090 0.860157 0.774022
O O9 0.424916 0.928196 0.991069
O O10 0.500000 0.500000 0.500000
O O11 0.250361 0.811829 0.165021
O O12 0.509785 0.542274 0.258063
O O13 0.430935 0.387607 0.147361
O O14 0.810067 0.190993 0.520003
O O15 0.000000 0.000000 0.500000
O O16 0.097162 0.844283 0.825397
O O17 0.000000 0.000000 0.000000
O O18 0.641068 0.475205 0.170754
#
# Coordination Sequence:
#
# PCOD9055187 Si02
#       8
#     2   2   2   2   2   2   2   2
#     4  12  27  44  64  97 134 171 216 273 333 385
#     4  12  24  42  68  98 131 173 222 265 323 392
#     4  11  24  42  65  98 134 175 217 265 328 395
#     4  11  23  38  61 100 130 159 215 272 328 375
#     4  12  20  40  71  97 126 170 228 270 313 386
#     4  12  25  43  66  95 133 170 217 277 328 386
#     4  11  21  40  70  94 128 177 218 270 322 389
#     4  11  22  43  70  93 130 175 222 264 318 395
#
# _framework density 20.714314999999999
#
# number of rings (size 3 to 8) (size 9 to 14) (size 15 to 20)
#    0.000    0.500    5.000    4.500    1.750    2.000 
#    0.000    0.625    0.000    0.000    0.000    0.000 
#    0.000    0.000    0.000    0.000    0.000    0.000 
#
# Total GULP energy -89211.841566 kJ/mol
# GULP energy per Si atom -5575.740098 kJ/mol
# Density = 2.066717 g / cm^3
# Si number density = 20.714315 Si / 1000 Ang^3
#
#
#
# Elastic Constant Matrix: (Units=GPa)
#
#
# Indices 1 2 3 4 5 6 
#
# 1 158.2226 60.5034 57.4759 -9.2089 -6.8970 4.2826
# 2 60.5034 78.8910 43.1404 -3.8056 -15.3146 14.1019
# 3 57.4759 43.1404 140.3760 4.1859 5.9214 2.1606
# 4 -9.2089 -3.8056 4.1859 44.9464 -3.1902 4.0946
# 5 -6.8970 -15.3146 5.9214 -3.1902 43.1322 -8.8137
# 6 4.2826 14.1019 2.1606 4.0946 -8.8137 39.9567
#
#
#
# Elastic Compliance Matrix: (Units=1/GPa)
#
#
# Indices 1 2 3 4 5 6 
#
# 1 0.009536 -0.006377 -0.002002 0.001486 -0.000118 0.001158
# 2 -0.006377 0.022440 -0.004533 0.002004 0.006543 -0.005753
# 3 -0.002002 -0.004533 0.009519 -0.001981 -0.003221 0.000792
# 4 0.001486 0.002004 -0.001981 0.023317 0.002411 -0.002617
# 5 -0.000118 0.006543 -0.003221 0.002411 0.026835 0.003550
# 6 0.001158 -0.005753 0.000792 -0.002617 0.003550 0.027942
#
#
# Mechanical properties :
#
#
# Convention : Reuss Voigt Hill
#
# Bulk Modulus (GPa) = 63.80593 77.74767 70.77680
# Shear Modulus (GPa) = 33.19278 40.03173 36.61225
#
# Velocity S-wave (km/s) = 4.00735 4.40086 4.20871
# Velocity P-wave (km/s) = 7.23060 7.96481 7.60657
#
# Compressibility (1/GPa) = 0.01567252
#
# Stress axis : x y z
#
# Youngs Moduli (GPa) = 104.86686 44.56313 105.05255
#
# Poissons Ratio (x) = 0.28418 0.21030
# Poissons Ratio (y) = 0.66873 0.47615
# Poissons Ratio (z) = 0.20993 0.20198
#
# Static dielectric constant tensor:
#      x y z
#    x 1.788480 -0.051670 0.019470 
#    y -0.051670 1.778450 0.035230 
#    z 0.019470 0.035230 1.920510 
# 
# From -- ./inp_files/329190.got.cif
#   From: 2010.05.17/outbox.cif.g08.bks.cpg/sg2_165_cif.got.tgz:329190.got - 2010.06.03 11:33:40.
