data_PCOD9055795
_publ_section_title
;
Structure prediction by ZEFSAII (Michael W. Deem and Ramdas Pophale) SiO2 
 PCOD9055795
Probable space group: P -1
;
_chemical_formula_sum "Si O2"
_cell_formula_units_Z 14
_cell_length_a 12.343068
_cell_length_b 16.672953
_cell_length_c 10.486719
_cell_angle_alpha 149.269901
_cell_angle_beta 129.963838
_cell_angle_gamma 36.289736
_cell_volume 643.523564
_symmetry_space_group_name_H-M "P -1"
_symmetry_group_IT_number 2
_symmetry_cell_setting 'triclinic'
loop_
_space_group_symop_operation_xyz
x,y,z
-x,-y,-z
loop_
_atom_site_type_symbol
_atom_site_label
_atom_site_fract_x
_atom_site_fract_y
_atom_site_fract_z
Si Si1 0.173878 0.021957 0.972844
Si Si2 0.311483 0.624703 0.615904
Si Si3 0.574868 0.242759 0.669856
Si Si4 0.477058 0.044307 0.888928
Si Si5 0.260145 0.635465 0.870308
Si Si6 0.835326 0.498328 0.838824
Si Si7 0.186972 0.795266 0.422422
O O1 0.237183 0.852604 0.895164
O O2 0.313700 0.064664 0.140921
O O3 0.215249 0.888825 0.693940
O O4 0.959938 0.215946 0.084720
O O5 0.500000 0.500000 0.500000
O O6 0.334304 0.537458 0.652714
O O7 0.144674 0.646488 0.454793
O O8 0.359443 0.443524 0.779229
O O9 0.665959 0.281444 0.680423
O O10 0.674071 0.237658 0.863072
O O11 0.597244 0.052052 0.375911
O O12 0.340302 0.280287 0.053531
O O13 0.500000 0.000000 0.000000
O O14 0.810535 0.390075 0.787886
O O15 0.000000 0.500000 0.000000
O O16 0.000000 0.000000 0.500000
#
# Coordination Sequence:
#
# PCOD9055795 Si02
#       7
#     2   2   2   2   2   2   2
#     4  11  23  39  68 100 137 180 231 281 350 405
#     4  11  22  46  70  96 133 183 229 282 347 422
#     4  11  24  42  70  97 140 183 231 283 347 415
#     4  12  24  43  69 109 141 182 235 290 340 409
#     4  11  24  43  66  99 136 186 231 281 351 416
#     4  11  25  40  72 107 135 174 243 290 340 409
#     4  11  21  43  72 101 137 189 232 278 347 423
#
# _framework density 21.755224999999999
#
# number of rings (size 3 to 8) (size 9 to 14) (size 15 to 20)
#    0.000    0.857    4.286    3.857    2.000    0.571 
#    0.000    5.000    0.000    0.000    0.000    0.000 
#    0.000    0.000    0.000    0.000    0.000    0.000 
#
# Total GULP energy -77970.468331 kJ/mol
# GULP energy per Si atom -5569.319167 kJ/mol
# Density = 2.170571 g / cm^3
# Si number density = 21.755225 Si / 1000 Ang^3
#
#
#
# Elastic Constant Matrix: (Units=GPa)
#
#
# Indices 1 2 3 4 5 6 
#
# 1 76.2269 44.7101 39.9196 -5.5973 11.0219 -10.0732
# 2 44.7101 126.7527 -0.0509 5.2374 1.6962 -8.2437
# 3 39.9196 -0.0509 71.7429 -14.3749 16.3786 7.2954
# 4 -5.5973 5.2374 -14.3749 51.5185 -1.7690 -0.2901
# 5 11.0219 1.6962 16.3786 -1.7690 38.5204 0.8710
# 6 -10.0732 -8.2437 7.2954 -0.2901 0.8710 32.5750
#
#
#
# Elastic Compliance Matrix: (Units=1/GPa)
#
#
# Indices 1 2 3 4 5 6 
#
# 1 0.029289 -0.009616 -0.017303 -0.000639 -0.000867 0.010516
# 2 -0.009616 0.011226 0.005360 -0.000699 -0.000024 -0.001339
# 3 -0.017303 0.005360 0.026978 0.004831 -0.006312 -0.009824
# 4 -0.000639 -0.000699 0.004831 0.020723 -0.000860 -0.001249
# 5 -0.000867 -0.000024 -0.006312 -0.000860 0.028846 0.000361
# 6 0.010516 -0.001339 -0.009824 -0.001249 0.000361 0.035791
#
#
# Mechanical properties :
#
#
# Convention : Reuss Voigt Hill
#
# Bulk Modulus (GPa) = 41.02689 49.32003 45.17346
# Shear Modulus (GPa) = 24.49829 37.19903 30.84866
#
# Velocity S-wave (km/s) = 3.35936 4.13957 3.76970
# Velocity P-wave (km/s) = 5.82636 6.75038 6.30532
#
# Compressibility (1/GPa) = 0.02437426
#
# Stress axis : x y z
#
# Youngs Moduli (GPa) = 34.14284 89.08209 37.06667
#
# Poissons Ratio (x) = 0.85663 0.64138
# Poissons Ratio (y) = 0.32832 -0.19869
# Poissons Ratio (z) = 0.59078 -0.47750
#
# Static dielectric constant tensor:
#      x y z
#    x 1.870770 0.021210 -0.027620 
#    y 0.021210 1.997650 0.068140 
#    z -0.027620 0.068140 1.869350 
# 
# From -- ./inp_files/435215.got.cif
#   From: 2010.05.17/outbox.cif.g08.bks.cpg/sg2_218_cif.got.tgz:435215.got - 2010.06.03 11:33:40.
