data_PCOD9055682
_publ_section_title
;
Structure prediction by ZEFSAII (Michael W. Deem and Ramdas Pophale) SiO2 
 PCOD9055682
Probable space group: P -1
;
_chemical_formula_sum "Si O2"
_cell_formula_units_Z 12
_cell_length_a 7.253324
_cell_length_b 13.257173
_cell_length_c 12.573987
_cell_angle_alpha 132.661553
_cell_angle_beta 138.964540
_cell_angle_gamma 44.224339
_cell_volume 528.247071
_symmetry_space_group_name_H-M "P -1"
_symmetry_group_IT_number 2
_symmetry_cell_setting 'triclinic'
loop_
_space_group_symop_operation_xyz
x,y,z
-x,-y,-z
loop_
_atom_site_type_symbol
_atom_site_label
_atom_site_fract_x
_atom_site_fract_y
_atom_site_fract_z
Si Si1 0.372953 0.365721 0.637583
Si Si2 0.360125 0.388833 0.051990
Si Si3 0.419934 0.858351 0.840741
Si Si4 0.511782 0.641051 0.545709
Si Si5 0.165477 0.978028 0.440087
Si Si6 0.800096 0.745713 0.314570
O O1 0.471973 0.499984 0.800891
O O2 0.281038 0.386756 0.488575
O O3 0.656884 0.196386 0.637851
O O4 0.170291 0.344752 0.628358
O O5 0.507193 0.256376 0.110059
O O6 0.363248 0.310336 0.885298
O O7 0.000000 0.500000 0.000000
O O8 0.591308 0.746775 0.736862
O O9 0.074105 0.935791 0.696995
O O10 0.500000 0.000000 0.000000
O O11 0.500000 0.500000 0.500000
O O12 0.147075 0.712792 0.404337
O O13 0.631764 0.926176 0.389129
O O14 0.000000 0.000000 0.500000
#
# Coordination Sequence:
#
# PCOD9055682 Si02
#       6
#     2   2   2   2   2   2
#     4  12  23  40  69  92 128 169 214 261 319 376
#     4  12  22  42  65  94 131 168 210 266 318 374
#     4  11  22  37  67  93 122 168 213 258 318 380
#     4  11  22  43  64  95 126 166 214 263 319 375
#     4  11  21  43  65  91 129 169 212 261 319 378
#     4  11  24  40  67  93 127 170 215 257 321 379
#
# _framework density 22.716643000000001
#
# number of rings (size 3 to 8) (size 9 to 14) (size 15 to 20)
#    0.000    0.667    6.667    3.000    0.000    0.667 
#    0.000    0.833    0.000    0.000    0.000    0.000 
#    0.000    0.000    0.000    0.000    0.000    0.000 
#
# Total GULP energy -66964.861733 kJ/mol
# GULP energy per Si atom -5580.405144 kJ/mol
# Density = 2.266494 g / cm^3
# Si number density = 22.716643 Si / 1000 Ang^3
#
#
#
# Elastic Constant Matrix: (Units=GPa)
#
#
# Indices 1 2 3 4 5 6 
#
# 1 149.3402 42.1635 48.8274 8.9043 -16.3393 27.6591
# 2 42.1635 143.5329 54.1383 13.2790 -5.5309 45.0464
# 3 48.8274 54.1383 155.5271 51.7759 -17.1075 18.1705
# 4 8.9043 13.2790 51.7759 50.8811 12.5345 5.5534
# 5 -16.3393 -5.5309 -17.1075 12.5345 38.2214 0.4669
# 6 27.6591 45.0464 18.1705 5.5534 0.4669 44.4700
#
#
#
# Elastic Compliance Matrix: (Units=1/GPa)
#
#
# Indices 1 2 3 4 5 6 
#
# 1 0.008458 -0.000414 -0.001813 0.000260 0.002709 -0.004161
# 2 -0.000414 0.011291 -0.003175 0.001541 -0.000347 -0.010071
# 3 -0.001813 -0.003175 0.014791 -0.016601 0.010827 0.000259
# 4 0.000260 0.001541 -0.016601 0.041158 -0.020596 0.000137
# 5 0.002709 -0.000347 0.010827 -0.020596 0.038916 -0.003595
# 6 -0.004161 -0.010071 0.000259 0.000137 -0.003595 0.035191
#
#
# Mechanical properties :
#
#
# Convention : Reuss Voigt Hill
#
# Bulk Modulus (GPa) = 42.13187 82.07317 62.10252
# Shear Modulus (GPa) = 29.66980 46.93255 38.30118
#
# Velocity S-wave (km/s) = 3.61790 4.55026 4.11060
# Velocity P-wave (km/s) = 6.00326 7.98836 7.06587
#
# Compressibility (1/GPa) = 0.02373500
#
# Stress axis : x y z
#
# Youngs Moduli (GPa) = 118.23788 88.56540 67.60672
#
# Poissons Ratio (x) = 0.03670 0.12260
# Poissons Ratio (y) = 0.04899 0.21464
# Poissons Ratio (z) = 0.21442 0.28117
#
# Static dielectric constant tensor:
#      x y z
#    x 1.853030 -0.047220 -0.050440 
#    y -0.047220 2.050170 0.078670 
#    z -0.050440 0.078670 1.900160 
# 
# From -- ./inp_files/367218.got.cif
#   From: 2010.05.17/outbox.cif.g08.bks.cpg/sg2_184_cif.got.tgz:367218.got - 2010.06.03 11:33:40.
