data_PCOD9055421
_publ_section_title
;
Structure prediction by ZEFSAII (Michael W. Deem and Ramdas Pophale) SiO2 
 PCOD9055421
Probable space group: P -1
;
_chemical_formula_sum "Si O2"
_cell_formula_units_Z 16
_cell_length_a 8.925206
_cell_length_b 8.777802
_cell_length_c 16.250608
_cell_angle_alpha 51.677841
_cell_angle_beta 106.480287
_cell_angle_gamma 70.262438
_cell_volume 699.826684
_symmetry_space_group_name_H-M "P -1"
_symmetry_group_IT_number 2
_symmetry_cell_setting 'triclinic'
loop_
_space_group_symop_operation_xyz
x,y,z
-x,-y,-z
loop_
_atom_site_type_symbol
_atom_site_label
_atom_site_fract_x
_atom_site_fract_y
_atom_site_fract_z
Si Si1 0.578326 0.418257 0.412961
Si Si2 0.983314 0.283761 0.577068
Si Si3 0.077549 0.485403 0.837218
Si Si4 0.458105 0.459609 0.915190
Si Si5 0.372462 0.973087 0.167140
Si Si6 0.763229 0.865078 0.177325
Si Si7 0.679745 0.122166 0.366717
Si Si8 0.601520 0.000378 0.642883
O O1 0.390284 0.723542 0.253288
O O2 0.698131 0.234022 0.412989
O O3 0.746788 0.405000 0.493420
O O4 0.528860 0.271702 0.508012
O O5 0.094966 0.150428 0.726214
O O6 0.000000 0.500000 0.500000
O O7 0.114283 0.088063 0.586347
O O8 0.227462 0.549836 0.844516
O O9 0.107565 0.366715 0.791462
O O10 0.835237 0.748139 0.729195
O O11 0.178825 0.243734 0.998697
O O12 0.474418 0.626310 0.801826
O O13 0.500000 0.500000 0.000000
O O14 0.622814 0.152424 0.017780
O O15 0.588304 0.875237 0.191157
O O16 0.377298 0.024843 0.246521
O O17 0.570886 0.011379 0.407454
#
# Coordination Sequence:
#
# PCOD9055421 Si02
#       8
#     2   2   2   2   2   2   2   2
#     4  12  26  43  70 103 136 184 231 285 341 411
#     4  12  24  42  72 100 136 181 232 283 342 406
#     4  11  25  44  73 105 135 181 227 288 344 410
#     4  11  21  41  72 101 133 176 231 284 344 400
#     4  11  22  48  70 100 138 180 224 285 346 406
#     4  11  22  44  71 100 135 176 230 282 341 406
#     4  12  24  46  68 102 141 179 230 288 341 406
#     4  12  26  46  68 102 145 183 227 279 349 412
#
# _framework density 22.862804000000001
#
# number of rings (size 3 to 8) (size 9 to 14) (size 15 to 20)
#    0.000    0.500    3.750    6.000    1.750    0.000 
#    4.500    1.250    0.000    0.000    0.000    0.000 
#    0.000    0.000    0.000    0.000    0.000    0.000 
#
# Total GULP energy -89626.660504 kJ/mol
# GULP energy per Si atom -5601.666282 kJ/mol
# Density = 2.281077 g / cm^3
# Si number density = 22.862804 Si / 1000 Ang^3
#
#
#
# Elastic Constant Matrix: (Units=GPa)
#
#
# Indices 1 2 3 4 5 6 
#
# 1 62.2886 29.9136 29.3641 -11.7559 -8.8015 22.9797
# 2 29.9136 145.3150 8.6487 4.0192 -0.0451 -13.3547
# 3 29.3641 8.6487 84.9716 -12.1669 -23.6136 11.7267
# 4 -11.7559 4.0192 -12.1669 44.8195 9.8395 -3.4826
# 5 -8.8015 -0.0451 -23.6136 9.8395 35.5763 -6.4695
# 6 22.9797 -13.3547 11.7267 -3.4826 -6.4695 36.0880
#
#
#
# Elastic Compliance Matrix: (Units=1/GPa)
#
#
# Indices 1 2 3 4 5 6 
#
# 1 0.031839 -0.008218 -0.007057 0.006054 -0.002283 -0.020847
# 2 -0.008218 0.009377 0.000535 -0.002308 0.000499 0.008396
# 3 -0.007057 0.000535 0.016706 0.000663 0.009342 0.001002
# 4 0.006054 -0.002308 0.000663 0.025263 -0.005690 -0.003506
# 5 -0.002283 0.000499 0.009342 -0.005690 0.036143 0.004533
# 6 -0.020847 0.008396 0.001002 -0.003506 0.004533 0.044241
#
#
# Mechanical properties :
#
#
# Convention : Reuss Voigt Hill
#
# Bulk Modulus (GPa) = 35.15967 47.60310 41.38139
# Shear Modulus (GPa) = 24.68789 38.27334 31.48061
#
# Velocity S-wave (km/s) = 3.28964 4.09595 3.71473
# Velocity P-wave (km/s) = 5.46268 6.57537 6.04468
#
# Compressibility (1/GPa) = 0.02844167
#
# Stress axis : x y z
#
# Youngs Moduli (GPa) = 31.40840 106.64290 59.86008
#
# Poissons Ratio (x) = 0.87640 0.42242
# Poissons Ratio (y) = 0.25812 -0.03203
# Poissons Ratio (z) = 0.22164 -0.05706
#
# Static dielectric constant tensor:
#      x y z
#    x 1.806210 -0.007810 -0.010980 
#    y -0.007810 1.862520 -0.002660 
#    z -0.010980 -0.002660 1.907050 
# 
# From -- ./inp_files/494402.got.cif
#   From: 2010.05.17/outbox.cif.g08.bks.cpg/sg2_248_cif.got.tgz:494402.got - 2010.06.03 11:33:40.
