data_PCOD9055991
_publ_section_title
;
Structure prediction by ZEFSAII (Michael W. Deem and Ramdas Pophale) SiO2 
 PCOD9055991
Probable space group: P -1
;
_chemical_formula_sum "Si O2"
_cell_formula_units_Z 16
_cell_length_a 8.357388
_cell_length_b 9.235961
_cell_length_c 15.455878
_cell_angle_alpha 41.527927
_cell_angle_beta 59.788080
_cell_angle_gamma 65.447983
_cell_volume 681.947187
_symmetry_space_group_name_H-M "P -1"
_symmetry_group_IT_number 2
_symmetry_cell_setting 'triclinic'
loop_
_space_group_symop_operation_xyz
x,y,z
-x,-y,-z
loop_
_atom_site_type_symbol
_atom_site_label
_atom_site_fract_x
_atom_site_fract_y
_atom_site_fract_z
Si Si1 0.141373 0.385563 0.083774
Si Si2 0.356091 0.107067 0.422133
Si Si3 0.528637 0.494834 0.881223
Si Si4 0.812950 0.097374 0.761679
Si Si5 0.179261 0.900012 0.047347
Si Si6 0.864710 0.321749 0.349344
Si Si7 0.036315 0.348423 0.475552
Si Si8 0.572641 0.683687 0.200486
O O1 0.341277 0.489653 0.992544
O O2 0.019136 0.353681 0.218023
O O3 0.211867 0.155556 0.126024
O O4 0.000000 0.500000 0.000000
O O5 0.427525 0.249299 0.259060
O O6 0.248850 0.298567 0.420664
O O7 0.500000 0.000000 0.500000
O O8 0.217492 0.919735 0.517629
O O9 0.704631 0.314793 0.924893
O O10 0.458922 0.412454 0.842793
O O11 0.881190 0.151207 0.815140
O O12 0.623537 0.243948 0.734884
O O13 0.957250 0.131302 0.632229
O O14 0.318546 0.094571 0.930616
O O15 0.000000 0.000000 0.000000
O O16 0.693947 0.495432 0.299804
O O17 0.943910 0.388302 0.390485
O O18 0.000000 0.500000 0.500000
#
# Coordination Sequence:
#
# PCOD9055991 Si02
#       8
#     2   2   2   2   2   2   2   2
#     4  12  21  45  78 110 145 202 253 313 391 457
#     4  12  25  49  75 116 160 199 248 321 393 463
#     4  11  22  44  76 111 155 203 252 318 384 461
#     4  11  23  45  72 106 148 203 256 316 382 453
#     4  11  23  41  72 114 155 200 266 321 375 452
#     4  12  27  48  81 112 156 205 255 315 399 461
#     4  12  29  51  75 107 153 206 262 315 377 465
#     4  11  21  44  75 107 154 203 257 315 384 460
#
# _framework density 23.462228
#
# number of rings (size 3 to 8) (size 9 to 14) (size 15 to 20)
#    0.000    0.500    6.250    2.625    3.500    0.500 
#    0.000    1.875    0.000    0.000    0.000    0.000 
#    0.000    0.000    0.000    0.000    0.000    0.000 
#
# Total GULP energy -89432.173901 kJ/mol
# GULP energy per Si atom -5589.510869 kJ/mol
# Density = 2.340883 g / cm^3
# Si number density = 23.462228 Si / 1000 Ang^3
#
#
#
# Elastic Constant Matrix: (Units=GPa)
#
#
# Indices 1 2 3 4 5 6 
#
# 1 140.0735 56.4716 53.2392 -5.7469 12.4284 -10.1201
# 2 56.4716 128.6412 60.1824 -1.7739 15.4301 12.7369
# 3 53.2392 60.1824 144.1965 -3.5261 -16.0100 -4.6264
# 4 -5.7469 -1.7739 -3.5261 42.8282 -1.9896 3.3393
# 5 12.4284 15.4301 -16.0100 -1.9896 47.8360 -5.5368
# 6 -10.1201 12.7369 -4.6264 3.3393 -5.5368 31.8316
#
#
#
# Elastic Compliance Matrix: (Units=1/GPa)
#
#
# Indices 1 2 3 4 5 6 
#
# 1 0.009829 -0.003416 -0.002260 0.000614 -0.001744 0.003795
# 2 -0.003416 0.013250 -0.005207 0.000019 -0.006078 -0.008204
# 3 -0.002260 -0.005207 0.010785 0.000352 0.006354 0.004001
# 4 0.000614 0.000019 0.000352 0.023659 0.000690 -0.002123
# 5 -0.001744 -0.006078 0.006354 0.000690 0.026319 0.007307
# 6 0.003795 -0.008204 0.004001 -0.002123 0.007307 0.037980
#
#
# Mechanical properties :
#
#
# Convention : Reuss Voigt Hill
#
# Bulk Modulus (GPa) = 82.64865 83.63307 83.14086
# Shear Modulus (GPa) = 33.87031 40.70036 37.28533
#
# Velocity S-wave (km/s) = 3.80361 4.16951 3.99076
# Velocity P-wave (km/s) = 7.38868 7.67483 7.53312
#
# Compressibility (1/GPa) = 0.01209941
#
# Stress axis : x y z
#
# Youngs Moduli (GPa) = 101.73530 75.46908 92.72045
#
# Poissons Ratio (x) = 0.25778 0.20958
# Poissons Ratio (y) = 0.34750 0.48277
# Poissons Ratio (z) = 0.22996 0.39295
#
# Static dielectric constant tensor:
#      x y z
#    x 1.718030 -0.240370 -0.093470 
#    y -0.240370 1.482180 -0.020520 
#    z -0.093470 -0.020520 2.064790 
# 
# From -- ./inp_files/494202.got.cif
#   From: 2010.05.17/outbox.cif.g08.bks.cpg/sg2_248_cif.got.tgz:494202.got - 2010.06.03 11:33:40.
