data_PCOD9055070
_publ_section_title
;
Structure prediction by ZEFSAII (Michael W. Deem and Ramdas Pophale) SiO2 
 PCOD9055070
Probable space group: P -1
;
_chemical_formula_sum "Si O2"
_cell_formula_units_Z 16
_cell_length_a 12.153624
_cell_length_b 15.394075
_cell_length_c 8.612646
_cell_angle_alpha 46.349166
_cell_angle_beta 38.901913
_cell_angle_gamma 48.355298
_cell_volume 702.851369
_symmetry_space_group_name_H-M "P -1"
_symmetry_group_IT_number 2
_symmetry_cell_setting 'triclinic'
loop_
_space_group_symop_operation_xyz
x,y,z
-x,-y,-z
loop_
_atom_site_type_symbol
_atom_site_label
_atom_site_fract_x
_atom_site_fract_y
_atom_site_fract_z
Si Si1 0.454313 0.228293 0.519677
Si Si2 0.853994 0.520883 0.958786
Si Si3 0.108366 0.204936 0.381785
Si Si4 0.472691 0.380342 0.001710
Si Si5 0.687849 0.011749 0.357839
Si Si6 0.697577 0.951385 0.923329
Si Si7 0.727031 0.535372 0.415715
Si Si8 0.739649 0.159314 0.835471
O O1 0.316531 0.144079 0.805278
O O2 0.414077 0.325479 0.586720
O O3 0.638214 0.118394 0.415704
O O4 0.437222 0.317198 0.278681
O O5 0.848709 0.664399 0.818369
O O6 0.069026 0.456415 0.770471
O O7 0.713810 0.524173 0.970514
O O8 0.766164 0.485566 0.257337
O O9 0.202416 0.117302 0.528671
O O10 0.893600 0.228664 0.586193
O O11 0.174228 0.127642 0.249344
O O12 0.631131 0.451003 0.730024
O O13 0.547450 0.261325 0.951185
O O14 0.500000 0.000000 0.500000
O O15 0.782967 0.065781 0.050143
O O16 0.500000 0.000000 0.000000
O O17 0.743577 0.072247 0.791365
#
# Coordination Sequence:
#
# PCOD9055070 Si02
#       8
#     2   2   2   2   2   2   2   2
#     4  11  23  40  67  93 129 169 212 268 318 385
#     4  11  24  42  70  93 126 175 212 272 323 377
#     4  12  22  41  64  97 134 167 213 270 325 385
#     4  11  24  44  67  93 128 172 218 264 325 384
#     4  11  21  40  65  96 127 171 211 258 331 390
#     4  12  22  41  63  95 132 170 213 264 329 386
#     4  11  24  46  64  95 129 163 228 262 318 387
#     4  11  24  39  64  98 132 166 217 265 324 397
#
# _framework density 22.764413000000001
#
# number of rings (size 3 to 8) (size 9 to 14) (size 15 to 20)
#    0.000    0.750    5.000    3.750    0.000    0.500 
#    0.000    1.250    0.000    0.000    0.000    0.000 
#    0.000    0.000    0.000    0.000    0.000    0.000 
#
# Total GULP energy -89322.406707 kJ/mol
# GULP energy per Si atom -5582.650419 kJ/mol
# Density = 2.271260 g / cm^3
# Si number density = 22.764413 Si / 1000 Ang^3
#
#
#
# Elastic Constant Matrix: (Units=GPa)
#
#
# Indices 1 2 3 4 5 6 
#
# 1 50.9603 12.4142 40.4342 2.1224 -6.6219 -12.3198
# 2 12.4142 86.5819 -3.2674 -7.7833 -0.9142 3.9024
# 3 40.4342 -3.2674 95.6952 -8.0701 -0.7627 -12.6653
# 4 2.1224 -7.7833 -8.0701 30.9688 -2.5717 5.8118
# 5 -6.6219 -0.9142 -0.7627 -2.5717 21.8649 -5.5433
# 6 -12.3198 3.9024 -12.6653 5.8118 -5.5433 28.8221
#
#
#
# Elastic Compliance Matrix: (Units=1/GPa)
#
#
# Indices 1 2 3 4 5 6 
#
# 1 0.040532 -0.007974 -0.016044 -0.010836 0.014234 0.016277
# 2 -0.007974 0.013552 0.003595 0.005679 -0.002391 -0.005269
# 3 -0.016044 0.003595 0.017663 0.006602 -0.003730 -0.001632
# 4 -0.010836 0.005679 0.006602 0.038045 -0.000965 -0.010356
# 5 0.014234 -0.002391 -0.003730 -0.000965 0.053573 0.015267
# 6 0.016277 -0.005269 -0.001632 -0.010356 0.015267 0.046674
#
#
# Mechanical properties :
#
#
# Convention : Reuss Voigt Hill
#
# Bulk Modulus (GPa) = 32.36422 36.93326 34.64874
# Shear Modulus (GPa) = 19.14345 28.57491 23.85918
#
# Velocity S-wave (km/s) = 2.90304 3.54679 3.24094
# Velocity P-wave (km/s) = 5.04824 5.74737 5.40911
#
# Compressibility (1/GPa) = 0.03089832
#
# Stress axis : x y z
#
# Youngs Moduli (GPa) = 24.67185 73.79215 56.61568
#
# Poissons Ratio (x) = 0.58845 0.90837
# Poissons Ratio (y) = 0.19674 -0.20352
# Poissons Ratio (z) = 0.39585 -0.26526
#
# Static dielectric constant tensor:
#      x y z
#    x 1.875010 -0.008700 -0.011810 
#    y -0.008700 1.928420 0.059090 
#    z -0.011810 0.059090 1.936220 
# 
# From -- ./inp_files/271717.got.cif
#   From: 2010.05.17/outbox.cif.g08.bks.cpg/sg2_136_cif.got.tgz:271717.got - 2010.06.03 11:33:40.
