data_PCOD9055372
_publ_section_title
;
Structure prediction by ZEFSAII (Michael W. Deem and Ramdas Pophale) SiO2 
 PCOD9055372
Probable space group: P -1
;
_chemical_formula_sum "Si O2"
_cell_formula_units_Z 13
_cell_length_a 17.299469
_cell_length_b 10.079796
_cell_length_c 13.147911
_cell_angle_alpha 54.379060
_cell_angle_beta 158.645312
_cell_angle_gamma 136.918678
_cell_volume 524.281649
_symmetry_space_group_name_H-M "P -1"
_symmetry_group_IT_number 2
_symmetry_cell_setting 'triclinic'
loop_
_space_group_symop_operation_xyz
x,y,z
-x,-y,-z
loop_
_atom_site_type_symbol
_atom_site_label
_atom_site_fract_x
_atom_site_fract_y
_atom_site_fract_z
Si Si1 0.500000 0.000000 0.000000
Si Si2 0.333988 0.269593 0.632670
Si Si3 0.884337 0.362277 0.768620
Si Si4 0.595978 0.682720 0.885008
Si Si5 0.273086 0.051849 0.903400
Si Si6 0.603393 0.203376 0.712686
Si Si7 0.077003 0.128789 0.171309
O O1 0.422694 0.070390 0.976340
O O2 0.561972 0.862522 0.203310
O O3 0.551020 0.488643 0.859762
O O4 0.224853 0.283899 0.383184
O O5 0.055222 0.131655 0.419934
O O6 0.699813 0.373740 0.460834
O O7 0.702324 0.269912 0.689135
O O8 0.165955 0.593302 0.029078
O O9 0.962487 0.212284 0.919769
O O10 0.679412 0.746965 0.077071
O O11 0.838081 0.896857 0.026355
O O12 0.383465 0.976810 0.156021
O O13 0.314552 0.145185 0.401880
#
# Coordination Sequence:
#
# PCOD9055372 Si02
#       7
#     1   2   2   2   2   2   2
#     4  12  26  48  78  94 130 186 230 294 354 398
#     4  11  23  48  71 100 135 182 230 288 347 402
#     4  11  21  42  69 101 144 193 216 268 353 400
#     4  11  24  44  72 103 144 181 225 285 340 415
#     4  11  24  48  70  99 140 175 233 289 342 404
#     4  11  21  41  69  98 142 188 226 276 329 413
#     4  11  23  42  67 105 145 180 232 275 331 418
#
# _framework density 24.795832999999998
#
# number of rings (size 3 to 8) (size 9 to 14) (size 15 to 20)
#    0.000    0.923    6.154    2.308    0.000    1.231 
#    5.538    3.846    0.000    0.000    0.000    0.000 
#    0.000    0.000    0.000    0.000    0.000    0.000 
#
# Total GULP energy -72534.251173 kJ/mol
# GULP energy per Si atom -5579.557783 kJ/mol
# Density = 2.473940 g / cm^3
# Si number density = 24.795833 Si / 1000 Ang^3
#
#
#
# Elastic Constant Matrix: (Units=GPa)
#
#
# Indices 1 2 3 4 5 6 
#
# 1 75.8301 9.8533 15.9475 11.6157 2.2219 -19.7846
# 2 9.8533 108.8170 42.9269 -0.5442 6.0361 -32.5976
# 3 15.9475 42.9269 101.0825 -8.3873 24.2792 -26.3113
# 4 11.6157 -0.5442 -8.3873 44.4916 -10.5245 -10.9429
# 5 2.2219 6.0361 24.2792 -10.5245 35.4841 -3.3075
# 6 -19.7846 -32.5976 -26.3113 -10.9429 -3.3075 31.5040
#
#
#
# Elastic Compliance Matrix: (Units=1/GPa)
#
#
# Indices 1 2 3 4 5 6 
#
# 1 0.016253 0.002173 -0.000556 -0.001623 -0.000427 0.011382
# 2 0.002173 0.014641 -0.002580 0.003364 0.001600 0.015695
# 3 -0.000556 -0.002580 0.016328 0.003905 -0.008507 0.011081
# 4 -0.001623 0.003364 0.003905 0.029482 0.007160 0.016715
# 5 -0.000427 0.001600 -0.008507 0.007160 0.035931 0.000541
# 6 0.011382 0.015695 0.011081 0.016715 0.000541 0.070247
#
#
# Mechanical properties :
#
#
# Convention : Reuss Voigt Hill
#
# Bulk Modulus (GPa) = 22.07760 47.02056 34.54908
# Shear Modulus (GPa) = 25.01164 36.76273 30.88718
#
# Velocity S-wave (km/s) = 3.17945 3.85465 3.53322
# Velocity P-wave (km/s) = 4.73304 6.23020 5.53250
#
# Compressibility (1/GPa) = 0.04529478
#
# Stress axis : x y z
#
# Youngs Moduli (GPa) = 61.52784 68.30353 61.24426
#
# Poissons Ratio (x) = -0.14842 0.03408
# Poissons Ratio (y) = -0.13370 0.15801
# Poissons Ratio (z) = 0.03423 0.17622
#
# Static dielectric constant tensor:
#      x y z
#    x 2.049950 0.015400 -0.074230 
#    y 0.015400 2.041620 -0.010670 
#    z -0.074230 -0.010670 1.975870 
# 
# From -- ./inp_files/537321.got.cif
#   From: 2010.05.17/outbox.cif.g08.bks.cpg/sg2_269_cif.got.tgz:537321.got - 2010.06.03 11:33:40.
