data_PCOD9055155
_publ_section_title
;
Structure prediction by ZEFSAII (Michael W. Deem and Ramdas Pophale) SiO2 
 PCOD9055155
Probable space group: P -1
;
_chemical_formula_sum "Si O2"
_cell_formula_units_Z 16
_cell_length_a 15.761907
_cell_length_b 8.088462
_cell_length_c 21.116295
_cell_angle_alpha 43.110896
_cell_angle_beta 27.165095
_cell_angle_gamma 32.040057
_cell_volume 648.804154
_symmetry_space_group_name_H-M "P -1"
_symmetry_group_IT_number 2
_symmetry_cell_setting 'triclinic'
loop_
_space_group_symop_operation_xyz
x,y,z
-x,-y,-z
loop_
_atom_site_type_symbol
_atom_site_label
_atom_site_fract_x
_atom_site_fract_y
_atom_site_fract_z
Si Si1 0.969841 0.650951 0.662320
Si Si2 0.229637 0.644668 0.149946
Si Si3 0.416178 0.301124 0.376503
Si Si4 0.867373 0.309422 0.669489
Si Si5 0.874694 0.737244 0.959794
Si Si6 0.527456 0.241400 0.730950
Si Si7 0.226435 0.133014 0.139514
Si Si8 0.557150 0.190767 0.576801
O O1 0.858522 0.483717 0.804638
O O2 0.946662 0.785831 0.709400
O O3 0.229178 0.400208 0.529643
O O4 0.806094 0.965149 0.640467
O O5 0.181504 0.513895 0.281008
O O6 0.500000 0.500000 0.000000
O O7 0.079298 0.014821 0.135457
O O8 0.267150 0.504066 0.356052
O O9 0.545302 0.438397 0.279146
O O10 0.531874 0.956179 0.368831
O O11 0.740619 0.172144 0.818640
O O12 0.152393 0.076322 0.539162
O O13 0.602454 0.871390 0.114832
O O14 0.917171 0.625582 0.890244
O O15 0.000000 0.500000 0.000000
O O16 0.476934 0.258801 0.684786
O O17 0.500000 0.000000 0.000000
O O18 0.500000 0.500000 0.500000
#
# Coordination Sequence:
#
# PCOD9055155 Si02
#       8
#     2   2   2   2   2   2   2   2
#     4  12  20  40  70 106 132 174 239 301 346 400
#     4  11  22  38  67  98 138 182 232 286 346 416
#     4  12  24  44  73 104 135 179 241 299 343 415
#     4  11  21  41  67  99 136 174 234 293 344 407
#     4  11  26  45  66  99 143 188 228 285 354 425
#     4  12  24  44  73 103 140 180 238 295 355 414
#     4  11  21  40  69 103 138 178 235 294 351 416
#     4  12  28  44  67 102 146 192 227 284 361 427
#
# _framework density 24.660754000000001
#
# number of rings (size 3 to 8) (size 9 to 14) (size 15 to 20)
#    0.000    0.500    6.250    3.000    3.500    0.500 
#    0.000    1.875    0.000    0.000    0.000    0.000 
#    0.000    0.000    0.000    0.000    0.000    0.000 
#
# Total GULP energy -89199.343744 kJ/mol
# GULP energy per Si atom -5574.958984 kJ/mol
# Density = 2.460463 g / cm^3
# Si number density = 24.660754 Si / 1000 Ang^3
#
#
#
# Elastic Constant Matrix: (Units=GPa)
#
#
# Indices 1 2 3 4 5 6 
#
# 1 66.1343 34.9069 16.4364 -12.3611 18.4327 2.3633
# 2 34.9069 81.6650 14.8875 -14.4150 16.4654 13.5660
# 3 16.4364 14.8875 88.2359 -6.9712 19.3028 1.8299
# 4 -12.3611 -14.4150 -6.9712 37.8786 7.8853 -2.9292
# 5 18.4327 16.4654 19.3028 7.8853 64.9186 -13.6478
# 6 2.3633 13.5660 1.8299 -2.9292 -13.6478 33.3133
#
#
#
# Elastic Compliance Matrix: (Units=1/GPa)
#
#
# Indices 1 2 3 4 5 6 
#
# 1 0.021393 -0.007138 -0.001426 0.004929 -0.004419 0.000090
# 2 -0.007138 0.018728 -0.000110 0.005174 -0.005164 -0.008775
# 3 -0.001426 -0.000110 0.012754 0.002536 -0.004089 -0.002007
# 4 0.004929 0.005174 0.002536 0.031869 -0.007981 -0.003063
# 5 -0.004419 -0.005164 -0.004089 -0.007981 0.022499 0.011157
# 6 0.000090 -0.008775 -0.002007 -0.003063 0.011157 0.037997
#
#
# Mechanical properties :
#
#
# Convention : Reuss Voigt Hill
#
# Bulk Modulus (GPa) = 28.14766 40.94408 34.54587
# Shear Modulus (GPa) = 28.66473 38.54238 33.60356
#
# Velocity S-wave (km/s) = 3.41304 3.95765 3.69539
# Velocity P-wave (km/s) = 5.19332 6.12560 5.67862
#
# Compressibility (1/GPa) = 0.03552693
#
# Stress axis : x y z
#
# Youngs Moduli (GPa) = 46.74515 53.39505 78.40621
#
# Poissons Ratio (x) = 0.38113 0.11183
# Poissons Ratio (y) = 0.33366 0.00861
# Poissons Ratio (z) = 0.06667 0.00586
#
# Static dielectric constant tensor:
#      x y z
#    x 2.386400 0.088040 0.012750 
#    y 0.088040 2.057760 0.032570 
#    z 0.012750 0.032570 2.001330 
# 
# From -- ./inp_files/599375.got.cif
#   From: 2010.05.17/outbox.cif.g08.bks.cpg/sg2_300_cif.got.tgz:599375.got - 2010.06.03 11:33:40.
