data_PCOD9055504
_publ_section_title
;
Structure prediction by ZEFSAII (Michael W. Deem and Ramdas Pophale) SiO2 
 PCOD9055504
Probable space group: P -1
;
_chemical_formula_sum "Si O2"
_cell_formula_units_Z 16
_cell_length_a 17.748014
_cell_length_b 8.690715
_cell_length_c 12.233245
_cell_angle_alpha 149.798244
_cell_angle_beta 138.355294
_cell_angle_gamma 52.646746
_cell_volume 626.415230
_symmetry_space_group_name_H-M "P -1"
_symmetry_group_IT_number 2
_symmetry_cell_setting 'triclinic'
loop_
_space_group_symop_operation_xyz
x,y,z
-x,-y,-z
loop_
_atom_site_type_symbol
_atom_site_label
_atom_site_fract_x
_atom_site_fract_y
_atom_site_fract_z
Si Si1 0.133709 0.289851 0.095413
Si Si2 0.933482 0.050393 0.569984
Si Si3 0.605502 0.856544 0.087621
Si Si4 0.490596 0.139467 0.798370
Si Si5 0.128850 0.424358 0.625352
Si Si6 0.639660 0.194575 0.801696
Si Si7 0.282930 0.957152 0.893725
Si Si8 0.198449 0.245037 0.374649
O O1 0.134184 0.654383 0.325243
O O2 0.130809 0.165583 0.140260
O O3 0.025779 0.146463 0.823294
O O4 0.235277 0.192733 0.070721
O O5 0.876331 0.727610 0.354702
O O6 0.000000 0.000000 0.500000
O O7 0.611728 0.967811 0.291970
O O8 0.600297 0.489003 0.876927
O O9 0.703333 0.928058 0.145389
O O10 0.500000 0.000000 0.000000
O O11 0.500000 0.500000 0.000000
O O12 0.541033 0.026114 0.669913
O O13 0.594106 0.096552 0.963996
O O14 0.248323 0.658100 0.912189
O O15 0.149983 0.184551 0.404886
O O16 0.000000 0.500000 0.500000
O O17 0.690135 0.932199 0.623625
O O18 0.214457 0.617499 0.616948
#
# Coordination Sequence:
#
# PCOD9055504 Si02
#       8
#     2   2   2   2   2   2   2   2
#     4  11  24  42  68  98 141 183 221 287 338 397
#     4  11  26  44  67 101 139 181 231 281 336 407
#     4   9  22  41  73  95 133 181 228 287 345 405
#     4   9  18  42  67  92 131 178 221 283 339 395
#     4  12  26  43  68 102 137 184 229 275 338 413
#     4  11  23  42  71  99 138 181 226 284 344 400
#     4  11  21  42  67  98 137 180 218 281 345 401
#     4  12  24  42  68 101 139 181 229 276 338 413
#
# _framework density 25.542162999999999
#
# number of rings (size 3 to 8) (size 9 to 14) (size 15 to 20)
#    0.000    1.250    2.500    3.000    5.250    3.000 
#    0.000    6.250    0.000    0.000    0.000    0.000 
#    0.000    0.000    0.000    0.000    0.000    0.000 
#
# Total GULP energy -89202.110586 kJ/mol
# GULP energy per Si atom -5575.131912 kJ/mol
# Density = 2.548403 g / cm^3
# Si number density = 25.542163 Si / 1000 Ang^3
#
#
#
# Elastic Constant Matrix: (Units=GPa)
#
#
# Indices 1 2 3 4 5 6 
#
# 1 177.6370 50.1332 45.3327 6.8859 -49.8787 28.2761
# 2 50.1332 166.2424 34.1174 9.7612 -18.2751 2.0991
# 3 45.3327 34.1174 90.7713 2.8742 -18.6499 -4.8170
# 4 6.8859 9.7612 2.8742 31.7985 -5.9367 -8.0163
# 5 -49.8787 -18.2751 -18.6499 -5.9367 46.7025 2.2348
# 6 28.2761 2.0991 -4.8170 -8.0163 2.2348 54.1912
#
#
#
# Elastic Compliance Matrix: (Units=1/GPa)
#
#
# Indices 1 2 3 4 5 6 
#
# 1 0.010569 -0.001330 -0.003086 -0.001397 0.009661 -0.006342
# 2 -0.001330 0.006922 -0.001812 -0.001603 0.000360 0.000013
# 3 -0.003086 -0.001812 0.013660 0.001010 0.001436 0.002985
# 4 -0.001397 -0.001603 0.001010 0.034055 0.002335 0.005822
# 5 0.009661 0.000360 0.001436 0.002335 0.033025 -0.005944
# 6 -0.006342 0.000013 0.002985 0.005822 -0.005944 0.023134
#
#
# Mechanical properties :
#
#
# Convention : Reuss Voigt Hill
#
# Bulk Modulus (GPa) = 53.48893 77.09081 65.28987
# Shear Modulus (GPa) = 35.70116 46.87626 41.28871
#
# Velocity S-wave (km/s) = 3.74268 4.28863 4.02492
# Velocity P-wave (km/s) = 6.29792 7.40070 6.87147
#
# Compressibility (1/GPa) = 0.01869546
#
# Stress axis : x y z
#
# Youngs Moduli (GPa) = 94.62048 144.47196 73.20484
#
# Poissons Ratio (x) = 0.19211 0.22589
# Poissons Ratio (y) = 0.12582 0.13265
# Poissons Ratio (z) = 0.29198 0.26179
#
# Static dielectric constant tensor:
#      x y z
#    x 2.156960 -0.018350 -0.001940 
#    y -0.018350 2.061850 -0.076450 
#    z -0.001940 -0.076450 2.063760 
# 
# From -- ./inp_files/135294.got.cif
#   From: 2010.05.17/outbox.cif.g08.bks.cpg/sg2_68_cif.got.tgz:135294.got - 2010.06.03 11:33:40.
