data_PCOD9055171
_publ_section_title
;
Structure prediction by ZEFSAII (Michael W. Deem and Ramdas Pophale) SiO2 
 PCOD9055171
Probable space group: P -1
;
_chemical_formula_sum "Si O2"
_cell_formula_units_Z 16
_cell_length_a 8.259310
_cell_length_b 21.630394
_cell_length_c 8.685327
_cell_angle_alpha 126.635400
_cell_angle_beta 34.051205
_cell_angle_gamma 126.772334
_cell_volume 678.167142
_symmetry_space_group_name_H-M "P -1"
_symmetry_group_IT_number 2
_symmetry_cell_setting 'triclinic'
loop_
_space_group_symop_operation_xyz
x,y,z
-x,-y,-z
loop_
_atom_site_type_symbol
_atom_site_label
_atom_site_fract_x
_atom_site_fract_y
_atom_site_fract_z
Si Si1 0.280158 0.178249 0.670769
Si Si2 0.644575 0.085523 0.082319
Si Si3 0.743810 0.549215 0.269703
Si Si4 0.302360 0.570248 0.381322
Si Si5 0.830104 0.708723 0.625627
Si Si6 0.662422 0.983800 0.199375
Si Si7 0.431681 0.812537 0.199145
Si Si8 0.175793 0.340573 0.085358
O O1 0.485444 0.157432 0.342142
O O2 0.392555 0.173635 0.753491
O O3 0.215397 0.264757 0.845961
O O4 0.969621 0.115426 0.804468
O O5 0.649387 0.055016 0.205390
O O6 0.500000 0.000000 0.000000
O O7 0.500000 0.500000 0.500000
O O8 0.559337 0.554044 0.266423
O O9 0.835870 0.636777 0.400176
O O10 0.000000 0.500000 0.000000
O O11 0.503544 0.598422 0.111564
O O12 0.000000 0.500000 0.500000
O O13 0.130722 0.634900 0.678503
O O14 0.093304 0.781899 0.473375
O O15 0.536632 0.742602 0.922589
O O16 0.867757 0.679454 0.727907
O O17 0.517431 0.891449 0.143638
O O18 0.500000 0.000000 0.500000
O O19 0.000000 0.000000 0.000000
#
# Coordination Sequence:
#
# PCOD9055171 Si02
#       8
#     2   2   2   2   2   2   2   2
#     4  11  22  42  68  93 136 179 229 281 349 411
#     4  12  24  42  63  98 134 181 229 288 350 411
#     4  12  27  49  73 104 148 185 223 289 356 414
#     4  12  26  47  75 109 144 183 238 281 342 427
#     4  11  24  43  70 100 139 178 231 280 353 405
#     4  12  22  40  68  95 131 177 238 285 339 402
#     4  11  21  40  69  98 130 179 234 287 334 414
#     4  11  24  45  73 104 136 187 236 290 343 421
#
# _framework density 23.593005000000002
#
# number of rings (size 3 to 8) (size 9 to 14) (size 15 to 20)
#    0.000    0.500    2.500    7.500    0.000    3.000 
#    6.750    0.000    0.000    0.000    0.000    0.000 
#    0.000    0.000    0.000    0.000    0.000    0.000 
#
# Total GULP energy -89310.948583 kJ/mol
# GULP energy per Si atom -5581.934286 kJ/mol
# Density = 2.353931 g / cm^3
# Si number density = 23.593005 Si / 1000 Ang^3
#
#
#
# Elastic Constant Matrix: (Units=GPa)
#
#
# Indices 1 2 3 4 5 6 
#
# 1 26.8546 7.2481 18.6912 12.9671 -14.6339 4.8133
# 2 7.2481 97.4981 14.2311 -0.2086 -4.5695 10.9040
# 3 18.6912 14.2311 136.3593 3.2021 -23.1849 1.4669
# 4 12.9671 -0.2086 3.2021 68.3829 1.5175 -0.4449
# 5 -14.6339 -4.5695 -23.1849 1.5175 18.3222 4.2837
# 6 4.8133 10.9040 1.4669 -0.4449 4.2837 33.6890
#
#
#
# Elastic Compliance Matrix: (Units=1/GPa)
#
#
# Indices 1 2 3 4 5 6 
#
# 1 0.100111 -0.000693 0.002587 -0.021294 0.090909 -0.026032
# 2 -0.000693 0.010917 -0.000629 0.000121 0.002225 -0.003688
# 3 0.002587 -0.000629 0.009610 -0.001286 0.014756 -0.002478
# 4 -0.021294 0.000121 -0.001286 0.019241 -0.021615 0.006062
# 5 0.090909 0.002225 0.014756 -0.021615 0.156272 -0.034507
# 6 -0.026032 -0.003688 -0.002478 0.006062 -0.034507 0.039172
#
#
# Mechanical properties :
#
#
# Convention : Reuss Voigt Hill
#
# Bulk Modulus (GPa) = 8.11906 37.89476 23.00691
# Shear Modulus (GPa) = 13.37433 38.78160 26.07797
#
# Velocity S-wave (km/s) = 2.38350 4.05875 3.32825
# Velocity P-wave (km/s) = 3.32017 6.16939 4.95403
#
# Compressibility (1/GPa) = 0.12316698
#
# Stress axis : x y z
#
# Youngs Moduli (GPa) = 9.98893 91.60002 104.05369
#
# Poissons Ratio (x) = 0.06352 -0.26918
# Poissons Ratio (y) = 0.00693 0.06546
# Poissons Ratio (z) = -0.02584 0.05763
#
# Static dielectric constant tensor:
#      x y z
#    x 1.814110 -0.085560 -0.067710 
#    y -0.085560 1.945650 0.034450 
#    z -0.067710 0.034450 1.753740 
# 
# From -- ./inp_files/226427.got.cif
#   From: 2010.05.17/outbox.cif.g08.bks.cpg/sg2_114_cif.got.tgz:226427.got - 2010.06.03 11:33:40.
