data_PCOD9055901
_publ_section_title
;
Structure prediction by ZEFSAII (Michael W. Deem and Ramdas Pophale) SiO2 
 PCOD9055901
Probable space group: P -1
;
_chemical_formula_sum "Si O2"
_cell_formula_units_Z 16
_cell_length_a 19.629727
_cell_length_b 8.888870
_cell_length_c 6.076248
_cell_angle_alpha 114.085235
_cell_angle_beta 128.554168
_cell_angle_gamma 55.314626
_cell_volume 679.414240
_symmetry_space_group_name_H-M "P -1"
_symmetry_group_IT_number 2
_symmetry_cell_setting 'triclinic'
loop_
_space_group_symop_operation_xyz
x,y,z
-x,-y,-z
loop_
_atom_site_type_symbol
_atom_site_label
_atom_site_fract_x
_atom_site_fract_y
_atom_site_fract_z
Si Si1 0.001352 0.139704 0.898389
Si Si2 0.751800 0.691199 0.507100
Si Si3 0.415791 0.303564 0.523989
Si Si4 0.725672 0.438365 0.933503
Si Si5 0.454340 0.974109 0.117420
Si Si6 0.774107 0.880006 0.290779
Si Si7 0.116890 0.502351 0.970154
Si Si8 0.840772 0.111177 0.266124
O O1 0.911847 0.182390 0.572706
O O2 0.987253 0.325951 0.106395
O O3 0.093538 0.040854 0.868229
O O4 0.000000 0.000000 0.000000
O O5 0.671057 0.724815 0.548296
O O6 0.721218 0.595616 0.189043
O O7 0.767564 0.853145 0.522095
O O8 0.848535 0.566920 0.756343
O O9 0.494304 0.242733 0.841659
O O10 0.471709 0.129175 0.379402
O O11 0.364857 0.480780 0.370635
O O12 0.818654 0.403578 0.948841
O O13 0.752982 0.265417 0.043556
O O14 0.500000 0.000000 0.000000
O O15 0.339379 0.047294 0.951403
O O16 0.848901 0.683306 0.215963
O O17 0.805270 0.025794 0.340446
#
# Coordination Sequence:
#
# PCOD9055901 Si02
#       8
#     2   2   2   2   2   2   2   2
#     4  11  23  43  64  90 118 169 210 246 308 389
#     4  10  17  36  59  85 119 162 207 239 303 364
#     4  10  19  32  61  91 115 167 212 244 291 377
#     4  10  18  36  60  88 116 164 208 240 304 374
#     4  11  19  34  59  93 127 159 210 254 300 363
#     4  11  23  38  59  98 125 158 203 267 308 347
#     4  10  20  38  65  87 117 164 212 241 307 374
#     4  11  25  39  63  92 128 155 207 263 311 361
#
# _framework density 23.549696000000001
#
# number of rings (size 3 to 8) (size 9 to 14) (size 15 to 20)
#    0.000    1.500    7.500    0.000    0.000    1.500 
#    0.000    1.875    0.000    3.000    0.000    0.875 
#    0.000    0.000    0.000    0.000    0.000    0.000 
#
# Total GULP energy -89088.332067 kJ/mol
# GULP energy per Si atom -5568.020754 kJ/mol
# Density = 2.349610 g / cm^3
# Si number density = 23.549696 Si / 1000 Ang^3
#
#
#
# Elastic Constant Matrix: (Units=GPa)
#
#
# Indices 1 2 3 4 5 6 
#
# 1 61.5507 24.6798 10.2909 1.8988 -23.0007 2.7337
# 2 24.6798 110.3758 31.9371 -32.9078 -4.7130 -0.6827
# 3 10.2909 31.9371 65.2341 -20.6228 -8.0692 -3.6519
# 4 1.8988 -32.9078 -20.6228 32.3766 7.7785 -12.4889
# 5 -23.0007 -4.7130 -8.0692 7.7785 29.5053 -5.1178
# 6 2.7337 -0.6827 -3.6519 -12.4889 -5.1178 31.7492
#
#
#
# Elastic Compliance Matrix: (Units=1/GPa)
#
#
# Indices 1 2 3 4 5 6 
#
# 1 0.036577 -0.015270 -0.005733 -0.033566 0.031221 -0.012308
# 2 -0.015270 0.020772 0.000683 0.030319 -0.014407 0.011444
# 3 -0.005733 0.000683 0.022605 0.019933 -0.001578 0.010695
# 4 -0.033566 0.030319 0.019933 0.100116 -0.035413 0.039508
# 5 0.031221 -0.014407 -0.001578 -0.035413 0.063645 -0.006850
# 6 -0.012308 0.011444 0.010695 0.039508 -0.006850 0.048470
#
#
# Mechanical properties :
#
#
# Convention : Reuss Voigt Hill
#
# Bulk Modulus (GPa) = 25.43678 41.21959 33.32818
# Shear Modulus (GPa) = 14.45387 30.07641 22.26514
#
# Velocity S-wave (km/s) = 2.48011 3.57760 3.07816
# Velocity P-wave (km/s) = 4.36188 5.88276 5.17846
#
# Compressibility (1/GPa) = 0.03931316
#
# Stress axis : x y z
#
# Youngs Moduli (GPa) = 27.33959 48.14236 44.23894
#
# Poissons Ratio (x) = 0.73515 0.25361
# Poissons Ratio (y) = 0.41748 -0.03021
# Poissons Ratio (z) = 0.15673 -0.03288
#
# Static dielectric constant tensor:
#      x y z
#    x 1.883230 0.030690 -0.005520 
#    y 0.030690 1.987870 -0.087540 
#    z -0.005520 -0.087540 2.212880 
# 
# From -- ./inp_files/112229.got.cif
#   From: 2010.05.17/outbox.cif.g08.bks.cpg/sg2_57_cif.got.tgz:112229.got - 2010.06.03 11:33:40.
