data_PCOD9055537
_publ_section_title
;
Structure prediction by ZEFSAII (Michael W. Deem and Ramdas Pophale) SiO2 
 PCOD9055537
Probable space group: P -1
;
_chemical_formula_sum "Si O2"
_cell_formula_units_Z 15
_cell_length_a 8.995215
_cell_length_b 11.378091
_cell_length_c 17.065759
_cell_angle_alpha 46.554844
_cell_angle_beta 49.387248
_cell_angle_gamma 83.470722
_cell_volume 765.876623
_symmetry_space_group_name_H-M "P -1"
_symmetry_group_IT_number 2
_symmetry_cell_setting 'triclinic'
loop_
_space_group_symop_operation_xyz
x,y,z
-x,-y,-z
loop_
_atom_site_type_symbol
_atom_site_label
_atom_site_fract_x
_atom_site_fract_y
_atom_site_fract_z
Si Si1 0.067579 0.928315 0.129726
Si Si2 0.743180 0.460966 0.823606
Si Si3 0.382057 0.176979 0.762476
Si Si4 0.947259 0.523465 0.418869
Si Si5 0.829783 0.785169 0.897657
Si Si6 0.000000 0.500000 0.000000
Si Si7 0.175362 0.157190 0.301420
Si Si8 0.678255 0.208908 0.099048
O O1 0.826073 0.816097 0.208835
O O2 0.076091 0.757416 0.245176
O O3 0.054612 0.054591 0.145029
O O4 0.293002 0.087700 0.921927
O O5 0.771932 0.632083 0.789435
O O6 0.935118 0.549555 0.646526
O O7 0.463487 0.324648 0.951259
O O8 0.790160 0.331108 0.923103
O O9 0.653631 0.385819 0.572294
O O10 0.377164 0.007152 0.793610
O O11 0.000000 0.500000 0.500000
O O12 0.922923 0.891716 0.731402
O O13 0.878871 0.618995 0.963936
O O14 0.852718 0.339885 0.050790
O O15 0.424423 0.179203 0.208133
O O16 0.000000 0.000000 0.500000
#
# Coordination Sequence:
#
# PCOD9055537 Si02
#       8
#     2   2   2   2   2   1   2   2
#     4  11  25  44  67  97 131 174 216 268 326 382
#     4  11  22  42  64  93 127 175 215 267 323 380
#     4  11  24  45  68  95 130 177 211 270 329 382
#     4  12  27  42  67  98 132 171 225 268 316 384
#     4  11  23  41  69  92 128 167 218 268 319 388
#     4  12  20  42  68  96 122 162 220 260 326 388
#     4  11  23  40  62  93 131 167 214 265 322 386
#     4  11  21  42  69  92 127 169 216 263 326 388
#
# _framework density 19.585398999999999
#
# number of rings (size 3 to 8) (size 9 to 14) (size 15 to 20)
#    0.000    0.800    5.333    2.800    5.600    1.067 
#    0.000    2.000    0.000    0.000    0.000    0.000 
#    0.000    0.000    0.000    0.000    0.000    0.000 
#
# Total GULP energy -83561.107003 kJ/mol
# GULP energy per Si atom -5570.740467 kJ/mol
# Density = 1.954082 g / cm^3
# Si number density = 19.585399 Si / 1000 Ang^3
#
#
#
# Elastic Constant Matrix: (Units=GPa)
#
#
# Indices 1 2 3 4 5 6 
#
# 1 78.3153 9.8149 22.0931 6.9545 7.9938 10.4587
# 2 9.8149 86.5177 13.6622 10.1379 13.4060 11.2206
# 3 22.0931 13.6622 74.6298 22.2332 8.0897 12.0620
# 4 6.9545 10.1379 22.2332 34.3349 -3.0013 4.3158
# 5 7.9938 13.4060 8.0897 -3.0013 19.7704 -3.2504
# 6 10.4587 11.2206 12.0620 4.3158 -3.2504 35.7512
#
#
#
# Elastic Compliance Matrix: (Units=1/GPa)
#
#
# Indices 1 2 3 4 5 6 
#
# 1 0.014742 0.000332 -0.002770 -0.001320 -0.005887 -0.003858
# 2 0.000332 0.014591 0.001058 -0.005436 -0.012188 -0.005485
# 3 -0.002770 0.001058 0.019929 -0.012874 -0.010636 -0.005658
# 4 -0.001320 -0.005436 -0.012874 0.040362 0.016113 0.003029
# 5 -0.005887 -0.012188 -0.010636 0.016113 0.070256 0.013579
# 6 -0.003858 -0.005485 -0.005658 0.003029 0.013579 0.033599
#
#
# Mechanical properties :
#
#
# Convention : Reuss Voigt Hill
#
# Bulk Modulus (GPa) = 21.50461 36.73369 29.11915
# Shear Modulus (GPa) = 23.61398 30.89749 27.25574
#
# Velocity S-wave (km/s) = 3.47608 3.97618 3.73451
# Velocity P-wave (km/s) = 5.20716 6.31478 5.78753
#
# Compressibility (1/GPa) = 0.04650166
#
# Stress axis : x y z
#
# Youngs Moduli (GPa) = 67.83300 68.53771 50.17871
#
# Poissons Ratio (x) = -0.02278 0.13899
# Poissons Ratio (y) = -0.02254 -0.05308
# Poissons Ratio (z) = 0.18790 -0.07250
#
# Static dielectric constant tensor:
#      x y z
#    x 1.683290 -0.004600 0.021840 
#    y -0.004600 1.690040 0.006290 
#    z 0.021840 0.006290 1.700860 
# 
# From -- ./inp_files/255889.got.cif
#   From: 2010.05.17/outbox.cif.g08.bks.cpg/sg2_128_cif.got.tgz:255889.got - 2010.06.03 11:33:40.
