data_PCOD9055799
_publ_section_title
;
Structure prediction by ZEFSAII (Michael W. Deem and Ramdas Pophale) SiO2 
 PCOD9055799
Probable space group: P -1
;
_chemical_formula_sum "Si O2"
_cell_formula_units_Z 14
_cell_length_a 11.964930
_cell_length_b 9.038889
_cell_length_c 9.148536
_cell_angle_alpha 59.451793
_cell_angle_beta 49.841334
_cell_angle_gamma 54.346922
_cell_volume 600.314611
_symmetry_space_group_name_H-M "P -1"
_symmetry_group_IT_number 2
_symmetry_cell_setting 'triclinic'
loop_
_space_group_symop_operation_xyz
x,y,z
-x,-y,-z
loop_
_atom_site_type_symbol
_atom_site_label
_atom_site_fract_x
_atom_site_fract_y
_atom_site_fract_z
Si Si1 0.910617 0.199575 0.401566
Si Si2 0.383503 0.292881 0.752408
Si Si3 0.136744 0.408787 0.124343
Si Si4 0.502926 0.252352 0.344918
Si Si5 0.871685 0.182365 0.095541
Si Si6 0.443091 0.129039 0.174884
Si Si7 0.588517 0.356794 0.768679
O O1 0.901204 0.174392 0.248913
O O2 0.740395 0.276243 0.581046
O O3 0.991359 0.345754 0.294578
O O4 0.000000 0.000000 0.500000
O O5 0.419656 0.291294 0.553679
O O6 0.443740 0.418859 0.741793
O O7 0.494197 0.085148 0.815809
O O8 0.205107 0.350877 0.929657
O O9 0.276810 0.265433 0.180117
O O10 0.114918 0.622211 0.064257
O O11 0.693150 0.188360 0.220712
O O12 0.447240 0.127413 0.347616
O O13 0.427529 0.456469 0.231184
O O14 0.000000 0.000000 0.000000
O O15 0.570464 0.209776 0.969613
#
# Coordination Sequence:
#
# PCOD9055799 Si02
#       7
#     2   2   2   2   2   2   2
#     4  12  26  47  73 104 142 185 233 285 349 419
#     4  11  21  43  72 102 132 178 234 282 336 416
#     4  11  25  48  71 103 141 184 236 281 345 420
#     4  12  24  44  71 103 138 178 235 285 347 406
#     4  12  28  47  70 100 147 186 227 295 355 402
#     4  11  24  42  73 105 136 176 228 293 344 407
#     4  11  22  44  74  95 135 187 232 276 341 417
#
# _framework density 23.321103999999998
#
# number of rings (size 3 to 8) (size 9 to 14) (size 15 to 20)
#    0.000    0.571    4.286    6.000    4.000    0.000 
#    2.571    1.429    0.000    0.000    0.000    0.000 
#    0.000    0.000    0.000    0.000    0.000    0.000 
#
# Total GULP energy -78316.323288 kJ/mol
# GULP energy per Si atom -5594.023092 kJ/mol
# Density = 2.326802 g / cm^3
# Si number density = 23.321104 Si / 1000 Ang^3
#
#
#
# Elastic Constant Matrix: (Units=GPa)
#
#
# Indices 1 2 3 4 5 6 
#
# 1 58.7664 8.0410 21.1722 -0.1168 7.6613 -1.0027
# 2 8.0410 120.3330 8.0950 -0.9162 13.5401 -6.9265
# 3 21.1722 8.0950 105.5886 9.8895 1.1295 -5.8502
# 4 -0.1168 -0.9162 9.8895 43.4267 -4.6399 5.8283
# 5 7.6613 13.5401 1.1295 -4.6399 37.5195 2.5318
# 6 -1.0027 -6.9265 -5.8502 5.8283 2.5318 33.0005
#
#
#
# Elastic Compliance Matrix: (Units=1/GPa)
#
#
# Indices 1 2 3 4 5 6 
#
# 1 0.018906 -0.000621 -0.003759 0.000532 -0.003454 -0.000051
# 2 -0.000621 0.008859 -0.000371 -0.000357 -0.003244 0.002087
# 3 -0.003759 -0.000371 0.010626 -0.002718 0.000099 0.002164
# 4 0.000532 -0.000357 -0.002718 0.024709 0.003507 -0.005174
# 5 -0.003454 -0.003244 0.000099 0.003507 0.029204 -0.003628
# 6 -0.000051 0.002087 0.002164 -0.005174 -0.003628 0.032315
#
#
# Mechanical properties :
#
#
# Convention : Reuss Voigt Hill
#
# Bulk Modulus (GPa) = 34.61386 39.92271 37.26828
# Shear Modulus (GPa) = 34.78222 39.28132 37.03177
#
# Velocity S-wave (km/s) = 3.86612 4.10856 3.98918
# Velocity P-wave (km/s) = 5.89946 6.29785 6.10191
#
# Compressibility (1/GPa) = 0.02889016
#
# Stress axis : x y z
#
# Youngs Moduli (GPa) = 52.89247 112.87773 94.10619
#
# Poissons Ratio (x) = 0.07006 0.35375
# Poissons Ratio (y) = 0.03283 0.03491
# Poissons Ratio (z) = 0.19883 0.04187
#
# Static dielectric constant tensor:
#      x y z
#    x 1.956340 -0.040080 -0.012250 
#    y -0.040080 1.884940 -0.035690 
#    z -0.012250 -0.035690 1.913070 
# 
# From -- ./inp_files/158492.got.cif
#   From: 2010.05.17/outbox.cif.g08.bks.cpg/sg2_80_cif.got.tgz:158492.got - 2010.06.03 11:33:40.
