data_PCOD9055254
_publ_section_title
;
Structure prediction by ZEFSAII (Michael W. Deem and Ramdas Pophale) SiO2 
 PCOD9055254
Probable space group: P -1
;
_chemical_formula_sum "Si O2"
_cell_formula_units_Z 16
_cell_length_a 5.196234
_cell_length_b 9.312801
_cell_length_c 13.934479
_cell_angle_alpha 78.413250
_cell_angle_beta 68.078821
_cell_angle_gamma 75.533038
_cell_volume 601.361228
_symmetry_space_group_name_H-M "P -1"
_symmetry_group_IT_number 2
_symmetry_cell_setting 'triclinic'
loop_
_space_group_symop_operation_xyz
x,y,z
-x,-y,-z
loop_
_atom_site_type_symbol
_atom_site_label
_atom_site_fract_x
_atom_site_fract_y
_atom_site_fract_z
Si Si1 0.545944 0.942321 0.362747
Si Si2 0.271356 0.734412 0.981610
Si Si3 0.602429 0.525067 0.130169
Si Si4 0.118445 0.425713 0.336009
Si Si5 0.014194 0.868089 0.684336
Si Si6 0.343492 0.362768 0.523039
Si Si7 0.371934 0.035576 0.118435
Si Si8 0.755208 0.782211 0.173556
O O1 0.487072 0.795407 0.443983
O O2 0.765070 0.859069 0.262741
O O3 0.260718 0.041377 0.346494
O O4 0.726143 0.047979 0.377039
O O5 0.472817 0.642217 0.048387
O O6 0.993715 0.816429 0.064037
O O7 0.205454 0.611537 0.933172
O O8 0.430865 0.849075 0.891398
O O9 0.351652 0.462383 0.225301
O O10 0.753938 0.609447 0.177764
O O11 0.955034 0.304092 0.328278
O O12 0.255988 0.355414 0.425860
O O13 0.931983 0.580230 0.379809
O O14 0.925871 0.885836 0.807515
O O15 0.500000 0.500000 0.500000
O O16 0.446351 0.870670 0.173999
O O17 0.500000 0.000000 0.000000
#
# Coordination Sequence:
#
# PCOD9055254 Si02
#       8
#     2   2   2   2   2   2   2   2
#     4  11  27  48  77 106 151 190 245 294 371 433
#     4  11  22  39  61 102 137 190 237 292 349 423
#     4  11  23  42  65 100 141 183 236 296 361 421
#     4  11  26  47  74 104 148 186 244 308 367 438
#     4  11  27  49  72 111 147 198 239 305 358 438
#     4  11  27  48  78 109 138 189 242 306 376 443
#     4  11  21  41  64  97 145 185 248 281 353 416
#     4  11  23  39  68  97 140 190 237 292 351 426
#
# _framework density 26.606304999999999
#
# number of rings (size 3 to 8) (size 9 to 14) (size 15 to 20)
#    0.000    1.000    2.500    3.000   10.500    2.000 
#    0.000    0.000    0.000    0.000    0.000    0.000 
#    0.000    0.000    0.000    0.000    0.000    0.000 
#
# Total GULP energy -89536.157160 kJ/mol
# GULP energy per Si atom -5596.009822 kJ/mol
# Density = 2.654575 g / cm^3
# Si number density = 26.606305 Si / 1000 Ang^3
#
#
#
# Elastic Constant Matrix: (Units=GPa)
#
#
# Indices 1 2 3 4 5 6 
#
# 1 84.6447 32.9113 9.0939 -9.6719 1.2701 8.6780
# 2 32.9113 149.8378 48.3646 10.1980 13.0701 18.2197
# 3 9.0939 48.3646 78.5219 17.1047 -1.1157 -0.1170
# 4 -9.6719 10.1980 17.1047 51.7992 5.2182 0.5154
# 5 1.2701 13.0701 -1.1157 5.2182 28.7858 -4.2450
# 6 8.6780 18.2197 -0.1170 0.5154 -4.2450 61.1285
#
#
#
# Elastic Compliance Matrix: (Units=1/GPa)
#
#
# Indices 1 2 3 4 5 6 
#
# 1 0.013474 -0.002884 -0.000497 0.003264 -0.000056 -0.001086
# 2 -0.002884 0.010016 -0.005908 -0.000019 -0.005080 -0.002940
# 3 -0.000497 -0.005908 0.017645 -0.005249 0.004669 0.002234
# 4 0.003264 -0.000019 -0.005249 0.022114 -0.004490 -0.000966
# 5 -0.000056 -0.005080 0.004669 -0.004490 0.038671 0.004254
# 6 -0.001086 -0.002940 0.002234 -0.000966 0.004254 0.017697
#
#
# Mechanical properties :
#
#
# Convention : Reuss Voigt Hill
#
# Bulk Modulus (GPa) = 44.33401 54.86046 49.59723
# Shear Modulus (GPa) = 34.31375 43.18499 38.74937
#
# Velocity S-wave (km/s) = 3.59511 4.03316 3.82042
# Velocity P-wave (km/s) = 5.82514 6.50789 6.17596
#
# Compressibility (1/GPa) = 0.02255605
#
# Stress axis : x y z
#
# Youngs Moduli (GPa) = 74.21630 99.83884 56.67396
#
# Poissons Ratio (x) = 0.28796 0.02819
# Poissons Ratio (y) = 0.21406 0.33482
# Poissons Ratio (z) = 0.03692 0.58982
#
# Static dielectric constant tensor:
#      x y z
#    x 2.108680 -0.022340 0.057660 
#    y -0.022340 2.048230 0.003460 
#    z 0.057660 0.003460 2.179720 
# 
# From -- ./inp_files/49340.got.cif
#   From: 2010.05.17/outbox.cif.g08.bks.cpg/sg2_25_cif.got.tgz:49340.got - 2010.06.03 11:33:40.
