data_PCOD9055337
_publ_section_title
;
Structure prediction by ZEFSAII (Michael W. Deem and Ramdas Pophale) SiO2 
 PCOD9055337
Probable space group: P -1
;
_chemical_formula_sum "Si O2"
_cell_formula_units_Z 16
_cell_length_a 9.425677
_cell_length_b 12.221468
_cell_length_c 9.361707
_cell_angle_alpha 78.331765
_cell_angle_beta 62.704018
_cell_angle_gamma 113.738114
_cell_volume 771.713709
_symmetry_space_group_name_H-M "P -1"
_symmetry_group_IT_number 2
_symmetry_cell_setting 'triclinic'
loop_
_space_group_symop_operation_xyz
x,y,z
-x,-y,-z
loop_
_atom_site_type_symbol
_atom_site_label
_atom_site_fract_x
_atom_site_fract_y
_atom_site_fract_z
Si Si1 0.878092 0.603263 0.499379
Si Si2 0.670014 0.256383 0.081298
Si Si3 0.300748 0.697388 0.365833
Si Si4 0.657880 0.888208 0.938725
Si Si5 0.956503 0.183375 0.852221
Si Si6 0.710358 0.530244 0.910784
Si Si7 0.074835 0.206677 0.101132
Si Si8 0.682158 0.152204 0.396429
O O1 0.739008 0.449267 0.546348
O O2 0.818622 0.597301 0.693176
O O3 0.102462 0.652610 0.388187
O O4 0.885983 0.712902 0.363253
O O5 0.673953 0.241943 0.252235
O O6 0.465521 0.134469 0.140005
O O7 0.840326 0.244062 0.950295
O O8 0.700017 0.394593 0.979663
O O9 0.490369 0.792006 0.157019
O O10 0.314116 0.781809 0.474047
O O11 0.796664 0.836627 0.871905
O O12 0.795911 0.041579 0.889589
O O13 0.048104 0.166747 0.957243
O O14 0.814701 0.632839 0.966698
O O15 0.500000 0.500000 0.000000
O O16 0.868317 0.147561 0.284668
O O17 0.500000 0.000000 0.500000
#
# Coordination Sequence:
#
# PCOD9055337 Si02
#       8
#     2   2   2   2   2   2   2   2
#     4  11  22  40  66 100 125 175 229 280 322 401
#     4  11  23  41  70  97 130 182 224 271 342 402
#     4  11  21  41  68  94 135 169 225 277 330 396
#     4  12  23  46  68  97 138 182 222 280 343 405
#     4  11  25  40  69  99 131 177 236 271 335 404
#     4  12  23  46  67  99 140 178 224 282 348 399
#     4  11  25  44  67  95 143 178 215 286 349 393
#     4  11  26  43  67 102 136 176 231 281 334 404
#
# _framework density 20.733077999999999
#
# number of rings (size 3 to 8) (size 9 to 14) (size 15 to 20)
#    0.000    0.750    5.000    3.000    3.500    1.000 
#    4.500    2.500    0.000    0.000    0.000    0.000 
#    0.000    0.000    0.000    0.000    0.000    0.000 
#
# Total GULP energy -89435.355468 kJ/mol
# GULP energy per Si atom -5589.709717 kJ/mol
# Density = 2.068589 g / cm^3
# Si number density = 20.733078 Si / 1000 Ang^3
#
#
#
# Elastic Constant Matrix: (Units=GPa)
#
#
# Indices 1 2 3 4 5 6 
#
# 1 61.0972 -13.2991 20.7607 8.0577 -11.7967 -4.6759
# 2 -13.2991 85.6404 17.1219 -5.9606 -5.7021 4.8629
# 3 20.7607 17.1219 60.3769 -5.2750 -20.2486 -6.7893
# 4 8.0577 -5.9606 -5.2750 26.8543 7.4991 -0.7164
# 5 -11.7967 -5.7021 -20.2486 7.4991 20.4015 -4.3036
# 6 -4.6759 4.8629 -6.7893 -0.7164 -4.3036 25.4450
#
#
#
# Elastic Compliance Matrix: (Units=1/GPa)
#
#
# Indices 1 2 3 4 5 6 
#
# 1 0.023807 0.004651 -0.004842 -0.011223 0.015328 0.004471
# 2 0.004651 0.013794 -0.005926 0.000475 -0.000227 -0.003388
# 3 -0.004842 -0.005926 0.031463 -0.001783 0.030320 0.013716
# 4 -0.011223 0.000475 -0.001783 0.047716 -0.026897 -0.005835
# 5 0.015328 -0.000227 0.030320 -0.026897 0.103643 0.027722
# 6 0.004471 -0.003388 0.013716 -0.005835 0.027722 0.048954
#
#
# Mechanical properties :
#
#
# Convention : Reuss Voigt Hill
#
# Bulk Modulus (GPa) = 17.59690 28.47572 23.03631
# Shear Modulus (GPa) = 16.63589 26.70890 21.67239
#
# Velocity S-wave (km/s) = 2.83571 3.59308 3.23663
# Velocity P-wave (km/s) = 4.38491 5.56578 5.01026
#
# Compressibility (1/GPa) = 0.05682820
#
# Stress axis : x y z
#
# Youngs Moduli (GPa) = 42.00465 72.49458 31.78324
#
# Poissons Ratio (x) = -0.33715 0.15390
# Poissons Ratio (y) = -0.19535 0.18836
# Poissons Ratio (z) = 0.20339 0.42964
#
# Static dielectric constant tensor:
#      x y z
#    x 1.528270 -0.593800 0.497180 
#    y -0.593800 0.035330 1.331440 
#    z 0.497180 1.331440 0.710500 
# 
# From -- ./inp_files/185797.got.cif
#   From: 2010.05.17/outbox.cif.g08.bks.cpg/sg2_93_cif.got.tgz:185797.got - 2010.06.03 11:33:40.
