data_PCOD9055362
_publ_section_title
;
Structure prediction by ZEFSAII (Michael W. Deem and Ramdas Pophale) SiO2 
 PCOD9055362
Probable space group: P -1
;
_chemical_formula_sum "Si O2"
_cell_formula_units_Z 16
_cell_length_a 8.787964
_cell_length_b 8.252732
_cell_length_c 14.149898
_cell_angle_alpha 95.438619
_cell_angle_beta 68.183724
_cell_angle_gamma 51.541314
_cell_volume 666.860395
_symmetry_space_group_name_H-M "P -1"
_symmetry_group_IT_number 2
_symmetry_cell_setting 'triclinic'
loop_
_space_group_symop_operation_xyz
x,y,z
-x,-y,-z
loop_
_atom_site_type_symbol
_atom_site_label
_atom_site_fract_x
_atom_site_fract_y
_atom_site_fract_z
Si Si1 0.198928 0.253569 0.297341
Si Si2 0.304439 0.584211 0.830209
Si Si3 0.441372 0.319859 0.113577
Si Si4 0.298585 0.278712 0.550027
Si Si5 0.038848 0.162687 0.785316
Si Si6 0.420862 0.677308 0.609854
Si Si7 0.588443 0.822705 0.275129
Si Si8 0.841357 0.961276 0.877633
O O1 0.399941 0.215139 0.197527
O O2 0.980573 0.525827 0.382231
O O3 0.324461 0.075152 0.345576
O O4 0.128353 0.162127 0.232878
O O5 0.399348 0.643254 0.887257
O O6 0.387844 0.612104 0.713695
O O7 0.404012 0.333618 0.806891
O O8 0.026097 0.758615 0.898614
O O9 0.184880 0.571567 0.170385
O O10 0.578289 0.145207 0.985033
O O11 0.374222 0.337238 0.448652
O O12 0.333516 0.316921 0.652346
O O13 0.500000 0.000000 0.500000
O O14 0.228320 0.158751 0.780134
O O15 0.929992 0.085183 0.859491
O O16 0.190389 0.952557 0.660942
O O17 0.500000 0.500000 0.500000
#
# Coordination Sequence:
#
# PCOD9055362 Si02
#       8
#     2   2   2   2   2   2   2   2
#     4  12  25  45  72 103 138 178 231 280 339 413
#     4  11  24  43  67 102 141 173 233 284 329 413
#     4  12  24  44  69 102 135 181 228 284 348 400
#     4  12  23  45  70  99 141 181 223 281 341 401
#     4  11  23  44  66  99 141 175 227 289 332 409
#     4  11  21  41  69  94 135 185 219 280 345 394
#     4  12  24  45  68  99 142 179 224 281 336 398
#     4  11  23  45  71  97 138 180 224 288 344 404
#
# _framework density 23.993029
#
# number of rings (size 3 to 8) (size 9 to 14) (size 15 to 20)
#    0.000    0.500    5.000    4.125    0.000    0.500 
#    2.250    3.125    0.000    0.000    0.000    0.000 
#    0.000    0.000    0.000    0.000    0.000    0.000 
#
# Total GULP energy -89173.270109 kJ/mol
# GULP energy per Si atom -5573.329382 kJ/mol
# Density = 2.393842 g / cm^3
# Si number density = 23.993029 Si / 1000 Ang^3
#
#
#
# Elastic Constant Matrix: (Units=GPa)
#
#
# Indices 1 2 3 4 5 6 
#
# 1 108.5955 34.2692 22.3662 12.9225 5.1369 8.6061
# 2 34.2692 115.2354 37.5181 32.7647 -6.2338 -11.9900
# 3 22.3662 37.5181 117.4546 25.8158 -19.8407 -0.5477
# 4 12.9225 32.7647 25.8158 22.0383 -0.8316 -7.2047
# 5 5.1369 -6.2338 -19.8407 -0.8316 28.1324 3.2219
# 6 8.6061 -11.9900 -0.5477 -7.2047 3.2219 51.3228
#
#
#
# Elastic Compliance Matrix: (Units=1/GPa)
#
#
# Indices 1 2 3 4 5 6 
#
# 1 0.010925 -0.002794 -0.001440 -0.001510 -0.003388 -0.002499
# 2 -0.002794 0.016006 0.001225 -0.023207 0.004155 0.000702
# 3 -0.001440 0.001225 0.014023 -0.017825 0.010179 -0.002464
# 4 -0.001510 -0.023207 -0.017825 0.104416 -0.015528 0.010274
# 5 -0.003388 0.004155 0.010179 -0.015528 0.044184 -0.003306
# 6 -0.002499 0.000702 -0.002464 0.010274 -0.003306 0.021691
#
#
# Mechanical properties :
#
#
# Convention : Reuss Voigt Hill
#
# Bulk Modulus (GPa) = 28.62376 58.84359 43.73368
# Shear Modulus (GPa) = 21.84286 36.77415 29.30850
#
# Velocity S-wave (km/s) = 3.02053 3.91922 3.49885
# Velocity P-wave (km/s) = 4.91129 6.71259 5.88131
#
# Compressibility (1/GPa) = 0.03493601
#
# Stress axis : x y z
#
# Youngs Moduli (GPa) = 91.53509 62.47606 71.31384
#
# Poissons Ratio (x) = 0.17455 0.10268
# Poissons Ratio (y) = 0.25574 -0.08736
# Poissons Ratio (z) = 0.13180 -0.07654
#
# Static dielectric constant tensor:
#      x y z
#    x 1.967740 0.034240 0.070310 
#    y 0.034240 1.955920 0.002020 
#    z 0.070310 0.002020 2.012980 
# 
# From -- ./inp_files/495182.got.cif
#   From: 2010.05.17/outbox.cif.g08.bks.cpg/sg2_248_cif.got.tgz:495182.got - 2010.06.03 11:33:40.
