data_PCOD9055750
_publ_section_title
;
Structure prediction by ZEFSAII (Michael W. Deem and Ramdas Pophale) SiO2 
 PCOD9055750
Probable space group: P -1
;
_chemical_formula_sum "Si O2"
_cell_formula_units_Z 16
_cell_length_a 9.296219
_cell_length_b 25.127133
_cell_length_c 9.172173
_cell_angle_alpha 129.496475
_cell_angle_beta 122.310091
_cell_angle_gamma 26.508964
_cell_volume 734.180842
_symmetry_space_group_name_H-M "P -1"
_symmetry_group_IT_number 2
_symmetry_cell_setting 'triclinic'
loop_
_space_group_symop_operation_xyz
x,y,z
-x,-y,-z
loop_
_atom_site_type_symbol
_atom_site_label
_atom_site_fract_x
_atom_site_fract_y
_atom_site_fract_z
Si Si1 0.383059 0.967546 0.947642
Si Si2 0.699236 0.586415 0.385869
Si Si3 0.821709 0.589019 0.916439
Si Si4 0.430440 0.225326 0.472009
Si Si5 0.269374 0.607916 0.191847
Si Si6 0.718842 0.125802 0.770285
Si Si7 0.468892 0.083035 0.715301
Si Si8 0.282460 0.520329 0.337895
O O1 0.571217 0.838140 0.749994
O O2 0.432480 0.954802 0.126550
O O3 0.021630 0.068905 0.879987
O O4 0.500000 0.000000 0.000000
O O5 0.511228 0.721825 0.483304
O O6 0.460877 0.610092 0.353531
O O7 0.000000 0.500000 0.500000
O O8 0.897449 0.492909 0.188458
O O9 0.606407 0.595976 0.773271
O O10 0.589951 0.730405 0.075741
O O11 0.000000 0.500000 0.000000
O O12 0.661096 0.139397 0.588735
O O13 0.074428 0.353518 0.569270
O O14 0.265609 0.551928 0.218120
O O15 0.904241 0.759351 0.219382
O O16 0.500000 0.500000 0.000000
O O17 0.708189 0.054374 0.713286
O O18 0.500000 0.000000 0.500000
O O19 0.500000 0.500000 0.500000
#
# Coordination Sequence:
#
# PCOD9055750 Si02
#       8
#     2   2   2   2   2   2   2   2
#     4  12  31  47  76 107 140 193 255 298 359 441
#     4  11  25  41  68 109 144 184 234 300 361 432
#     4  11  21  43  70 101 140 188 235 285 378 427
#     4  11  25  48  70 102 148 193 239 294 366 432
#     4  12  26  43  75 108 148 184 242 303 364 425
#     4  12  25  50  75 101 149 195 243 300 364 437
#     4  12  29  51  76 108 150 195 246 302 373 436
#     4  11  24  42  70 105 146 186 235 299 364 436
#
# _framework density 21.792995000000001
#
# number of rings (size 3 to 8) (size 9 to 14) (size 15 to 20)
#    0.000    0.500    3.750    4.500   10.500    1.000 
#    0.000    0.000    0.000    0.000    0.000    0.000 
#    0.000    0.000    0.000    0.000    0.000    0.000 
#
# Total GULP energy -89418.379188 kJ/mol
# GULP energy per Si atom -5588.648699 kJ/mol
# Density = 2.174339 g / cm^3
# Si number density = 21.792995 Si / 1000 Ang^3
#
#
#
# Elastic Constant Matrix: (Units=GPa)
#
#
# Indices 1 2 3 4 5 6 
#
# 1 141.7937 35.5613 40.5054 -9.4500 37.5573 8.2076
# 2 35.5613 75.1824 38.5658 -16.6973 2.4833 -2.0725
# 3 40.5054 38.5658 150.8645 -5.9379 15.7921 15.6655
# 4 -9.4500 -16.6973 -5.9379 53.3371 -1.6000 2.1329
# 5 37.5573 2.4833 15.7921 -1.6000 41.5426 -7.8028
# 6 8.2076 -2.0725 15.6655 2.1329 -7.8028 36.9410
#
#
#
# Elastic Compliance Matrix: (Units=1/GPa)
#
#
# Indices 1 2 3 4 5 6 
#
# 1 0.011654 -0.005176 -0.000083 0.000309 -0.011164 -0.005221
# 2 -0.005176 0.018992 -0.004500 0.004511 0.006409 0.005217
# 3 -0.000083 -0.004500 0.008678 -0.000385 -0.003854 -0.004706
# 4 0.000309 0.004511 -0.000385 0.020210 0.000231 -0.000770
# 5 -0.011164 0.006409 -0.003854 0.000231 0.037584 0.012400
# 6 -0.005221 0.005217 -0.004706 -0.000770 0.012400 0.033182
#
#
# Mechanical properties :
#
#
# Convention : Reuss Voigt Hill
#
# Bulk Modulus (GPa) = 50.49242 66.34508 58.41875
# Shear Modulus (GPa) = 31.96488 43.24468 37.60478
#
# Velocity S-wave (km/s) = 3.83397 4.45942 4.15847
# Velocity P-wave (km/s) = 6.54359 7.55147 7.06552
#
# Compressibility (1/GPa) = 0.01980495
#
# Stress axis : x y z
#
# Youngs Moduli (GPa) = 85.80596 52.65408 115.23370
#
# Poissons Ratio (x) = 0.27256 0.00955
# Poissons Ratio (y) = 0.44417 0.51858
# Poissons Ratio (z) = 0.00711 0.23695
#
# Static dielectric constant tensor:
#      x y z
#    x 1.756780 0.003870 0.034420 
#    y 0.003870 1.804960 -0.008070 
#    z 0.034420 -0.008070 1.864330 
# 
# From -- ./inp_files/226535.got.cif
#   From: 2010.05.17/outbox.cif.g08.bks.cpg/sg2_114_cif.got.tgz:226535.got - 2010.06.03 11:33:40.
