data_PCOD9055547
_publ_section_title
;
Structure prediction by ZEFSAII (Michael W. Deem and Ramdas Pophale) SiO2 
 PCOD9055547
Probable space group: P -1
;
_chemical_formula_sum "Si O2"
_cell_formula_units_Z 16
_cell_length_a 9.346225
_cell_length_b 17.715380
_cell_length_c 21.516356
_cell_angle_alpha 161.318687
_cell_angle_beta 37.876184
_cell_angle_gamma 141.986515
_cell_volume 685.847669
_symmetry_space_group_name_H-M "P -1"
_symmetry_group_IT_number 2
_symmetry_cell_setting 'triclinic'
loop_
_space_group_symop_operation_xyz
x,y,z
-x,-y,-z
loop_
_atom_site_type_symbol
_atom_site_label
_atom_site_fract_x
_atom_site_fract_y
_atom_site_fract_z
Si Si1 0.090574 0.168376 0.759831
Si Si2 0.046031 0.620803 0.205201
Si Si3 0.627075 0.985083 0.010167
Si Si4 0.231572 0.460664 0.423894
Si Si5 0.623418 0.805675 0.627509
Si Si6 0.028654 0.556217 0.768418
Si Si7 0.355907 0.135697 0.517931
Si Si8 0.861869 0.225566 0.463128
O O1 0.280812 0.168118 0.640670
O O2 0.843299 0.017565 0.698096
O O3 0.140372 0.012248 0.680630
O O4 0.072416 0.427958 0.993527
O O5 0.049370 0.501982 0.179538
O O6 0.797127 0.706821 0.346009
O O7 0.251507 0.859282 0.319925
O O8 0.486943 0.083482 0.189547
O O9 0.882614 0.163866 0.056667
O O10 0.500000 0.000000 0.000000
O O11 0.645797 0.709795 0.794058
O O12 0.410078 0.698712 0.571077
O O13 0.000000 0.500000 0.500000
O O14 0.112523 0.307219 0.405155
O O15 0.745467 0.576699 0.420176
O O16 0.849855 0.429441 0.678241
O O17 0.640195 0.194361 0.468278
#
# Coordination Sequence:
#
# PCOD9055547 Si02
#       8
#     2   2   2   2   2   2   2   2
#     4  11  24  43  70  99 127 172 227 269 323 394
#     4  11  24  43  70  97 128 176 223 265 334 393
#     4  12  22  40  72  95 126 181 223 265 330 395
#     4  12  28  44  64 100 141 174 217 277 338 393
#     4  11  23  41  68  97 133 168 224 275 320 390
#     4  11  21  42  69  96 134 172 225 274 318 399
#     4  11  25  45  67  96 136 171 214 281 329 380
#     4  11  24  45  67  95 138 172 216 278 327 384
#
# _framework density 23.328795
#
# number of rings (size 3 to 8) (size 9 to 14) (size 15 to 20)
#    0.000    0.750    5.000    4.125    1.750    1.000 
#    4.500    0.000    0.000    0.000    0.000    0.000 
#    0.000    0.000    0.000    0.000    0.000    0.000 
#
# Total GULP energy -89580.716049 kJ/mol
# GULP energy per Si atom -5598.794753 kJ/mol
# Density = 2.327570 g / cm^3
# Si number density = 23.328795 Si / 1000 Ang^3
#
#
#
# Elastic Constant Matrix: (Units=GPa)
#
#
# Indices 1 2 3 4 5 6 
#
# 1 112.5420 17.0635 30.2741 3.9554 21.2464 29.6851
# 2 17.0635 83.9352 21.8428 5.0119 16.2555 15.8554
# 3 30.2741 21.8428 140.8168 10.3127 37.0144 14.9960
# 4 3.9554 5.0119 10.3127 20.3821 -0.5859 11.9983
# 5 21.2464 16.2555 37.0144 -0.5859 25.4300 4.0325
# 6 29.6851 15.8554 14.9960 11.9983 4.0325 46.4319
#
#
#
# Elastic Compliance Matrix: (Units=1/GPa)
#
#
# Indices 1 2 3 4 5 6 
#
# 1 0.012693 0.000768 0.000779 0.001369 -0.010924 -0.008034
# 2 0.000768 0.014513 0.001020 -0.001997 -0.010764 -0.004326
# 3 0.000779 0.001020 0.012511 -0.006376 -0.019413 -0.001553
# 4 0.001369 -0.001997 -0.006376 0.061889 0.013262 -0.015279
# 5 -0.010924 -0.010764 -0.019413 0.013262 0.082894 0.006303
# 6 -0.008034 -0.004326 -0.001553 -0.015279 0.006303 0.032053
#
#
# Mechanical properties :
#
#
# Convention : Reuss Voigt Hill
#
# Bulk Modulus (GPa) = 22.29618 52.85053 37.57335
# Shear Modulus (GPa) = 22.08775 36.32304 29.20540
#
# Velocity S-wave (km/s) = 3.08035 3.95017 3.54206
# Velocity P-wave (km/s) = 4.71482 6.59613 5.73317
#
# Compressibility (1/GPa) = 0.04485074
#
# Stress axis : x y z
#
# Youngs Moduli (GPa) = 78.78479 68.90231 79.92899
#
# Poissons Ratio (x) = -0.05294 -0.06223
# Poissons Ratio (y) = -0.06054 -0.08151
# Poissons Ratio (z) = -0.06134 -0.07026
#
# Static dielectric constant tensor:
#      x y z
#    x 1.889700 -0.038510 -0.004380 
#    y -0.038510 1.933110 0.007140 
#    z -0.004380 0.007140 1.828110 
# 
# From -- ./inp_files/447874.got.cif
#   From: 2010.05.17/outbox.cif.g08.bks.cpg/sg2_224_cif.got.tgz:447874.got - 2010.06.03 11:33:40.
