data_PCOD9055404
_publ_section_title
;
Structure prediction by ZEFSAII (Michael W. Deem and Ramdas Pophale) SiO2 
 PCOD9055404
Probable space group: P -1
;
_chemical_formula_sum "Si O2"
_cell_formula_units_Z 12
_cell_length_a 7.372962
_cell_length_b 15.930807
_cell_length_c 4.933459
_cell_angle_alpha 116.903350
_cell_angle_beta 68.437836
_cell_angle_gamma 115.467586
_cell_volume 455.651006
_symmetry_space_group_name_H-M "P -1"
_symmetry_group_IT_number 2
_symmetry_cell_setting 'triclinic'
loop_
_space_group_symop_operation_xyz
x,y,z
-x,-y,-z
loop_
_atom_site_type_symbol
_atom_site_label
_atom_site_fract_x
_atom_site_fract_y
_atom_site_fract_z
Si Si1 0.761304 0.719828 0.581690
Si Si2 0.069782 0.074110 0.321160
Si Si3 0.385871 0.606890 0.248922
Si Si4 0.194153 0.487197 0.710853
Si Si5 0.534891 0.111351 0.229175
Si Si6 0.600529 0.223968 0.864610
O O1 0.957546 0.817842 0.553187
O O2 0.604528 0.671794 0.349599
O O3 0.825825 0.626089 0.506901
O O4 0.613408 0.751652 0.923270
O O5 0.311286 0.117564 0.303496
O O6 0.000000 0.000000 0.500000
O O7 0.000000 0.000000 0.000000
O O8 0.251286 0.553191 0.503527
O O9 0.293843 0.683704 0.251640
O O10 0.377707 0.530078 0.896106
O O11 0.000000 0.500000 0.000000
O O12 0.573020 0.129930 0.550098
O O13 0.675220 0.193917 0.066819
O O14 0.500000 0.000000 0.000000
#
# Coordination Sequence:
#
# PCOD9055404 Si02
#       6
#     2   2   2   2   2   2
#     4  11  25  45  75  97 137 188 245 269 332 432
#     4  11  24  43  65  98 137 179 225 280 341 403
#     4  12  23  46  74  96 137 185 237 274 334 432
#     4  12  28  45  68 109 144 174 224 300 359 395
#     4  11  23  43  68  99 139 173 236 293 330 406
#     4  11  21  41  71 101 127 180 239 273 331 406
#
# _framework density 26.335946
#
# number of rings (size 3 to 8) (size 9 to 14) (size 15 to 20)
#    0.000    0.667    5.000    4.000    2.333    0.000 
#    9.000    0.000    0.000    0.000    0.000    0.000 
#    0.000    0.000    0.000    0.000    0.000    0.000 
#
# Total GULP energy -66989.687197 kJ/mol
# GULP energy per Si atom -5582.473933 kJ/mol
# Density = 2.627600 g / cm^3
# Si number density = 26.335946 Si / 1000 Ang^3
#
#
#
# Elastic Constant Matrix: (Units=GPa)
#
#
# Indices 1 2 3 4 5 6 
#
# 1 38.9263 18.5549 6.7470 -14.3461 0.0098 14.2769
# 2 18.5549 261.9067 92.2826 -4.0313 3.4282 -28.3241
# 3 6.7470 92.2826 175.2890 -5.2991 18.6408 -11.0878
# 4 -14.3461 -4.0313 -5.2991 66.2592 -9.4004 9.7236
# 5 0.0098 3.4282 18.6408 -9.4004 39.2803 2.8175
# 6 14.2769 -28.3241 -11.0878 9.7236 2.8175 39.9845
#
#
#
# Elastic Compliance Matrix: (Units=1/GPa)
#
#
# Indices 1 2 3 4 5 6 
#
# 1 0.040490 -0.004879 -0.000519 0.012300 0.005141 -0.021411
# 2 -0.004879 0.005592 -0.002450 -0.001731 -0.000130 0.005454
# 3 -0.000519 -0.002450 0.007423 -0.000275 -0.003433 0.000817
# 4 0.012300 -0.001731 -0.000275 0.020074 0.005870 -0.010989
# 5 0.005141 -0.000130 -0.003433 0.005870 0.028957 -0.006348
# 6 -0.021411 0.005454 0.000817 -0.010989 -0.006348 0.039864
#
#
# Mechanical properties :
#
#
# Convention : Reuss Voigt Hill
#
# Bulk Modulus (GPa) = 26.44879 79.03231 52.74055
# Shear Modulus (GPa) = 29.29145 53.00731 41.14938
#
# Velocity S-wave (km/s) = 3.33862 4.49122 3.95711
# Velocity P-wave (km/s) = 4.99264 7.54779 6.39905
#
# Compressibility (1/GPa) = 0.03780891
#
# Stress axis : x y z
#
# Youngs Moduli (GPa) = 24.69768 178.83269 134.71766
#
# Poissons Ratio (x) = 0.87254 0.06993
# Poissons Ratio (y) = 0.12050 0.33001
# Poissons Ratio (z) = 0.01282 0.43807
#
# Static dielectric constant tensor:
#      x y z
#    x 2.108910 -0.099100 0.066150 
#    y -0.099100 2.530590 -0.075900 
#    z 0.066150 -0.075900 1.966460 
# 
# From -- ./inp_files/45692.got.cif
#   From: 2010.05.17/outbox.cif.g08.bks.cpg/sg2_23_cif.got.tgz:45692.got - 2010.06.03 11:33:40.
