data_PCOD9055304
_publ_section_title
;
Structure prediction by ZEFSAII (Michael W. Deem and Ramdas Pophale) SiO2 
 PCOD9055304
Probable space group: P -1
;
_chemical_formula_sum "Si O2"
_cell_formula_units_Z 16
_cell_length_a 11.130058
_cell_length_b 14.595308
_cell_length_c 14.994431
_cell_angle_alpha 39.030408
_cell_angle_beta 32.756121
_cell_angle_gamma 38.389865
_cell_volume 766.632892
_symmetry_space_group_name_H-M "P -1"
_symmetry_group_IT_number 2
_symmetry_cell_setting 'triclinic'
loop_
_space_group_symop_operation_xyz
x,y,z
-x,-y,-z
loop_
_atom_site_type_symbol
_atom_site_label
_atom_site_fract_x
_atom_site_fract_y
_atom_site_fract_z
Si Si1 0.728699 0.592611 0.496905
Si Si2 0.085630 0.538588 0.016390
Si Si3 0.228194 0.548571 0.608325
Si Si4 0.196755 0.809406 0.693038
Si Si5 0.901720 0.864349 0.671569
Si Si6 0.722566 0.896019 0.502241
Si Si7 0.102632 0.696659 0.267354
Si Si8 0.455110 0.221950 0.121473
O O1 0.798653 0.473955 0.460989
O O2 0.460382 0.719861 0.553239
O O3 0.748870 0.481126 0.654425
O O4 0.915571 0.676793 0.328335
O O5 0.286618 0.382138 0.053577
O O6 0.855848 0.571843 0.195343
O O7 0.182369 0.676258 0.868156
O O8 0.000000 0.500000 0.000000
O O9 0.500000 0.500000 0.500000
O O10 0.069234 0.722182 0.611456
O O11 0.976367 0.816853 0.761916
O O12 0.186418 0.977266 0.604058
O O13 0.627658 0.901850 0.788037
O O14 0.000000 0.000000 0.500000
O O15 0.625690 0.803976 0.707270
O O16 0.931987 0.790367 0.384852
O O17 0.500000 0.000000 0.500000
O O18 0.279655 0.777448 0.057939
#
# Coordination Sequence:
#
# PCOD9055304 Si02
#       8
#     2   2   2   2   2   2   2   2
#     4  11  23  44  68 103 135 181 234 290 340 413
#     4  11  21  41  67 103 138 178 228 286 346 416
#     4  11  22  38  68 100 133 178 234 284 344 412
#     4  12  22  44  69  95 143 176 227 287 353 403
#     4  11  22  41  67 100 142 180 219 289 358 406
#     4  12  27  48  69 101 143 189 226 287 352 414
#     4  11  25  46  72  99 140 184 238 286 343 416
#     4  11  24  44  75 101 141 183 236 283 346 423
#
# _framework density 20.870484999999999
#
# number of rings (size 3 to 8) (size 9 to 14) (size 15 to 20)
#    0.000    0.750    7.500    1.500    0.000    1.500 
#    4.500    5.000    0.000    0.000    0.000    0.000 
#    0.000    0.000    0.000    0.000    0.000    0.000 
#
# Total GULP energy -89073.915157 kJ/mol
# GULP energy per Si atom -5567.119697 kJ/mol
# Density = 2.082298 g / cm^3
# Si number density = 20.870485 Si / 1000 Ang^3
#
#
#
# Elastic Constant Matrix: (Units=GPa)
#
#
# Indices 1 2 3 4 5 6 
#
# 1 98.3434 9.1496 45.0079 3.6963 -14.4942 6.3555
# 2 9.1496 58.5383 22.0454 -7.4712 -9.4808 11.3697
# 3 45.0079 22.0454 147.8191 -8.9652 -36.3397 -2.8950
# 4 3.6963 -7.4712 -8.9652 31.0587 -1.6316 -6.5497
# 5 -14.4942 -9.4808 -36.3397 -1.6316 38.2948 -9.9115
# 6 6.3555 11.3697 -2.8950 -6.5497 -9.9115 30.5030
#
#
#
# Elastic Compliance Matrix: (Units=1/GPa)
#
#
# Indices 1 2 3 4 5 6 
#
# 1 0.012397 -0.000156 -0.004142 -0.003534 -0.000414 -0.003812
# 2 -0.000156 0.019911 -0.002760 0.002584 0.000573 -0.006910
# 3 -0.004142 -0.002760 0.011623 0.005392 0.011009 0.007730
# 4 -0.003534 0.002584 0.005392 0.037643 0.008941 0.011273
# 5 -0.000414 0.000573 0.011009 0.008941 0.041118 0.016198
# 6 -0.003812 -0.006910 0.007730 0.011273 0.016198 0.044571
#
#
# Mechanical properties :
#
#
# Convention : Reuss Voigt Hill
#
# Bulk Modulus (GPa) = 33.53939 50.78963 42.16451
# Shear Modulus (GPa) = 26.13480 35.20449 30.66964
#
# Velocity S-wave (km/s) = 3.54254 4.11153 3.83759
# Velocity P-wave (km/s) = 5.73043 6.85040 6.31530
#
# Compressibility (1/GPa) = 0.02981568
#
# Stress axis : x y z
#
# Youngs Moduli (GPa) = 80.66649 50.22269 86.03941
#
# Poissons Ratio (x) = 0.00781 0.35639
# Poissons Ratio (y) = 0.01254 0.23745
# Poissons Ratio (z) = 0.33413 0.13860
#
# Static dielectric constant tensor:
#      x y z
#    x 1.853540 -0.098270 0.117140 
#    y -0.098270 1.856930 -0.112980 
#    z 0.117140 -0.112980 1.848220 
# 
# From -- ./inp_files/521420.got.cif
#   From: 2010.05.17/outbox.cif.g08.bks.cpg/sg2_261_cif.got.tgz:521420.got - 2010.06.03 11:33:40.
