data_PCOD9055917
_publ_section_title
;
Structure prediction by ZEFSAII (Michael W. Deem and Ramdas Pophale) SiO2 
 PCOD9055917
Probable space group: P -1
;
_chemical_formula_sum "Si O2"
_cell_formula_units_Z 15
_cell_length_a 12.253019
_cell_length_b 17.069745
_cell_length_c 8.898544
_cell_angle_alpha 105.114673
_cell_angle_beta 95.960508
_cell_angle_gamma 149.518696
_cell_volume 675.855476
_symmetry_space_group_name_H-M "P -1"
_symmetry_group_IT_number 2
_symmetry_cell_setting 'triclinic'
loop_
_space_group_symop_operation_xyz
x,y,z
-x,-y,-z
loop_
_atom_site_type_symbol
_atom_site_label
_atom_site_fract_x
_atom_site_fract_y
_atom_site_fract_z
Si Si1 0.329589 0.936105 0.268361
Si Si2 0.174347 0.890410 0.912233
Si Si3 0.837960 0.069705 0.484287
Si Si4 0.923245 0.893213 0.790712
Si Si5 0.000000 0.000000 0.500000
Si Si6 0.687762 0.248151 0.948214
Si Si7 0.740354 0.537197 0.461065
Si Si8 0.996358 0.436836 0.609923
O O1 0.679625 0.179122 0.441706
O O2 0.215875 0.899048 0.382956
O O3 0.224792 0.773642 0.135951
O O4 0.217294 0.914033 0.105345
O O5 0.069600 0.907248 0.855911
O O6 0.937779 0.665545 0.702702
O O7 0.475534 0.075896 0.967599
O O8 0.923769 0.042020 0.548092
O O9 0.095741 0.283589 0.526883
O O10 0.534096 0.855251 0.242610
O O11 0.574506 0.650848 0.628792
O O12 0.007074 0.980728 0.678914
O O13 0.000000 0.000000 0.000000
O O14 0.930829 0.465941 0.177107
O O15 0.764503 0.468910 0.341821
O O16 0.000000 0.500000 0.500000
#
# Coordination Sequence:
#
# PCOD9055917 Si02
#       8
#     2   2   2   2   1   2   2   2
#     4  12  24  46  71 109 149 191 248 305 374 447
#     4  11  21  44  71 102 143 195 238 302 377 431
#     4  11  26  48  71 105 154 194 246 314 367 442
#     4  12  26  48  75 105 150 195 249 310 367 444
#     4  12  26  48  76 110 140 198 256 306 364 444
#     4  11  22  44  69 105 149 192 239 306 375 440
#     4  11  25  47  72 103 147 199 240 300 384 437
#     4  12  24  39  74 110 141 195 251 297 374 456
#
# _framework density 22.194092000000001
#
# number of rings (size 3 to 8) (size 9 to 14) (size 15 to 20)
#    0.000    0.533    6.667    3.600    1.867    0.533 
#    2.400    1.333    0.000    0.000    0.000    0.000 
#    0.000    0.000    0.000    0.000    0.000    0.000 
#
# Total GULP energy -83644.734366 kJ/mol
# GULP energy per Si atom -5576.315624 kJ/mol
# Density = 2.214358 g / cm^3
# Si number density = 22.194092 Si / 1000 Ang^3
#
#
#
# Elastic Constant Matrix: (Units=GPa)
#
#
# Indices 1 2 3 4 5 6 
#
# 1 163.6693 33.2440 36.0211 -19.3082 -4.5157 -17.4258
# 2 33.2440 81.6683 51.1925 -19.5159 9.6767 2.5989
# 3 36.0211 51.1925 134.3244 -18.9193 -16.1181 -7.5190
# 4 -19.3082 -19.5159 -18.9193 29.6268 0.0381 1.6124
# 5 -4.5157 9.6767 -16.1181 0.0381 44.5263 -14.5818
# 6 -17.4258 2.5989 -7.5190 1.6124 -14.5818 35.6984
#
#
#
# Elastic Compliance Matrix: (Units=1/GPa)
#
#
# Indices 1 2 3 4 5 6 
#
# 1 0.007675 -0.003145 0.000214 0.002778 0.003247 0.005221
# 2 -0.003145 0.022468 -0.008572 0.007840 -0.011610 -0.010073
# 3 0.000214 -0.008572 0.012338 0.001994 0.008554 0.006731
# 4 0.002778 0.007840 0.001994 0.042065 -0.001112 -0.001149
# 5 0.003247 -0.011610 0.008554 -0.001112 0.034414 0.018339
# 6 0.005221 -0.010073 0.006731 -0.001149 0.018339 0.040255
#
#
# Mechanical properties :
#
#
# Convention : Reuss Voigt Hill
#
# Bulk Modulus (GPa) = 51.35068 68.95302 60.15185
# Shear Modulus (GPa) = 26.49509 39.25059 32.87284
#
# Velocity S-wave (km/s) = 3.45888 4.20993 3.85275
# Velocity P-wave (km/s) = 6.25612 7.40047 6.85223
#
# Compressibility (1/GPa) = 0.01947394
#
# Stress axis : x y z
#
# Youngs Moduli (GPa) = 130.29543 44.50813 81.04786
#
# Poissons Ratio (x) = 0.13998 -0.01731
# Poissons Ratio (y) = 0.40977 0.69476
# Poissons Ratio (z) = -0.02783 0.38153
#
# Static dielectric constant tensor:
#      x y z
#    x 1.816710 -0.004230 -0.018000 
#    y -0.004230 1.849270 -0.013860 
#    z -0.018000 -0.013860 1.863080 
# 
# From -- ./inp_files/278148.got.cif
#   From: 2010.05.17/outbox.cif.g08.bks.cpg/sg2_140_cif.got.tgz:278148.got - 2010.06.03 11:33:40.
