data_PCOD9055802
_publ_section_title
;
Structure prediction by ZEFSAII (Michael W. Deem and Ramdas Pophale) SiO2 
 PCOD9055802
Probable space group: P -1
;
_chemical_formula_sum "Si O2"
_cell_formula_units_Z 16
_cell_length_a 10.651425
_cell_length_b 10.611932
_cell_length_c 8.022746
_cell_angle_alpha 105.137318
_cell_angle_beta 123.243218
_cell_angle_gamma 56.985385
_cell_volume 635.052714
_symmetry_space_group_name_H-M "P -1"
_symmetry_group_IT_number 2
_symmetry_cell_setting 'triclinic'
loop_
_space_group_symop_operation_xyz
x,y,z
-x,-y,-z
loop_
_atom_site_type_symbol
_atom_site_label
_atom_site_fract_x
_atom_site_fract_y
_atom_site_fract_z
Si Si1 0.457473 0.222494 0.380453
Si Si2 0.315268 0.584329 0.091477
Si Si3 0.873439 0.546908 0.265489
Si Si4 0.817867 0.467920 0.670482
Si Si5 0.114253 0.005281 0.835732
Si Si6 0.761434 0.087087 0.751102
Si Si7 0.324754 0.697042 0.689453
Si Si8 0.316840 0.153460 0.933854
O O1 0.328252 0.367627 0.441705
O O2 0.596463 0.089411 0.549826
O O3 0.584581 0.261085 0.379220
O O4 0.338243 0.206015 0.150958
O O5 0.242354 0.553058 0.199573
O O6 0.296599 0.745793 0.163411
O O7 0.511416 0.450947 0.167654
O O8 0.199184 0.565746 0.859346
O O9 0.000000 0.500000 0.500000
O O10 0.000450 0.539655 0.207563
O O11 0.718341 0.719480 0.185962
O O12 0.805900 0.349094 0.501053
O O13 0.231164 0.839109 0.790024
O O14 0.163434 0.015555 0.067124
O O15 0.916740 0.044312 0.718551
O O16 0.165757 0.111325 0.807510
O O17 0.500000 0.000000 0.000000
#
# Coordination Sequence:
#
# PCOD9055802 Si02
#       8
#     2   2   2   2   2   2   2   2
#     4  11  22  43  72 102 136 190 241 291 353 429
#     4  11  21  45  71  97 144 181 235 295 352 421
#     4  12  28  44  70 109 138 183 246 302 351 416
#     4  11  22  41  73 104 134 187 239 294 357 415
#     4  11  27  44  68 104 149 190 229 294 364 428
#     4  11  25  45  68 107 144 184 241 294 358 422
#     4  11  21  43  72 102 134 187 241 287 351 430
#     4  12  25  49  72 100 149 192 232 289 367 435
#
# _framework density 25.194758
#
# number of rings (size 3 to 8) (size 9 to 14) (size 15 to 20)
#    0.000    0.750    6.250    1.875    3.500    4.500 
#    2.250    0.000    0.000    0.000    0.000    0.000 
#    0.000    0.000    0.000    0.000    0.000    0.000 
#
# Total GULP energy -89581.503949 kJ/mol
# GULP energy per Si atom -5598.843997 kJ/mol
# Density = 2.513741 g / cm^3
# Si number density = 25.194758 Si / 1000 Ang^3
#
#
#
# Elastic Constant Matrix: (Units=GPa)
#
#
# Indices 1 2 3 4 5 6 
#
# 1 68.4598 39.2031 22.3849 5.8666 16.7912 4.1767
# 2 39.2031 71.2598 13.7073 0.8378 5.8290 -14.5093
# 3 22.3849 13.7073 125.5651 -4.8394 10.5775 -4.8325
# 4 5.8666 0.8378 -4.8394 40.3796 0.7333 6.5655
# 5 16.7912 5.8290 10.5775 0.7333 29.2944 -1.6264
# 6 4.1767 -14.5093 -4.8325 6.5655 -1.6264 26.1256
#
#
#
# Elastic Compliance Matrix: (Units=1/GPa)
#
#
# Indices 1 2 3 4 5 6 
#
# 1 0.030578 -0.018397 -0.002973 -0.001549 -0.013649 -0.016116
# 2 -0.018397 0.027433 0.000468 -0.001021 0.005992 0.018893
# 3 -0.002973 0.000468 0.008685 0.001171 -0.001446 0.001957
# 4 -0.001549 -0.001021 0.001171 0.026251 -0.000362 -0.006722
# 5 -0.013649 0.005992 -0.001446 -0.000362 0.041739 0.007932
# 6 -0.016116 0.018893 0.001957 -0.006722 0.007932 0.053891
#
#
# Mechanical properties :
#
#
# Convention : Reuss Voigt Hill
#
# Bulk Modulus (GPa) = 40.17430 46.20836 43.19133
# Shear Modulus (GPa) = 20.94878 31.82588 26.38733
#
# Velocity S-wave (km/s) = 2.88666 3.55800 3.23977
# Velocity P-wave (km/s) = 5.20485 5.93797 5.58345
#
# Compressibility (1/GPa) = 0.02489154
#
# Stress axis : x y z
#
# Youngs Moduli (GPa) = 32.70347 36.45276 115.13873
#
# Poissons Ratio (x) = 0.67062 0.34231
# Poissons Ratio (y) = 0.60165 -0.05388
# Poissons Ratio (z) = 0.09723 -0.01706
#
# Static dielectric constant tensor:
#      x y z
#    x 1.976170 0.021240 -0.048280 
#    y 0.021240 2.026810 -0.048690 
#    z -0.048280 -0.048690 2.036770 
# 
# From -- ./inp_files/262826.got.cif
#   From: 2010.05.17/outbox.cif.g08.bks.cpg/sg2_132_cif.got.tgz:262826.got - 2010.06.03 11:33:40.
