data_PCOD9055606
_publ_section_title
;
Structure prediction by ZEFSAII (Michael W. Deem and Ramdas Pophale) SiO2 
 PCOD9055606
Probable space group: P -1
;
_chemical_formula_sum "Si O2"
_cell_formula_units_Z 14
_cell_length_a 7.825562
_cell_length_b 9.599889
_cell_length_c 9.247279
_cell_angle_alpha 86.324169
_cell_angle_beta 65.063535
_cell_angle_gamma 66.595608
_cell_volume 573.629843
_symmetry_space_group_name_H-M "P -1"
_symmetry_group_IT_number 2
_symmetry_cell_setting 'triclinic'
loop_
_space_group_symop_operation_xyz
x,y,z
-x,-y,-z
loop_
_atom_site_type_symbol
_atom_site_label
_atom_site_fract_x
_atom_site_fract_y
_atom_site_fract_z
Si Si1 0.923846 0.179092 0.001199
Si Si2 0.797358 0.655138 0.078872
Si Si3 0.533111 0.331914 0.255526
Si Si4 0.067070 0.140687 0.470507
Si Si5 0.764673 0.684962 0.398349
Si Si6 0.793503 0.372205 0.747234
Si Si7 0.383552 0.151849 0.122947
O O1 0.776377 0.278604 0.176895
O O2 0.819843 0.257540 0.879934
O O3 0.125472 0.210724 0.935858
O O4 0.000000 0.000000 0.000000
O O5 0.682445 0.671662 0.269905
O O6 0.673244 0.704322 0.973835
O O7 0.000000 0.500000 0.000000
O O8 0.381465 0.354761 0.440848
O O9 0.424495 0.488378 0.195649
O O10 0.526718 0.184529 0.185992
O O11 0.211056 0.163843 0.550298
O O12 0.188870 0.149059 0.282183
O O13 0.854128 0.281796 0.579910
O O14 0.000000 0.000000 0.500000
O O15 0.012233 0.576717 0.311390
O O16 0.500000 0.000000 0.000000
#
# Coordination Sequence:
#
# PCOD9055606 Si02
#       7
#     2   2   2   2   2   2   2
#     4  11  24  42  64  96 134 173 211 268 330 383
#     4  11  24  43  66  93 137 171 208 266 336 384
#     4  11  21  42  71  95 124 169 228 266 317 388
#     4   9  21  39  61  95 129 168 214 265 324 382
#     4   8  20  39  64  95 126 170 210 270 325 377
#     4   9  20  38  67  91 123 167 218 261 322 374
#     4  11  24  39  65  98 127 168 220 267 317 390
#
# _framework density 24.405981000000001
#
# number of rings (size 3 to 8) (size 9 to 14) (size 15 to 20)
#    0.857    1.143    0.000    3.429    6.000    0.000 
#    2.571    3.571    0.000    0.000    0.000    0.000 
#    0.000    0.000    0.000    0.000    0.000    0.000 
#
# Total GULP energy -78031.970501 kJ/mol
# GULP energy per Si atom -5573.712179 kJ/mol
# Density = 2.435043 g / cm^3
# Si number density = 24.405981 Si / 1000 Ang^3
#
#
#
# Elastic Constant Matrix: (Units=GPa)
#
#
# Indices 1 2 3 4 5 6 
#
# 1 21.4864 15.9216 30.2842 -4.0738 0.3843 -4.7343
# 2 15.9216 110.5993 58.5697 11.6248 -6.9602 -1.6650
# 3 30.2842 58.5697 154.1311 1.1925 -2.3728 -1.3096
# 4 -4.0738 11.6248 1.1925 33.9829 6.5296 -3.2918
# 5 0.3843 -6.9602 -2.3728 6.5296 30.7653 9.0598
# 6 -4.7343 -1.6650 -1.3096 -3.2918 9.0598 28.9462
#
#
#
# Elastic Compliance Matrix: (Units=1/GPa)
#
#
# Indices 1 2 3 4 5 6 
#
# 1 0.076010 -0.006347 -0.012679 0.015606 -0.011657 0.016916
# 2 -0.006347 0.012708 -0.003483 -0.006161 0.004777 -0.002660
# 3 -0.012679 -0.003483 0.010309 -0.001116 0.001071 -0.002270
# 4 0.015606 -0.006161 -0.001116 0.036842 -0.012514 0.010254
# 5 -0.011657 0.004777 0.001071 -0.012514 0.041147 -0.015885
# 6 0.016916 -0.002660 -0.002270 0.010254 -0.015885 0.043196
#
#
# Mechanical properties :
#
#
# Convention : Reuss Voigt Hill
#
# Bulk Modulus (GPa) = 18.51597 55.08532 36.80064
# Shear Modulus (GPa) = 17.65335 30.83498 24.24416
#
# Velocity S-wave (km/s) = 2.69238 3.55832 3.15520
# Velocity P-wave (km/s) = 4.15552 6.28503 5.32775
#
# Compressibility (1/GPa) = 0.05400744
#
# Stress axis : x y z
#
# Youngs Moduli (GPa) = 13.15623 78.68933 97.00467
#
# Poissons Ratio (x) = 0.49943 1.22995
# Poissons Ratio (y) = 0.08350 0.33791
# Poissons Ratio (z) = 0.16681 0.27411
#
# Static dielectric constant tensor:
#      x y z
#    x 2.138970 -0.077440 0.104080 
#    y -0.077440 1.980910 -0.082110 
#    z 0.104080 -0.082110 2.092440 
# 
# From -- ./inp_files/177320.got.cif
#   From: 2010.05.17/outbox.cif.g08.bks.cpg/sg2_89_cif.got.tgz:177320.got - 2010.06.03 11:33:40.
