data_PCOD9055176
_publ_section_title
;
Structure prediction by ZEFSAII (Michael W. Deem and Ramdas Pophale) SiO2 
 PCOD9055176
Probable space group: P -1
;
_chemical_formula_sum "Si O2"
_cell_formula_units_Z 16
_cell_length_a 11.723324
_cell_length_b 6.167718
_cell_length_c 19.449057
_cell_angle_alpha 61.446139
_cell_angle_beta 39.613736
_cell_angle_gamma 48.774052
_cell_volume 673.098082
_symmetry_space_group_name_H-M "P -1"
_symmetry_group_IT_number 2
_symmetry_cell_setting 'triclinic'
loop_
_space_group_symop_operation_xyz
x,y,z
-x,-y,-z
loop_
_atom_site_type_symbol
_atom_site_label
_atom_site_fract_x
_atom_site_fract_y
_atom_site_fract_z
Si Si1 0.534525 0.737448 0.104327
Si Si2 0.099154 0.133146 0.767859
Si Si3 0.768122 0.283930 0.555070
Si Si4 0.791598 0.792547 0.435159
Si Si5 0.740714 0.461744 0.696261
Si Si6 0.068309 0.743809 0.945787
Si Si7 0.505705 0.934633 0.337994
Si Si8 0.645990 0.635081 0.915136
O O1 0.336467 0.699766 0.193640
O O2 0.688313 0.473810 0.120274
O O3 0.463804 0.052784 0.116353
O O4 0.654397 0.691189 0.984053
O O5 0.212932 0.038754 0.655971
O O6 0.880752 0.429698 0.812273
O O7 0.037039 0.920408 0.864141
O O8 0.255787 0.164854 0.742159
O O9 0.784334 0.508203 0.463962
O O10 0.716407 0.394495 0.639658
O O11 0.571925 0.268881 0.622806
O O12 0.000000 0.000000 0.500000
O O13 0.616091 0.961784 0.548003
O O14 0.016795 0.662097 0.385936
O O15 0.596895 0.806444 0.709883
O O16 0.000000 0.500000 0.000000
O O17 0.000000 0.000000 0.000000
O O18 0.500000 0.500000 0.000000
#
# Coordination Sequence:
#
# PCOD9055176 Si02
#       8
#     2   2   2   2   2   2   2   2
#     4  11  25  44  72 105 142 198 256 312 387 475
#     4  12  26  47  75 113 152 202 249 328 405 447
#     4  11  21  40  70 100 141 199 247 308 376 461
#     4  11  24  43  67 108 150 190 256 314 379 473
#     4  11  22  41  71 102 138 197 256 303 379 469
#     4  12  27  53  80 111 157 204 262 329 397 476
#     4  11  23  45  68 103 153 189 254 315 381 464
#     4  11  25  47  70 106 147 191 255 323 390 466
#
# _framework density 23.770681
#
# number of rings (size 3 to 8) (size 9 to 14) (size 15 to 20)
#    0.000    0.750    5.000    2.625    1.750    3.500 
#    2.250    0.000    0.000    0.000    0.000    0.000 
#    0.000    0.000    0.000    0.000    0.000    0.000 
#
# Total GULP energy -89347.814942 kJ/mol
# GULP energy per Si atom -5584.238434 kJ/mol
# Density = 2.371658 g / cm^3
# Si number density = 23.770681 Si / 1000 Ang^3
#
#
#
# Elastic Constant Matrix: (Units=GPa)
#
#
# Indices 1 2 3 4 5 6 
#
# 1 88.6478 27.7927 27.2595 3.4594 -21.6047 12.5186
# 2 27.7927 110.1211 37.1743 -12.0390 -7.8324 2.1109
# 3 27.2595 37.1743 101.9424 -15.9059 -6.2966 14.1460
# 4 3.4594 -12.0390 -15.9059 31.2566 -9.6301 -13.7532
# 5 -21.6047 -7.8324 -6.2966 -9.6301 60.5436 -5.4576
# 6 12.5186 2.1109 14.1460 -13.7532 -5.4576 28.4278
#
#
#
# Elastic Compliance Matrix: (Units=1/GPa)
#
#
# Indices 1 2 3 4 5 6 
#
# 1 0.015248 -0.003349 -0.002655 -0.006921 0.002916 -0.007934
# 2 -0.003349 0.011621 -0.003044 0.006098 0.001444 0.005355
# 3 -0.002655 -0.003044 0.012741 0.004595 0.000478 -0.002630
# 4 -0.006921 0.006098 0.004595 0.052555 0.009643 0.027586
# 5 0.002916 0.001444 0.000478 0.009643 0.019947 0.006866
# 6 -0.007934 0.005355 -0.002630 0.027586 0.006866 0.054246
#
#
# Mechanical properties :
#
#
# Convention : Reuss Voigt Hill
#
# Bulk Modulus (GPa) = 46.48415 53.90713 50.19564
# Shear Modulus (GPa) = 26.09257 37.94460 32.01859
#
# Velocity S-wave (km/s) = 3.31672 3.99968 3.67410
# Velocity P-wave (km/s) = 5.85365 6.63755 6.25789
#
# Compressibility (1/GPa) = 0.02151271
#
# Stress axis : x y z
#
# Youngs Moduli (GPa) = 65.58181 86.05341 78.48741
#
# Poissons Ratio (x) = 0.28822 0.20838
# Poissons Ratio (y) = 0.21966 0.23894
# Poissons Ratio (z) = 0.17411 0.26197
#
# Static dielectric constant tensor:
#      x y z
#    x 2.059900 0.254630 0.106840 
#    y 0.254630 2.267680 0.120500 
#    z 0.106840 0.120500 2.038050 
# 
# From -- ./inp_files/553470.got.cif
#   From: 2010.05.17/outbox.cif.g08.bks.cpg/sg2_277_cif.got.tgz:553470.got - 2010.06.03 11:33:40.
