data_PCOD9055906
_publ_section_title
;
Structure prediction by ZEFSAII (Michael W. Deem and Ramdas Pophale) SiO2 
 PCOD9055906
Probable space group: P -1
;
_chemical_formula_sum "Si O2"
_cell_formula_units_Z 16
_cell_length_a 11.650833
_cell_length_b 15.378488
_cell_length_c 8.670721
_cell_angle_alpha 52.743891
_cell_angle_beta 39.052567
_cell_angle_gamma 49.451739
_cell_volume 727.155014
_symmetry_space_group_name_H-M "P -1"
_symmetry_group_IT_number 2
_symmetry_cell_setting 'triclinic'
loop_
_space_group_symop_operation_xyz
x,y,z
-x,-y,-z
loop_
_atom_site_type_symbol
_atom_site_label
_atom_site_fract_x
_atom_site_fract_y
_atom_site_fract_z
Si Si1 0.639478 0.604310 0.419211
Si Si2 0.750415 0.653600 0.916649
Si Si3 0.954075 0.220251 0.136510
Si Si4 0.177049 0.662442 0.532109
Si Si5 0.641862 0.174187 0.361150
Si Si6 0.027831 0.566943 0.246885
Si Si7 0.379481 0.046441 0.919612
Si Si8 0.372876 0.822887 0.988730
O O1 0.667299 0.468729 0.514028
O O2 0.469949 0.692389 0.605102
O O3 0.837396 0.594561 0.310898
O O4 0.649366 0.658104 0.183055
O O5 0.796869 0.526828 0.928329
O O6 0.601498 0.747898 0.861084
O O7 0.961734 0.665502 0.703669
O O8 0.842136 0.300023 0.310040
O O9 0.844292 0.136240 0.283251
O O10 0.169673 0.148015 0.049497
O O11 0.950942 0.307311 0.903787
O O12 0.247609 0.752349 0.269167
O O13 0.668328 0.165100 0.161683
O O14 0.510877 0.100523 0.625581
O O15 0.000000 0.500000 0.500000
O O16 0.500000 0.000000 0.000000
O O17 0.339323 0.943229 0.982288
#
# Coordination Sequence:
#
# PCOD9055906 Si02
#       8
#     2   2   2   2   2   2   2   2
#     4  11  21  44  70 102 148 185 233 287 350 423
#     4  11  22  43  71 100 144 187 233 288 348 415
#     4  12  25  45  75 104 141 186 238 285 352 422
#     4  11  23  42  69 107 136 183 238 287 347 422
#     4  12  28  45  69 106 141 184 233 293 355 416
#     4  11  22  39  69 107 147 184 223 291 360 415
#     4  12  27  53  76  98 137 187 245 292 346 415
#     4  12  29  44  70 105 142 187 235 292 351 415
#
# _framework density 22.003561999999999
#
# number of rings (size 3 to 8) (size 9 to 14) (size 15 to 20)
#    0.000    0.500    3.750    4.875    5.250    5.000 
#    0.000    0.000    0.000    0.000    0.000    0.000 
#    0.000    0.000    0.000    0.000    0.000    0.000 
#
# Total GULP energy -89535.430024 kJ/mol
# GULP energy per Si atom -5595.964377 kJ/mol
# Density = 2.195348 g / cm^3
# Si number density = 22.003562 Si / 1000 Ang^3
#
#
#
# Elastic Constant Matrix: (Units=GPa)
#
#
# Indices 1 2 3 4 5 6 
#
# 1 56.9156 29.3034 23.0841 -1.4865 2.6291 17.3159
# 2 29.3034 98.7626 41.3986 -12.2705 0.8419 15.0547
# 3 23.0841 41.3986 114.4345 -15.1246 2.2033 20.2648
# 4 -1.4865 -12.2705 -15.1246 25.3051 6.6521 -5.1126
# 5 2.6291 0.8419 2.2033 6.6521 35.4814 -0.4662
# 6 17.3159 15.0547 20.2648 -5.1126 -0.4662 28.9537
#
#
#
# Elastic Compliance Matrix: (Units=1/GPa)
#
#
# Indices 1 2 3 4 5 6 
#
# 1 0.024360 -0.005365 -0.001462 -0.004113 -0.000967 -0.011498
# 2 -0.005365 0.013727 -0.003114 0.004435 -0.000579 -0.000976
# 3 -0.001462 -0.003114 0.011684 0.004802 -0.001508 -0.004861
# 4 -0.004113 0.004435 0.004802 0.047679 -0.008971 0.005067
# 5 -0.000967 -0.000579 -0.001508 -0.008971 0.030056 0.000834
# 6 -0.011498 -0.000976 -0.004861 0.005067 0.000834 0.046232
#
#
# Mechanical properties :
#
#
# Convention : Reuss Voigt Hill
#
# Bulk Modulus (GPa) = 33.45558 50.85388 42.15473
# Shear Modulus (GPa) = 24.55993 29.70314 27.13154
#
# Velocity S-wave (km/s) = 3.34455 3.67812 3.51529
# Velocity P-wave (km/s) = 5.49111 6.41871 5.97295
#
# Compressibility (1/GPa) = 0.02989038
#
# Stress axis : x y z
#
# Youngs Moduli (GPa) = 41.05009 72.84904 85.58371
#
# Poissons Ratio (x) = 0.39085 0.12513
# Poissons Ratio (y) = 0.22024 0.26647
# Poissons Ratio (z) = 0.06002 0.22682
#
# Static dielectric constant tensor:
#      x y z
#    x 1.791130 -0.007390 -0.032610 
#    y -0.007390 1.859090 0.005310 
#    z -0.032610 0.005310 1.831230 
# 
# From -- ./inp_files/271705.got.cif
#   From: 2010.05.17/outbox.cif.g08.bks.cpg/sg2_136_cif.got.tgz:271705.got - 2010.06.03 11:33:40.
