data_PCOD9055217
_publ_section_title
;
Structure prediction by ZEFSAII (Michael W. Deem and Ramdas Pophale) SiO2 
 PCOD9055217
Probable space group: P -1
;
_chemical_formula_sum "Si O2"
_cell_formula_units_Z 14
_cell_length_a 11.444265
_cell_length_b 11.936945
_cell_length_c 5.432617
_cell_angle_alpha 102.271974
_cell_angle_beta 106.811884
_cell_angle_gamma 44.078475
_cell_volume 494.191331
_symmetry_space_group_name_H-M "P -1"
_symmetry_group_IT_number 2
_symmetry_cell_setting 'triclinic'
loop_
_space_group_symop_operation_xyz
x,y,z
-x,-y,-z
loop_
_atom_site_type_symbol
_atom_site_label
_atom_site_fract_x
_atom_site_fract_y
_atom_site_fract_z
Si Si1 0.550861 0.845446 0.573740
Si Si2 0.915101 0.644794 0.818474
Si Si3 0.718965 0.982139 0.137378
Si Si4 0.984939 0.899867 0.611052
Si Si5 0.230955 0.548210 0.671353
Si Si6 0.358708 0.539590 0.248545
Si Si7 0.304609 0.824335 0.144565
O O1 0.753844 0.695211 0.599218
O O2 0.446106 0.810281 0.366500
O O3 0.500000 0.000000 0.500000
O O4 0.471821 0.911636 0.826994
O O5 0.069024 0.589187 0.714450
O O6 0.808141 0.824604 0.951916
O O7 0.000000 0.500000 0.000000
O O8 0.858900 0.894649 0.396112
O O9 0.687148 0.135856 0.108021
O O10 0.161954 0.724083 0.687147
O O11 0.880781 0.997739 0.832387
O O12 0.000000 0.000000 0.500000
O O13 0.270925 0.512001 0.382234
O O14 0.368569 0.468643 0.950592
O O15 0.500000 0.500000 0.500000
O O16 0.289400 0.708797 0.193083
#
# Coordination Sequence:
#
# PCOD9055217 Si02
#       7
#     2   2   2   2   2   2   2
#     4  11  24  47  71 104 147 198 265 303 375 459
#     4  12  27  46  74 109 152 197 255 324 383 446
#     4  11  23  45  74 107 146 201 253 310 379 462
#     4  11  21  40  72 107 144 177 247 308 376 438
#     4  12  26  50  73 108 148 195 246 316 381 450
#     4  12  29  49  75 108 155 196 249 309 388 471
#     4  11  24  41  76 105 140 198 245 307 373 462
#
# _framework density 28.329107
#
# number of rings (size 3 to 8) (size 9 to 14) (size 15 to 20)
#    0.000    0.571    4.286    3.429    4.000    2.286 
#    0.000    3.571    0.000    0.000    0.000    0.000 
#    0.000    0.000    0.000    0.000    0.000    0.000 
#
# Total GULP energy -78062.243872 kJ/mol
# GULP energy per Si atom -5575.874562 kJ/mol
# Density = 2.826463 g / cm^3
# Si number density = 28.329107 Si / 1000 Ang^3
#
#
#
# Elastic Constant Matrix: (Units=GPa)
#
#
# Indices 1 2 3 4 5 6 
#
# 1 151.0172 24.0148 46.7275 6.6713 -24.0273 15.5422
# 2 24.0148 132.7774 32.0287 -19.0189 -16.5127 20.3559
# 3 46.7275 32.0287 131.3309 -13.0371 -2.7174 -3.1171
# 4 6.6713 -19.0189 -13.0371 56.8039 5.3056 -2.8010
# 5 -24.0273 -16.5127 -2.7174 5.3056 69.4449 -22.8086
# 6 15.5422 20.3559 -3.1171 -2.8010 -22.8086 44.0430
#
#
#
# Elastic Compliance Matrix: (Units=1/GPa)
#
#
# Indices 1 2 3 4 5 6 
#
# 1 0.008276 -0.000508 -0.003033 -0.002135 0.002157 -0.001919
# 2 -0.000508 0.009054 -0.001864 0.002434 0.000494 -0.003727
# 3 -0.003033 -0.001864 0.009402 0.002056 -0.000465 0.002487
# 4 -0.002135 0.002434 0.002056 0.019291 -0.001476 0.000237
# 5 0.002157 0.000494 -0.000465 -0.001476 0.018064 0.008239
# 6 -0.001919 -0.003727 0.002487 0.000237 0.008239 0.029562
#
#
# Mechanical properties :
#
#
# Convention : Reuss Voigt Hill
#
# Bulk Modulus (GPa) = 62.81172 68.96308 65.88740
# Shear Modulus (GPa) = 45.55047 54.88199 50.21623
#
# Velocity S-wave (km/s) = 4.01422 4.40625 4.21480
# Velocity P-wave (km/s) = 6.61102 7.09106 6.85524
#
# Compressibility (1/GPa) = 0.01592060
#
# Stress axis : x y z
#
# Youngs Moduli (GPa) = 120.82891 110.44445 106.36315
#
# Poissons Ratio (x) = 0.05616 0.32265
# Poissons Ratio (y) = 0.06144 0.19825
# Poissons Ratio (z) = 0.36653 0.20586
#
# Static dielectric constant tensor:
#      x y z
#    x 2.541170 0.020940 -0.070110 
#    y 0.020940 2.283120 0.073930 
#    z -0.070110 0.073930 2.307390 
# 
# From -- ./inp_files/70626.got.cif
#   From: 2010.05.17/outbox.cif.g08.bks.cpg/sg2_36_cif.got.tgz:70626.got - 2010.06.03 11:33:40.
