data_PCOD9055970
_publ_section_title
;
Structure prediction by ZEFSAII (Michael W. Deem and Ramdas Pophale) SiO2 
 PCOD9055970
Probable space group: P -1
;
_chemical_formula_sum "Si O2"
_cell_formula_units_Z 16
_cell_length_a 19.513959
_cell_length_b 17.543864
_cell_length_c 10.789280
_cell_angle_alpha 132.989021
_cell_angle_beta 144.978827
_cell_angle_gamma 22.038754
_cell_volume 742.467797
_symmetry_space_group_name_H-M "P -1"
_symmetry_group_IT_number 2
_symmetry_cell_setting 'triclinic'
loop_
_space_group_symop_operation_xyz
x,y,z
-x,-y,-z
loop_
_atom_site_type_symbol
_atom_site_label
_atom_site_fract_x
_atom_site_fract_y
_atom_site_fract_z
Si Si1 0.984690 0.400620 0.004455
Si Si2 0.613298 0.689754 0.205450
Si Si3 0.798305 0.877874 0.753679
Si Si4 0.154851 0.948650 0.077173
Si Si5 0.708713 0.492712 0.494610
Si Si6 0.057223 0.342182 0.663306
Si Si7 0.369949 0.663443 0.874075
Si Si8 0.538081 0.939801 0.228370
O O1 0.774412 0.506193 0.729275
O O2 0.026350 0.313469 0.101620
O O3 0.948556 0.549306 0.142971
O O4 0.245609 0.183628 0.077399
O O5 0.595174 0.772975 0.147153
O O6 0.879453 0.495736 0.450380
O O7 0.414121 0.899484 0.234268
O O8 0.534570 0.629085 0.020079
O O9 0.662562 0.902561 0.488782
O O10 0.931791 0.866761 0.862378
O O11 0.441509 0.733205 0.311421
O O12 0.153936 0.890728 0.879159
O O13 0.000000 0.000000 0.000000
O O14 0.703122 0.372245 0.366790
O O15 0.920538 0.358008 0.557300
O O16 0.328875 0.117609 0.759589
O O17 0.500000 0.500000 0.000000
#
# Coordination Sequence:
#
# PCOD9055970 Si02
#       8
#     2   2   2   2   2   2   2   2
#     4  11  23  42  57  91 133 158 196 250 318 358
#     4  10  17  36  59  88 119 147 207 256 288 346
#     4  10  19  38  63  88 122 160 204 253 300 357
#     4  10  21  39  64  89 114 160 212 253 294 359
#     4  11  23  41  60  88 128 163 192 257 311 356
#     4  12  21  37  63  92 123 156 207 251 298 360
#     4   9  18  36  59  82 113 157 204 240 295 355
#     4  11  22  35  64  92 118 164 206 247 298 362
#
# _framework density 21.549757
#
# number of rings (size 3 to 8) (size 9 to 14) (size 15 to 20)
#    0.000    1.500    6.250    1.500    1.750    0.500 
#    2.250    6.250    0.000    0.000    0.000    0.000 
#    0.000    0.000    0.000    0.000    0.000    0.000 
#
# Total GULP energy -89412.943844 kJ/mol
# GULP energy per Si atom -5588.308990 kJ/mol
# Density = 2.150071 g / cm^3
# Si number density = 21.549757 Si / 1000 Ang^3
#
#
#
# Elastic Constant Matrix: (Units=GPa)
#
#
# Indices 1 2 3 4 5 6 
#
# 1 86.5004 25.9451 33.7308 -4.6327 31.6221 11.0474
# 2 25.9451 54.7972 31.2552 17.4348 8.5637 2.5051
# 3 33.7308 31.2552 107.9436 23.6302 7.9321 7.4087
# 4 -4.6327 17.4348 23.6302 20.3382 16.1376 9.6009
# 5 31.6221 8.5637 7.9321 16.1376 31.1278 2.7192
# 6 11.0474 2.5051 7.4087 9.6009 2.7192 33.1343
#
#
#
# Elastic Compliance Matrix: (Units=1/GPa)
#
#
# Indices 1 2 3 4 5 6 
#
# 1 -0.009434 0.010612 0.007619 -0.049037 0.029056 0.012464
# 2 0.010612 0.015880 -0.010932 0.024234 -0.024288 -0.007323
# 3 0.007619 -0.010932 0.007842 0.017445 -0.015139 -0.007280
# 4 -0.049037 0.024234 0.017445 -0.075297 0.075447 0.026243
# 5 0.029056 -0.024288 -0.015139 0.075447 -0.023837 -0.024371
# 6 0.012464 -0.007323 -0.007280 0.026243 -0.024371 0.022602
#
#
# Mechanical properties :
#
#
# Convention : Reuss Voigt Hill
#
# Bulk Modulus (GPa) = 34.61771 47.90036 41.25903
# Shear Modulus (GPa) = -74.38843 27.47408 -23.45717
#
# Velocity S-wave (km/s) = -5.88169 3.57447 -3.30284
# Velocity P-wave (km/s) = 5.47967 6.26991 2.15465
#
# Compressibility (1/GPa) = 0.02888695
#
# Stress axis : x y z
#
# Youngs Moduli (GPa) = -106.00358 62.97323 127.52209
#
# Poissons Ratio (x) = -0.66828 -0.97164
# Poissons Ratio (y) = 1.12492 1.39407
# Poissons Ratio (z) = 0.80769 0.68842
#
# Static dielectric constant tensor:
#      x y z
#    x 1.859100 0.015310 0.005190 
#    y 0.015310 1.831790 0.019010 
#    z 0.005190 0.019010 1.770880 
# 
# From -- ./inp_files/244648.got.cif
#   From: 2010.05.17/outbox.cif.g08.bks.cpg/sg2_123_cif.got.tgz:244648.got - 2010.06.03 11:33:40.
