data_PCOD9055811
_publ_section_title
;
Structure prediction by ZEFSAII (Michael W. Deem and Ramdas Pophale) SiO2 
 PCOD9055811
Probable space group: P -1
;
_chemical_formula_sum "Si O2"
_cell_formula_units_Z 16
_cell_length_a 10.760382
_cell_length_b 9.894046
_cell_length_c 20.894937
_cell_angle_alpha 141.792102
_cell_angle_beta 43.621715
_cell_angle_gamma 108.166875
_cell_volume 757.692238
_symmetry_space_group_name_H-M "P -1"
_symmetry_group_IT_number 2
_symmetry_cell_setting 'triclinic'
loop_
_space_group_symop_operation_xyz
x,y,z
-x,-y,-z
loop_
_atom_site_type_symbol
_atom_site_label
_atom_site_fract_x
_atom_site_fract_y
_atom_site_fract_z
Si Si1 0.134804 0.089856 0.220982
Si Si2 0.426513 0.583209 0.264046
Si Si3 0.348497 0.554364 0.421190
Si Si4 0.793640 0.626043 0.804615
Si Si5 0.069285 0.702735 0.040800
Si Si6 0.511766 0.021156 0.845233
Si Si7 0.287627 0.061658 0.399143
Si Si8 0.589158 0.224701 0.401058
O O1 0.186891 0.154976 0.156373
O O2 0.884383 0.358548 0.429274
O O3 0.115041 0.839572 0.133767
O O4 0.298083 0.062253 0.203898
O O5 0.299389 0.662152 0.407744
O O6 0.395771 0.372366 0.162829
O O7 0.326653 0.820658 0.337744
O O8 0.681533 0.465597 0.144506
O O9 0.422217 0.701058 0.492609
O O10 0.510560 0.225861 0.241084
O O11 0.027812 0.326865 0.595623
O O12 0.712853 0.712984 0.940167
O O13 0.847281 0.975134 0.194193
O O14 0.000000 0.500000 0.000000
O O15 0.601478 0.040285 0.750681
O O16 0.430765 0.143252 0.411431
O O17 0.500000 0.500000 0.500000
#
# Coordination Sequence:
#
# PCOD9055811 Si02
#       8
#     2   2   2   2   2   2   2   2
#     4  11  21  43  73 101 140 181 246 300 344 433
#     4  12  25  46  68 107 144 182 244 296 355 435
#     4  11  23  41  76  98 136 194 233 292 367 411
#     4  12  24  44  73 110 139 183 244 298 356 426
#     4  11  23  45  70  96 144 192 228 295 356 416
#     4  12  22  42  73 102 137 190 237 292 362 416
#     4  12  26  46  67 103 155 181 231 309 357 417
#     4  11  23  47  70  98 141 193 240 291 352 428
#
# _framework density 21.116755000000001
#
# number of rings (size 3 to 8) (size 9 to 14) (size 15 to 20)
#    0.000    0.500    6.250    3.375    0.000    1.000 
#    6.750    1.250    0.000    0.000    0.000    0.000 
#    0.000    0.000    0.000    0.000    0.000    0.000 
#
# Total GULP energy -89305.312459 kJ/mol
# GULP energy per Si atom -5581.582029 kJ/mol
# Density = 2.106869 g / cm^3
# Si number density = 21.116755 Si / 1000 Ang^3
#
#
#
# Elastic Constant Matrix: (Units=GPa)
#
#
# Indices 1 2 3 4 5 6 
#
# 1 68.6175 21.0923 26.9953 2.5654 0.4176 14.2419
# 2 21.0923 109.7142 53.8773 3.4734 6.4868 -9.6596
# 3 26.9953 53.8773 117.1974 -9.3947 -1.0197 -10.2487
# 4 2.5654 3.4734 -9.3947 23.8106 -1.0451 1.4956
# 5 0.4176 6.4868 -1.0197 -1.0451 39.6934 -6.9912
# 6 14.2419 -9.6596 -10.2487 1.4956 -6.9912 44.8928
#
#
#
# Elastic Compliance Matrix: (Units=1/GPa)
#
#
# Indices 1 2 3 4 5 6 
#
# 1 0.018497 -0.001934 -0.004268 -0.002992 -0.001365 -0.007371
# 2 -0.001934 0.012609 -0.005524 -0.004015 -0.001954 0.001895
# 3 -0.004268 -0.005524 0.012852 0.006223 0.002006 0.003204
# 4 -0.002992 -0.004015 0.006223 0.045434 0.002100 0.000319
# 5 -0.001365 -0.001954 0.002006 0.002100 0.026429 0.004517
# 6 -0.007371 0.001895 0.003204 0.000319 0.004517 0.026446
#
#
# Mechanical properties :
#
#
# Convention : Reuss Voigt Hill
#
# Bulk Modulus (GPa) = 48.76661 55.49545 52.13103
# Shear Modulus (GPa) = 28.97658 34.58363 31.78010
#
# Velocity S-wave (km/s) = 3.70835 4.05128 3.88360
# Velocity P-wave (km/s) = 6.44048 6.94415 6.69705
#
# Compressibility (1/GPa) = 0.02050583
#
# Stress axis : x y z
#
# Youngs Moduli (GPa) = 54.06218 79.31134 77.81039
#
# Poissons Ratio (x) = 0.15337 0.33210
# Poissons Ratio (y) = 0.10454 0.42983
# Poissons Ratio (z) = 0.23074 0.43812
#
# Static dielectric constant tensor:
#      x y z
#    x 0.590210 -2.627680 -1.239920 
#    y -2.627680 -4.247650 -2.788990 
#    z -1.239920 -2.788990 0.573790 
# 
# From -- ./inp_files/522344.got.cif
#   From: 2010.05.17/outbox.cif.g08.bks.cpg/sg2_262_cif.got.tgz:522344.got - 2010.06.03 11:33:40.
