data_PCOD9055319
_publ_section_title
;
Structure prediction by ZEFSAII (Michael W. Deem and Ramdas Pophale) SiO2 
 PCOD9055319
Probable space group: P -1
;
_chemical_formula_sum "Si O2"
_cell_formula_units_Z 14
_cell_length_a 12.668717
_cell_length_b 16.267048
_cell_length_c 9.684185
_cell_angle_alpha 137.623195
_cell_angle_beta 61.079626
_cell_angle_gamma 149.950518
_cell_volume 597.465890
_symmetry_space_group_name_H-M "P -1"
_symmetry_group_IT_number 2
_symmetry_cell_setting 'triclinic'
loop_
_space_group_symop_operation_xyz
x,y,z
-x,-y,-z
loop_
_atom_site_type_symbol
_atom_site_label
_atom_site_fract_x
_atom_site_fract_y
_atom_site_fract_z
Si Si1 0.423410 0.589241 0.030034
Si Si2 0.252259 0.718455 0.789787
Si Si3 0.639582 0.735558 0.411563
Si Si4 0.369921 0.577246 0.648199
Si Si5 0.879614 0.569795 0.733266
Si Si6 0.949771 0.815952 0.444541
Si Si7 0.175363 0.036741 0.961872
O O1 0.459685 0.474582 0.852982
O O2 0.201620 0.405942 0.834682
O O3 0.663565 0.853829 0.140690
O O4 0.319285 0.541304 0.182479
O O5 0.267745 0.624960 0.777281
O O6 0.219363 0.620317 0.542588
O O7 0.052659 0.647976 0.825863
O O8 0.500000 0.000000 0.000000
O O9 0.851379 0.866330 0.538688
O O10 0.781065 0.944727 0.476864
O O11 0.456404 0.630460 0.504094
O O12 0.148042 0.302102 0.491023
O O13 0.597719 0.742484 0.803538
O O14 0.031452 0.801222 0.835512
O O15 0.000000 0.000000 0.000000
#
# Coordination Sequence:
#
# PCOD9055319 Si02
#       7
#     2   2   2   2   2   2   2
#     4   9  21  41  66 100 142 183 226 287 359 420
#     4  11  26  47  78  97 134 203 239 292 343 407
#     4   9  18  33  63 100 135 181 218 279 353 418
#     4  11  21  41  67  98 143 179 237 281 347 417
#     4  11  25  50  72 101 145 184 243 290 346 418
#     4   8  18  31  60 100 134 176 221 277 340 417
#     4  11  25  42  70 107 147 182 224 294 363 425
#
# _framework density 23.432300999999999
#
# number of rings (size 3 to 8) (size 9 to 14) (size 15 to 20)
#    0.857    1.143    1.429    1.286    2.000    0.571 
#    0.000    8.571    0.000    0.000    0.000    0.000 
#    0.000    0.000    0.000    0.000    0.000    0.000 
#
# Total GULP energy -78088.684185 kJ/mol
# GULP energy per Si atom -5577.763156 kJ/mol
# Density = 2.337897 g / cm^3
# Si number density = 23.432301 Si / 1000 Ang^3
#
#
#
# Elastic Constant Matrix: (Units=GPa)
#
#
# Indices 1 2 3 4 5 6 
#
# 1 157.8497 52.1475 31.4699 18.3254 6.0487 3.5225
# 2 52.1475 221.0844 54.1675 30.0251 -8.7302 7.9374
# 3 31.4699 54.1675 95.8626 21.2379 10.1887 13.5477
# 4 18.3254 30.0251 21.2379 40.6102 0.0308 5.2344
# 5 6.0487 -8.7302 10.1887 0.0308 30.7544 4.7073
# 6 3.5225 7.9374 13.5477 5.2344 4.7073 33.7888
#
#
#
# Elastic Compliance Matrix: (Units=1/GPa)
#
#
# Indices 1 2 3 4 5 6 
#
# 1 0.007237 -0.001249 -0.001190 -0.001783 -0.001457 0.000495
# 2 -0.001249 0.005918 -0.002678 -0.002386 0.002848 -0.000213
# 3 -0.001190 -0.002678 0.014353 -0.004516 -0.004719 -0.003645
# 4 -0.001783 -0.002386 -0.004516 0.029846 0.001487 -0.002274
# 5 -0.001457 0.002848 -0.004719 0.001487 0.035760 -0.003837
# 6 0.000495 -0.000213 -0.003645 -0.002274 -0.003837 0.031942
#
#
# Mechanical properties :
#
#
# Convention : Reuss Voigt Hill
#
# Bulk Modulus (GPa) = 57.89208 83.37407 70.63308
# Shear Modulus (GPa) = 35.44914 43.49814 39.47364
#
# Velocity S-wave (km/s) = 3.89373 4.31319 4.10882
# Velocity P-wave (km/s) = 6.70631 7.77579 7.26077
#
# Compressibility (1/GPa) = 0.01727352
#
# Stress axis : x y z
#
# Youngs Moduli (GPa) = 138.18520 168.97752 69.67411
#
# Poissons Ratio (x) = 0.21097 0.08294
# Poissons Ratio (y) = 0.17252 0.18658
# Poissons Ratio (z) = 0.16449 0.45251
#
# Static dielectric constant tensor:
#      x y z
#    x 2.106360 -0.089770 0.026990 
#    y -0.089770 1.932140 -0.026970 
#    z 0.026990 -0.026970 2.010070 
# 
# From -- ./inp_files/430163.got.cif
#   From: 2010.05.17/outbox.cif.g08.bks.cpg/sg2_216_cif.got.tgz:430163.got - 2010.06.03 11:33:40.
