data_PCOD9055738
_publ_section_title
;
Structure prediction by ZEFSAII (Michael W. Deem and Ramdas Pophale) SiO2 
 PCOD9055738
Probable space group: P -1
;
_chemical_formula_sum "Si O2"
_cell_formula_units_Z 14
_cell_length_a 5.545326
_cell_length_b 26.827210
_cell_length_c 20.243942
_cell_angle_alpha 163.214187
_cell_angle_beta 55.869020
_cell_angle_gamma 130.377961
_cell_volume 638.167897
_symmetry_space_group_name_H-M "P -1"
_symmetry_group_IT_number 2
_symmetry_cell_setting 'triclinic'
loop_
_space_group_symop_operation_xyz
x,y,z
-x,-y,-z
loop_
_atom_site_type_symbol
_atom_site_label
_atom_site_fract_x
_atom_site_fract_y
_atom_site_fract_z
Si Si1 0.389116 0.477393 0.065444
Si Si2 0.173194 0.123575 0.447067
Si Si3 0.346999 0.496895 0.445814
Si Si4 0.592788 0.171904 0.651758
Si Si5 0.152194 0.084604 0.889296
Si Si6 0.774990 0.919490 0.867351
Si Si7 0.206692 0.878297 0.237070
O O1 0.484823 0.690352 0.350186
O O2 0.500000 0.500000 0.000000
O O3 0.578165 0.361996 0.920513
O O4 0.014674 0.320146 0.941810
O O5 0.927539 0.212411 0.615765
O O6 0.041710 0.930206 0.267061
O O7 0.148731 0.038416 0.270219
O O8 0.500000 0.500000 0.500000
O O9 0.588443 0.690086 0.615741
O O10 0.000000 0.500000 0.500000
O O11 0.269703 0.304161 0.172465
O O12 0.500000 0.000000 0.500000
O O13 0.314598 0.065958 0.505086
O O14 0.461122 0.100137 0.819834
O O15 0.025018 0.973165 0.836076
O O16 0.500000 0.000000 0.000000
O O17 0.000000 0.000000 0.000000
#
# Coordination Sequence:
#
# PCOD9055738 Si02
#       7
#     2   2   2   2   2   2   2
#     4  12  23  43  74  97 136 191 248 289 354 432
#     4  11  25  43  66 102 144 185 234 298 375 412
#     4  12  25  49  80 110 143 196 242 297 372 444
#     4  11  21  43  69  93 134 185 238 295 346 432
#     4  11  28  46  71 102 153 181 240 299 367 440
#     4  12  25  49  80 111 144 191 249 300 363 449
#     4  11  25  44  65 103 144 185 229 307 370 410
#
# _framework density 21.937801
#
# number of rings (size 3 to 8) (size 9 to 14) (size 15 to 20)
#    0.000    0.571    5.714    1.714    4.000    2.286 
#    0.000    0.000    0.000    0.000    0.000    0.000 
#    0.000    0.000    0.000    0.000    0.000    0.000 
#
# Total GULP energy -78032.478527 kJ/mol
# GULP energy per Si atom -5573.748466 kJ/mol
# Density = 2.188787 g / cm^3
# Si number density = 21.937801 Si / 1000 Ang^3
#
#
#
# Elastic Constant Matrix: (Units=GPa)
#
#
# Indices 1 2 3 4 5 6 
#
# 1 71.6119 30.5925 22.5839 -2.9676 4.2513 -9.7448
# 2 30.5925 142.5999 70.6106 31.1726 13.0816 -12.6759
# 3 22.5839 70.6106 174.4716 23.1165 16.4345 -13.5897
# 4 -2.9676 31.1726 23.1165 48.9562 -2.0839 4.1457
# 5 4.2513 13.0816 16.4345 -2.0839 33.6651 -1.2839
# 6 -9.7448 -12.6759 -13.5897 4.1457 -1.2839 44.9041
#
#
#
# Elastic Compliance Matrix: (Units=1/GPa)
#
#
# Indices 1 2 3 4 5 6 
#
# 1 0.016218 -0.003630 -0.000974 0.003602 0.000132 0.001871
# 2 -0.003630 0.010913 -0.002716 -0.006170 -0.002763 0.001961
# 3 -0.000974 -0.002716 0.007601 -0.002152 -0.002610 0.001446
# 4 0.003602 -0.006170 -0.002152 0.026109 0.004461 -0.003894
# 5 0.000132 -0.002763 -0.002610 0.004461 0.032272 -0.001030
# 6 0.001871 0.001961 0.001446 -0.003894 -0.001030 0.023997
#
#
# Mechanical properties :
#
#
# Convention : Reuss Voigt Hill
#
# Bulk Modulus (GPa) = 49.77355 70.69525 60.23440
# Shear Modulus (GPa) = 36.11453 43.16482 39.63968
#
# Velocity S-wave (km/s) = 4.06177 4.44058 4.25539
# Velocity P-wave (km/s) = 6.68843 7.65421 7.18756
#
# Compressibility (1/GPa) = 0.02009099
#
# Stress axis : x y z
#
# Youngs Moduli (GPa) = 61.65917 91.63391 131.56932
#
# Poissons Ratio (x) = 0.33265 0.12816
# Poissons Ratio (y) = 0.22383 0.35736
# Poissons Ratio (z) = 0.06006 0.24889
#
# Static dielectric constant tensor:
#      x y z
#    x 2.004340 0.016910 0.013950 
#    y 0.016910 1.850800 0.002620 
#    z 0.013950 0.002620 1.804550 
# 
# From -- ./inp_files/44378.got.cif
#   From: 2010.05.17/outbox.cif.g08.bks.cpg/sg2_23_cif.got.tgz:44378.got - 2010.06.03 11:33:40.
