data_PCOD9055519
_publ_section_title
;
Structure prediction by ZEFSAII (Michael W. Deem and Ramdas Pophale) SiO2 
 PCOD9055519
Probable space group: P -1
;
_chemical_formula_sum "Si O2"
_cell_formula_units_Z 16
_cell_length_a 8.067044
_cell_length_b 19.765779
_cell_length_c 17.692295
_cell_angle_alpha 21.320719
_cell_angle_beta 124.030953
_cell_angle_gamma 134.855605
_cell_volume 673.180689
_symmetry_space_group_name_H-M "P -1"
_symmetry_group_IT_number 2
_symmetry_cell_setting 'triclinic'
loop_
_space_group_symop_operation_xyz
x,y,z
-x,-y,-z
loop_
_atom_site_type_symbol
_atom_site_label
_atom_site_fract_x
_atom_site_fract_y
_atom_site_fract_z
Si Si1 0.170284 0.428211 0.838666
Si Si2 0.719362 0.176611 0.292469
Si Si3 0.505750 0.294954 0.242274
Si Si4 0.193996 0.003678 0.256764
Si Si5 0.610029 0.249419 0.571788
Si Si6 0.244529 0.035465 0.055197
Si Si7 0.183068 0.727543 0.942932
Si Si8 0.323659 0.456749 0.334499
O O1 0.430189 0.645267 0.716145
O O2 0.167316 0.546174 0.638859
O O3 0.985475 0.357440 0.935744
O O4 0.170945 0.209386 0.054004
O O5 0.703547 0.298530 0.234964
O O6 0.894680 0.283018 0.152959
O O7 0.732830 0.976053 0.538298
O O8 0.442051 0.064456 0.299670
O O9 0.500000 0.500000 0.000000
O O10 0.942592 0.753830 0.479022
O O11 0.212528 0.005275 0.169411
O O12 0.477298 0.357962 0.457337
O O13 0.391932 0.004174 0.729051
O O14 0.715031 0.157974 0.753930
O O15 0.490172 0.300786 0.823167
O O16 0.000000 0.000000 0.000000
O O17 0.273716 0.562464 0.139533
#
# Coordination Sequence:
#
# PCOD9055519 Si02
#       8
#     2   2   2   2   2   2   2   2
#     4  12  22  41  69  92 127 176 211 264 317 374
#     4  11  22  41  63  91 128 168 212 268 312 373
#     4  11  23  37  63  91 129 166 214 265 319 362
#     4  12  22  43  68  94 126 174 213 254 323 381
#     4  11  21  42  68  94 126 166 213 260 315 377
#     4  11  25  44  67  97 131 165 207 266 318 373
#     4  11  22  39  67  95 122 169 222 257 313 376
#     4  11  23  40  69  97 124 166 216 257 310 392
#
# _framework density 23.767762999999999
#
# number of rings (size 3 to 8) (size 9 to 14) (size 15 to 20)
#    0.000    0.750    7.500    1.500    0.000    1.500 
#    0.000    1.250    0.000    0.000    0.000    0.000 
#    0.000    0.000    0.000    0.000    0.000    0.000 
#
# Total GULP energy -89240.771836 kJ/mol
# GULP energy per Si atom -5577.548240 kJ/mol
# Density = 2.371367 g / cm^3
# Si number density = 23.767763 Si / 1000 Ang^3
#
#
#
# Elastic Constant Matrix: (Units=GPa)
#
#
# Indices 1 2 3 4 5 6 
#
# 1 84.7847 -3.1130 57.8473 -1.2325 7.1067 -7.7931
# 2 -3.1130 32.0566 10.3661 3.0172 -3.4718 7.8693
# 3 57.8473 10.3661 187.2410 -14.7880 14.2074 -2.3552
# 4 -1.2325 3.0172 -14.7880 23.9637 3.4627 0.2644
# 5 7.1067 -3.4718 14.2074 3.4627 65.2663 -3.5436
# 6 -7.7931 7.8693 -2.3552 0.2644 -3.5436 13.2677
#
#
#
# Elastic Compliance Matrix: (Units=1/GPa)
#
#
# Indices 1 2 3 4 5 6 
#
# 1 0.016031 0.001608 -0.005156 -0.002646 0.000016 0.007604
# 2 0.001608 0.038808 -0.003622 -0.007063 0.001853 -0.022080
# 3 -0.005156 -0.003622 0.007659 0.005145 -0.001574 -0.000044
# 4 -0.002646 -0.007063 0.005145 0.046155 -0.003565 0.001676
# 5 0.000016 0.001853 -0.001574 -0.003565 0.016114 0.003005
# 6 0.007604 -0.022080 -0.000044 0.001676 0.003005 0.093695
#
#
# Mechanical properties :
#
#
# Convention : Reuss Voigt Hill
#
# Bulk Modulus (GPa) = 20.76452 48.25368 34.50910
# Shear Modulus (GPa) = 20.09218 36.43168 28.26193
#
# Velocity S-wave (km/s) = 2.91065 3.91937 3.45205
# Velocity P-wave (km/s) = 4.47786 6.38969 5.51722
#
# Compressibility (1/GPa) = 0.04815908
#
# Stress axis : x y z
#
# Youngs Moduli (GPa) = 62.38011 25.76798 130.55806
#
# Poissons Ratio (x) = -0.04144 0.67318
# Poissons Ratio (y) = -0.10032 0.47282
# Poissons Ratio (z) = 0.32164 0.09332
#
# Static dielectric constant tensor:
#      x y z
#    x 2.010660 0.084590 -0.016920 
#    y 0.084590 1.961230 -0.031070 
#    z -0.016920 -0.031070 2.007500 
# 
# From -- ./inp_files/504963.got.cif
#   From: 2010.05.17/outbox.cif.g08.bks.cpg/sg2_253_cif.got.tgz:504963.got - 2010.06.03 11:33:40.
