data_PCOD9055624
_publ_section_title
;
Structure prediction by ZEFSAII (Michael W. Deem and Ramdas Pophale) SiO2 
 PCOD9055624
Probable space group: P -1
;
_chemical_formula_sum "Si O2"
_cell_formula_units_Z 14
_cell_length_a 14.257232
_cell_length_b 9.278299
_cell_length_c 10.458854
_cell_angle_alpha 113.069548
_cell_angle_beta 34.371197
_cell_angle_gamma 125.553424
_cell_volume 623.664242
_symmetry_space_group_name_H-M "P -1"
_symmetry_group_IT_number 2
_symmetry_cell_setting 'triclinic'
loop_
_space_group_symop_operation_xyz
x,y,z
-x,-y,-z
loop_
_atom_site_type_symbol
_atom_site_label
_atom_site_fract_x
_atom_site_fract_y
_atom_site_fract_z
Si Si1 0.093844 0.013386 0.255291
Si Si2 0.822313 0.320201 0.696389
Si Si3 0.518965 0.326405 0.920025
Si Si4 0.278017 0.701536 0.569268
Si Si5 0.807462 0.054165 0.421729
Si Si6 0.523043 0.321442 0.419796
Si Si7 0.094710 0.663844 0.106309
O O1 0.006961 0.088929 0.270720
O O2 0.073415 0.833389 0.147241
O O3 0.317415 0.148069 0.072537
O O4 0.000000 0.000000 0.500000
O O5 0.636569 0.341279 0.920151
O O6 0.746711 0.141198 0.634982
O O7 0.893935 0.300268 0.743272
O O8 0.000000 0.500000 0.500000
O O9 0.651471 0.343356 0.656779
O O10 0.500000 0.500000 0.000000
O O11 0.209851 0.843041 0.649352
O O12 0.445427 0.741891 0.496353
O O13 0.092081 0.527297 0.773033
O O14 0.663324 0.844301 0.490797
O O15 0.500000 0.500000 0.500000
O O16 0.714600 0.341873 0.145147
#
# Coordination Sequence:
#
# PCOD9055624 Si02
#       7
#     2   2   2   2   2   2   2
#     4  12  25  41  68 112 145 175 230 297 362 417
#     4  11  21  42  72 109 138 180 228 300 363 423
#     4  11  24  39  69 102 143 184 235 288 356 419
#     4  11  25  48  70 101 141 190 241 282 347 436
#     4  11  24  46  71 100 142 185 233 286 354 425
#     4  12  29  48  70 102 144 193 241 292 346 415
#     4  12  24  44  74 102 147 178 236 300 361 406
#
# _framework density 22.447976000000001
#
# number of rings (size 3 to 8) (size 9 to 14) (size 15 to 20)
#    0.000    0.571    4.286    5.143    4.000    1.143 
#    0.000    2.143    0.000    0.000    0.000    0.000 
#    0.000    0.000    0.000    0.000    0.000    0.000 
#
# Total GULP energy -78073.844143 kJ/mol
# GULP energy per Si atom -5576.703153 kJ/mol
# Density = 2.239688 g / cm^3
# Si number density = 22.447976 Si / 1000 Ang^3
#
#
#
# Elastic Constant Matrix: (Units=GPa)
#
#
# Indices 1 2 3 4 5 6 
#
# 1 110.9112 11.2745 -0.1016 3.1031 -20.2476 -2.1077
# 2 11.2745 127.3346 27.9461 4.1454 -12.5278 -3.5201
# 3 -0.1016 27.9461 86.5401 -2.6170 -12.5762 -7.1474
# 4 3.1031 4.1454 -2.6170 33.2565 1.4767 -18.2087
# 5 -20.2476 -12.5278 -12.5762 1.4767 41.7174 2.9540
# 6 -2.1077 -3.5201 -7.1474 -18.2087 2.9540 40.8575
#
#
#
# Elastic Compliance Matrix: (Units=1/GPa)
#
#
# Indices 1 2 3 4 5 6 
#
# 1 0.010016 -0.000552 0.000862 -0.001164 0.005015 -0.000261
# 2 -0.000552 0.008685 -0.002666 -0.001640 0.001637 -0.000596
# 3 0.000862 -0.002666 0.013245 0.002891 0.003283 0.003183
# 4 -0.001164 -0.001640 0.002891 0.041040 -0.002970 0.018809
# 5 0.005015 0.001637 0.003283 -0.002970 0.028160 -0.002386
# 6 -0.000261 -0.000596 0.003183 0.018809 -0.002386 0.033522
#
#
# Mechanical properties :
#
#
# Convention : Reuss Voigt Hill
#
# Bulk Modulus (GPa) = 36.71895 44.78043 40.74969
# Shear Modulus (GPa) = 33.67921 42.21075 37.94498
#
# Velocity S-wave (km/s) = 3.87760 4.34104 4.11585
# Velocity P-wave (km/s) = 6.03660 6.71699 6.38587
#
# Compressibility (1/GPa) = 0.02723389
#
# Stress axis : x y z
#
# Youngs Moduli (GPa) = 99.83754 115.13689 75.50172
#
# Poissons Ratio (x) = 0.06355 -0.06509
# Poissons Ratio (y) = 0.05511 0.20131
# Poissons Ratio (z) = -0.08607 0.30699
#
# Static dielectric constant tensor:
#      x y z
#    x 1.913830 0.020090 0.008670 
#    y 0.020090 1.896400 0.030240 
#    z 0.008670 0.030240 1.863160 
# 
# From -- ./inp_files/242302.got.cif
#   From: 2010.05.17/outbox.cif.g08.bks.cpg/sg2_122_cif.got.tgz:242302.got - 2010.06.03 11:33:40.
