data_PCOD9055216
_publ_section_title
;
Structure prediction by ZEFSAII (Michael W. Deem and Ramdas Pophale) SiO2 
 PCOD9055216
Probable space group: P -1
;
_chemical_formula_sum "Si O2"
_cell_formula_units_Z 10
_cell_length_a 14.681991
_cell_length_b 5.279961
_cell_length_c 8.658775
_cell_angle_alpha 106.671138
_cell_angle_beta 121.093523
_cell_angle_gamma 40.080459
_cell_volume 362.881850
_symmetry_space_group_name_H-M "P -1"
_symmetry_group_IT_number 2
_symmetry_cell_setting 'triclinic'
loop_
_space_group_symop_operation_xyz
x,y,z
-x,-y,-z
loop_
_atom_site_type_symbol
_atom_site_label
_atom_site_fract_x
_atom_site_fract_y
_atom_site_fract_z
Si Si1 0.039146 0.470015 0.348777
Si Si2 0.657372 0.332564 0.692382
Si Si3 0.155198 0.597203 0.970094
Si Si4 0.752403 0.540979 0.325009
Si Si5 0.541790 0.447860 0.203333
O O1 0.115955 0.616466 0.459403
O O2 0.000000 0.500000 0.500000
O O3 0.893770 0.617012 0.148154
O O4 0.191155 0.026420 0.339273
O O5 0.500000 0.500000 0.500000
O O6 0.629517 0.220454 0.803606
O O7 0.695165 0.557053 0.828776
O O8 0.181772 0.649125 0.823511
O O9 0.000000 0.000000 0.000000
O O10 0.655442 0.489178 0.313675
O O11 0.633840 0.011178 0.266360
O O12 0.500000 0.500000 0.000000
#
# Coordination Sequence:
#
# PCOD9055216 Si02
#       5
#     2   2   2   2   2
#     4   9  20  42  69 100 143 189 231 289 354 422
#     4  11  21  40  72 107 139 185 239 295 347 418
#     4   9  20  41  71  98 148 186 237 282 359 420
#     4  11  23  45  72 102 142 187 234 290 352 418
#     4  12  25  42  73 107 144 180 235 298 352 409
#
# _framework density 27.557179000000001
#
# number of rings (size 3 to 8) (size 9 to 14) (size 15 to 20)
#    0.000    1.600    4.000    0.600    0.000    0.800 
#    0.000   10.000    0.000    0.000    0.000    0.000 
#    0.000    0.000    0.000    0.000    0.000    0.000 
#
# Total GULP energy -55771.660941 kJ/mol
# GULP energy per Si atom -5577.166094 kJ/mol
# Density = 2.749446 g / cm^3
# Si number density = 27.557179 Si / 1000 Ang^3
#
#
#
# Elastic Constant Matrix: (Units=GPa)
#
#
# Indices 1 2 3 4 5 6 
#
# 1 197.2343 87.2918 60.1903 9.4400 40.3659 -4.4155
# 2 87.2918 114.9203 75.9748 6.2823 -2.2215 3.7939
# 3 60.1903 75.9748 240.1390 12.8288 64.8964 -4.9786
# 4 9.4400 6.2823 12.8288 47.9683 -9.4108 -1.9070
# 5 40.3659 -2.2215 64.8964 -9.4108 86.1400 18.5037
# 6 -4.4155 3.7939 -4.9786 -1.9070 18.5037 55.2261
#
#
#
# Elastic Compliance Matrix: (Units=1/GPa)
#
#
# Indices 1 2 3 4 5 6 
#
# 1 0.011058 -0.010926 0.003567 -0.003383 -0.009607 0.005058
# 2 -0.010926 0.023248 -0.008955 0.004052 0.014636 -0.008042
# 3 0.003567 -0.008955 0.009208 -0.003820 -0.010345 0.005065
# 4 -0.003383 0.004052 -0.003820 0.023408 0.007697 -0.002664
# 5 -0.009607 0.014636 -0.010345 0.007697 0.027636 -0.011700
# 6 0.005058 -0.008042 0.005065 -0.002664 -0.011700 0.023349
#
#
# Mechanical properties :
#
#
# Convention : Reuss Voigt Hill
#
# Bulk Modulus (GPa) = 91.85801 111.02304 101.44053
# Shear Modulus (GPa) = 32.43276 59.78931 46.11104
#
# Velocity S-wave (km/s) = 3.43436 4.66300 4.09502
# Velocity P-wave (km/s) = 7.00945 8.32869 7.69739
#
# Compressibility (1/GPa) = 0.01088637
#
# Stress axis : x y z
#
# Youngs Moduli (GPa) = 90.42869 43.01459 108.59802
#
# Poissons Ratio (x) = 0.46996 -0.38734
# Poissons Ratio (y) = 0.98799 0.97252
# Poissons Ratio (z) = -0.32253 0.38521
#
# Static dielectric constant tensor:
#      x y z
#    x 2.350330 -0.097330 -0.012220 
#    y -0.097330 2.346470 -0.027110 
#    z -0.012220 -0.027110 2.788950 
# 
# From -- ./inp_files/28741.got.cif
#   From: 2010.05.17/outbox.cif.g08.bks.cpg/sg2_15_cif.got.tgz:28741.got - 2010.06.03 11:33:40.
