data_PCOD9055913
_publ_section_title
;
Structure prediction by ZEFSAII (Michael W. Deem and Ramdas Pophale) SiO2 
 PCOD9055913
Probable space group: P -1
;
_chemical_formula_sum "Si O2"
_cell_formula_units_Z 16
_cell_length_a 13.118790
_cell_length_b 9.130669
_cell_length_c 17.582167
_cell_angle_alpha 43.760612
_cell_angle_beta 129.872259
_cell_angle_gamma 94.988333
_cell_volume 789.005997
_symmetry_space_group_name_H-M "P -1"
_symmetry_group_IT_number 2
_symmetry_cell_setting 'triclinic'
loop_
_space_group_symop_operation_xyz
x,y,z
-x,-y,-z
loop_
_atom_site_type_symbol
_atom_site_label
_atom_site_fract_x
_atom_site_fract_y
_atom_site_fract_z
Si Si1 0.955275 0.682586 0.274141
Si Si2 0.580106 0.172158 0.675066
Si Si3 0.981098 0.769551 0.076660
Si Si4 0.633732 0.687904 0.329706
Si Si5 0.335902 0.892259 0.890241
Si Si6 0.652605 0.341260 0.343264
Si Si7 0.021887 0.109589 0.546459
Si Si8 0.619095 0.883687 0.523934
O O1 0.153297 0.555438 0.445339
O O2 0.939649 0.748132 0.152439
O O3 0.968010 0.414491 0.390740
O O4 0.796135 0.941898 0.159671
O O5 0.500000 0.500000 0.500000
O O6 0.501431 0.167446 0.717676
O O7 0.500613 0.111019 0.595914
O O8 0.803773 0.918642 0.883213
O O9 0.171641 0.451154 0.254999
O O10 0.000000 0.000000 0.000000
O O11 0.583304 0.543112 0.308896
O O12 0.620806 0.918368 0.188558
O O13 0.527426 0.563166 0.129740
O O14 0.218987 0.904607 0.763178
O O15 0.865630 0.180034 0.498214
O O16 0.638158 0.108226 0.428988
O O17 0.000000 0.000000 0.500000
O O18 0.500000 0.000000 0.500000
#
# Coordination Sequence:
#
# PCOD9055913 Si02
#       8
#     2   2   2   2   2   2   2   2
#     4  11  21  44  71 100 138 180 241 279 339 422
#     4  12  25  48  76 104 137 183 237 290 344 423
#     4  12  26  47  79 101 133 189 236 287 353 419
#     4  11  21  44  72 101 141 186 236 284 336 421
#     4  11  24  42  68 104 136 189 236 275 345 418
#     4  12  25  42  68 101 142 179 230 291 351 407
#     4  11  24  41  64  98 143 182 222 292 347 404
#     4  12  29  49  69 107 143 177 234 297 356 413
#
# _framework density 20.278680999999999
#
# number of rings (size 3 to 8) (size 9 to 14) (size 15 to 20)
#    0.000    0.500    5.000    3.375    5.250    3.000 
#    0.000    0.000    0.000    0.000    0.000    0.000 
#    0.000    0.000    0.000    0.000    0.000    0.000 
#
# Total GULP energy -89482.162065 kJ/mol
# GULP energy per Si atom -5592.635129 kJ/mol
# Density = 2.023253 g / cm^3
# Si number density = 20.278681 Si / 1000 Ang^3
#
#
#
# Elastic Constant Matrix: (Units=GPa)
#
#
# Indices 1 2 3 4 5 6 
#
# 1 94.7649 39.6409 43.9101 -4.2346 7.5437 -0.0258
# 2 39.6409 167.3093 67.0382 14.0660 5.7164 9.8508
# 3 43.9101 67.0382 130.5751 10.6074 4.7301 19.4409
# 4 -4.2346 14.0660 10.6074 23.7728 5.5749 3.8135
# 5 7.5437 5.7164 4.7301 5.5749 27.0932 -1.2131
# 6 -0.0258 9.8508 19.4409 3.8135 -1.2131 44.1936
#
#
#
# Elastic Compliance Matrix: (Units=1/GPa)
#
#
# Indices 1 2 3 4 5 6 
#
# 1 0.013995 -0.002109 -0.004244 0.006284 -0.003928 0.001695
# 2 -0.002109 0.008036 -0.003103 -0.003779 0.000207 -0.000096
# 3 -0.004244 -0.003103 0.011558 -0.003506 0.000357 -0.004083
# 4 0.006284 -0.003779 -0.003506 0.049847 -0.010696 -0.002206
# 5 -0.003928 0.000207 0.000357 -0.010696 0.040180 0.001820
# 6 0.001695 -0.000096 -0.004083 -0.002206 0.001820 0.024687
#
#
# Mechanical properties :
#
#
# Convention : Reuss Voigt Hill
#
# Bulk Modulus (GPa) = 68.13036 77.09197 72.61117
# Shear Modulus (GPa) = 29.05152 35.14924 32.10038
#
# Velocity S-wave (km/s) = 3.78910 4.16782 3.98296
# Velocity P-wave (km/s) = 7.26725 7.82686 7.55224
#
# Compressibility (1/GPa) = 0.01467774
#
# Stress axis : x y z
#
# Youngs Moduli (GPa) = 71.45314 124.43609 86.51713
#
# Poissons Ratio (x) = 0.26247 0.36718
# Poissons Ratio (y) = 0.15072 0.26844
# Poissons Ratio (z) = 0.30325 0.38609
#
# Static dielectric constant tensor:
#      x y z
#    x 1.660300 0.084280 -0.000950 
#    y 0.084280 1.495280 0.040040 
#    z -0.000950 0.040040 1.726480 
# 
# From -- ./inp_files/223573.got.cif
#   From: 2010.05.17/outbox.cif.g08.bks.cpg/sg2_112_cif.got.tgz:223573.got - 2010.06.03 11:33:40.
