data_PCOD9055143
_publ_section_title
;
Structure prediction by ZEFSAII (Michael W. Deem and Ramdas Pophale) SiO2 
 PCOD9055143
Probable space group: P -1
;
_chemical_formula_sum "Si O2"
_cell_formula_units_Z 12
_cell_length_a 11.959051
_cell_length_b 9.108700
_cell_length_c 15.936948
_cell_angle_alpha 105.819941
_cell_angle_beta 27.985608
_cell_angle_gamma 123.647944
_cell_volume 564.255412
_symmetry_space_group_name_H-M "P -1"
_symmetry_group_IT_number 2
_symmetry_cell_setting 'triclinic'
loop_
_space_group_symop_operation_xyz
x,y,z
-x,-y,-z
loop_
_atom_site_type_symbol
_atom_site_label
_atom_site_fract_x
_atom_site_fract_y
_atom_site_fract_z
Si Si1 0.654715 0.718083 0.886479
Si Si2 0.316984 0.748268 0.832319
Si Si3 0.293237 0.325890 0.351061
Si Si4 0.621240 0.781607 0.202209
Si Si5 0.384862 0.957569 0.475143
Si Si6 0.556786 0.130982 0.830837
O O1 0.647285 0.697026 0.788033
O O2 0.035002 0.883074 0.688513
O O3 0.500000 0.500000 0.000000
O O4 0.497146 0.806330 0.036587
O O5 0.625829 0.778490 0.658374
O O6 0.377011 0.850421 0.718029
O O7 0.318765 0.885807 0.921280
O O8 0.000000 0.500000 0.000000
O O9 0.550259 0.576342 0.238230
O O10 0.926777 0.231156 0.590207
O O11 0.381801 0.783744 0.415462
O O12 0.517017 0.771182 0.174385
O O13 0.000000 0.000000 0.000000
O O14 0.500000 0.000000 0.500000
#
# Coordination Sequence:
#
# PCOD9055143 Si02
#       6
#     2   2   2   2   2   2
#     4  12  24  40  74 106 132 178 236 283 339 410
#     4  11  26  47  70  97 144 187 222 292 358 398
#     4  12  23  45  69  99 143 176 232 290 342 409
#     4  11  21  40  68  97 138 185 224 279 347 407
#     4  11  25  45  68 101 139 178 237 283 337 423
#     4  11  23  43  68 100 138 183 230 277 348 413
#
# _framework density 21.266964000000002
#
# number of rings (size 3 to 8) (size 9 to 14) (size 15 to 20)
#    0.000    0.667    5.000    5.000    2.333    0.667 
#    0.000    1.667    0.000    0.000    0.000    0.000 
#    0.000    0.000    0.000    0.000    0.000    0.000 
#
# Total GULP energy -67125.353846 kJ/mol
# GULP energy per Si atom -5593.779487 kJ/mol
# Density = 2.121856 g / cm^3
# Si number density = 21.266964 Si / 1000 Ang^3
#
#
#
# Elastic Constant Matrix: (Units=GPa)
#
#
# Indices 1 2 3 4 5 6 
#
# 1 104.6551 30.9120 24.2439 9.8181 9.8489 -2.3264
# 2 30.9120 151.0450 60.5564 6.7650 20.0980 1.7016
# 3 24.2439 60.5564 100.2187 12.3909 2.4980 14.2080
# 4 9.8181 6.7650 12.3909 44.3761 4.1435 0.8516
# 5 9.8489 20.0980 2.4980 4.1435 23.8435 5.9275
# 6 -2.3264 1.7016 14.2080 0.8516 5.9275 35.1143
#
#
#
# Elastic Compliance Matrix: (Units=1/GPa)
#
#
# Indices 1 2 3 4 5 6 
#
# 1 0.010849 -0.000765 -0.002233 -0.001336 -0.003957 0.002359
# 2 -0.000765 0.010525 -0.006607 0.001177 -0.008962 0.003597
# 3 -0.002233 -0.006607 0.015799 -0.003448 0.007265 -0.007363
# 4 -0.001336 0.001177 -0.003448 0.024016 -0.004612 0.001445
# 5 -0.003957 -0.008962 0.007265 -0.004612 0.054100 -0.011788
# 6 0.002359 0.003597 -0.007363 0.001445 -0.011788 0.033395
#
#
# Mechanical properties :
#
#
# Convention : Reuss Voigt Hill
#
# Bulk Modulus (GPa) = 55.66773 65.26038 60.46405
# Shear Modulus (GPa) = 28.75526 36.68053 32.71789
#
# Velocity S-wave (km/s) = 3.68109 4.15754 3.92655
# Velocity P-wave (km/s) = 6.65581 7.33483 7.00355
#
# Compressibility (1/GPa) = 0.01796373
#
# Stress axis : x y z
#
# Youngs Moduli (GPa) = 92.17785 95.01021 63.29368
#
# Poissons Ratio (x) = 0.07272 0.14131
# Poissons Ratio (y) = 0.07055 0.41816
# Poissons Ratio (z) = 0.20580 0.62770
#
# Static dielectric constant tensor:
#      x y z
#    x 1.785450 0.018380 0.001980 
#    y 0.018380 1.783180 0.003190 
#    z 0.001980 0.003190 1.803190 
# 
# From -- ./inp_files/156456.got.cif
#   From: 2010.05.17/outbox.cif.g08.bks.cpg/sg2_79_cif.got.tgz:156456.got - 2010.06.03 11:33:40.
