data_PCOD9055538
_publ_section_title
;
Structure prediction by ZEFSAII (Michael W. Deem and Ramdas Pophale) SiO2 
 PCOD9055538
Probable space group: P -1
;
_chemical_formula_sum "Si O2"
_cell_formula_units_Z 16
_cell_length_a 7.002116
_cell_length_b 10.380418
_cell_length_c 25.485804
_cell_angle_alpha 45.637154
_cell_angle_beta 140.011478
_cell_angle_gamma 134.050708
_cell_volume 798.081713
_symmetry_space_group_name_H-M "P -1"
_symmetry_group_IT_number 2
_symmetry_cell_setting 'triclinic'
loop_
_space_group_symop_operation_xyz
x,y,z
-x,-y,-z
loop_
_atom_site_type_symbol
_atom_site_label
_atom_site_fract_x
_atom_site_fract_y
_atom_site_fract_z
Si Si1 0.182366 0.068108 0.357857
Si Si2 0.823637 0.638977 0.446074
Si Si3 0.731601 0.029626 0.180037
Si Si4 0.106531 0.819730 0.559638
Si Si5 0.129322 0.398271 0.327373
Si Si6 0.893259 0.265199 0.839055
Si Si7 0.282385 0.282190 0.020500
Si Si8 0.856060 0.028004 0.085716
O O1 0.543099 0.095309 0.414233
O O2 0.179778 0.223394 0.356529
O O3 0.011149 0.104357 0.259245
O O4 0.986937 0.852109 0.396135
O O5 0.458309 0.539537 0.381224
O O6 0.000000 0.500000 0.500000
O O7 0.881625 0.679093 0.508935
O O8 0.508894 0.158428 0.096328
O O9 0.858331 0.026826 0.149123
O O10 0.485218 0.824884 0.206214
O O11 0.099316 0.697642 0.645270
O O12 0.000000 0.000000 0.500000
O O13 0.013877 0.524511 0.226078
O O14 0.023141 0.137797 0.863938
O O15 0.038951 0.247722 0.931075
O O16 0.090758 0.218701 0.052346
O O17 0.500000 0.500000 0.000000
O O18 0.500000 0.000000 0.000000
#
# Coordination Sequence:
#
# PCOD9055538 Si02
#       8
#     2   2   2   2   2   2   2   2
#     4  12  26  46  70 105 143 179 233 297 347 412
#     4  12  24  47  76  98 139 189 226 284 365 419
#     4  11  23  43  69  98 136 185 229 285 345 407
#     4  12  26  47  75 105 142 182 237 289 352 431
#     4  12  26  46  72 106 142 180 235 295 347 420
#     4  11  23  42  69 100 135 181 234 282 346 414
#     4  11  23  41  66  97 138 180 226 282 342 410
#     4  11  21  42  69  92 132 188 230 275 339 412
#
# _framework density 20.048069999999999
#
# number of rings (size 3 to 8) (size 9 to 14) (size 15 to 20)
#    0.000    0.500    6.250    3.000    0.000    6.500 
#    2.250    0.000    0.000    0.000    0.000    0.000 
#    0.000    0.000    0.000    0.000    0.000    0.000 
#
# Total GULP energy -89466.257948 kJ/mol
# GULP energy per Si atom -5591.641122 kJ/mol
# Density = 2.000244 g / cm^3
# Si number density = 20.048070 Si / 1000 Ang^3
#
#
#
# Elastic Constant Matrix: (Units=GPa)
#
#
# Indices 1 2 3 4 5 6 
#
# 1 118.9264 44.7645 23.4941 -2.3045 -25.8489 -4.3824
# 2 44.7645 113.5043 23.3011 -5.5021 -11.0372 1.0927
# 3 23.4941 23.3011 81.8479 3.1199 -17.3895 -6.8773
# 4 -2.3045 -5.5021 3.1199 48.3435 5.0854 -9.1968
# 5 -25.8489 -11.0372 -17.3895 5.0854 34.8621 1.8016
# 6 -4.3824 1.0927 -6.8773 -9.1968 1.8016 30.6388
#
#
#
# Elastic Compliance Matrix: (Units=1/GPa)
#
#
# Indices 1 2 3 4 5 6 
#
# 1 0.011507 -0.003753 -0.000635 -0.000364 0.007023 0.001115
# 2 -0.003753 0.010754 -0.002240 0.001048 -0.000593 -0.001074
# 3 -0.000635 -0.002240 0.014615 -0.001407 0.006187 0.002483
# 4 -0.000364 0.001048 -0.001407 0.022589 -0.004278 0.006627
# 5 0.007023 -0.000593 0.006187 -0.004278 0.037469 -0.001073
# 6 0.001115 -0.001074 0.002483 0.006627 -0.001073 0.035446
#
#
# Mechanical properties :
#
#
# Convention : Reuss Voigt Hill
#
# Bulk Modulus (GPa) = 42.34004 55.26644 48.80324
# Shear Modulus (GPa) = 32.57135 37.61682 35.09409
#
# Velocity S-wave (km/s) = 4.03508 4.33636 4.18843
# Velocity P-wave (km/s) = 6.54785 7.25940 6.91278
#
# Compressibility (1/GPa) = 0.02361831
#
# Stress axis : x y z
#
# Youngs Moduli (GPa) = 86.90191 92.98953 68.42499
#
# Poissons Ratio (x) = 0.34903 0.04345
# Poissons Ratio (y) = 0.32618 0.15329
# Poissons Ratio (z) = 0.05518 0.20832
#
# Static dielectric constant tensor:
#      x y z
#    x 1.671900 -0.020100 -0.033980 
#    y -0.020100 1.498140 -0.051360 
#    z -0.033980 -0.051360 1.724760 
# 
# From -- ./inp_files/49163.got.cif
#   From: 2010.05.17/outbox.cif.g08.bks.cpg/sg2_25_cif.got.tgz:49163.got - 2010.06.03 11:33:40.
