data_PCOD9055503
_publ_section_title
;
Structure prediction by ZEFSAII (Michael W. Deem and Ramdas Pophale) SiO2 
 PCOD9055503
Probable space group: P -1
;
_chemical_formula_sum "Si O2"
_cell_formula_units_Z 16
_cell_length_a 15.028335
_cell_length_b 11.334600
_cell_length_c 8.257557
_cell_angle_alpha 83.769607
_cell_angle_beta 36.004063
_cell_angle_gamma 67.104517
_cell_volume 704.328239
_symmetry_space_group_name_H-M "P -1"
_symmetry_group_IT_number 2
_symmetry_cell_setting 'triclinic'
loop_
_space_group_symop_operation_xyz
x,y,z
-x,-y,-z
loop_
_atom_site_type_symbol
_atom_site_label
_atom_site_fract_x
_atom_site_fract_y
_atom_site_fract_z
Si Si1 0.198270 0.445011 0.772517
Si Si2 0.816899 0.505663 0.749412
Si Si3 0.265464 0.903177 0.709360
Si Si4 0.295709 0.617651 0.812430
Si Si5 0.561253 0.606774 0.850339
Si Si6 0.786148 0.120251 0.588244
Si Si7 0.109501 0.092114 0.233996
Si Si8 0.664613 0.771991 0.132442
O O1 0.182270 0.573955 0.876109
O O2 0.382822 0.394081 0.413415
O O3 0.255139 0.305009 0.806820
O O4 0.000000 0.500000 0.000000
O O5 0.755454 0.538245 0.652878
O O6 0.000000 0.500000 0.500000
O O7 0.778731 0.392689 0.900639
O O8 0.680034 0.647607 0.020807
O O9 0.273551 0.762113 0.773015
O O10 0.192176 0.929290 0.625447
O O11 0.459397 0.883952 0.417900
O O12 0.181880 0.001589 0.974806
O O13 0.500000 0.500000 0.500000
O O14 0.500000 0.500000 0.000000
O O15 0.415707 0.758373 0.103789
O O16 0.906341 0.182832 0.461166
O O17 0.851603 0.999030 0.645535
O O18 0.208814 0.173573 0.113282
#
# Coordination Sequence:
#
# PCOD9055503 Si02
#       8
#     2   2   2   2   2   2   2   2
#     4  11  24  41  66 105 138 180 229 285 361 425
#     4  11  24  41  65 103 142 177 221 289 363 414
#     4  12  23  47  73  99 136 191 242 287 359 419
#     4  11  21  42  67  98 136 177 226 285 351 427
#     4  12  24  40  71 103 137 179 227 296 354 418
#     4  11  26  48  68 105 138 184 249 288 352 425
#     4  11  28  46  71 100 143 192 239 297 343 426
#     4  11  24  46  65  97 144 181 238 288 350 428
#
# _framework density 22.716678999999999
#
# number of rings (size 3 to 8) (size 9 to 14) (size 15 to 20)
#    0.000    0.750    3.750    4.500    7.000    1.500 
#    2.250    0.000    0.000    0.000    0.000    0.000 
#    0.000    0.000    0.000    0.000    0.000    0.000 
#
# Total GULP energy -89189.410922 kJ/mol
# GULP energy per Si atom -5574.338183 kJ/mol
# Density = 2.266498 g / cm^3
# Si number density = 22.716679 Si / 1000 Ang^3
#
#
#
# Elastic Constant Matrix: (Units=GPa)
#
#
# Indices 1 2 3 4 5 6 
#
# 1 94.4654 14.1121 18.5682 -2.9604 -15.1692 -12.0738
# 2 14.1121 47.0451 7.6948 -24.5925 4.8170 -7.9914
# 3 18.5682 7.6948 80.4599 -12.8796 -5.1079 -10.0630
# 4 -2.9604 -24.5925 -12.8796 32.7881 8.7276 1.9718
# 5 -15.1692 4.8170 -5.1079 8.7276 56.6801 -0.0432
# 6 -12.0738 -7.9914 -10.0630 1.9718 -0.0432 31.0406
#
#
#
# Elastic Compliance Matrix: (Units=1/GPa)
#
#
# Indices 1 2 3 4 5 6 
#
# 1 0.013097 -0.006915 -0.002745 -0.006546 0.004856 0.002847
# 2 -0.006915 0.044089 0.003422 0.036231 -0.010862 0.007453
# 3 -0.002745 0.003422 0.014455 0.008011 -0.000953 0.003989
# 4 -0.006546 0.036231 0.008011 0.063609 -0.013900 0.005318
# 5 0.004856 -0.010862 -0.000953 -0.013900 0.021920 -0.000303
# 6 0.002847 0.007453 0.003989 0.005318 -0.000303 0.036197
#
#
# Mechanical properties :
#
#
# Convention : Reuss Voigt Hill
#
# Bulk Modulus (GPa) = 16.90192 33.63561 25.26877
# Shear Modulus (GPa) = 22.16657 36.20813 29.18735
#
# Velocity S-wave (km/s) = 3.12714 3.99670 3.58836
# Velocity P-wave (km/s) = 4.52716 6.01139 5.32128
#
# Compressibility (1/GPa) = 0.05916489
#
# Stress axis : x y z
#
# Youngs Moduli (GPa) = 76.35435 22.68153 69.17793
#
# Poissons Ratio (x) = 0.15685 0.18987
# Poissons Ratio (y) = 0.52800 -0.23671
# Poissons Ratio (z) = 0.20957 -0.07761
#
# Static dielectric constant tensor:
#      x y z
#    x 1.946420 -0.052430 0.026250 
#    y -0.052430 1.697140 0.003500 
#    z 0.026250 0.003500 1.896700 
# 
# From -- ./inp_files/271353.got.cif
#   From: 2010.05.17/outbox.cif.g08.bks.cpg/sg2_136_cif.got.tgz:271353.got - 2010.06.03 11:33:40.
