data_PCOD9055331
_publ_section_title
;
Structure prediction by ZEFSAII (Michael W. Deem and Ramdas Pophale) SiO2 
 PCOD9055331
Probable space group: P -1
;
_chemical_formula_sum "Si O2"
_cell_formula_units_Z 16
_cell_length_a 9.134916
_cell_length_b 14.960331
_cell_length_c 14.597214
_cell_angle_alpha 35.973947
_cell_angle_beta 41.847690
_cell_angle_gamma 39.266592
_cell_volume 703.091548
_symmetry_space_group_name_H-M "P -1"
_symmetry_group_IT_number 2
_symmetry_cell_setting 'triclinic'
loop_
_space_group_symop_operation_xyz
x,y,z
-x,-y,-z
loop_
_atom_site_type_symbol
_atom_site_label
_atom_site_fract_x
_atom_site_fract_y
_atom_site_fract_z
Si Si1 0.980065 0.302721 0.779529
Si Si2 0.082672 0.632012 0.441748
Si Si3 0.653789 0.829432 0.129000
Si Si4 0.042384 0.345338 0.040515
Si Si5 0.501289 0.442275 0.149176
Si Si6 0.438392 0.620273 0.516122
Si Si7 0.699155 0.826618 0.587761
Si Si8 0.074317 0.152963 0.350379
O O1 0.023752 0.472539 0.622996
O O2 0.690443 0.384010 0.859184
O O3 0.037668 0.257842 0.683560
O O4 0.136135 0.177293 0.891141
O O5 0.970271 0.759303 0.472595
O O6 0.369584 0.517085 0.389663
O O7 0.496794 0.769638 0.321081
O O8 0.802199 0.688675 0.097648
O O9 0.500000 0.000000 0.000000
O O10 0.772702 0.367383 0.122793
O O11 0.161713 0.185623 0.184488
O O12 0.000000 0.500000 0.000000
O O13 0.401662 0.301851 0.298565
O O14 0.500000 0.500000 0.000000
O O15 0.500000 0.500000 0.500000
O O16 0.179881 0.695690 0.622400
O O17 0.736171 0.850660 0.657462
O O18 0.500000 0.000000 0.500000
O O19 0.000000 0.000000 0.500000
#
# Coordination Sequence:
#
# PCOD9055331 Si02
#       8
#     2   2   2   2   2   2   2   2
#     4   9  19  37  64  91 124 168 222 266 325 388
#     4   9  19  37  64  92 121 169 224 272 317 390
#     4  11  24  41  63  98 139 176 216 279 343 399
#     4  12  25  42  69 100 133 175 225 276 338 406
#     4  11  21  41  68  92 128 173 220 269 330 395
#     4  11  21  41  70  94 129 176 231 278 326 399
#     4  11  24  41  65  96 135 171 217 278 335 392
#     4  12  25  42  67 103 135 175 227 279 337 397
#
# _framework density 22.756637999999999
#
# number of rings (size 3 to 8) (size 9 to 14) (size 15 to 20)
#    0.000    1.250    2.500    3.750    1.750    5.000 
#    0.000    0.000    0.000    2.250    0.000    0.000 
#    0.000    0.000    0.000    0.000    0.000    0.000 
#
# Total GULP energy -89084.368001 kJ/mol
# GULP energy per Si atom -5567.773000 kJ/mol
# Density = 2.270484 g / cm^3
# Si number density = 22.756638 Si / 1000 Ang^3
#
#
#
# Elastic Constant Matrix: (Units=GPa)
#
#
# Indices 1 2 3 4 5 6 
#
# 1 122.7219 24.3357 26.3939 -8.6878 31.5732 -13.2268
# 2 24.3357 68.6365 16.4345 -1.4150 7.8780 -11.5718
# 3 26.3939 16.4345 66.3238 -0.3245 31.7123 -4.1559
# 4 -8.6878 -1.4150 -0.3245 30.2343 4.4697 2.4514
# 5 31.5732 7.8780 31.7123 4.4697 47.5702 -2.3897
# 6 -13.2268 -11.5718 -4.1559 2.4514 -2.3897 34.0137
#
#
#
# Elastic Compliance Matrix: (Units=1/GPa)
#
#
# Indices 1 2 3 4 5 6 
#
# 1 0.011061 -0.002536 -0.000248 0.003876 -0.006988 0.002638
# 2 -0.002536 0.016905 -0.003673 -0.000578 0.001611 0.004471
# 3 -0.000248 -0.003673 0.023247 0.002188 -0.014916 0.000289
# 4 0.003876 -0.000578 0.002188 0.035390 -0.007336 -0.001488
# 5 -0.006988 0.001611 -0.014916 -0.007336 0.035978 -0.000935
# 6 0.002638 0.004471 0.000289 -0.001488 -0.000935 0.032024
#
#
# Mechanical properties :
#
#
# Convention : Reuss Voigt Hill
#
# Bulk Modulus (GPa) = 26.10934 43.55672 34.83303
# Shear Modulus (GPa) = 27.73384 35.06486 31.39935
#
# Velocity S-wave (km/s) = 3.49480 3.92964 3.71858
# Velocity P-wave (km/s) = 5.27096 6.30644 5.81181
#
# Compressibility (1/GPa) = 0.03830047
#
# Stress axis : x y z
#
# Youngs Moduli (GPa) = 90.40585 59.15409 43.01658
#
# Poissons Ratio (x) = 0.15000 0.01067
# Poissons Ratio (y) = 0.22925 0.15798
# Poissons Ratio (z) = 0.02242 0.21725
#
# Static dielectric constant tensor:
#      x y z
#    x 1.386280 -0.302410 0.032970 
#    y -0.302410 1.831300 -0.000130 
#    z 0.032970 -0.000130 1.886310 
# 
# From -- ./inp_files/503759.got.cif
#   From: 2010.05.17/outbox.cif.g08.bks.cpg/sg2_252_cif.got.tgz:503759.got - 2010.06.03 11:33:40.
