data_PCOD9055860
_publ_section_title
;
Structure prediction by ZEFSAII (Michael W. Deem and Ramdas Pophale) SiO2 
 PCOD9055860
Probable space group: P -1
;
_chemical_formula_sum "Si O2"
_cell_formula_units_Z 16
_cell_length_a 13.529210
_cell_length_b 16.125920
_cell_length_c 8.639590
_cell_angle_alpha 97.827485
_cell_angle_beta 86.254670
_cell_angle_gamma 26.322726
_cell_volume 748.915403
_symmetry_space_group_name_H-M "P -1"
_symmetry_group_IT_number 2
_symmetry_cell_setting 'triclinic'
loop_
_space_group_symop_operation_xyz
x,y,z
-x,-y,-z
loop_
_atom_site_type_symbol
_atom_site_label
_atom_site_fract_x
_atom_site_fract_y
_atom_site_fract_z
Si Si1 0.574646 0.654664 0.852626
Si Si2 0.294939 0.213429 0.494362
Si Si3 0.131279 0.408094 0.124762
Si Si4 0.429183 0.296723 0.481935
Si Si5 0.187045 0.922152 0.389617
Si Si6 0.621416 0.487378 0.058178
Si Si7 0.101682 0.267347 0.235840
Si Si8 0.922948 0.902132 0.863333
O O1 0.682200 0.659894 0.902080
O O2 0.604499 0.627804 0.657286
O O3 0.696237 0.489550 0.906453
O O4 0.283196 0.883048 0.975394
O O5 0.407953 0.214050 0.424525
O O6 0.181589 0.240364 0.385938
O O7 0.075616 0.409652 0.680309
O O8 0.500000 0.000000 0.500000
O O9 0.218651 0.246537 0.108334
O O10 0.000000 0.500000 0.000000
O O11 0.679902 0.125083 0.503163
O O12 0.197596 0.496824 0.668707
O O13 0.413043 0.698464 0.228240
O O14 0.052729 0.078810 0.307102
O O15 0.000000 0.000000 0.500000
O O16 0.838334 0.291773 0.102227
O O17 0.500000 0.500000 0.000000
O O18 0.173051 0.118320 0.154641
#
# Coordination Sequence:
#
# PCOD9055860 Si02
#       8
#     2   2   2   2   2   2   2   2
#     4  11  25  44  68  98 136 177 219 275 333 395
#     4  11  23  39  64  97 137 180 221 267 326 394
#     4  11  23  39  63  94 136 174 217 266 321 393
#     4  11  22  45  65  98 137 175 223 278 329 391
#     4  11  27  46  73  98 129 174 226 283 333 392
#     4  11  27  48  68  97 133 174 221 282 339 393
#     4  11  21  44  64  95 138 178 219 266 327 389
#     4  11  26  45  69  98 137 175 217 275 337 396
#
# _framework density 21.364228000000001
#
# number of rings (size 3 to 8) (size 9 to 14) (size 15 to 20)
#    0.000    1.000    3.750    2.250   10.500    5.000 
#    0.000    0.000    0.000    0.000    0.000    0.000 
#    0.000    0.000    0.000    0.000    0.000    0.000 
#
# Total GULP energy -89403.912454 kJ/mol
# GULP energy per Si atom -5587.744528 kJ/mol
# Density = 2.131560 g / cm^3
# Si number density = 21.364228 Si / 1000 Ang^3
#
#
#
# Elastic Constant Matrix: (Units=GPa)
#
#
# Indices 1 2 3 4 5 6 
#
# 1 122.7731 48.1868 27.2429 -25.8985 -6.0735 -14.5819
# 2 48.1868 140.2370 35.0104 -35.3565 -11.6161 -9.0878
# 3 27.2429 35.0104 41.3897 -31.1552 -4.4025 -13.7745
# 4 -25.8985 -35.3565 -31.1552 35.8780 2.8520 3.4732
# 5 -6.0735 -11.6161 -4.4025 2.8520 39.0841 -8.5146
# 6 -14.5819 -9.0878 -13.7745 3.4732 -8.5146 33.3912
#
#
#
# Elastic Compliance Matrix: (Units=1/GPa)
#
#
# Indices 1 2 3 4 5 6 
#
# 1 0.010545 -0.001931 0.000338 0.005484 0.001585 0.004053
# 2 -0.001931 0.010217 -0.001137 0.007374 0.002354 0.001301
# 3 0.000338 -0.001137 0.098105 0.079904 0.012606 0.035212
# 4 0.005484 0.007374 0.079904 0.104801 0.010759 0.029206
# 5 0.001585 0.002354 0.012606 0.010759 0.030013 0.013067
# 6 0.004053 0.001301 0.035212 0.029206 0.013067 0.046892
#
#
# Mechanical properties :
#
#
# Convention : Reuss Voigt Hill
#
# Bulk Modulus (GPa) = 8.81783 58.36444 33.59113
# Shear Modulus (GPa) = 14.54190 34.60129 24.57160
#
# Velocity S-wave (km/s) = 2.61179 4.02878 3.39503
# Velocity P-wave (km/s) = 3.63752 7.00139 5.57903
#
# Compressibility (1/GPa) = 0.11340664
#
# Stress axis : x y z
#
# Youngs Moduli (GPa) = 94.83560 97.88066 10.19313
#
# Poissons Ratio (x) = 0.18902 -0.00345
# Poissons Ratio (y) = 0.18314 0.01159
# Poissons Ratio (z) = -0.03207 0.11129
#
# Static dielectric constant tensor:
#      x y z
#    x 1.769250 -0.018930 -0.009790 
#    y -0.018930 1.843380 -0.028710 
#    z -0.009790 -0.028710 1.787750 
# 
# From -- ./inp_files/215328.got.cif
#   From: 2010.05.17/outbox.cif.g08.bks.cpg/sg2_108_cif.got.tgz:215328.got - 2010.06.03 11:33:40.
