data_PCOD9055554
_publ_section_title
;
Structure prediction by ZEFSAII (Michael W. Deem and Ramdas Pophale) SiO2 
 PCOD9055554
Probable space group: P -1
;
_chemical_formula_sum "Si O2"
_cell_formula_units_Z 14
_cell_length_a 7.880573
_cell_length_b 11.625750
_cell_length_c 11.850984
_cell_angle_alpha 49.806597
_cell_angle_beta 80.266973
_cell_angle_gamma 55.328042
_cell_volume 647.307392
_symmetry_space_group_name_H-M "P -1"
_symmetry_group_IT_number 2
_symmetry_cell_setting 'triclinic'
loop_
_space_group_symop_operation_xyz
x,y,z
-x,-y,-z
loop_
_atom_site_type_symbol
_atom_site_label
_atom_site_fract_x
_atom_site_fract_y
_atom_site_fract_z
Si Si1 0.291842 0.697152 0.937962
Si Si2 0.776880 0.206130 0.864680
Si Si3 0.111186 0.278630 0.113243
Si Si4 0.970608 0.959964 0.400023
Si Si5 0.379024 0.879527 0.271370
Si Si6 0.801381 0.538083 0.571804
Si Si7 0.746978 0.803400 0.593993
O O1 0.078196 0.709612 0.938175
O O2 0.500000 0.500000 0.000000
O O3 0.328728 0.719222 0.048591
O O4 0.237957 0.858638 0.754608
O O5 0.636699 0.176703 0.816652
O O6 0.811808 0.351863 0.710109
O O7 0.000000 0.000000 0.000000
O O8 0.167859 0.221154 0.273815
O O9 0.325756 0.087459 0.152362
O O10 0.000000 0.500000 0.000000
O O11 0.180311 0.902281 0.345064
O O12 0.916196 0.814528 0.497226
O O13 0.000000 0.000000 0.500000
O O14 0.592269 0.708399 0.418198
O O15 0.768431 0.630652 0.641410
O O16 0.000000 0.500000 0.500000
O O17 0.500000 0.000000 0.500000
#
# Coordination Sequence:
#
# PCOD9055554 Si02
#       7
#     2   2   2   2   2   2   2
#     4  11  26  41  72 104 135 185 242 290 350 423
#     4  12  25  49  71  99 146 192 238 293 356 430
#     4  11  23  42  65 104 140 178 228 292 361 407
#     4  11  21  42  70 100 139 181 242 283 354 419
#     4  11  24  48  73  99 142 192 238 296 348 440
#     4  12  28  46  73 107 141 190 242 294 364 424
#     4  12  24  42  73 101 142 182 233 305 351 421
#
# _framework density 21.628056000000001
#
# number of rings (size 3 to 8) (size 9 to 14) (size 15 to 20)
#    0.000    0.571    7.143    2.143    6.000    1.143 
#    0.000    0.714    0.000    0.000    0.000    0.000 
#    0.000    0.000    0.000    0.000    0.000    0.000 
#
# Total GULP energy -78058.068078 kJ/mol
# GULP energy per Si atom -5575.576291 kJ/mol
# Density = 2.157883 g / cm^3
# Si number density = 21.628056 Si / 1000 Ang^3
#
#
#
# Elastic Constant Matrix: (Units=GPa)
#
#
# Indices 1 2 3 4 5 6 
#
# 1 42.3913 29.5654 32.4187 -11.0292 12.6442 8.2209
# 2 29.5654 153.4150 56.5955 3.0231 12.5842 17.0638
# 3 32.4187 56.5955 123.7522 -15.3284 18.6141 9.0798
# 4 -11.0292 3.0231 -15.3284 51.4745 11.7394 9.5254
# 5 12.6442 12.5842 18.6141 11.7394 33.5362 -8.4974
# 6 8.2209 17.0638 9.0798 9.5254 -8.4974 49.6000
#
#
#
# Elastic Compliance Matrix: (Units=1/GPa)
#
#
# Indices 1 2 3 4 5 6 
#
# 1 0.040784 -0.004114 -0.003181 0.014621 -0.019971 -0.010992
# 2 -0.004114 0.008594 -0.003121 -0.002218 0.000534 -0.001186
# 3 -0.003181 -0.003121 0.012258 0.005278 -0.007005 -0.002857
# 4 0.014621 -0.002218 0.005278 0.031530 -0.021793 -0.012415
# 5 -0.019971 0.000534 -0.007005 -0.021793 0.053149 0.017699
# 6 -0.010992 -0.001186 -0.002857 -0.012415 0.017699 0.028331
#
#
# Mechanical properties :
#
#
# Convention : Reuss Voigt Hill
#
# Bulk Modulus (GPa) = 24.50660 61.85752 43.18206
# Shear Modulus (GPa) = 23.91442 40.32072 32.11757
#
# Velocity S-wave (km/s) = 3.32883 4.32241 3.85774
# Velocity P-wave (km/s) = 5.11179 7.31941 6.31285
#
# Compressibility (1/GPa) = 0.04080534
#
# Stress axis : x y z
#
# Youngs Moduli (GPa) = 24.51933 116.35907 81.57755
#
# Poissons Ratio (x) = 0.47865 0.25953
# Poissons Ratio (y) = 0.10086 0.25458
# Poissons Ratio (z) = 0.07800 0.36312
#
# Static dielectric constant tensor:
#      x y z
#    x 1.784920 -0.005870 -0.031600 
#    y -0.005870 1.822920 -0.058410 
#    z -0.031600 -0.058410 1.784370 
# 
# From -- ./inp_files/389039.got.cif
#   From: 2010.05.17/outbox.cif.g08.bks.cpg/sg2_195_cif.got.tgz:389039.got - 2010.06.03 11:33:40.
