data_PCOD9055017
_publ_section_title
;
Structure prediction by ZEFSAII (Michael W. Deem and Ramdas Pophale) SiO2 
 PCOD9055017
Probable space group: P -1
;
_chemical_formula_sum "Si O2"
_cell_formula_units_Z 14
_cell_length_a 14.812806
_cell_length_b 11.498809
_cell_length_c 5.078726
_cell_angle_alpha 101.409654
_cell_angle_beta 70.484159
_cell_angle_gamma 139.037354
_cell_volume 532.443540
_symmetry_space_group_name_H-M "P -1"
_symmetry_group_IT_number 2
_symmetry_cell_setting 'triclinic'
loop_
_space_group_symop_operation_xyz
x,y,z
-x,-y,-z
loop_
_atom_site_type_symbol
_atom_site_label
_atom_site_fract_x
_atom_site_fract_y
_atom_site_fract_z
Si Si1 0.657980 0.359109 0.572784
Si Si2 0.868664 0.444248 0.744834
Si Si3 0.067250 0.284895 0.845141
Si Si4 0.642577 0.924269 0.561288
Si Si5 0.358329 0.429154 0.006772
Si Si6 0.775854 0.785517 0.456584
Si Si7 0.781033 0.150646 0.013411
O O1 0.727135 0.314452 0.643216
O O2 0.797122 0.541533 0.372682
O O3 0.520122 0.225121 0.459578
O O4 0.622330 0.417975 0.866414
O O5 0.830590 0.330002 0.985844
O O6 0.000000 0.500000 0.500000
O O7 0.914225 0.620662 0.861878
O O8 0.082686 0.156192 0.757453
O O9 0.917519 0.192406 0.837436
O O10 0.724315 0.872023 0.489661
O O11 0.657532 0.001061 0.861588
O O12 0.731831 0.074907 0.317966
O O13 0.240504 0.260162 0.239339
O O14 0.500000 0.500000 0.000000
O O15 0.335926 0.386646 0.704381
#
# Coordination Sequence:
#
# PCOD9055017 Si02
#       7
#     2   2   2   2   2   2   2
#     4  11  26  43  79 109 141 187 254 300 365 419
#     4  12  25  49  79 105 140 194 257 311 343 426
#     4  11  26  47  79 106 138 196 257 299 350 431
#     4  12  29  47  71 113 156 190 226 304 381 444
#     4  11  21  39  71 110 142 184 237 306 353 421
#     4  11  24  42  74 106 149 183 242 297 367 426
#     4  12  29  48  71 105 157 195 239 290 375 435
#
# _framework density 26.293868
#
# number of rings (size 3 to 8) (size 9 to 14) (size 15 to 20)
#    0.000    0.571    4.286    2.571    6.000    2.286 
#    0.000    0.000    0.000    0.000    0.000    0.000 
#    0.000    0.000    0.000    0.000    0.000    0.000 
#
# Total GULP energy -78325.118762 kJ/mol
# GULP energy per Si atom -5594.651340 kJ/mol
# Density = 2.623402 g / cm^3
# Si number density = 26.293868 Si / 1000 Ang^3
#
#
#
# Elastic Constant Matrix: (Units=GPa)
#
#
# Indices 1 2 3 4 5 6 
#
# 1 165.1341 41.5231 18.6278 -5.8572 -1.9806 7.4888
# 2 41.5231 89.3231 18.6772 3.5435 -0.8650 14.0694
# 3 18.6278 18.6772 74.7594 -1.5045 -2.0176 -17.8567
# 4 -5.8572 3.5435 -1.5045 43.9592 -6.7770 5.5678
# 5 -1.9806 -0.8650 -2.0176 -6.7770 42.8339 0.8336
# 6 7.4888 14.0694 -17.8567 5.5678 0.8336 40.7867
#
#
#
# Elastic Compliance Matrix: (Units=1/GPa)
#
#
# Indices 1 2 3 4 5 6 
#
# 1 0.007021 -0.002894 -0.001231 0.001323 0.000437 -0.001020
# 2 -0.002894 0.014488 -0.004417 -0.000921 -0.000073 -0.006273
# 3 -0.001231 -0.004417 0.016995 -0.000330 0.000423 0.009227
# 4 0.001323 -0.000921 -0.000330 0.024022 0.003894 -0.003428
# 5 0.000437 -0.000073 0.000423 0.003894 0.024018 -0.000893
# 6 -0.001020 -0.006273 0.009227 -0.003428 -0.000893 0.031395
#
#
# Mechanical properties :
#
#
# Convention : Reuss Voigt Hill
#
# Bulk Modulus (GPa) = 46.68793 54.09695 50.39244
# Shear Modulus (GPa) = 35.17056 42.20854 38.68955
#
# Velocity S-wave (km/s) = 3.66128 4.01092 3.84008
# Velocity P-wave (km/s) = 5.97228 6.48603 6.23445
#
# Compressibility (1/GPa) = 0.02141881
#
# Stress axis : x y z
#
# Youngs Moduli (GPa) = 142.43670 69.02195 58.83959
#
# Poissons Ratio (x) = 0.19974 0.07246
# Poissons Ratio (y) = 0.41219 0.25992
# Poissons Ratio (z) = 0.17540 0.30490
#
# Static dielectric constant tensor:
#      x y z
#    x 2.130960 -0.052790 0.005780 
#    y -0.052790 2.097500 -0.006680 
#    z 0.005780 -0.006680 2.073260 
# 
# From -- ./inp_files/60493.got.cif
#   From: 2010.05.17/outbox.cif.g08.bks.cpg/sg2_31_cif.got.tgz:60493.got - 2010.06.03 11:33:40.
