data_PCOD9055232
_publ_section_title
;
Structure prediction by ZEFSAII (Michael W. Deem and Ramdas Pophale) SiO2 
 PCOD9055232
Probable space group: P -1
;
_chemical_formula_sum "Si O2"
_cell_formula_units_Z 12
_cell_length_a 8.655897
_cell_length_b 14.581902
_cell_length_c 5.774886
_cell_angle_alpha 77.312522
_cell_angle_beta 119.082365
_cell_angle_gamma 61.198990
_cell_volume 449.642457
_symmetry_space_group_name_H-M "P -1"
_symmetry_group_IT_number 2
_symmetry_cell_setting 'triclinic'
loop_
_space_group_symop_operation_xyz
x,y,z
-x,-y,-z
loop_
_atom_site_type_symbol
_atom_site_label
_atom_site_fract_x
_atom_site_fract_y
_atom_site_fract_z
Si Si1 0.896903 0.356298 0.735576
Si Si2 0.774486 0.874813 0.201574
Si Si3 0.375139 0.381521 0.824655
Si Si4 0.739742 0.660845 0.736061
Si Si5 0.896628 0.190113 0.144549
Si Si6 0.331444 0.967033 0.339391
O O1 0.700843 0.483053 0.368525
O O2 0.144892 0.240651 0.837190
O O3 0.809056 0.289155 0.813399
O O4 0.001356 0.384438 0.996996
O O5 0.943146 0.801289 0.582565
O O6 0.500000 0.000000 0.000000
O O7 0.825113 0.948601 0.047386
O O8 0.267280 0.369168 0.521581
O O9 0.297613 0.386930 0.027570
O O10 0.659204 0.251052 0.078219
O O11 0.512350 0.817044 0.504020
O O12 0.111156 0.038280 0.321035
O O13 0.500000 0.000000 0.500000
#
# Coordination Sequence:
#
# PCOD9055232 Si02
#       6
#     2   2   2   2   2   2
#     4  11  25  47  75 101 140 198 245 285 344 447
#     4  11  21  40  77 103 131 179 259 291 339 410
#     4  12  31  46  68 112 153 186 229 298 378 411
#     4  12  27  48  73 104 149 189 236 297 359 429
#     4  11  25  45  74 103 142 189 244 298 349 426
#     4  11  22  43  72 105 131 187 249 291 346 424
#
# _framework density 26.687871999999999
#
# number of rings (size 3 to 8) (size 9 to 14) (size 15 to 20)
#    0.000    0.667    5.000    1.500   14.000    2.000 
#    0.000    0.000    0.000    0.000    0.000    0.000 
#    0.000    0.000    0.000    0.000    0.000    0.000 
#
# Total GULP energy -66943.227119 kJ/mol
# GULP energy per Si atom -5578.602260 kJ/mol
# Density = 2.662713 g / cm^3
# Si number density = 26.687872 Si / 1000 Ang^3
#
#
#
# Elastic Constant Matrix: (Units=GPa)
#
#
# Indices 1 2 3 4 5 6 
#
# 1 64.3738 21.6988 21.5350 1.5834 -3.8544 -22.6904
# 2 21.6988 109.2566 31.7567 -15.7231 -7.7254 -25.2966
# 3 21.5350 31.7567 109.9370 -22.7495 -28.2078 3.6954
# 4 1.5834 -15.7231 -22.7495 52.1358 -6.0613 -0.1646
# 5 -3.8544 -7.7254 -28.2078 -6.0613 50.2379 -11.1144
# 6 -22.6904 -25.2966 3.6954 -0.1646 -11.1144 33.7732
#
#
#
# Elastic Compliance Matrix: (Units=1/GPa)
#
#
# Indices 1 2 3 4 5 6 
#
# 1 0.023531 0.000838 -0.005272 -0.002399 0.002638 0.017870
# 2 0.000838 0.013309 -0.002835 0.003204 0.003568 0.012032
# 3 -0.005272 -0.002835 0.014140 0.006245 0.006755 -0.004958
# 4 -0.002399 0.003204 0.006245 0.023798 0.007264 0.002611
# 5 0.002638 0.003568 0.006755 0.007264 0.028207 0.013024
# 6 0.017870 0.012032 -0.004958 0.002611 0.013024 0.055469
#
#
# Mechanical properties :
#
#
# Convention : Reuss Voigt Hill
#
# Bulk Modulus (GPa) = 27.43968 48.17205 37.80587
# Shear Modulus (GPa) = 27.00674 41.13449 34.07061
#
# Velocity S-wave (km/s) = 3.18456 3.93022 3.57688
# Velocity P-wave (km/s) = 4.88118 6.21972 5.59065
#
# Compressibility (1/GPa) = 0.03644357
#
# Stress axis : x y z
#
# Youngs Moduli (GPa) = 42.49655 75.13445 70.72231
#
# Poissons Ratio (x) = -0.06294 0.37282
# Poissons Ratio (y) = -0.03560 0.20047
# Poissons Ratio (z) = 0.22403 0.21298
#
# Static dielectric constant tensor:
#      x y z
#    x 2.194910 -0.016010 -0.048220 
#    y -0.016010 2.270900 0.111180 
#    z -0.048220 0.111180 2.087170 
# 
# From -- ./inp_files/27349.got.cif
#   From: 2010.05.17/outbox.cif.g08.bks.cpg/sg2_14_cif.got.tgz:27349.got - 2010.06.03 11:33:40.
