data_PCOD9055322
_publ_section_title
;
Structure prediction by ZEFSAII (Michael W. Deem and Ramdas Pophale) SiO2 
 PCOD9055322
Probable space group: P -1
;
_chemical_formula_sum "Si O2"
_cell_formula_units_Z 15
_cell_length_a 15.748975
_cell_length_b 6.402392
_cell_length_c 7.807683
_cell_angle_alpha 65.938453
_cell_angle_beta 116.736581
_cell_angle_gamma 91.030145
_cell_volume 628.642695
_symmetry_space_group_name_H-M "P -1"
_symmetry_group_IT_number 2
_symmetry_cell_setting 'triclinic'
loop_
_space_group_symop_operation_xyz
x,y,z
-x,-y,-z
loop_
_atom_site_type_symbol
_atom_site_label
_atom_site_fract_x
_atom_site_fract_y
_atom_site_fract_z
Si Si1 0.514593 0.184222 0.807215
Si Si2 0.313106 0.559362 0.838242
Si Si3 0.859408 0.144504 0.196774
Si Si4 0.029727 0.355470 0.398632
Si Si5 0.500000 0.500000 0.000000
Si Si6 0.357550 0.995550 0.568518
Si Si7 0.289648 0.830726 0.205829
Si Si8 0.224379 0.416666 0.460142
O O1 0.481187 0.420057 0.803857
O O2 0.444425 0.131696 0.610186
O O3 0.621891 0.170702 0.840616
O O4 0.500000 0.000000 0.000000
O O5 0.233689 0.696369 0.847014
O O6 0.406515 0.370198 0.033314
O O7 0.255154 0.478217 0.657364
O O8 0.383245 0.744935 0.778471
O O9 0.938999 0.308384 0.221846
O O10 0.910151 0.904069 0.413150
O O11 0.813572 0.062052 0.010074
O O12 0.108213 0.469333 0.331094
O O13 0.000000 0.500000 0.500000
O O14 0.271169 0.151940 0.545997
O O15 0.315053 0.949289 0.363417
O O16 0.273017 0.574593 0.325417
#
# Coordination Sequence:
#
# PCOD9055322 Si02
#       8
#     2   2   2   2   1   2   2   2
#     4  12  24  42  67  99 133 181 232 273 325 394
#     4  11  21  41  67  99 133 175 226 276 321 399
#     4  11  23  44  70 101 133 169 234 276 330 401
#     4  11  24  43  76 101 125 173 232 285 333 395
#     4  12  22  36  72 102 126 168 236 274 310 394
#     4  11  23  43  63  93 143 182 212 273 341 394
#     4  11  27  42  64 100 139 177 218 274 343 405
#     4  11  24  43  67  96 135 177 218 278 343 394
#
# _framework density 23.860931000000001
#
# number of rings (size 3 to 8) (size 9 to 14) (size 15 to 20)
#    0.000    0.800    6.667    0.400    0.000    3.200 
#    0.000    1.333    0.000    0.000    0.000    0.000 
#    0.000    0.000    0.000    0.000    0.000    0.000 
#
# Total GULP energy -83646.320593 kJ/mol
# GULP energy per Si atom -5576.421373 kJ/mol
# Density = 2.380662 g / cm^3
# Si number density = 23.860931 Si / 1000 Ang^3
#
#
#
# Elastic Constant Matrix: (Units=GPa)
#
#
# Indices 1 2 3 4 5 6 
#
# 1 153.1053 68.7965 44.3113 14.2027 33.4688 26.9535
# 2 68.7965 114.3653 37.7042 30.8353 7.8485 4.6548
# 3 44.3113 37.7042 89.1131 39.4213 22.8120 12.8654
# 4 14.2027 30.8353 39.4213 43.8801 11.3164 14.7463
# 5 33.4688 7.8485 22.8120 11.3164 38.9261 8.1428
# 6 26.9535 4.6548 12.8654 14.7463 8.1428 38.3316
#
#
#
# Elastic Compliance Matrix: (Units=1/GPa)
#
#
# Indices 1 2 3 4 5 6 
#
# 1 0.015109 -0.009717 -0.004894 0.012331 -0.009548 -0.010517
# 2 -0.009717 0.017386 0.000948 -0.014538 0.006728 0.008567
# 3 -0.004894 0.000948 0.022367 -0.019487 -0.004311 0.004231
# 4 0.012331 -0.014538 -0.019487 0.055318 -0.008168 -0.019911
# 5 -0.009548 0.006728 -0.004311 -0.008168 0.036890 0.002650
# 6 -0.010517 0.008567 0.004231 -0.019911 0.002650 0.038120
#
#
# Mechanical properties :
#
#
# Convention : Reuss Voigt Hill
#
# Bulk Modulus (GPa) = 36.31658 73.13418 54.72538
# Shear Modulus (GPa) = 22.55348 37.94567 30.24957
#
# Velocity S-wave (km/s) = 3.07775 3.99216 3.56440
# Velocity P-wave (km/s) = 5.28046 7.20878 6.31861
#
# Compressibility (1/GPa) = 0.02753563
#
# Stress axis : x y z
#
# Youngs Moduli (GPa) = 66.18648 57.51800 44.70773
#
# Poissons Ratio (x) = 0.55889 0.21881
# Poissons Ratio (y) = 0.64311 -0.04236
# Poissons Ratio (z) = 0.32393 -0.05450
#
# Static dielectric constant tensor:
#      x y z
#    x 2.003250 -0.038730 0.057510 
#    y -0.038730 2.009040 -0.109790 
#    z 0.057510 -0.109790 2.115570 
# 
# From -- ./inp_files/288558.got.cif
#   From: 2010.05.17/outbox.cif.g08.bks.cpg/sg2_145_cif.got.tgz:288558.got - 2010.06.03 11:33:40.
