data_PCOD9055080
_publ_section_title
;
Structure prediction by ZEFSAII (Michael W. Deem and Ramdas Pophale) SiO2 
 PCOD9055080
Probable space group: P -1
;
_chemical_formula_sum "Si O2"
_cell_formula_units_Z 15
_cell_length_a 11.665144
_cell_length_b 9.011492
_cell_length_c 8.706759
_cell_angle_alpha 74.442346
_cell_angle_beta 87.453508
_cell_angle_gamma 40.191315
_cell_volume 549.735827
_symmetry_space_group_name_H-M "P -1"
_symmetry_group_IT_number 2
_symmetry_cell_setting 'triclinic'
loop_
_space_group_symop_operation_xyz
x,y,z
-x,-y,-z
loop_
_atom_site_type_symbol
_atom_site_label
_atom_site_fract_x
_atom_site_fract_y
_atom_site_fract_z
Si Si1 0.426546 0.627791 0.671757
Si Si2 0.479814 0.163871 0.570014
Si Si3 0.738842 0.047304 0.778267
Si Si4 0.500000 0.000000 0.000000
Si Si5 0.108826 0.317755 0.895019
Si Si6 0.369401 0.431709 0.078843
Si Si7 0.081672 0.861001 0.735769
Si Si8 0.124277 0.602647 0.339415
O O1 0.429729 0.778975 0.529395
O O2 0.598287 0.336493 0.709066
O O3 0.466614 0.639292 0.839070
O O4 0.238333 0.732269 0.636481
O O5 0.608071 0.032582 0.752402
O O6 0.262573 0.417737 0.520424
O O7 0.500000 0.000000 0.500000
O O8 0.823039 0.918450 0.974856
O O9 0.920260 0.904497 0.711438
O O10 0.713220 0.768625 0.116622
O O11 0.537785 0.800799 0.955313
O O12 0.000000 0.500000 0.000000
O O13 0.999325 0.403393 0.721603
O O14 0.264025 0.484710 0.222429
O O15 0.207733 0.675893 0.921436
O O16 0.986733 0.125363 0.699164
#
# Coordination Sequence:
#
# PCOD9055080 Si02
#       8
#     2   2   2   1   2   2   2   2
#     4  11  25  43  71 101 137 181 233 282 346 403
#     4  11  26  47  69  98 142 185 226 282 352 410
#     4  12  24  44  74  98 139 183 227 290 338 406
#     4  12  24  38  66 102 152 170 232 272 348 410
#     4  12  23  40  68 101 138 183 223 280 345 406
#     4  11  21  40  66 107 139 181 216 292 346 403
#     4  12  22  42  72 103 132 175 237 285 337 405
#     4  11  22  43  70  94 139 181 222 282 347 400
#
# _framework density 27.285834000000001
#
# number of rings (size 3 to 8) (size 9 to 14) (size 15 to 20)
#    0.000    0.533    5.333    4.400    1.867    0.533 
#    0.000    0.667    0.000    0.000    0.000    0.000 
#    0.000    0.000    0.000    0.000    0.000    0.000 
#
# Total GULP energy -83813.334886 kJ/mol
# GULP energy per Si atom -5587.555659 kJ/mol
# Density = 2.722373 g / cm^3
# Si number density = 27.285834 Si / 1000 Ang^3
#
#
#
# Elastic Constant Matrix: (Units=GPa)
#
#
# Indices 1 2 3 4 5 6 
#
# 1 165.1791 44.0947 34.2272 -2.9717 55.2044 -16.6625
# 2 44.0947 159.2680 37.1277 -24.6619 28.3695 13.7178
# 3 34.2272 37.1277 124.2963 -3.9411 26.9848 5.5004
# 4 -2.9717 -24.6619 -3.9411 30.8270 6.4242 12.5214
# 5 55.2044 28.3695 26.9848 6.4242 67.7674 1.4024
# 6 -16.6625 13.7178 5.5004 12.5214 1.4024 58.7124
#
#
#
# Elastic Compliance Matrix: (Units=1/GPa)
#
#
# Indices 1 2 3 4 5 6 
#
# 1 0.009122 -0.001526 -0.000802 -0.000415 -0.006501 0.003264
# 2 -0.001526 0.009419 -0.001226 0.009698 -0.003037 -0.004514
# 3 -0.000802 -0.001226 0.009276 0.001067 -0.002607 -0.000975
# 4 -0.000415 0.009698 0.001067 0.047036 -0.008350 -0.012315
# 5 -0.006501 -0.003037 -0.002607 -0.008350 0.023147 0.000337
# 6 0.003264 -0.004514 -0.000975 -0.012315 0.000337 0.021723
#
#
# Mechanical properties :
#
#
# Convention : Reuss Voigt Hill
#
# Bulk Modulus (GPa) = 48.29356 75.51583 61.90470
# Shear Modulus (GPa) = 37.38756 53.68094 45.53425
#
# Velocity S-wave (km/s) = 3.70566 4.44030 4.08951
# Velocity P-wave (km/s) = 6.00390 7.35012 6.71085
#
# Compressibility (1/GPa) = 0.02070669
#
# Stress axis : x y z
#
# Youngs Moduli (GPa) = 109.62318 106.17267 107.80899
#
# Poissons Ratio (x) = 0.16202 0.08651
# Poissons Ratio (y) = 0.16728 0.13223
# Poissons Ratio (z) = 0.08796 0.13022
#
# Static dielectric constant tensor:
#      x y z
#    x 2.320600 -0.102540 0.024280 
#    y -0.102540 2.119800 0.016700 
#    z 0.024280 0.016700 2.245410 
# 
# From -- ./inp_files/417150.got.cif
#   From: 2010.05.17/outbox.cif.g08.bks.cpg/sg2_209_cif.got.tgz:417150.got - 2010.06.03 11:33:40.
