data_PCOD9055523
_publ_section_title
;
Structure prediction by ZEFSAII (Michael W. Deem and Ramdas Pophale) SiO2 
 PCOD9055523
Probable space group: P -1
;
_chemical_formula_sum "Si O2"
_cell_formula_units_Z 16
_cell_length_a 8.924569
_cell_length_b 24.183770
_cell_length_c 8.814162
_cell_angle_alpha 53.055529
_cell_angle_beta 128.635107
_cell_angle_gamma 149.685877
_cell_volume 740.699584
_symmetry_space_group_name_H-M "P -1"
_symmetry_group_IT_number 2
_symmetry_cell_setting 'triclinic'
loop_
_space_group_symop_operation_xyz
x,y,z
-x,-y,-z
loop_
_atom_site_type_symbol
_atom_site_label
_atom_site_fract_x
_atom_site_fract_y
_atom_site_fract_z
Si Si1 0.168488 0.954303 0.582273
Si Si2 0.572367 0.289951 0.000353
Si Si3 0.904108 0.512978 0.185507
Si Si4 0.359932 0.896015 0.990085
Si Si5 0.558904 0.824024 0.582723
Si Si6 0.706629 0.661312 0.092719
Si Si7 0.800490 0.901754 0.156407
Si Si8 0.984742 0.601454 0.419554
O O1 0.297467 0.914619 0.757391
O O2 0.893979 0.890046 0.637001
O O3 0.015435 0.922777 0.375400
O O4 0.412216 0.084911 0.545189
O O5 0.534270 0.230908 0.220814
O O6 0.405564 0.314045 0.898666
O O7 0.413398 0.209831 0.888506
O O8 0.918227 0.403932 0.980884
O O9 0.038990 0.474796 0.370148
O O10 0.961148 0.572166 0.277279
O O11 0.546514 0.408375 0.086761
O O12 0.599294 0.901695 0.117956
O O13 0.038869 0.778074 0.047201
O O14 0.500000 0.000000 0.000000
O O15 0.312481 0.725555 0.470843
O O16 0.742834 0.595236 0.294476
O O17 0.000000 0.000000 0.000000
#
# Coordination Sequence:
#
# PCOD9055523 Si02
#       8
#     2   2   2   2   2   2   2   2
#     4  11  22  42  70  96 135 185 224 269 341 416
#     4  12  24  45  66 100 143 176 219 296 337 390
#     4  11  25  45  69  96 139 174 229 286 338 394
#     4  12  24  43  74 104 133 181 231 277 336 415
#     4  11  21  42  68  97 135 178 224 277 342 401
#     4  12  24  44  71  99 133 178 230 275 339 409
#     4  12  26  45  67 103 142 175 223 288 340 396
#     4  11  24  44  70  96 127 182 234 272 338 415
#
# _framework density 21.601199000000001
#
# number of rings (size 3 to 8) (size 9 to 14) (size 15 to 20)
#    0.000    0.500    3.750    6.000    0.000    2.000 
#    2.250    0.000    0.000    0.000    0.000    0.000 
#    0.000    0.000    0.000    0.000    0.000    0.000 
#
# Total GULP energy -89561.867158 kJ/mol
# GULP energy per Si atom -5597.616697 kJ/mol
# Density = 2.155203 g / cm^3
# Si number density = 21.601199 Si / 1000 Ang^3
#
#
#
# Elastic Constant Matrix: (Units=GPa)
#
#
# Indices 1 2 3 4 5 6 
#
# 1 49.8112 40.5171 9.9601 10.6017 -6.8620 -15.2176
# 2 40.5171 116.5557 29.3576 13.1766 -17.6557 -12.4771
# 3 9.9601 29.3576 107.9673 6.0802 -0.7774 -3.1257
# 4 10.6017 13.1766 6.0802 32.4951 5.2616 -10.4077
# 5 -6.8620 -17.6557 -0.7774 5.2616 34.8767 -9.1571
# 6 -15.2176 -12.4771 -3.1257 -10.4077 -9.1571 39.2190
#
#
#
# Elastic Compliance Matrix: (Units=1/GPa)
#
#
# Indices 1 2 3 4 5 6 
#
# 1 0.031755 -0.008752 0.000019 -0.004585 0.005001 0.009489
# 2 -0.008752 0.013639 -0.002667 -0.002684 0.005894 0.001395
# 3 0.000019 -0.002667 0.010006 -0.000778 -0.001142 -0.000517
# 4 -0.004585 -0.002684 -0.000778 0.036274 -0.006318 0.005456
# 5 0.005001 0.005894 -0.001142 -0.006318 0.036333 0.010531
# 6 0.009489 0.001395 -0.000517 0.005456 0.010531 0.033489
#
#
# Mechanical properties :
#
#
# Convention : Reuss Voigt Hill
#
# Bulk Modulus (GPa) = 30.67428 48.22263 39.44845
# Shear Modulus (GPa) = 25.61960 34.28479 29.95220
#
# Velocity S-wave (km/s) = 3.44761 3.98825 3.72775
# Velocity P-wave (km/s) = 5.48444 6.60157 6.06877
#
# Compressibility (1/GPa) = 0.03260061
#
# Stress axis : x y z
#
# Youngs Moduli (GPa) = 31.49151 73.31758 99.93813
#
# Poissons Ratio (x) = 0.64165 -0.00192
# Poissons Ratio (y) = 0.27560 0.26657
# Poissons Ratio (z) = -0.00061 0.19557
#
# Static dielectric constant tensor:
#      x y z
#    x 1.757760 -0.009130 -0.008930 
#    y -0.009130 1.793680 0.000850 
#    z -0.008930 0.000850 1.820570 
# 
# From -- ./inp_files/226208.got.cif
#   From: 2010.05.17/outbox.cif.g08.bks.cpg/sg2_114_cif.got.tgz:226208.got - 2010.06.03 11:33:40.
