data_PCOD9055664
_publ_section_title
;
Structure prediction by ZEFSAII (Michael W. Deem and Ramdas Pophale) SiO2 
 PCOD9055664
Probable space group: P -1
;
_chemical_formula_sum "Si O2"
_cell_formula_units_Z 16
_cell_length_a 18.648184
_cell_length_b 23.968594
_cell_length_c 12.044514
_cell_angle_alpha 153.764208
_cell_angle_beta 27.235596
_cell_angle_gamma 162.943243
_cell_volume 677.012978
_symmetry_space_group_name_H-M "P -1"
_symmetry_group_IT_number 2
_symmetry_cell_setting 'triclinic'
loop_
_space_group_symop_operation_xyz
x,y,z
-x,-y,-z
loop_
_atom_site_type_symbol
_atom_site_label
_atom_site_fract_x
_atom_site_fract_y
_atom_site_fract_z
Si Si1 0.837884 0.220995 0.759714
Si Si2 0.093553 0.468131 0.054690
Si Si3 0.447072 0.561853 0.086553
Si Si4 0.477919 0.808135 0.641629
Si Si5 0.423559 0.126864 0.121100
Si Si6 0.860844 0.806463 0.778505
Si Si7 0.966329 0.325775 0.212258
Si Si8 0.605805 0.710112 0.738379
O O1 0.965954 0.207750 0.475148
O O2 0.608582 0.015051 0.779508
O O3 0.052231 0.370577 0.823240
O O4 0.718815 0.271759 0.964254
O O5 0.830481 0.383370 0.266633
O O6 0.061608 0.368526 0.032244
O O7 0.394234 0.678508 0.017586
O O8 0.530164 0.744540 0.356175
O O9 0.154055 0.382743 0.142012
O O10 0.500000 0.500000 0.000000
O O11 0.596332 0.622739 0.877915
O O12 0.595182 0.859726 0.695187
O O13 0.335843 0.192111 0.287228
O O14 0.286650 0.916871 0.879956
O O15 0.818418 0.828397 0.750536
O O16 0.000000 0.000000 0.000000
O O17 0.000000 0.500000 0.500000
O O18 0.500000 0.500000 0.500000
#
# Coordination Sequence:
#
# PCOD9055664 Si02
#       8
#     2   2   2   2   2   2   2   2
#     4  11  21  45  74 105 142 182 243 296 365 419
#     4  11  21  42  76 101 140 186 237 297 352 422
#     4  12  28  43  70 105 144 189 236 298 367 423
#     4  11  22  45  75 106 141 186 244 302 357 423
#     4  11  26  44  79 108 138 194 245 294 358 432
#     4  12  27  46  70 100 152 193 226 301 371 423
#     4  12  23  46  73 105 140 181 242 298 353 428
#     4  12  28  48  68 107 150 191 238 296 359 427
#
# _framework density 23.633224999999999
#
# number of rings (size 3 to 8) (size 9 to 14) (size 15 to 20)
#    0.000    0.500    7.500    0.750    3.500    3.000 
#    0.000    3.125    0.000    0.000    0.000    0.000 
#    0.000    0.000    0.000    0.000    0.000    0.000 
#
# Total GULP energy -89128.500751 kJ/mol
# GULP energy per Si atom -5570.531297 kJ/mol
# Density = 2.357943 g / cm^3
# Si number density = 23.633225 Si / 1000 Ang^3
#
#
#
# Elastic Constant Matrix: (Units=GPa)
#
#
# Indices 1 2 3 4 5 6 
#
# 1 181.2128 26.8121 23.2084 14.6326 -13.1657 23.2393
# 2 26.8121 61.1652 8.0552 0.5445 0.3217 15.3406
# 3 23.2084 8.0552 70.1838 -3.6016 10.3454 -1.7305
# 4 14.6326 0.5445 -3.6016 34.7279 4.4936 5.6041
# 5 -13.1657 0.3217 10.3454 4.4936 24.7111 2.4565
# 6 23.2393 15.3406 -1.7305 5.6041 2.4565 37.0772
#
#
#
# Elastic Compliance Matrix: (Units=1/GPa)
#
#
# Indices 1 2 3 4 5 6 
#
# 1 0.007537 -0.001834 -0.003544 -0.003722 0.006599 -0.004005
# 2 -0.001834 0.019132 -0.001676 0.001449 -0.000087 -0.007058
# 3 -0.003544 -0.001676 0.017429 0.004044 -0.010276 0.003798
# 4 -0.003722 0.001449 0.004044 0.032348 -0.009344 -0.002348
# 5 0.006599 -0.000087 -0.010276 -0.009344 0.050634 -0.006522
# 6 -0.004005 -0.007058 0.003798 -0.002348 -0.006522 0.033366
#
#
# Mechanical properties :
#
#
# Convention : Reuss Voigt Hill
#
# Bulk Modulus (GPa) = 33.34656 47.63481 40.49068
# Shear Modulus (GPa) = 27.09281 36.26898 31.68090
#
# Velocity S-wave (km/s) = 3.38951 3.92172 3.66529
# Velocity P-wave (km/s) = 5.42761 6.38014 5.92306
#
# Compressibility (1/GPa) = 0.02998810
#
# Stress axis : x y z
#
# Youngs Moduli (GPa) = 132.67317 52.26959 57.37682
#
# Poissons Ratio (x) = 0.09588 0.20336
# Poissons Ratio (y) = 0.24336 0.09617
# Poissons Ratio (z) = 0.47024 0.08761
#
# Static dielectric constant tensor:
#      x y z
#    x 1.889850 -0.141950 -0.206770 
#    y -0.141950 2.998500 1.955510 
#    z -0.206770 1.955510 5.897460 
# 
# From -- ./inp_files/467465.got.cif
#   From: 2010.05.17/outbox.cif.g08.bks.cpg/sg2_234_cif.got.tgz:467465.got - 2010.06.03 11:33:40.
