data_PCOD9055745
_publ_section_title
;
Structure prediction by ZEFSAII (Michael W. Deem and Ramdas Pophale) SiO2 
 PCOD9055745
Probable space group: P -1
;
_chemical_formula_sum "Si O2"
_cell_formula_units_Z 16
_cell_length_a 12.961931
_cell_length_b 9.581778
_cell_length_c 8.970415
_cell_angle_alpha 77.134561
_cell_angle_beta 86.648331
_cell_angle_gamma 43.858684
_cell_volume 743.924037
_symmetry_space_group_name_H-M "P -1"
_symmetry_group_IT_number 2
_symmetry_cell_setting 'triclinic'
loop_
_space_group_symop_operation_xyz
x,y,z
-x,-y,-z
loop_
_atom_site_type_symbol
_atom_site_label
_atom_site_fract_x
_atom_site_fract_y
_atom_site_fract_z
Si Si1 0.108542 0.769874 0.109277
Si Si2 0.742393 0.534476 0.068802
Si Si3 0.126534 0.990784 0.448808
Si Si4 0.304558 0.808769 0.182552
Si Si5 0.204683 0.315002 0.694497
Si Si6 0.585061 0.142455 0.115798
Si Si7 0.623738 0.375806 0.272259
Si Si8 0.040384 0.643860 0.412602
O O1 0.262556 0.700869 0.134509
O O2 0.061016 0.755981 0.274800
O O3 0.132666 0.615146 0.031793
O O4 0.000000 0.000000 0.000000
O O5 0.783643 0.604657 0.175949
O O6 0.722426 0.398856 0.178829
O O7 0.582138 0.727710 0.957340
O O8 0.176226 0.962160 0.280512
O O9 0.278370 0.787212 0.565408
O O10 0.000000 0.000000 0.500000
O O11 0.063943 0.197515 0.480373
O O12 0.471786 0.610893 0.277609
O O13 0.319749 0.913141 0.028441
O O14 0.193973 0.431394 0.524562
O O15 0.050452 0.382115 0.667415
O O16 0.336692 0.065188 0.752720
O O17 0.589421 0.281508 0.182555
#
# Coordination Sequence:
#
# PCOD9055745 Si02
#       8
#     2   2   2   2   2   2   2   2
#     4  12  23  40  68 107 131 167 224 287 329 395
#     4  11  23  41  71  97 128 176 228 272 335 395
#     4  12  23  39  67  99 134 173 216 274 337 392
#     4  11  23  39  69 102 132 164 227 279 336 390
#     4  11  25  46  64  90 138 183 218 271 330 403
#     4  11  21  46  68  95 131 178 220 280 332 389
#     4  11  21  43  69  99 133 172 219 286 334 385
#     4  11  25  44  63  93 142 177 217 271 341 391
#
# _framework density 21.507573000000001
#
# number of rings (size 3 to 8) (size 9 to 14) (size 15 to 20)
#    0.000    0.750    5.000    3.750    1.750    0.500 
#    4.500    0.625    0.000    0.000    0.000    0.000 
#    0.000    0.000    0.000    0.000    0.000    0.000 
#
# Total GULP energy -89390.682182 kJ/mol
# GULP energy per Si atom -5586.917636 kJ/mol
# Density = 2.145862 g / cm^3
# Si number density = 21.507573 Si / 1000 Ang^3
#
#
#
# Elastic Constant Matrix: (Units=GPa)
#
#
# Indices 1 2 3 4 5 6 
#
# 1 47.2605 23.7135 29.9651 12.6090 15.4097 5.0492
# 2 23.7135 95.7377 58.4832 2.1570 -8.3399 12.6438
# 3 29.9651 58.4832 110.0895 -10.6357 -1.4575 -3.9710
# 4 12.6090 2.1570 -10.6357 50.5906 2.3991 1.0031
# 5 15.4097 -8.3399 -1.4575 2.3991 34.7912 6.9449
# 6 5.0492 12.6438 -3.9710 1.0031 6.9449 26.5119
#
#
#
# Elastic Compliance Matrix: (Units=1/GPa)
#
#
# Indices 1 2 3 4 5 6 
#
# 1 0.037877 -0.005108 -0.008857 -0.010235 -0.017436 -0.001150
# 2 -0.005108 0.020258 -0.009880 -0.001862 0.009337 -0.012543
# 3 -0.008857 -0.009880 0.017656 0.006161 0.000117 0.008780
# 4 -0.010235 -0.001862 0.006161 0.023539 0.002268 0.002275
# 5 -0.017436 0.009337 0.000117 0.002268 0.040932 -0.011923
# 6 -0.001150 -0.012543 0.008780 0.002275 -0.011923 0.048272
#
#
# Mechanical properties :
#
#
# Convention : Reuss Voigt Hill
#
# Bulk Modulus (GPa) = 35.58602 53.04570 44.31586
# Shear Modulus (GPa) = 20.35899 31.77381 26.06640
#
# Velocity S-wave (km/s) = 3.08002 3.84778 3.48510
# Velocity P-wave (km/s) = 5.40652 6.66767 6.06993
#
# Compressibility (1/GPa) = 0.02810092
#
# Stress axis : x y z
#
# Youngs Moduli (GPa) = 26.40130 49.36432 56.63646
#
# Poissons Ratio (x) = 0.25213 0.50166
# Poissons Ratio (y) = 0.13485 0.55957
# Poissons Ratio (z) = 0.23385 0.48772
#
# Static dielectric constant tensor:
#      x y z
#    x 1.800380 0.000700 0.006780 
#    y 0.000700 1.819090 -0.016230 
#    z 0.006780 -0.016230 1.833440 
# 
# From -- ./inp_files/184410.got.cif
#   From: 2010.05.17/outbox.cif.g08.bks.cpg/sg2_93_cif.got.tgz:184410.got - 2010.06.03 11:33:40.
