data_PCOD9055924
_publ_section_title
;
Structure prediction by ZEFSAII (Michael W. Deem and Ramdas Pophale) SiO2 
 PCOD9055924
Probable space group: P -1
;
_chemical_formula_sum "Si O2"
_cell_formula_units_Z 14
_cell_length_a 21.470472
_cell_length_b 12.854314
_cell_length_c 19.908272
_cell_angle_alpha 23.829883
_cell_angle_beta 160.544734
_cell_angle_gamma 141.222481
_cell_volume 582.265918
_symmetry_space_group_name_H-M "P -1"
_symmetry_group_IT_number 2
_symmetry_cell_setting 'triclinic'
loop_
_space_group_symop_operation_xyz
x,y,z
-x,-y,-z
loop_
_atom_site_type_symbol
_atom_site_label
_atom_site_fract_x
_atom_site_fract_y
_atom_site_fract_z
Si Si1 0.296295 0.515728 0.509444
Si Si2 0.381061 0.038181 0.283599
Si Si3 0.072135 0.328807 0.602171
Si Si4 0.675163 0.472992 0.317734
Si Si5 0.668065 0.108843 0.424729
Si Si6 0.145525 0.106813 0.545890
Si Si7 0.861214 0.002210 0.548019
O O1 0.326539 0.787879 0.359081
O O2 0.222327 0.596604 0.463885
O O3 0.139372 0.414005 0.379917
O O4 0.575195 0.192483 0.983458
O O5 0.500000 0.000000 0.500000
O O6 0.531669 0.019519 0.384254
O O7 0.129748 0.394222 0.816212
O O8 0.055828 0.040528 0.748389
O O9 0.000000 0.500000 0.500000
O O10 0.187369 0.850952 0.396239
O O11 0.690663 0.737210 0.141868
O O12 0.396020 0.645435 0.938022
O O13 0.801128 0.905068 0.613700
O O14 0.500000 0.500000 0.000000
O O15 0.076807 0.159042 0.366272
O O16 0.000000 0.000000 0.500000
#
# Coordination Sequence:
#
# PCOD9055924 Si02
#       7
#     2   2   2   2   2   2   2
#     4  10  22  38  60  89 123 165 210 266 312 368
#     4  12  22  39  63  98 137 164 204 266 322 372
#     4  12  21  34  62  95 128 167 207 245 318 400
#     4  10  18  34  56  89 125 158 195 247 320 372
#     4  10  17  36  59  85 129 168 186 241 324 380
#     4  10  21  42  63  84 120 169 223 260 313 371
#     4  10  19  37  59  86 122 166 206 255 309 373
#
# _framework density 24.043997999999998
#
# number of rings (size 3 to 8) (size 9 to 14) (size 15 to 20)
#    0.000    1.429    5.714    2.571    0.000    0.571 
#    2.571    0.714    0.000    1.714    0.000    0.000 
#    0.000    0.000    0.000    0.000    0.000    0.000 
#
# Total GULP energy -78016.787634 kJ/mol
# GULP energy per Si atom -5572.627688 kJ/mol
# Density = 2.398927 g / cm^3
# Si number density = 24.043998 Si / 1000 Ang^3
#
#
#
# Elastic Constant Matrix: (Units=GPa)
#
#
# Indices 1 2 3 4 5 6 
#
# 1 214.4403 112.1357 7.8122 13.6183 4.4370 8.7259
# 2 112.1357 200.5261 24.2495 28.7564 3.5099 11.6259
# 3 7.8122 24.2495 43.0301 5.0605 -0.6220 8.7123
# 4 13.6183 28.7564 5.0605 30.9041 7.3542 -1.8994
# 5 4.4370 3.5099 -0.6220 7.3542 18.4347 10.4492
# 6 8.7259 11.6259 8.7123 -1.8994 10.4492 59.1483
#
#
#
# Elastic Compliance Matrix: (Units=1/GPa)
#
#
# Indices 1 2 3 4 5 6 
#
# 1 0.006658 -0.003925 0.000918 0.000816 -0.001076 -0.000130
# 2 -0.003925 0.008489 -0.003029 -0.006344 0.002486 -0.001286
# 3 0.000918 -0.003029 0.026135 -0.003339 0.005058 -0.004390
# 4 0.000816 -0.006344 -0.003339 0.043677 -0.020267 0.006601
# 5 -0.001076 0.002486 0.005058 -0.020267 0.070305 -0.014146
# 6 -0.000130 -0.001286 -0.004390 0.006601 -0.014146 0.020536
#
#
# Mechanical properties :
#
#
# Convention : Reuss Voigt Hill
#
# Bulk Modulus (GPa) = 34.23539 82.93234 58.58387
# Shear Modulus (GPa) = 25.30261 42.61737 33.95999
#
# Velocity S-wave (km/s) = 3.24751 4.21464 3.76228
# Velocity P-wave (km/s) = 5.32272 7.63224 6.57960
#
# Compressibility (1/GPa) = 0.02920954
#
# Stress axis : x y z
#
# Youngs Moduli (GPa) = 150.19569 117.80244 38.26355
#
# Poissons Ratio (x) = 0.46236 -0.03512
# Poissons Ratio (y) = 0.58950 0.11589
# Poissons Ratio (z) = -0.13785 0.35680
#
# Static dielectric constant tensor:
#      x y z
#    x 1.981320 0.000350 -0.049290 
#    y 0.000350 2.037270 0.029700 
#    z -0.049290 0.029700 2.022200 
# 
# From -- ./inp_files/413068.got.cif
#   From: 2010.05.17/outbox.cif.g08.bks.cpg/sg2_207_cif.got.tgz:413068.got - 2010.06.03 11:33:40.
