data_PCOD9055595
_publ_section_title
;
Structure prediction by ZEFSAII (Michael W. Deem and Ramdas Pophale) SiO2 
 PCOD9055595
Probable space group: P -1
;
_chemical_formula_sum "Si O2"
_cell_formula_units_Z 12
_cell_length_a 14.842405
_cell_length_b 11.323449
_cell_length_c 6.510071
_cell_angle_alpha 102.698242
_cell_angle_beta 94.486563
_cell_angle_gamma 28.908963
_cell_volume 500.629500
_symmetry_space_group_name_H-M "P -1"
_symmetry_group_IT_number 2
_symmetry_cell_setting 'triclinic'
loop_
_space_group_symop_operation_xyz
x,y,z
-x,-y,-z
loop_
_atom_site_type_symbol
_atom_site_label
_atom_site_fract_x
_atom_site_fract_y
_atom_site_fract_z
Si Si1 0.486993 0.525288 0.266047
Si Si2 0.093224 0.643480 0.262132
Si Si3 0.239023 0.009069 0.916718
Si Si4 0.684427 0.813856 0.097991
Si Si5 0.927753 0.457473 0.370234
Si Si6 0.207033 0.731186 0.043184
O O1 0.500000 0.500000 0.500000
O O2 0.274661 0.757694 0.223196
O O3 0.590364 0.280550 0.108851
O O4 0.630696 0.458496 0.179790
O O5 0.115739 0.593154 0.486300
O O6 0.202582 0.616046 0.139729
O O7 0.876736 0.920312 0.258507
O O8 0.146615 0.449072 0.102617
O O9 0.309789 0.050017 0.851547
O O10 0.096331 0.209458 0.155500
O O11 0.736554 0.707229 0.294952
O O12 0.500000 0.000000 0.000000
O O13 0.000000 0.500000 0.500000
O O14 0.000000 0.000000 0.000000
#
# Coordination Sequence:
#
# PCOD9055595 Si02
#       6
#     2   2   2   2   2   2
#     4  11  27  49  75 106 142 191 246 301 358 424
#     4  11  22  43  72 103 142 190 235 291 363 430
#     4  11  22  44  71 103 145 180 240 300 348 430
#     4  11  23  40  67 105 147 178 235 299 354 427
#     4  11  21  42  71 103 137 193 232 279 367 429
#     4  11  25  50  74 105 143 191 248 305 352 426
#
# _framework density 23.969822000000001
#
# number of rings (size 3 to 8) (size 9 to 14) (size 15 to 20)
#    0.000    1.000    5.000    2.000    0.000    6.667 
#    0.000    0.000    0.000    0.000    0.000    0.000 
#    0.000    0.000    0.000    0.000    0.000    0.000 
#
# Total GULP energy -66952.624233 kJ/mol
# GULP energy per Si atom -5579.385353 kJ/mol
# Density = 2.391527 g / cm^3
# Si number density = 23.969822 Si / 1000 Ang^3
#
#
#
# Elastic Constant Matrix: (Units=GPa)
#
#
# Indices 1 2 3 4 5 6 
#
# 1 114.0744 35.8004 51.0553 -24.1981 -32.3027 -6.2196
# 2 35.8004 121.3668 39.7770 -31.2316 -0.6980 -10.7973
# 3 51.0553 39.7770 150.8002 -48.6241 -19.6997 -2.3077
# 4 -24.1981 -31.2316 -48.6241 42.2023 14.6823 10.8060
# 5 -32.3027 -0.6980 -19.6997 14.6823 42.6064 -11.9852
# 6 -6.2196 -10.7973 -2.3077 10.8060 -11.9852 51.1820
#
#
#
# Elastic Compliance Matrix: (Units=1/GPa)
#
#
# Indices 1 2 3 4 5 6 
#
# 1 0.014143 -0.003511 -0.003436 -0.003538 0.011494 0.004262
# 2 -0.003511 0.011370 0.000373 0.009205 -0.005847 -0.001324
# 3 -0.003436 0.000373 0.011651 0.013569 -0.002828 -0.003340
# 4 -0.003538 0.009205 0.013569 0.054153 -0.018775 -0.013706
# 5 0.011494 -0.005847 -0.002828 -0.018775 0.041083 0.013620
# 6 0.004262 -0.001324 -0.003340 -0.013706 0.013620 0.025709
#
#
# Mechanical properties :
#
#
# Convention : Reuss Voigt Hill
#
# Bulk Modulus (GPa) = 41.63859 71.05630 56.34745
# Shear Modulus (GPa) = 27.89221 44.50539 36.19880
#
# Velocity S-wave (km/s) = 3.41492 4.31365 3.89032
# Velocity P-wave (km/s) = 5.74089 7.38366 6.61348
#
# Compressibility (1/GPa) = 0.02401618
#
# Stress axis : x y z
#
# Youngs Moduli (GPa) = 70.70855 87.95089 85.83121
#
# Poissons Ratio (x) = 0.30878 0.29493
# Poissons Ratio (y) = 0.24824 -0.03205
# Poissons Ratio (z) = 0.24297 -0.03284
#
# Static dielectric constant tensor:
#      x y z
#    x 1.970880 -0.080500 -0.018660 
#    y -0.080500 2.151860 -0.032550 
#    z -0.018660 -0.032550 1.976390 
# 
# From -- ./inp_files/94965.got.cif
#   From: 2010.05.17/outbox.cif.g08.bks.cpg/sg2_48_cif.got.tgz:94965.got - 2010.06.03 11:33:40.
