data_PCOD9055627
_publ_section_title
;
Structure prediction by ZEFSAII (Michael W. Deem and Ramdas Pophale) SiO2 
 PCOD9055627
Probable space group: P -1
;
_chemical_formula_sum "Si O2"
_cell_formula_units_Z 16
_cell_length_a 8.973110
_cell_length_b 15.781411
_cell_length_c 13.589445
_cell_angle_alpha 152.652912
_cell_angle_beta 70.934546
_cell_angle_gamma 99.738333
_cell_volume 802.430684
_symmetry_space_group_name_H-M "P -1"
_symmetry_group_IT_number 2
_symmetry_cell_setting 'triclinic'
loop_
_space_group_symop_operation_xyz
x,y,z
-x,-y,-z
loop_
_atom_site_type_symbol
_atom_site_label
_atom_site_fract_x
_atom_site_fract_y
_atom_site_fract_z
Si Si1 0.586680 0.980795 0.611756
Si Si2 0.571596 0.674474 0.134251
Si Si3 0.846013 0.365373 0.661486
Si Si4 0.914159 0.174028 0.996569
Si Si5 0.725748 0.066285 0.262612
Si Si6 0.059597 0.037176 0.417157
Si Si7 0.314096 0.017103 0.031497
Si Si8 0.907953 0.563557 0.483108
O O1 0.551641 0.175068 0.755372
O O2 0.598948 0.803472 0.352149
O O3 0.426450 0.002262 0.735301
O O4 0.756474 0.944953 0.595230
O O5 0.500000 0.500000 0.000000
O O6 0.741525 0.569195 0.935250
O O7 0.729887 0.254772 0.517427
O O8 0.940502 0.223795 0.581570
O O9 0.971456 0.390722 0.577624
O O10 0.935597 0.138948 0.839362
O O11 0.790292 0.057370 0.941035
O O12 0.849839 0.390051 0.270639
O O13 0.095383 0.081353 0.908038
O O14 0.703850 0.093291 0.178924
O O15 0.000000 0.000000 0.500000
O O16 0.230306 0.241986 0.265984
O O17 0.500000 0.000000 0.000000
O O18 0.000000 0.500000 0.500000
#
# Coordination Sequence:
#
# PCOD9055627 Si02
#       8
#     2   2   2   2   2   2   2   2
#     4  11  25  42  69  97 135 178 227 284 337 389
#     4  11  23  43  66  98 133 176 231 277 330 407
#     4  11  24  44  70 101 134 181 231 273 344 413
#     4  11  24  46  69  98 140 180 231 275 337 415
#     4  11  21  42  72  95 133 180 220 281 335 405
#     4  11  25  45  67  99 142 182 224 286 342 391
#     4  12  25  45  70 102 141 172 224 289 344 400
#     4  12  24  44  74 100 131 183 229 275 344 411
#
# _framework density 19.939416000000001
#
# number of rings (size 3 to 8) (size 9 to 14) (size 15 to 20)
#    0.000    0.750    5.000    3.375    7.000    1.000 
#    4.500    0.000    0.000    0.000    0.000    0.000 
#    0.000    0.000    0.000    0.000    0.000    0.000 
#
# Total GULP energy -89452.769323 kJ/mol
# GULP energy per Si atom -5590.798083 kJ/mol
# Density = 1.989403 g / cm^3
# Si number density = 19.939416 Si / 1000 Ang^3
#
#
#
# Elastic Constant Matrix: (Units=GPa)
#
#
# Indices 1 2 3 4 5 6 
#
# 1 119.4090 41.1476 31.6773 -7.0381 -8.4134 -3.7862
# 2 41.1476 113.5376 46.3260 -13.3130 2.2797 -7.9057
# 3 31.6773 46.3260 107.5730 6.5848 -1.2020 -13.7131
# 4 -7.0381 -13.3130 6.5848 37.1893 2.6353 5.2406
# 5 -8.4134 2.2797 -1.2020 2.6353 28.5113 -5.5035
# 6 -3.7862 -7.9057 -13.7131 5.2406 -5.5035 29.2034
#
#
#
# Elastic Compliance Matrix: (Units=1/GPa)
#
#
# Indices 1 2 3 4 5 6 
#
# 1 0.010111 -0.002897 -0.001738 0.000949 0.003077 0.000120
# 2 -0.002897 0.012479 -0.004957 0.005091 -0.002676 -0.000743
# 3 -0.001738 -0.004957 0.013051 -0.005396 0.002075 0.005920
# 4 0.000949 0.005091 -0.005396 0.031240 -0.004694 -0.007523
# 5 0.003077 -0.002676 0.002075 -0.004694 0.038402 0.008729
# 6 0.000120 -0.000743 0.005920 -0.007523 0.008729 0.039832
#
#
# Mechanical properties :
#
#
# Convention : Reuss Voigt Hill
#
# Bulk Modulus (GPa) = 60.76930 64.31349 62.54139
# Shear Modulus (GPa) = 29.44909 33.73871 31.59390
#
# Velocity S-wave (km/s) = 3.84725 4.11793 3.98489
# Velocity P-wave (km/s) = 7.09072 7.41177 7.25302
#
# Compressibility (1/GPa) = 0.01645568
#
# Stress axis : x y z
#
# Youngs Moduli (GPa) = 98.90628 80.13296 76.62365
#
# Poissons Ratio (x) = 0.23216 0.13317
# Poissons Ratio (y) = 0.28655 0.37984
# Poissons Ratio (z) = 0.17190 0.39724
#
# Static dielectric constant tensor:
#      x y z
#    x 1.701490 0.033810 -0.008450 
#    y 0.033810 1.728070 -0.017520 
#    z -0.008450 -0.017520 1.702360 
# 
# From -- ./inp_files/273181.got.cif
#   From: 2010.05.17/outbox.cif.g08.bks.cpg/sg2_137_cif.got.tgz:273181.got - 2010.06.03 11:33:40.
