data_PCOD9055859
_publ_section_title
;
Structure prediction by ZEFSAII (Michael W. Deem and Ramdas Pophale) SiO2 
 PCOD9055859
Probable space group: P -1
;
_chemical_formula_sum "Si O2"
_cell_formula_units_Z 16
_cell_length_a 5.396930
_cell_length_b 9.228097
_cell_length_c 29.317278
_cell_angle_alpha 27.320401
_cell_angle_beta 85.289472
_cell_angle_gamma 94.128280
_cell_volume 633.451711
_symmetry_space_group_name_H-M "P -1"
_symmetry_group_IT_number 2
_symmetry_cell_setting 'triclinic'
loop_
_space_group_symop_operation_xyz
x,y,z
-x,-y,-z
loop_
_atom_site_type_symbol
_atom_site_label
_atom_site_fract_x
_atom_site_fract_y
_atom_site_fract_z
Si Si1 0.494497 0.293400 0.132498
Si Si2 0.278598 0.950647 0.687442
Si Si3 0.148928 0.876775 0.408413
Si Si4 0.107165 0.815167 0.217273
Si Si5 0.940785 0.953756 0.939106
Si Si6 0.750382 0.815624 0.585105
Si Si7 0.654650 0.662106 0.337128
Si Si8 0.165067 0.641090 0.098543
O O1 0.343083 0.438063 0.132256
O O2 0.321926 0.168072 0.125209
O O3 0.534534 0.953884 0.243877
O O4 0.760447 0.579154 0.037399
O O5 0.117838 0.630938 0.809393
O O6 0.570627 0.967276 0.664536
O O7 0.317139 0.280416 0.625571
O O8 0.073485 0.953198 0.649469
O O9 0.000000 0.500000 0.500000
O O10 0.234795 0.932445 0.444275
O O11 0.224003 0.512661 0.297914
O O12 0.930068 0.748669 0.283526
O O13 0.957826 0.852223 0.163146
O O14 0.772057 0.149070 0.914498
O O15 0.145834 0.900576 0.987173
O O16 0.520591 0.669243 0.592657
O O17 0.000000 0.000000 0.500000
#
# Coordination Sequence:
#
# PCOD9055859 Si02
#       8
#     2   2   2   2   2   2   2   2
#     4  11  21  44  64 102 138 198 242 298 364 436
#     4  12  25  50  77 109 155 195 255 303 378 450
#     4  12  29  50  81 113 148 197 250 314 376 450
#     4  11  25  44  69 102 142 189 244 301 375 437
#     4  11  24  41  64 104 141 189 249 300 369 442
#     4  11  28  49  75 108 144 191 247 309 377 447
#     4  11  25  44  76 102 146 196 243 308 373 442
#     4  11  24  40  69 100 145 191 241 303 368 435
#
# _framework density 25.258434999999999
#
# number of rings (size 3 to 8) (size 9 to 14) (size 15 to 20)
#    0.000    0.750    2.500    3.375    7.000    4.500 
#    2.250    0.000    0.000    0.000    0.000    0.000 
#    0.000    0.000    0.000    0.000    0.000    0.000 
#
# Total GULP energy -89504.208619 kJ/mol
# GULP energy per Si atom -5594.013039 kJ/mol
# Density = 2.520095 g / cm^3
# Si number density = 25.258435 Si / 1000 Ang^3
#
#
#
# Elastic Constant Matrix: (Units=GPa)
#
#
# Indices 1 2 3 4 5 6 
#
# 1 70.5654 -2.8360 12.3796 -9.7787 -7.8895 12.6458
# 2 -2.8360 114.3083 15.5294 -18.5965 4.9206 23.9181
# 3 12.3796 15.5294 68.0483 -22.9039 -8.1030 3.5111
# 4 -9.7787 -18.5965 -22.9039 46.1048 -1.5807 4.3112
# 5 -7.8895 4.9206 -8.1030 -1.5807 34.0956 -9.1217
# 6 12.6458 23.9181 3.5111 4.3112 -9.1217 43.0204
#
#
#
# Elastic Compliance Matrix: (Units=1/GPa)
#
#
# Indices 1 2 3 4 5 6 
#
# 1 0.016457 0.002574 -0.001598 0.004373 0.001590 -0.006239
# 2 0.002574 0.011774 -0.001345 0.005299 -0.003439 -0.008453
# 3 -0.001598 -0.001345 0.018753 0.008611 0.004628 -0.000195
# 4 0.004373 0.005299 0.008611 0.029797 0.001650 -0.007571
# 5 0.001590 -0.003439 0.004628 0.001650 0.033512 0.008007
# 6 -0.006239 -0.008453 -0.000195 -0.007571 0.008007 0.032251
#
#
# Mechanical properties :
#
#
# Convention : Reuss Voigt Hill
#
# Bulk Modulus (GPa) = 21.62413 33.67422 27.64917
# Shear Modulus (GPa) = 31.50665 39.83408 35.67037
#
# Velocity S-wave (km/s) = 3.53565 3.97553 3.76202
# Velocity P-wave (km/s) = 5.02469 5.86804 5.46266
#
# Compressibility (1/GPa) = 0.04624465
#
# Stress axis : x y z
#
# Youngs Moduli (GPa) = 60.76493 84.93515 53.32557
#
# Poissons Ratio (x) = -0.21860 0.08523
# Poissons Ratio (y) = -0.15639 0.07171
# Poissons Ratio (z) = 0.09712 0.11422
#
# Static dielectric constant tensor:
#      x y z
#    x 2.044330 0.065620 0.027650 
#    y 0.065620 2.048440 -0.026640 
#    z 0.027650 -0.026640 2.016440 
# 
# From -- ./inp_files/90793.got.cif
#   From: 2010.05.17/outbox.cif.g08.bks.cpg/sg2_46_cif.got.tgz:90793.got - 2010.06.03 11:33:40.
