data_PCOD9055077
_publ_section_title
;
Structure prediction by ZEFSAII (Michael W. Deem and Ramdas Pophale) SiO2 
 PCOD9055077
Probable space group: P -1
;
_chemical_formula_sum "Si O2"
_cell_formula_units_Z 16
_cell_length_a 6.802726
_cell_length_b 11.181560
_cell_length_c 24.911905
_cell_angle_alpha 151.885393
_cell_angle_beta 125.787250
_cell_angle_gamma 57.347426
_cell_volume 722.961562
_symmetry_space_group_name_H-M "P -1"
_symmetry_group_IT_number 2
_symmetry_cell_setting 'triclinic'
loop_
_space_group_symop_operation_xyz
x,y,z
-x,-y,-z
loop_
_atom_site_type_symbol
_atom_site_label
_atom_site_fract_x
_atom_site_fract_y
_atom_site_fract_z
Si Si1 0.794709 0.347450 0.831894
Si Si2 0.691436 0.528431 0.995653
Si Si3 0.218275 0.824485 0.441824
Si Si4 0.078477 0.567725 0.598679
Si Si5 0.098306 0.301244 0.268183
Si Si6 0.526327 0.264576 0.138444
Si Si7 0.750706 0.992383 0.594307
Si Si8 0.510658 0.912753 0.823738
O O1 0.613307 0.516246 0.831596
O O2 0.855707 0.093235 0.706612
O O3 0.042823 0.477426 0.937608
O O4 0.678107 0.334235 0.867139
O O5 0.620503 0.813523 0.075107
O O6 0.500000 0.500000 0.000000
O O7 0.205763 0.553681 0.360750
O O8 0.204125 0.818118 0.372323
O O9 0.467718 0.956885 0.545184
O O10 0.000000 0.000000 0.500000
O O11 0.304554 0.742247 0.699717
O O12 0.000000 0.500000 0.500000
O O13 0.897591 0.692938 0.664104
O O14 0.153544 0.285050 0.520961
O O15 0.264455 0.079320 0.178054
O O16 0.812973 0.302213 0.207792
O O17 0.412049 0.226742 0.163885
O O18 0.500000 0.000000 0.000000
#
# Coordination Sequence:
#
# PCOD9055077 Si02
#       8
#     2   2   2   2   2   2   2   2
#     4  11  25  46  67  98 135 176 220 279 333 401
#     4  11  27  46  69  95 134 180 226 274 337 407
#     4  11  21  40  66 101 134 169 215 270 340 390
#     4  11  24  43  65  98 135 181 219 268 332 397
#     4  11  24  41  70 101 136 175 222 283 332 400
#     4  11  24  44  72 100 133 174 227 285 340 387
#     4  11  23  40  68  96 137 170 214 274 328 395
#     4  11  24  46  69 101 134 174 228 279 336 399
#
# _framework density 22.131191999999999
#
# number of rings (size 3 to 8) (size 9 to 14) (size 15 to 20)
#    0.000    1.000    3.750    2.250    5.250    6.000 
#    2.250    0.000    0.000    0.000    0.000    0.000 
#    0.000    0.000    0.000    0.000    0.000    0.000 
#
# Total GULP energy -89432.353387 kJ/mol
# GULP energy per Si atom -5589.522087 kJ/mol
# Density = 2.208082 g / cm^3
# Si number density = 22.131192 Si / 1000 Ang^3
#
#
#
# Elastic Constant Matrix: (Units=GPa)
#
#
# Indices 1 2 3 4 5 6 
#
# 1 125.2659 23.0055 27.8004 -20.3048 -26.5422 14.9602
# 2 23.0055 62.2701 14.9162 -12.8797 -4.0971 7.6966
# 3 27.8004 14.9162 97.5069 -16.8816 -24.4193 5.6440
# 4 -20.3048 -12.8797 -16.8816 42.3275 8.5602 -10.8930
# 5 -26.5422 -4.0971 -24.4193 8.5602 26.0845 6.4942
# 6 14.9602 7.6966 5.6440 -10.8930 6.4942 24.5573
#
#
#
# Elastic Compliance Matrix: (Units=1/GPa)
#
#
# Indices 1 2 3 4 5 6 
#
# 1 0.013390 -0.002729 0.001814 -0.000706 0.018333 -0.012880
# 2 -0.002729 0.018284 -0.001967 0.003669 -0.002629 -0.001293
# 3 0.001814 -0.001967 0.014988 0.000592 0.017436 -0.008282
# 4 -0.000706 0.003669 0.000592 0.031937 -0.014326 0.017099
# 5 0.018333 -0.002629 0.017436 -0.014326 0.088591 -0.044134
# 6 -0.012880 -0.001293 -0.008282 0.017099 -0.044134 0.070132
#
#
# Mechanical properties :
#
#
# Convention : Reuss Voigt Hill
#
# Bulk Modulus (GPa) = 24.45118 46.27635 35.36377
# Shear Modulus (GPa) = 19.47660 33.21525 26.34592
#
# Velocity S-wave (km/s) = 2.96979 3.87826 3.45402
# Velocity P-wave (km/s) = 4.77826 6.40390 5.64986
#
# Compressibility (1/GPa) = 0.04089782
#
# Stress axis : x y z
#
# Youngs Moduli (GPa) = 74.68305 54.69161 66.72125
#
# Poissons Ratio (x) = 0.14927 -0.12107
# Poissons Ratio (y) = 0.20383 0.13126
# Poissons Ratio (z) = -0.13551 0.10759
#
# Static dielectric constant tensor:
#      x y z
#    x 1.803490 -0.002580 -0.051450 
#    y -0.002580 1.900770 0.043010 
#    z -0.051450 0.043010 1.830640 
# 
# From -- ./inp_files/78546.got.cif
#   From: 2010.05.17/outbox.cif.g08.bks.cpg/sg2_40_cif.got.tgz:78546.got - 2010.06.03 11:33:40.
