data_PCOD9055739
_publ_section_title
;
Structure prediction by ZEFSAII (Michael W. Deem and Ramdas Pophale) SiO2 
 PCOD9055739
Probable space group: P -1
;
_chemical_formula_sum "Si O2"
_cell_formula_units_Z 15
_cell_length_a 11.819287
_cell_length_b 7.799248
_cell_length_c 12.751981
_cell_angle_alpha 58.487272
_cell_angle_beta 40.381654
_cell_angle_gamma 62.852739
_cell_volume 645.657345
_symmetry_space_group_name_H-M "P -1"
_symmetry_group_IT_number 2
_symmetry_cell_setting 'triclinic'
loop_
_space_group_symop_operation_xyz
x,y,z
-x,-y,-z
loop_
_atom_site_type_symbol
_atom_site_label
_atom_site_fract_x
_atom_site_fract_y
_atom_site_fract_z
Si Si1 0.173272 0.167015 0.045146
Si Si2 0.057078 0.669380 0.479295
Si Si3 0.696853 0.926272 0.608493
Si Si4 0.322953 0.943915 0.192765
Si Si5 0.812486 0.047868 0.269346
Si Si6 0.000000 0.500000 0.000000
Si Si7 0.996388 0.394206 0.792291
Si Si8 0.335147 0.801960 0.898505
O O1 0.189865 0.110578 0.172882
O O2 0.205252 0.392088 0.924348
O O3 0.964294 0.192780 0.149225
O O4 0.268912 0.989974 0.963318
O O5 0.239086 0.741122 0.290509
O O6 0.000000 0.500000 0.500000
O O7 0.896598 0.841460 0.521104
O O8 0.062331 0.571453 0.620425
O O9 0.698206 0.024451 0.461242
O O10 0.545948 0.772641 0.765939
O O11 0.655152 0.061158 0.697079
O O12 0.500000 0.000000 0.000000
O O13 0.910203 0.825342 0.242853
O O14 0.718426 0.129563 0.204201
O O15 0.037194 0.433465 0.870341
O O16 0.788252 0.371694 0.930578
#
# Coordination Sequence:
#
# PCOD9055739 Si02
#       8
#     2   2   2   2   2   1   2   2
#     4  11  21  43  69  94 133 178 227 274 336 403
#     4  12  25  46  70 102 138 179 225 286 342 394
#     4  12  25  41  72  96 137 184 225 276 337 410
#     4  12  26  47  72  99 137 183 229 279 339 415
#     4  11  21  44  68  94 136 185 226 270 339 409
#     4  12  22  38  70 102 126 178 224 284 336 390
#     4  11  23  41  69  99 137 176 224 282 334 402
#     4  11  22  44  67  99 136 184 226 271 337 411
#
# _framework density 23.232137999999999
#
# number of rings (size 3 to 8) (size 9 to 14) (size 15 to 20)
#    0.000    0.533    6.667    3.200    1.867    0.533 
#    2.400    0.000    0.000    3.200    0.000    0.000 
#    0.000    0.000    0.000    0.000    0.000    0.000 
#
# Total GULP energy -83531.545098 kJ/mol
# GULP energy per Si atom -5568.769673 kJ/mol
# Density = 2.317926 g / cm^3
# Si number density = 23.232138 Si / 1000 Ang^3
#
#
#
# Elastic Constant Matrix: (Units=GPa)
#
#
# Indices 1 2 3 4 5 6 
#
# 1 95.5178 17.7104 41.8136 -5.8327 6.8930 16.8577
# 2 17.7104 44.5905 29.6650 3.5068 2.7412 14.8311
# 3 41.8136 29.6650 145.0211 -9.2844 0.7899 15.4873
# 4 -5.8327 3.5068 -9.2844 28.1354 8.4295 14.1301
# 5 6.8930 2.7412 0.7899 8.4295 52.7259 -0.2796
# 6 16.8577 14.8311 15.4873 14.1301 -0.2796 30.2258
#
#
#
# Elastic Compliance Matrix: (Units=1/GPa)
#
#
# Indices 1 2 3 4 5 6 
#
# 1 0.014195 -0.001277 -0.002195 0.008408 -0.003154 -0.010125
# 2 -0.001277 0.029931 -0.004348 0.001245 -0.001588 -0.012343
# 3 -0.002195 -0.004348 0.009145 0.005112 -0.000461 -0.003723
# 4 0.008408 0.001245 0.005112 0.060329 -0.011078 -0.036225
# 5 -0.003154 -0.001588 -0.000461 -0.011078 0.021282 0.008150
# 6 -0.010125 -0.012343 -0.003723 -0.036225 0.008150 0.063705
#
#
# Mechanical properties :
#
#
# Convention : Reuss Voigt Hill
#
# Bulk Modulus (GPa) = 26.57361 51.50083 39.03722
# Shear Modulus (GPa) = 22.04858 35.28009 28.66433
#
# Velocity S-wave (km/s) = 3.08402 3.90114 3.51639
# Velocity P-wave (km/s) = 4.91372 6.51981 5.77289
#
# Compressibility (1/GPa) = 0.03763132
#
# Stress axis : x y z
#
# Youngs Moduli (GPa) = 70.44786 33.40985 109.34815
#
# Poissons Ratio (x) = 0.04268 0.23999
# Poissons Ratio (y) = 0.08999 0.47543
# Poissons Ratio (z) = 0.15461 0.14526
#
# Static dielectric constant tensor:
#      x y z
#    x 1.967070 0.061400 0.011260 
#    y 0.061400 0.996070 0.386930 
#    z 0.011260 0.386930 1.809930 
# 
# From -- ./inp_files/307007.got.cif
#   From: 2010.05.17/outbox.cif.g08.bks.cpg/sg2_154_cif.got.tgz:307007.got - 2010.06.03 11:33:40.
