data_PCOD9055806
_publ_section_title
;
Structure prediction by ZEFSAII (Michael W. Deem and Ramdas Pophale) SiO2 
 PCOD9055806
Probable space group: P -1
;
_chemical_formula_sum "Si O2"
_cell_formula_units_Z 16
_cell_length_a 13.615847
_cell_length_b 11.154804
_cell_length_c 10.151965
_cell_angle_alpha 88.842037
_cell_angle_beta 73.243299
_cell_angle_gamma 35.357068
_cell_volume 787.476812
_symmetry_space_group_name_H-M "P -1"
_symmetry_group_IT_number 2
_symmetry_cell_setting 'triclinic'
loop_
_space_group_symop_operation_xyz
x,y,z
-x,-y,-z
loop_
_atom_site_type_symbol
_atom_site_label
_atom_site_fract_x
_atom_site_fract_y
_atom_site_fract_z
Si Si1 0.405406 0.024222 0.658817
Si Si2 0.437558 0.643965 0.847096
Si Si3 0.024051 0.647192 0.214988
Si Si4 0.626691 0.800099 0.060746
Si Si5 0.260410 0.487436 0.375065
Si Si6 0.068051 0.996858 0.840267
Si Si7 0.014163 0.083864 0.377116
Si Si8 0.583800 0.243738 0.868389
O O1 0.376221 0.133976 0.798082
O O2 0.195450 0.180008 0.699796
O O3 0.500000 0.000000 0.500000
O O4 0.561065 0.769790 0.644906
O O5 0.644338 0.493172 0.736580
O O6 0.294277 0.796037 0.777846
O O7 0.455777 0.487414 0.882692
O O8 0.362831 0.794173 0.997035
O O9 0.123153 0.556437 0.322424
O O10 0.160610 0.430362 0.075826
O O11 0.025566 0.781642 0.155194
O O12 0.529065 0.766159 0.109790
O O13 0.500000 0.000000 0.000000
O O14 0.137070 0.662170 0.538112
O O15 0.029225 0.945296 0.737939
O O16 0.000000 0.000000 0.000000
O O17 0.000000 0.000000 0.500000
O O18 0.224823 0.932914 0.287404
#
# Coordination Sequence:
#
# PCOD9055806 Si02
#       8
#     2   2   2   2   2   2   2   2
#     4  12  30  50  72 108 142 186 248 297 346 419
#     4  11  21  43  72 104 146 181 230 298 354 422
#     4  12  25  48  78 101 144 191 236 296 358 417
#     4  12  26  48  77 102 139 195 244 290 352 417
#     4  12  25  49  72 104 148 190 229 297 365 418
#     4  12  24  40  71 111 143 180 237 290 352 431
#     4  12  25  42  68 107 147 189 229 283 373 431
#     4  11  23  42  73 104 143 188 235 289 357 425
#
# _framework density 20.318058000000001
#
# number of rings (size 3 to 8) (size 9 to 14) (size 15 to 20)
#    0.000    0.250    7.500    1.125    1.750    4.000 
#    0.000    0.000    0.000    0.000    0.000    0.000 
#    0.000    0.000    0.000    0.000    0.000    0.000 
#
# Total GULP energy -89500.228199 kJ/mol
# GULP energy per Si atom -5593.764262 kJ/mol
# Density = 2.027181 g / cm^3
# Si number density = 20.318058 Si / 1000 Ang^3
#
#
#
# Elastic Constant Matrix: (Units=GPa)
#
#
# Indices 1 2 3 4 5 6 
#
# 1 113.3365 57.6046 50.7525 5.1530 -7.1701 -12.1483
# 2 57.6046 123.2551 47.5734 15.4528 3.3386 -9.9983
# 3 50.7525 47.5734 128.0205 12.6824 2.7437 -3.3501
# 4 5.1530 15.4528 12.6824 38.8440 -1.8787 2.9295
# 5 -7.1701 3.3386 2.7437 -1.8787 37.7770 4.7660
# 6 -12.1483 -9.9983 -3.3501 2.9295 4.7660 36.9060
#
#
#
# Elastic Compliance Matrix: (Units=1/GPa)
#
#
# Indices 1 2 3 4 5 6 
#
# 1 0.013283 -0.004891 -0.003586 0.001332 0.002999 0.002229
# 2 -0.004891 0.011857 -0.002002 -0.003675 -0.002267 0.002005
# 3 -0.003586 -0.002002 0.010199 -0.002085 -0.001290 -0.000465
# 4 0.001332 -0.003675 -0.002085 0.028082 0.002542 -0.003304
# 5 0.002999 -0.002267 -0.001290 0.002542 0.027909 -0.003550
# 6 0.002229 0.002005 -0.000465 -0.003304 -0.003550 0.029051
#
#
# Mechanical properties :
#
#
# Convention : Reuss Voigt Hill
#
# Bulk Modulus (GPa) = 69.54007 75.16369 72.35188
# Shear Modulus (GPa) = 34.21538 36.61752 35.41645
#
# Velocity S-wave (km/s) = 4.10810 4.24986 4.17958
# Velocity P-wave (km/s) = 7.53671 7.82020 7.67976
#
# Compressibility (1/GPa) = 0.01438020
#
# Stress axis : x y z
#
# Youngs Moduli (GPa) = 75.28210 84.34063 98.04964
#
# Poissons Ratio (x) = 0.41253 0.35163
# Poissons Ratio (y) = 0.36823 0.19628
# Poissons Ratio (z) = 0.26998 0.16883
#
# Static dielectric constant tensor:
#      x y z
#    x 1.718190 -0.002210 -0.012630 
#    y -0.002210 1.742520 0.004570 
#    z -0.012630 0.004570 1.724880 
# 
# From -- ./inp_files/307300.got.cif
#   From: 2010.05.17/outbox.cif.g08.bks.cpg/sg2_154_cif.got.tgz:307300.got - 2010.06.03 11:33:40.
