data_PCOD9055204
_publ_section_title
;
Structure prediction by ZEFSAII (Michael W. Deem and Ramdas Pophale) SiO2 
 PCOD9055204
Probable space group: P -1
;
_chemical_formula_sum "Si O2"
_cell_formula_units_Z 13
_cell_length_a 10.155950
_cell_length_b 10.263626
_cell_length_c 10.168410
_cell_angle_alpha 27.890671
_cell_angle_beta 114.361514
_cell_angle_gamma 110.038650
_cell_volume 451.071888
_symmetry_space_group_name_H-M "P -1"
_symmetry_group_IT_number 2
_symmetry_cell_setting 'triclinic'
loop_
_space_group_symop_operation_xyz
x,y,z
-x,-y,-z
loop_
_atom_site_type_symbol
_atom_site_label
_atom_site_fract_x
_atom_site_fract_y
_atom_site_fract_z
Si Si1 0.500000 0.000000 0.000000
Si Si2 0.998848 0.371993 0.435977
Si Si3 0.641507 0.640697 0.837594
Si Si4 0.586717 0.319972 0.504738
Si Si5 0.806361 0.103989 0.372016
Si Si6 0.258858 0.227155 0.946569
Si Si7 0.828538 0.158539 0.035504
O O1 0.486916 0.213174 0.672946
O O2 0.341359 0.870772 0.017083
O O3 0.896850 0.247342 0.393838
O O4 0.888980 0.584392 0.279296
O O5 0.084482 0.098904 0.771552
O O6 0.117585 0.557922 0.252819
O O7 0.494270 0.724126 0.627267
O O8 0.765531 0.797914 0.670044
O O9 0.663065 0.309746 0.125370
O O10 0.668506 0.716607 0.931462
O O11 0.633662 0.641772 0.236163
O O12 0.728464 0.106599 0.756935
O O13 0.871820 0.127011 0.234582
#
# Coordination Sequence:
#
# PCOD9055204 Si02
#       7
#     1   2   2   2   2   2   2
#     4  12  32  50  74 102 144 198 248 274 354 420
#     4  11  24  44  73 106 142 182 235 298 363 416
#     4  11  21  40  71 112 145 179 230 298 368 417
#     4  12  25  46  70 102 148 188 239 289 343 429
#     4  11  21  40  71 112 145 179 230 298 368 417
#     4  11  24  44  73 106 142 182 235 298 363 416
#     4  12  25  46  70 102 148 188 239 289 343 429
#
# _framework density 28.820242
#
# number of rings (size 3 to 8) (size 9 to 14) (size 15 to 20)
#    0.000    0.615    1.538    8.308    0.000    2.462 
#    0.000    4.615    0.000    0.000    0.000    0.000 
#    0.000    0.000    0.000    0.000    0.000    0.000 
#
# Total GULP energy -72802.962332 kJ/mol
# GULP energy per Si atom -5600.227872 kJ/mol
# Density = 2.875465 g / cm^3
# Si number density = 28.820242 Si / 1000 Ang^3
#
#
#
# Elastic Constant Matrix: (Units=GPa)
#
#
# Indices 1 2 3 4 5 6 
#
# 1 89.0521 9.2056 30.0711 7.8831 2.4763 22.5226
# 2 9.2056 92.4706 -5.1199 11.6635 -6.4038 4.4458
# 3 30.0711 -5.1199 135.4880 3.3543 -17.0512 23.3779
# 4 7.8831 11.6635 3.3543 47.1389 14.8382 -5.5126
# 5 2.4763 -6.4038 -17.0512 14.8382 67.5791 6.3481
# 6 22.5226 4.4458 23.3779 -5.5126 6.3481 57.8756
#
#
#
# Elastic Compliance Matrix: (Units=1/GPa)
#
#
# Indices 1 2 3 4 5 6 
#
# 1 0.013412 -0.000970 -0.002218 -0.002295 -0.000222 -0.004443
# 2 -0.000970 0.011722 0.001361 -0.003818 0.002489 -0.001709
# 3 -0.002218 0.001361 0.008971 -0.002023 0.003238 -0.003413
# 4 -0.002295 -0.003818 -0.002023 0.025453 -0.006863 0.005180
# 5 -0.000222 0.002489 0.003238 -0.006863 0.017742 -0.004013
# 6 -0.004443 -0.001709 -0.003413 0.005180 -0.004013 0.021451
#
#
# Mechanical properties :
#
#
# Convention : Reuss Voigt Hill
#
# Bulk Modulus (GPa) = 32.83990 42.81381 37.82686
# Shear Modulus (GPa) = 44.42263 53.37565 48.89914
#
# Velocity S-wave (km/s) = 3.93029 4.30818 4.12356
# Velocity P-wave (km/s) = 5.65824 6.29563 5.98542
#
# Compressibility (1/GPa) = 0.03045076
#
# Stress axis : x y z
#
# Youngs Moduli (GPa) = 74.56230 85.30728 111.47116
#
# Poissons Ratio (x) = 0.08277 0.24722
# Poissons Ratio (y) = 0.07234 -0.15171
# Poissons Ratio (z) = 0.16536 -0.11610
#
# Static dielectric constant tensor:
#      x y z
#    x 1.925250 0.078830 -0.075730 
#    y 0.078830 2.206100 0.138920 
#    z -0.075730 0.138920 2.070590 
# 
# From -- ./inp_files/427192.got.cif
#   From: 2010.05.17/outbox.cif.g08.bks.cpg/sg2_214_cif.got.tgz:427192.got - 2010.06.03 11:33:40.
