data_PCOD9055497
_publ_section_title
;
Structure prediction by ZEFSAII (Michael W. Deem and Ramdas Pophale) SiO2 
 PCOD9055497
Probable space group: P -1
;
_chemical_formula_sum "Si O2"
_cell_formula_units_Z 16
_cell_length_a 9.086557
_cell_length_b 11.262387
_cell_length_c 17.430155
_cell_angle_alpha 31.130299
_cell_angle_beta 111.667111
_cell_angle_gamma 124.359951
_cell_volume 733.644491
_symmetry_space_group_name_H-M "P -1"
_symmetry_group_IT_number 2
_symmetry_cell_setting 'triclinic'
loop_
_space_group_symop_operation_xyz
x,y,z
-x,-y,-z
loop_
_atom_site_type_symbol
_atom_site_label
_atom_site_fract_x
_atom_site_fract_y
_atom_site_fract_z
Si Si1 0.597236 0.295080 0.192745
Si Si2 0.942446 0.706427 0.846967
Si Si3 0.938205 0.570005 0.369515
Si Si4 0.331741 0.066475 0.689507
Si Si5 0.768316 0.874602 0.846603
Si Si6 0.576429 0.578256 0.344755
Si Si7 0.763548 0.621687 0.711445
Si Si8 0.875264 0.238693 0.388266
O O1 0.375446 0.120135 0.244504
O O2 0.717671 0.266533 0.297655
O O3 0.640635 0.179122 0.188687
O O4 0.659781 0.604024 0.024702
O O5 0.906506 0.836754 0.840543
O O6 0.776006 0.561952 0.835500
O O7 0.114423 0.946419 0.700535
O O8 0.000000 0.500000 0.000000
O O9 0.755180 0.584892 0.341283
O O10 0.905321 0.368021 0.406401
O O11 0.000000 0.500000 0.500000
O O12 0.115244 0.864620 0.224088
O O13 0.461051 0.307184 0.523955
O O14 0.370946 0.180992 0.719094
O O15 0.434492 0.562421 0.263010
O O16 0.928867 0.619145 0.698139
O O17 0.803593 0.924638 0.549978
#
# Coordination Sequence:
#
# PCOD9055497 Si02
#       8
#     2   2   2   2   2   2   2   2
#     4  11  23  45  69  97 131 178 219 271 332 396
#     4  12  22  44  72  94 131 176 221 274 326 394
#     4  12  27  42  63 100 137 174 217 277 332 388
#     4  11  21  42  67  93 132 170 216 272 330 385
#     4  11  25  42  69  97 133 177 223 263 334 401
#     4  11  25  39  67  99 133 170 222 275 325 396
#     4  11  23  41  66 103 126 173 225 269 330 393
#     4  11  24  43  68  96 135 169 220 281 329 384
#
# _framework density 21.808928000000002
#
# number of rings (size 3 to 8) (size 9 to 14) (size 15 to 20)
#    0.000    0.750    5.000    2.250    7.000    1.000 
#    0.000    0.625    0.000    0.000    0.000    0.000 
#    0.000    0.000    0.000    0.000    0.000    0.000 
#
# Total GULP energy -89461.017862 kJ/mol
# GULP energy per Si atom -5591.313616 kJ/mol
# Density = 2.175929 g / cm^3
# Si number density = 21.808928 Si / 1000 Ang^3
#
#
#
# Elastic Constant Matrix: (Units=GPa)
#
#
# Indices 1 2 3 4 5 6 
#
# 1 58.4741 39.4098 0.4051 -4.2341 7.2978 6.6517
# 2 39.4098 169.7478 29.4442 7.3898 16.0002 0.3292
# 3 0.4051 29.4442 43.3474 10.5684 9.9253 9.0667
# 4 -4.2341 7.3898 10.5684 32.7497 9.3860 6.5344
# 5 7.2978 16.0002 9.9253 9.3860 27.0097 1.0922
# 6 6.6517 0.3292 9.0667 6.5344 1.0922 47.8805
#
#
#
# Elastic Compliance Matrix: (Units=1/GPa)
#
#
# Indices 1 2 3 4 5 6 
#
# 1 0.022593 -0.005711 0.004726 0.005358 -0.006134 -0.004586
# 2 -0.005711 0.008316 -0.005524 -0.000896 -0.001120 0.001930
# 3 0.004726 -0.005524 0.030835 -0.004842 -0.007425 -0.005627
# 4 0.005358 -0.000896 -0.004842 0.037336 -0.011924 -0.004645
# 5 -0.006134 -0.001120 -0.007425 -0.011924 0.046102 0.002842
# 6 -0.004586 0.001930 -0.005627 -0.004645 0.002842 0.023144
#
#
# Mechanical properties :
#
#
# Convention : Reuss Voigt Hill
#
# Bulk Modulus (GPa) = 20.52323 45.56528 33.04426
# Shear Modulus (GPa) = 25.30522 35.01533 30.16028
#
# Velocity S-wave (km/s) = 3.41003 4.01128 3.72281
# Velocity P-wave (km/s) = 4.99353 6.51092 5.80205
#
# Compressibility (1/GPa) = 0.04872527
#
# Stress axis : x y z
#
# Youngs Moduli (GPa) = 44.26108 120.24859 32.43022
#
# Poissons Ratio (x) = 0.68677 -0.15326
# Poissons Ratio (y) = 0.25279 0.17915
# Poissons Ratio (z) = -0.20917 0.66428
#
# Static dielectric constant tensor:
#      x y z
#    x 1.837810 0.040650 -0.034720 
#    y 0.040650 1.785210 -0.012590 
#    z -0.034720 -0.012590 1.839150 
# 
# From -- ./inp_files/217126.got.cif
#   From: 2010.05.17/outbox.cif.g08.bks.cpg/sg2_109_cif.got.tgz:217126.got - 2010.06.03 11:33:40.
