data_PCOD9055797
_publ_section_title
;
Structure prediction by ZEFSAII (Michael W. Deem and Ramdas Pophale) SiO2 
 PCOD9055797
Probable space group: P -1
;
_chemical_formula_sum "Si O2"
_cell_formula_units_Z 16
_cell_length_a 11.169156
_cell_length_b 14.817449
_cell_length_c 13.470216
_cell_angle_alpha 54.744451
_cell_angle_beta 78.020110
_cell_angle_gamma 32.722307
_cell_volume 764.293542
_symmetry_space_group_name_H-M "P -1"
_symmetry_group_IT_number 2
_symmetry_cell_setting 'triclinic'
loop_
_space_group_symop_operation_xyz
x,y,z
-x,-y,-z
loop_
_atom_site_type_symbol
_atom_site_label
_atom_site_fract_x
_atom_site_fract_y
_atom_site_fract_z
Si Si1 0.267125 0.463796 0.177272
Si Si2 0.047327 0.229947 0.679239
Si Si3 0.429370 0.209322 0.630518
Si Si4 0.974406 0.886336 0.824823
Si Si5 0.797461 0.206492 0.814657
Si Si6 0.715487 0.257600 0.322904
Si Si7 0.720790 0.835913 0.155275
Si Si8 0.540891 0.020467 0.372630
O O1 0.529122 0.301525 0.297738
O O2 0.335415 0.292507 0.221796
O O3 0.009058 0.641183 0.179539
O O4 0.160114 0.646892 0.006452
O O5 0.303547 0.051247 0.825474
O O6 0.792582 0.525344 0.547379
O O7 0.931816 0.204588 0.740095
O O8 0.161829 0.162498 0.592292
O O9 0.286629 0.271454 0.713524
O O10 0.720324 0.031576 0.720278
O O11 0.491207 0.056824 0.645081
O O12 0.175553 0.780207 0.776126
O O13 0.818131 0.095930 0.796715
O O14 0.498028 0.488703 0.737482
O O15 0.000000 0.000000 0.000000
O O16 0.000000 0.000000 0.500000
O O17 0.500000 0.000000 0.000000
O O18 0.500000 0.000000 0.500000
#
# Coordination Sequence:
#
# PCOD9055797 Si02
#       8
#     2   2   2   2   2   2   2   2
#     4  12  24  48  72 102 153 187 246 314 367 441
#     4  11  23  45  73 100 148 186 248 307 361 450
#     4  11  25  47  70 109 147 190 246 306 371 451
#     4  12  27  48  75 111 153 193 253 312 369 457
#     4  12  26  48  80 109 148 210 246 303 392 439
#     4  12  28  48  79 113 151 196 257 314 374 446
#     4  11  21  43  72 101 139 191 236 299 366 440
#     4  11  25  41  75 105 140 196 239 303 386 430
#
# _framework density 20.934365
#
# number of rings (size 3 to 8) (size 9 to 14) (size 15 to 20)
#    0.000    0.500    3.750    4.875    3.500    3.500 
#    2.250    0.000    0.000    0.000    0.000    0.000 
#    0.000    0.000    0.000    0.000    0.000    0.000 
#
# Total GULP energy -89327.054330 kJ/mol
# GULP energy per Si atom -5582.940896 kJ/mol
# Density = 2.088672 g / cm^3
# Si number density = 20.934365 Si / 1000 Ang^3
#
#
#
# Elastic Constant Matrix: (Units=GPa)
#
#
# Indices 1 2 3 4 5 6 
#
# 1 116.1964 59.0049 64.6102 8.3872 -12.2920 -13.0566
# 2 59.0049 146.7737 60.0300 15.7071 -15.1662 -8.7158
# 3 64.6102 60.0300 133.3383 -0.3804 0.0262 4.3127
# 4 8.3872 15.7071 -0.3804 21.3182 0.1710 -3.6176
# 5 -12.2920 -15.1662 0.0262 0.1710 33.4984 -10.4761
# 6 -13.0566 -8.7158 4.3127 -3.6176 -10.4761 47.9839
#
#
#
# Elastic Compliance Matrix: (Units=1/GPa)
#
#
# Indices 1 2 3 4 5 6 
#
# 1 0.014667 -0.001929 -0.006421 -0.003614 0.006188 0.005296
# 2 -0.001929 0.010538 -0.003904 -0.006726 0.004815 0.002284
# 3 -0.006421 -0.003904 0.012527 0.004920 -0.005541 -0.004421
# 4 -0.003614 -0.006726 0.004920 0.053477 -0.004524 0.000396
# 5 0.006188 0.004815 -0.005541 -0.004524 0.037757 0.010959
# 6 0.005296 0.002284 -0.004421 0.000396 0.010959 0.025516
#
#
# Mechanical properties :
#
#
# Convention : Reuss Voigt Hill
#
# Bulk Modulus (GPa) = 75.62147 84.84428 80.23288
# Shear Modulus (GPa) = 27.26290 34.73766 31.00028
#
# Velocity S-wave (km/s) = 3.61266 4.07794 3.85233
# Velocity P-wave (km/s) = 7.32143 7.92398 7.62866
#
# Compressibility (1/GPa) = 0.01322376
#
# Stress axis : x y z
#
# Youngs Moduli (GPa) = 68.18050 94.89128 79.82924
#
# Poissons Ratio (x) = 0.18307 0.51260
# Poissons Ratio (y) = 0.13154 0.31162
# Poissons Ratio (z) = 0.43780 0.37042
#
# Static dielectric constant tensor:
#      x y z
#    x 1.739850 0.022750 0.013150 
#    y 0.022750 1.842120 0.063080 
#    z 0.013150 0.063080 1.709090 
# 
# From -- ./inp_files/433810.got.cif
#   From: 2010.05.17/outbox.cif.g08.bks.cpg/sg2_217_cif.got.tgz:433810.got - 2010.06.03 11:33:40.
