data_PCOD9055353
_publ_section_title
;
Structure prediction by ZEFSAII (Michael W. Deem and Ramdas Pophale) SiO2 
 PCOD9055353
Probable space group: P -1
;
_chemical_formula_sum "Si O2"
_cell_formula_units_Z 14
_cell_length_a 12.826062
_cell_length_b 8.953073
_cell_length_c 5.302262
_cell_angle_alpha 90.990806
_cell_angle_beta 75.029745
_cell_angle_gamma 102.112991
_cell_volume 574.672400
_symmetry_space_group_name_H-M "P -1"
_symmetry_group_IT_number 2
_symmetry_cell_setting 'triclinic'
loop_
_space_group_symop_operation_xyz
x,y,z
-x,-y,-z
loop_
_atom_site_type_symbol
_atom_site_label
_atom_site_fract_x
_atom_site_fract_y
_atom_site_fract_z
Si Si1 0.902660 0.407676 0.889054
Si Si2 0.893403 0.051749 0.944839
Si Si3 0.462321 0.154804 0.498114
Si Si4 0.328293 0.604725 0.684512
Si Si5 0.790355 0.582474 0.628286
Si Si6 0.592606 0.626119 0.084045
Si Si7 0.216290 0.107060 0.505888
O O1 0.913710 0.231509 0.866135
O O2 0.780726 0.395656 0.088336
O O3 0.894251 0.525963 0.670508
O O4 0.000000 0.500000 0.000000
O O5 0.810659 0.001141 0.232472
O O6 0.846329 0.966221 0.711087
O O7 0.000000 0.000000 0.000000
O O8 0.569328 0.263396 0.314211
O O9 0.444418 0.226510 0.785149
O O10 0.349519 0.137259 0.412845
O O11 0.500000 0.000000 0.500000
O O12 0.282650 0.578185 0.431685
O O13 0.378598 0.454884 0.681882
O O14 0.819967 0.728897 0.428852
O O15 0.709047 0.645725 0.870330
O O16 0.500000 0.500000 0.000000
#
# Coordination Sequence:
#
# PCOD9055353 Si02
#       7
#     2   2   2   2   2   2   2
#     4  11  28  48  77 109 145 199 266 326 387 466
#     4  12  29  53  79 114 158 203 258 330 402 471
#     4  12  25  42  74 113 159 204 253 320 401 471
#     4  11  24  44  69 107 146 196 260 313 383 463
#     4  11  24  44  77 103 149 199 262 311 385 460
#     4  11  21  41  69 102 146 203 256 312 375 464
#     4  12  27  50  78 115 158 207 258 320 401 471
#
# _framework density 24.361706000000002
#
# number of rings (size 3 to 8) (size 9 to 14) (size 15 to 20)
#    0.000    0.571    2.857    4.286    8.000    0.571 
#    0.000    4.286    0.000    0.000    0.000    0.000 
#    0.000    0.000    0.000    0.000    0.000    0.000 
#
# Total GULP energy -78153.163345 kJ/mol
# GULP energy per Si atom -5582.368810 kJ/mol
# Density = 2.430626 g / cm^3
# Si number density = 24.361706 Si / 1000 Ang^3
#
#
#
# Elastic Constant Matrix: (Units=GPa)
#
#
# Indices 1 2 3 4 5 6 
#
# 1 154.5227 58.5713 34.0130 17.2999 20.2587 -4.7005
# 2 58.5713 172.5184 19.4898 5.7453 23.6243 -18.4190
# 3 34.0130 19.4898 63.6082 11.8429 23.7211 1.0486
# 4 17.2999 5.7453 11.8429 39.3726 1.2527 7.4636
# 5 20.2587 23.6243 23.7211 1.2527 57.3281 1.7316
# 6 -4.7005 -18.4190 1.0486 7.4636 1.7316 49.5313
#
#
#
# Elastic Compliance Matrix: (Units=1/GPa)
#
#
# Indices 1 2 3 4 5 6 
#
# 1 0.008396 -0.002279 -0.003067 -0.002490 -0.000717 0.000415
# 2 -0.002279 0.007173 -0.000136 -0.000428 -0.002164 0.002594
# 3 -0.003067 -0.000136 0.021079 -0.004771 -0.007484 0.000193
# 4 -0.002490 -0.000428 -0.004771 0.028804 0.002544 -0.004724
# 5 -0.000717 -0.002164 -0.007484 0.002544 0.021685 -0.001856
# 6 0.000415 0.002594 0.000193 -0.004724 -0.001856 0.021966
#
#
# Mechanical properties :
#
#
# Convention : Reuss Voigt Hill
#
# Bulk Modulus (GPa) = 38.93375 68.31082 53.62229
# Shear Modulus (GPa) = 38.87191 47.81808 43.34500
#
# Velocity S-wave (km/s) = 3.99885 4.43520 4.22266
# Velocity P-wave (km/s) = 6.11042 7.37083 6.77002
#
# Compressibility (1/GPa) = 0.02568466
#
# Stress axis : x y z
#
# Youngs Moduli (GPa) = 119.10873 139.41435 47.44059
#
# Poissons Ratio (x) = 0.31766 0.14551
# Poissons Ratio (y) = 0.27139 0.00644
# Poissons Ratio (z) = 0.36533 0.01892
#
# Static dielectric constant tensor:
#      x y z
#    x 1.890870 0.111450 -0.079800 
#    y 0.111450 1.961000 -0.039730 
#    z -0.079800 -0.039730 2.039890 
# 
# From -- ./inp_files/47396.got.cif
#   From: 2010.05.17/outbox.cif.g08.bks.cpg/sg2_24_cif.got.tgz:47396.got - 2010.06.03 11:33:40.
