data_PCOD9055300
_publ_section_title
;
Structure prediction by ZEFSAII (Michael W. Deem and Ramdas Pophale) SiO2 
 PCOD9055300
Probable space group: P -1
;
_chemical_formula_sum "Si O2"
_cell_formula_units_Z 16
_cell_length_a 19.126789
_cell_length_b 12.570105
_cell_length_c 10.135839
_cell_angle_alpha 45.947470
_cell_angle_beta 27.386613
_cell_angle_gamma 47.870906
_cell_volume 795.053856
_symmetry_space_group_name_H-M "P -1"
_symmetry_group_IT_number 2
_symmetry_cell_setting 'triclinic'
loop_
_space_group_symop_operation_xyz
x,y,z
-x,-y,-z
loop_
_atom_site_type_symbol
_atom_site_label
_atom_site_fract_x
_atom_site_fract_y
_atom_site_fract_z
Si Si1 0.989220 0.100249 0.299936
Si Si2 0.599026 0.904373 0.804027
Si Si3 0.457354 0.901861 0.532957
Si Si4 0.949881 0.898847 0.287969
Si Si5 0.786783 0.383581 0.499720
Si Si6 0.211861 0.686059 0.148572
Si Si7 0.569770 0.621662 0.943182
Si Si8 0.260043 0.288855 0.683969
O O1 0.857674 0.245808 0.409099
O O2 0.144477 0.171291 0.959577
O O3 0.000000 0.000000 0.500000
O O4 0.957215 0.995154 0.325026
O O5 0.777502 0.873602 0.571705
O O6 0.551289 0.746086 0.980795
O O7 0.576942 0.001730 0.623239
O O8 0.500000 0.000000 0.000000
O O9 0.609148 0.777537 0.374493
O O10 0.500000 0.000000 0.500000
O O11 0.314819 0.817735 0.874189
O O12 0.072132 0.746827 0.233564
O O13 0.000000 0.000000 0.000000
O O14 0.847028 0.341333 0.582558
O O15 0.820899 0.549088 0.269663
O O16 0.600591 0.399468 0.798648
O O17 0.325697 0.533258 0.053914
O O18 0.657194 0.681359 0.619117
#
# Coordination Sequence:
#
# PCOD9055300 Si02
#       8
#     2   2   2   2   2   2   2   2
#     4  12  26  41  66  99 134 171 216 273 330 381
#     4  12  27  42  63  97 136 172 214 272 331 384
#     4  12  21  39  70  98 123 167 226 269 316 385
#     4  12  25  44  64  92 133 177 219 263 323 393
#     4  11  21  41  67 102 134 158 218 282 330 376
#     4  11  21  41  68  96 127 171 223 269 319 391
#     4  11  22  43  69  96 129 173 223 268 326 392
#     4  11  22  39  68 101 127 169 218 274 327 382
#
# _framework density 20.124424000000001
#
# number of rings (size 3 to 8) (size 9 to 14) (size 15 to 20)
#    0.000    0.500    6.250    3.375    3.500    0.500 
#    0.000    1.875    0.000    0.000    0.000    0.000 
#    0.000    0.000    0.000    0.000    0.000    0.000 
#
# Total GULP energy -89478.091721 kJ/mol
# GULP energy per Si atom -5592.380733 kJ/mol
# Density = 2.007862 g / cm^3
# Si number density = 20.124424 Si / 1000 Ang^3
#
#
#
# Elastic Constant Matrix: (Units=GPa)
#
#
# Indices 1 2 3 4 5 6 
#
# 1 113.8430 41.6613 27.3080 -5.2561 -3.0845 -19.6688
# 2 41.6613 125.1192 8.0725 0.5614 4.8073 -15.0194
# 3 27.3080 8.0725 47.6875 -5.2797 -15.3932 -8.2241
# 4 -5.2561 0.5614 -5.2797 34.0625 -2.2219 -5.9868
# 5 -3.0845 4.8073 -15.3932 -2.2219 30.3663 7.8070
# 6 -19.6688 -15.0194 -8.2241 -5.9868 7.8070 47.7159
#
#
#
# Elastic Compliance Matrix: (Units=1/GPa)
#
#
# Indices 1 2 3 4 5 6 
#
# 1 0.012043 -0.003104 -0.006366 0.001377 -0.002296 0.003438
# 2 -0.003104 0.009382 -0.000340 -0.000505 -0.002515 0.001963
# 3 -0.006366 -0.000340 0.030104 0.004768 0.014856 0.000625
# 4 0.001377 -0.000505 0.004768 0.031363 0.003762 0.004550
# 5 -0.002296 -0.002515 0.014856 0.003762 0.042351 -0.005634
# 6 0.003438 0.001963 0.000625 0.004550 -0.005634 0.024593
#
#
# Mechanical properties :
#
#
# Convention : Reuss Voigt Hill
#
# Bulk Modulus (GPa) = 31.33953 48.97035 40.15494
# Shear Modulus (GPa) = 27.76359 36.40280 32.08319
#
# Velocity S-wave (km/s) = 3.71832 4.25771 3.99713
# Velocity P-wave (km/s) = 5.83449 6.96832 6.42646
#
# Compressibility (1/GPa) = 0.03190858
#
# Stress axis : x y z
#
# Youngs Moduli (GPa) = 83.03887 106.58142 33.21827
#
# Poissons Ratio (x) = 0.33087 0.21147
# Poissons Ratio (y) = 0.25778 0.01128
# Poissons Ratio (z) = 0.52864 0.03620
#
# Static dielectric constant tensor:
#      x y z
#    x 1.682190 -0.010700 -0.010470 
#    y -0.010700 1.765730 0.031790 
#    z -0.010470 0.031790 1.728180 
# 
# From -- ./inp_files/283483.got.cif
#   From: 2010.05.17/outbox.cif.g08.bks.cpg/sg2_142_cif.got.tgz:283483.got - 2010.06.03 11:33:40.
