data_PCOD9055903
_publ_section_title
;
Structure prediction by ZEFSAII (Michael W. Deem and Ramdas Pophale) SiO2 
 PCOD9055903
Probable space group: P -1
;
_chemical_formula_sum "Si O2"
_cell_formula_units_Z 14
_cell_length_a 7.884523
_cell_length_b 15.465919
_cell_length_c 22.351523
_cell_angle_alpha 155.371497
_cell_angle_beta 35.371163
_cell_angle_gamma 133.521068
_cell_volume 641.671670
_symmetry_space_group_name_H-M "P -1"
_symmetry_group_IT_number 2
_symmetry_cell_setting 'triclinic'
loop_
_space_group_symop_operation_xyz
x,y,z
-x,-y,-z
loop_
_atom_site_type_symbol
_atom_site_label
_atom_site_fract_x
_atom_site_fract_y
_atom_site_fract_z
Si Si1 0.647239 0.385635 0.669435
Si Si2 0.320457 0.177017 0.537261
Si Si3 0.728515 0.631143 0.456518
Si Si4 0.304117 0.223732 0.771181
Si Si5 0.720792 0.355021 0.891707
Si Si6 0.307131 0.826470 0.800474
Si Si7 0.341886 0.837189 0.093249
O O1 0.501283 0.246848 0.671371
O O2 0.544216 0.310996 0.588368
O O3 0.992747 0.362358 0.575166
O O4 0.491954 0.631470 0.882054
O O5 0.243631 0.250673 0.538540
O O6 0.486958 0.931924 0.340699
O O7 0.013689 0.222308 0.691936
O O8 0.423012 0.738009 0.645948
O O9 0.725026 0.385680 0.289743
O O10 0.186490 0.460664 0.978828
O O11 0.015251 0.129526 0.782636
O O12 0.500000 0.500000 0.000000
O O13 0.572492 0.220799 0.897915
O O14 0.550651 0.959051 0.833243
O O15 0.000000 0.000000 0.000000
#
# Coordination Sequence:
#
# PCOD9055903 Si02
#       7
#     2   2   2   2   2   2   2
#     4  11  21  44  70 100 143 174 216 280 338 400
#     4  12  24  41  70 104 139 171 220 280 338 403
#     4  11  27  45  70 103 129 176 238 275 327 404
#     4  11  23  40  64 103 140 179 212 265 350 405
#     4  11  24  38  64 103 141 169 219 276 333 411
#     4  11  25  48  71  90 134 186 226 280 334 384
#     4  11  21  44  70  94 136 186 218 269 341 399
#
# _framework density 21.818012
#
# number of rings (size 3 to 8) (size 9 to 14) (size 15 to 20)
#    0.000    0.857    4.286    3.857    4.000    1.143 
#    0.000    7.143    0.000    0.000    0.000    0.000 
#    0.000    0.000    0.000    0.000    0.000    0.000 
#
# Total GULP energy -78302.728245 kJ/mol
# GULP energy per Si atom -5593.052018 kJ/mol
# Density = 2.176835 g / cm^3
# Si number density = 21.818012 Si / 1000 Ang^3
#
#
#
# Elastic Constant Matrix: (Units=GPa)
#
#
# Indices 1 2 3 4 5 6 
#
# 1 70.2215 7.2515 7.4972 1.6961 -9.9320 13.7814
# 2 7.2515 73.6037 30.1369 9.0707 -6.0253 30.1379
# 3 7.4972 30.1369 132.5336 2.0675 -8.5973 0.7997
# 4 1.6961 9.0707 2.0675 38.0970 3.9567 3.5522
# 5 -9.9320 -6.0253 -8.5973 3.9567 26.2961 -3.5005
# 6 13.7814 30.1379 0.7997 3.5522 -3.5005 27.9981
#
#
#
# Elastic Compliance Matrix: (Units=1/GPa)
#
#
# Indices 1 2 3 4 5 6 
#
# 1 0.017233 0.004775 -0.001604 -0.001208 0.005566 -0.012727
# 2 0.004775 0.030699 -0.006804 -0.004230 0.002680 -0.034329
# 3 -0.001604 -0.006804 0.009254 0.000241 0.001897 0.008056
# 4 -0.001208 -0.004230 0.000241 0.027770 -0.005400 0.000943
# 5 0.005566 0.002680 0.001897 -0.005400 0.042215 0.000285
# 6 -0.012727 -0.034329 0.008056 0.000943 0.000285 0.078620
#
#
# Mechanical properties :
#
#
# Convention : Reuss Voigt Hill
#
# Bulk Modulus (GPa) = 20.03207 40.68112 30.35659
# Shear Modulus (GPa) = 21.76786 33.90980 27.83883
#
# Velocity S-wave (km/s) = 3.16207 3.94663 3.57593
# Velocity P-wave (km/s) = 4.74689 6.28124 5.56717
#
# Compressibility (1/GPa) = 0.04991996
#
# Stress axis : x y z
#
# Youngs Moduli (GPa) = 58.02795 32.57452 108.06389
#
# Poissons Ratio (x) = -0.15554 0.17332
# Poissons Ratio (y) = -0.27707 0.73524
# Poissons Ratio (z) = 0.09307 0.22163
#
# Static dielectric constant tensor:
#      x y z
#    x 1.829580 0.046050 0.023590 
#    y 0.046050 1.808850 0.010010 
#    z 0.023590 0.010010 1.816870 
# 
# From -- ./inp_files/387465.got.cif
#   From: 2010.05.17/outbox.cif.g08.bks.cpg/sg2_194_cif.got.tgz:387465.got - 2010.06.03 11:33:40.
