data_PCOD9055028
_publ_section_title
;
Structure prediction by ZEFSAII (Michael W. Deem and Ramdas Pophale) SiO2 
 PCOD9055028
Probable space group: P -1
;
_chemical_formula_sum "Si O2"
_cell_formula_units_Z 16
_cell_length_a 10.803757
_cell_length_b 17.124736
_cell_length_c 13.330963
_cell_angle_alpha 35.044193
_cell_angle_beta 145.239681
_cell_angle_gamma 121.492691
_cell_volume 717.432444
_symmetry_space_group_name_H-M "P -1"
_symmetry_group_IT_number 2
_symmetry_cell_setting 'triclinic'
loop_
_space_group_symop_operation_xyz
x,y,z
-x,-y,-z
loop_
_atom_site_type_symbol
_atom_site_label
_atom_site_fract_x
_atom_site_fract_y
_atom_site_fract_z
Si Si1 0.430684 0.917796 0.655296
Si Si2 0.257108 0.269566 0.202279
Si Si3 0.022382 0.333782 0.185427
Si Si4 0.743808 0.155614 0.181345
Si Si5 0.255842 0.772038 0.351940
Si Si6 0.350215 0.169824 0.761531
Si Si7 0.938812 0.630611 0.238561
Si Si8 0.998342 0.102084 0.738735
O O1 0.385137 0.889240 0.768956
O O2 0.223589 0.899942 0.470908
O O3 0.387780 0.092707 0.435628
O O4 0.701411 0.786760 0.949513
O O5 0.085749 0.276628 0.172727
O O6 0.463169 0.302371 0.355261
O O7 0.129562 0.386390 0.903579
O O8 0.224854 0.254797 0.487862
O O9 0.806976 0.290703 0.113492
O O10 0.000000 0.500000 0.000000
O O11 0.552419 0.206971 0.908783
O O12 0.000000 0.000000 0.500000
O O13 0.112973 0.813183 0.320010
O O14 0.167876 0.665332 0.347975
O O15 0.178524 0.927649 0.074543
O O16 0.146006 0.172628 0.700624
O O17 0.500000 0.000000 0.000000
O O18 0.000000 0.500000 0.500000
#
# Coordination Sequence:
#
# PCOD9055028 Si02
#       8
#     2   2   2   2   2   2   2   2
#     4  12  21  45  76 103 137 184 237 290 340 423
#     4  12  25  46  72 100 138 183 240 288 345 427
#     4  12  29  46  69 107 146 186 236 298 363 414
#     4  12  23  44  76 107 140 185 243 294 345 421
#     4  11  23  41  68 103 137 178 229 288 347 409
#     4  12  23  43  72 105 138 188 239 286 348 427
#     4  12  28  45  67 105 144 184 227 287 363 420
#     4  11  21  39  74 106 133 178 237 291 338 410
#
# _framework density 22.301750999999999
#
# number of rings (size 3 to 8) (size 9 to 14) (size 15 to 20)
#    0.000    0.250    6.250    4.125    0.000    5.000 
#    0.000    0.000    0.000    0.000    0.000    0.000 
#    0.000    0.000    0.000    0.000    0.000    0.000 
#
# Total GULP energy -89480.480109 kJ/mol
# GULP energy per Si atom -5592.530007 kJ/mol
# Density = 2.225099 g / cm^3
# Si number density = 22.301751 Si / 1000 Ang^3
#
#
#
# Elastic Constant Matrix: (Units=GPa)
#
#
# Indices 1 2 3 4 5 6 
#
# 1 64.3743 -26.8223 21.1281 -10.4202 -14.8067 5.3620
# 2 -26.8223 83.1118 46.0771 16.4700 4.1779 7.8330
# 3 21.1281 46.0771 121.2895 15.5637 -38.8547 4.6353
# 4 -10.4202 16.4700 15.5637 51.9520 4.3746 -6.3877
# 5 -14.8067 4.1779 -38.8547 4.3746 32.6090 6.9237
# 6 5.3620 7.8330 4.6353 -6.3877 6.9237 25.5316
#
#
#
# Elastic Compliance Matrix: (Units=1/GPa)
#
#
# Indices 1 2 3 4 5 6 
#
# 1 0.025560 0.014227 -0.010638 0.003170 -0.001942 -0.006482
# 2 0.014227 0.028906 -0.020349 0.001318 -0.021226 -0.002076
# 3 -0.010638 -0.020349 0.032305 -0.010037 0.039890 -0.010716
# 4 0.003170 0.001318 -0.010037 0.025288 -0.016536 0.011563
# 5 -0.001942 -0.021226 0.039890 -0.016536 0.088284 -0.028400
# 6 -0.006482 -0.002076 -0.010716 0.011563 -0.028400 0.053705
#
#
# Mechanical properties :
#
#
# Convention : Reuss Voigt Hill
#
# Bulk Modulus (GPa) = 18.77923 38.83791 28.80857
# Shear Modulus (GPa) = 16.37636 37.24470 26.81053
#
# Velocity S-wave (km/s) = 2.71275 4.09104 3.47100
# Velocity P-wave (km/s) = 4.27210 6.30619 5.38604
#
# Compressibility (1/GPa) = 0.05325032
#
# Stress axis : x y z
#
# Youngs Moduli (GPa) = 39.12375 34.59436 30.95536
#
# Poissons Ratio (x) = -0.49217 0.32931
# Poissons Ratio (y) = -0.55661 0.62991
# Poissons Ratio (z) = 0.41620 0.70396
#
# Static dielectric constant tensor:
#      x y z
#    x 1.812180 -0.057120 0.005550 
#    y -0.057120 1.818950 -0.011860 
#    z 0.005550 -0.011860 1.783620 
# 
# From -- ./inp_files/524064.got.cif
#   From: 2010.05.17/outbox.cif.g08.bks.cpg/sg2_263_cif.got.tgz:524064.got - 2010.06.03 11:33:40.
