data_PCOD9055161
_publ_section_title
;
Structure prediction by ZEFSAII (Michael W. Deem and Ramdas Pophale) SiO2 
 PCOD9055161
Probable space group: P -1
;
_chemical_formula_sum "Si O2"
_cell_formula_units_Z 14
_cell_length_a 5.178325
_cell_length_b 12.367195
_cell_length_c 9.535420
_cell_angle_alpha 80.977772
_cell_angle_beta 88.190256
_cell_angle_gamma 86.115806
_cell_volume 601.584408
_symmetry_space_group_name_H-M "P -1"
_symmetry_group_IT_number 2
_symmetry_cell_setting 'triclinic'
loop_
_space_group_symop_operation_xyz
x,y,z
-x,-y,-z
loop_
_atom_site_type_symbol
_atom_site_label
_atom_site_fract_x
_atom_site_fract_y
_atom_site_fract_z
Si Si1 0.166196 0.519080 0.358484
Si Si2 0.823681 0.251534 0.813577
Si Si3 0.542465 0.687852 0.731713
Si Si4 0.495931 0.934489 0.661501
Si Si5 0.973912 0.008651 0.824577
Si Si6 0.796958 0.473781 0.125115
Si Si7 0.330416 0.302143 0.971145
O O1 0.242974 0.644367 0.309746
O O2 0.373472 0.416085 0.346926
O O3 0.000000 0.500000 0.500000
O O4 0.949614 0.501643 0.252442
O O5 0.572016 0.230642 0.917158
O O6 0.068979 0.279600 0.899051
O O7 0.915140 0.137436 0.764591
O O8 0.499788 0.806195 0.643285
O O9 0.298572 0.644901 0.827888
O O10 0.721436 0.703907 0.861593
O O11 0.238660 0.965436 0.751908
O O12 0.736631 0.952997 0.760257
O O13 0.500000 0.000000 0.500000
O O14 0.000000 0.000000 0.000000
O O15 0.581928 0.573605 0.086675
O O16 0.000000 0.500000 0.000000
#
# Coordination Sequence:
#
# PCOD9055161 Si02
#       7
#     2   2   2   2   2   2   2
#     4  11  26  41  65 104 141 190 229 296 373 439
#     4  11  24  43  72 102 146 178 241 305 366 425
#     4  12  24  43  72 102 147 184 247 293 369 446
#     4  12  30  49  77 110 152 208 254 309 372 446
#     4  12  26  52  78 110 146 200 263 313 369 439
#     4  11  22  41  69 104 144 176 235 294 371 439
#     4  11  21  40  69 110 134 182 230 305 368 431
#
# _framework density 23.271878999999998
#
# number of rings (size 3 to 8) (size 9 to 14) (size 15 to 20)
#    0.000    0.571    2.857    5.571    4.000    1.714 
#    0.000    0.000    0.000    0.000    0.000    0.000 
#    0.000    0.000    0.000    0.000    0.000    0.000 
#
# Total GULP energy -78101.934291 kJ/mol
# GULP energy per Si atom -5578.709592 kJ/mol
# Density = 2.321891 g / cm^3
# Si number density = 23.271879 Si / 1000 Ang^3
#
#
#
# Elastic Constant Matrix: (Units=GPa)
#
#
# Indices 1 2 3 4 5 6 
#
# 1 123.3429 26.1005 32.8622 2.8849 -18.3001 -12.2340
# 2 26.1005 175.8779 35.0449 -28.0742 -18.8172 -5.3718
# 3 32.8622 35.0449 143.8572 -13.0481 -21.9651 -6.6222
# 4 2.8849 -28.0742 -13.0481 37.4252 -2.2608 -3.0756
# 5 -18.3001 -18.8172 -21.9651 -2.2608 28.5618 12.3114
# 6 -12.2340 -5.3718 -6.6222 -3.0756 12.3114 31.7023
#
#
#
# Elastic Compliance Matrix: (Units=1/GPa)
#
#
# Indices 1 2 3 4 5 6 
#
# 1 0.009410 -0.000941 -0.001464 -0.001596 0.003434 0.001678
# 2 -0.000941 0.007271 -0.000373 0.005636 0.004528 -0.000421
# 3 -0.001464 -0.000373 0.008534 0.003099 0.006002 -0.000876
# 4 -0.001596 0.005636 0.003099 0.032693 0.007049 0.001421
# 5 0.003434 0.004528 0.006002 0.007049 0.052404 -0.016321
# 6 0.001678 -0.000421 -0.000876 0.001421 -0.016321 0.038412
#
#
# Mechanical properties :
#
#
# Convention : Reuss Voigt Hill
#
# Bulk Modulus (GPa) = 50.86687 70.12143 60.49415
# Shear Modulus (GPa) = 31.08832 42.80924 36.94878
#
# Velocity S-wave (km/s) = 3.65893 4.29362 3.98892
# Velocity P-wave (km/s) = 6.30519 7.40115 6.87505
#
# Compressibility (1/GPa) = 0.01965916
#
# Stress axis : x y z
#
# Youngs Moduli (GPa) = 106.27266 137.53445 117.18200
#
# Poissons Ratio (x) = 0.12941 0.17150
# Poissons Ratio (y) = 0.09999 0.04373
# Poissons Ratio (z) = 0.15553 0.05133
#
# Static dielectric constant tensor:
#      x y z
#    x 1.979300 -0.057850 0.014490 
#    y -0.057850 2.004210 -0.007050 
#    z 0.014490 -0.007050 1.873930 
# 
# From -- ./inp_files/131422.got.cif
#   From: 2010.05.17/outbox.cif.g08.bks.cpg/sg2_66_cif.got.tgz:131422.got - 2010.06.03 11:33:40.
