data_PCOD9055460
_publ_section_title
;
Structure prediction by ZEFSAII (Michael W. Deem and Ramdas Pophale) SiO2 
 PCOD9055460
Probable space group: P -1
;
_chemical_formula_sum "Si O2"
_cell_formula_units_Z 16
_cell_length_a 11.593220
_cell_length_b 22.022174
_cell_length_c 6.429356
_cell_angle_alpha 46.564702
_cell_angle_beta 56.139880
_cell_angle_gamma 38.502537
_cell_volume 741.385264
_symmetry_space_group_name_H-M "P -1"
_symmetry_group_IT_number 2
_symmetry_cell_setting 'triclinic'
loop_
_space_group_symop_operation_xyz
x,y,z
-x,-y,-z
loop_
_atom_site_type_symbol
_atom_site_label
_atom_site_fract_x
_atom_site_fract_y
_atom_site_fract_z
Si Si1 0.262407 0.183709 0.312514
Si Si2 0.126013 0.554006 0.358549
Si Si3 0.270315 0.330681 0.636998
Si Si4 0.529777 0.175758 0.369653
Si Si5 0.631881 0.460580 0.159820
Si Si6 0.976263 0.246634 0.782664
Si Si7 0.688109 0.948947 0.806980
Si Si8 0.382942 0.679565 0.172679
O O1 0.391696 0.169911 0.396074
O O2 0.084413 0.219135 0.525873
O O3 0.329114 0.084269 0.325486
O O4 0.244421 0.269144 0.975591
O O5 0.270816 0.420416 0.535682
O O6 0.920920 0.596867 0.473426
O O7 0.128134 0.625080 0.359342
O O8 0.177020 0.580509 0.029943
O O9 0.435393 0.244843 0.515755
O O10 0.696999 0.045940 0.558830
O O11 0.568749 0.242589 0.038192
O O12 0.539297 0.568120 0.145120
O O13 0.646313 0.367726 0.486225
O O14 0.500000 0.500000 0.000000
O O15 0.812405 0.245851 0.929606
O O16 0.132056 0.161467 0.997932
O O17 0.500000 0.000000 0.000000
#
# Coordination Sequence:
#
# PCOD9055460 Si02
#       8
#     2   2   2   2   2   2   2   2
#     4  12  23  42  71  99 130 181 223 282 341 399
#     4  11  21  42  64 100 138 175 218 282 337 397
#     4  11  23  39  67 103 137 169 227 287 337 386
#     4  12  25  44  67 103 136 173 235 280 336 402
#     4  11  23  43  68  92 142 188 220 265 336 412
#     4  12  25  44  70 101 138 184 228 274 339 410
#     4  12  24  47  73  98 130 179 232 288 342 390
#     4  11  27  42  67 104 136 184 227 269 341 412
#
# _framework density 21.581222
#
# number of rings (size 3 to 8) (size 9 to 14) (size 15 to 20)
#    0.000    0.500    7.500    1.125    1.750    1.000 
#    0.000    0.625    0.000    0.000    0.000    0.000 
#    0.000    0.000    0.000    0.000    0.000    0.000 
#
# Total GULP energy -89402.430177 kJ/mol
# GULP energy per Si atom -5587.651886 kJ/mol
# Density = 2.153210 g / cm^3
# Si number density = 21.581222 Si / 1000 Ang^3
#
#
#
# Elastic Constant Matrix: (Units=GPa)
#
#
# Indices 1 2 3 4 5 6 
#
# 1 57.5819 29.5990 5.5316 -11.3270 -7.5604 -5.3332
# 2 29.5990 129.9356 50.7284 0.8702 -10.5333 25.8878
# 3 5.5316 50.7284 97.8795 -15.3989 -14.9870 11.9903
# 4 -11.3270 0.8702 -15.3989 40.4612 0.8060 -7.3893
# 5 -7.5604 -10.5333 -14.9870 0.8060 36.9375 -5.6151
# 6 -5.3332 25.8878 11.9903 -7.3893 -5.6151 28.5023
#
#
#
# Elastic Compliance Matrix: (Units=1/GPa)
#
#
# Indices 1 2 3 4 5 6 
#
# 1 0.028193 -0.011754 0.005438 0.013462 0.007153 0.018563
# 2 -0.011754 0.016688 -0.007909 -0.009735 -0.003257 -0.017195
# 3 0.005438 -0.007909 0.015608 0.008422 0.005760 0.004953
# 4 0.013462 -0.009735 0.008422 0.035073 0.005363 0.017967
# 5 0.007153 -0.003257 0.005760 0.005363 0.031260 0.009423
# 6 0.018563 -0.017195 0.004953 0.017967 0.009423 0.058607
#
#
# Mechanical properties :
#
#
# Convention : Reuss Voigt Hill
#
# Bulk Modulus (GPa) = 31.21116 50.79056 41.00086
# Shear Modulus (GPa) = 22.26581 34.48272 28.37427
#
# Velocity S-wave (km/s) = 3.21553 4.00160 3.62990
# Velocity P-wave (km/s) = 5.31787 6.70344 6.05045
#
# Compressibility (1/GPa) = 0.03203982
#
# Stress axis : x y z
#
# Youngs Moduli (GPa) = 35.47018 59.92223 64.06783
#
# Poissons Ratio (x) = 0.70431 -0.34838
# Poissons Ratio (y) = 0.41691 0.50669
# Poissons Ratio (z) = -0.19287 0.47391
#
# Static dielectric constant tensor:
#      x y z
#    x 1.825430 -0.016540 0.028420 
#    y -0.016540 1.794840 -0.041360 
#    z 0.028420 -0.041360 1.792810 
# 
# From -- ./inp_files/82965.got.cif
#   From: 2010.05.17/outbox.cif.g08.bks.cpg/sg2_42_cif.got.tgz:82965.got - 2010.06.03 11:33:40.
