data_PCOD9055424
_publ_section_title
;
Structure prediction by ZEFSAII (Michael W. Deem and Ramdas Pophale) SiO2 
 PCOD9055424
Probable space group: P -1
;
_chemical_formula_sum "Si O2"
_cell_formula_units_Z 14
_cell_length_a 9.325673
_cell_length_b 9.147336
_cell_length_c 12.875292
_cell_angle_alpha 70.711381
_cell_angle_beta 58.731539
_cell_angle_gamma 113.719256
_cell_volume 622.980364
_symmetry_space_group_name_H-M "P -1"
_symmetry_group_IT_number 2
_symmetry_cell_setting 'triclinic'
loop_
_space_group_symop_operation_xyz
x,y,z
-x,-y,-z
loop_
_atom_site_type_symbol
_atom_site_label
_atom_site_fract_x
_atom_site_fract_y
_atom_site_fract_z
Si Si1 0.246305 0.887250 0.674322
Si Si2 0.736424 0.320642 0.685622
Si Si3 0.838492 0.151821 0.864521
Si Si4 0.701245 0.529768 0.974679
Si Si5 0.270727 0.249414 0.665214
Si Si6 0.642772 0.714314 0.136450
Si Si7 0.671339 0.167497 0.123693
O O1 0.232950 0.777250 0.809847
O O2 0.968047 0.696605 0.782882
O O3 0.500000 0.000000 0.500000
O O4 0.275210 0.086702 0.647406
O O5 0.737663 0.219362 0.814035
O O6 0.636244 0.429674 0.707942
O O7 0.000000 0.500000 0.500000
O O8 0.550160 0.099185 0.737091
O O9 0.067647 0.231053 0.706769
O O10 0.863830 0.240163 0.948816
O O11 0.702293 0.903875 0.000246
O O12 0.500000 0.500000 0.000000
O O13 0.721006 0.622224 0.059466
O O14 0.601528 0.292437 0.085235
O O15 0.500000 0.500000 0.500000
O O16 0.243119 0.208407 0.809982
#
# Coordination Sequence:
#
# PCOD9055424 Si02
#       7
#     2   2   2   2   2   2   2
#     4  12  28  48  69 103 148 188 235 297 364 418
#     4  11  23  42  69 106 143 179 230 296 364 415
#     4  11  21  41  72  96 133 181 237 283 339 425
#     4  12  26  47  71 105 142 187 239 292 353 425
#     4  12  25  42  71 103 135 182 241 295 351 412
#     4  11  22  45  69  99 134 186 239 289 339 432
#     4  11  25  44  70 101 139 192 238 283 356 433
#
# _framework density 22.472618000000001
#
# number of rings (size 3 to 8) (size 9 to 14) (size 15 to 20)
#    0.000    0.571    4.286    6.000    4.000    1.143 
#    0.000    1.429    0.000    0.000    0.000    0.000 
#    0.000    0.000    0.000    0.000    0.000    0.000 
#
# Total GULP energy -78093.771741 kJ/mol
# GULP energy per Si atom -5578.126553 kJ/mol
# Density = 2.242147 g / cm^3
# Si number density = 22.472618 Si / 1000 Ang^3
#
#
#
# Elastic Constant Matrix: (Units=GPa)
#
#
# Indices 1 2 3 4 5 6 
#
# 1 112.3245 10.1280 16.2704 -0.2558 -13.7170 -8.0815
# 2 10.1280 71.0702 14.3864 3.6621 -7.1235 -20.1759
# 3 16.2704 14.3864 84.3370 -6.8820 -19.0304 -0.9549
# 4 -0.2558 3.6621 -6.8820 36.1031 -4.2454 -2.0913
# 5 -13.7170 -7.1235 -19.0304 -4.2454 47.8614 5.4905
# 6 -8.0815 -20.1759 -0.9549 -2.0913 5.4905 37.2342
#
#
#
# Elastic Compliance Matrix: (Units=1/GPa)
#
#
# Indices 1 2 3 4 5 6 
#
# 1 0.009480 -0.000486 -0.001264 0.000195 0.001989 0.001480
# 2 -0.000486 0.017425 -0.002899 -0.001783 0.000094 0.009148
# 3 -0.001264 -0.002899 0.014061 0.003474 0.005344 -0.002078
# 4 0.000195 -0.001783 0.003474 0.028994 0.003715 0.000246
# 5 0.001989 0.000094 0.005344 0.003715 0.024247 -0.002747
# 6 0.001480 0.009148 -0.002078 0.000246 -0.002747 0.032501
#
#
# Mechanical properties :
#
#
# Convention : Reuss Voigt Hill
#
# Bulk Modulus (GPa) = 31.57844 38.81123 35.19484
# Shear Modulus (GPa) = 34.11513 39.36953 36.74233
#
# Velocity S-wave (km/s) = 3.90048 4.19010 4.04788
# Velocity P-wave (km/s) = 5.86237 6.38100 6.12718
#
# Compressibility (1/GPa) = 0.03166718
#
# Stress axis : x y z
#
# Youngs Moduli (GPa) = 105.49032 57.38863 71.11669
#
# Poissons Ratio (x) = 0.02787 0.08992
# Poissons Ratio (y) = 0.05122 0.20620
# Poissons Ratio (z) = 0.13338 0.16639
#
# Static dielectric constant tensor:
#      x y z
#    x 1.876600 0.051670 -0.025880 
#    y 0.051670 1.872410 0.001000 
#    z -0.025880 0.001000 1.783000 
# 
# From -- ./inp_files/304639.got.cif
#   From: 2010.05.17/outbox.cif.g08.bks.cpg/sg2_153_cif.got.tgz:304639.got - 2010.06.03 11:33:40.
