data_PCOD9055911
_publ_section_title
;
Structure prediction by ZEFSAII (Michael W. Deem and Ramdas Pophale) SiO2 
 PCOD9055911
Probable space group: P -1
;
_chemical_formula_sum "Si O2"
_cell_formula_units_Z 16
_cell_length_a 10.926857
_cell_length_b 14.358022
_cell_length_c 10.315368
_cell_angle_alpha 54.626594
_cell_angle_beta 106.934643
_cell_angle_gamma 147.868025
_cell_volume 623.651676
_symmetry_space_group_name_H-M "P -1"
_symmetry_group_IT_number 2
_symmetry_cell_setting 'triclinic'
loop_
_space_group_symop_operation_xyz
x,y,z
-x,-y,-z
loop_
_atom_site_type_symbol
_atom_site_label
_atom_site_fract_x
_atom_site_fract_y
_atom_site_fract_z
Si Si1 0.781031 0.765453 0.539883
Si Si2 0.615130 0.876229 0.349232
Si Si3 0.686453 0.648879 0.112695
Si Si4 0.922069 0.634784 0.041870
Si Si5 0.577674 0.212062 0.095466
Si Si6 0.200092 0.627775 0.234721
Si Si7 0.731474 0.133282 0.378690
Si Si8 0.074439 0.938877 0.240611
O O1 0.608551 0.735092 0.453065
O O2 0.597193 0.553817 0.750756
O O3 0.000000 0.000000 0.500000
O O4 0.912480 0.803815 0.430369
O O5 0.349443 0.723299 0.336782
O O6 0.675080 0.964665 0.442560
O O7 0.855794 0.109577 0.150841
O O8 0.725041 0.560027 0.122065
O O9 0.775390 0.822906 0.910541
O O10 0.881571 0.793753 0.177135
O O11 0.763677 0.449540 0.028210
O O12 0.055578 0.637050 0.165509
O O13 0.703103 0.190370 0.195802
O O14 0.292305 0.012874 0.222641
O O15 0.588659 0.220700 0.937389
O O16 0.990563 0.369267 0.341362
O O17 0.500000 0.000000 0.500000
#
# Coordination Sequence:
#
# PCOD9055911 Si02
#       8
#     2   2   2   2   2   2   2   2
#     4  12  29  48  70 105 143 188 244 299 357 430
#     4  12  25  45  73 102 141 191 234 290 368 418
#     4  11  26  46  73 103 140 186 247 295 357 429
#     4  11  21  44  70 105 139 182 237 292 354 431
#     4  11  23  43  73 102 137 186 238 289 358 422
#     4  11  24  44  71 103 140 185 236 292 351 429
#     4  11  26  44  66 107 148 181 233 291 355 432
#     4  11  26  47  72 102 138 193 240 301 359 414
#
# _framework density 25.655345000000001
#
# number of rings (size 3 to 8) (size 9 to 14) (size 15 to 20)
#    0.000    0.750    3.750    3.000   10.500    2.500 
#    0.000    0.000    0.000    0.000    0.000    0.000 
#    0.000    0.000    0.000    0.000    0.000    0.000 
#
# Total GULP energy -89779.028786 kJ/mol
# GULP energy per Si atom -5611.189299 kJ/mol
# Density = 2.559695 g / cm^3
# Si number density = 25.655345 Si / 1000 Ang^3
#
#
#
# Elastic Constant Matrix: (Units=GPa)
#
#
# Indices 1 2 3 4 5 6 
#
# 1 122.7404 12.3813 42.4468 3.2565 -7.9737 -3.6411
# 2 12.3813 106.0646 6.1730 -6.8397 -2.0298 5.5546
# 3 42.4468 6.1730 93.4718 -11.4067 -16.2246 -2.6710
# 4 3.2565 -6.8397 -11.4067 27.2622 4.3592 -4.7212
# 5 -7.9737 -2.0298 -16.2246 4.3592 49.9305 5.6498
# 6 -3.6411 5.5546 -2.6710 -4.7212 5.6498 33.7328
#
#
#
# Elastic Compliance Matrix: (Units=1/GPa)
#
#
# Indices 1 2 3 4 5 6 
#
# 1 0.010065 -0.001131 -0.004871 -0.003501 0.000244 0.000356
# 2 -0.001131 0.009783 0.000155 0.002372 0.000222 -0.001426
# 3 -0.004871 0.000155 0.014243 0.006224 0.003210 0.000910
# 4 -0.003501 0.002372 0.006224 0.041787 -0.002772 0.006037
# 5 0.000244 0.000222 0.003210 -0.002772 0.021790 -0.003793
# 6 0.000356 -0.001426 0.000910 0.006037 -0.003793 0.031470
#
#
# Mechanical properties :
#
#
# Convention : Reuss Voigt Hill
#
# Bulk Modulus (GPa) = 44.64934 49.36434 47.00684
# Shear Modulus (GPa) = 33.71574 39.60348 36.65961
#
# Velocity S-wave (km/s) = 3.62909 3.93322 3.78422
# Velocity P-wave (km/s) = 5.91623 6.31745 6.12012
#
# Compressibility (1/GPa) = 0.02239675
#
# Stress axis : x y z
#
# Youngs Moduli (GPa) = 99.35284 102.21667 70.21067
#
# Poissons Ratio (x) = 0.11563 0.34198
# Poissons Ratio (y) = 0.11239 -0.01087
# Poissons Ratio (z) = 0.48392 -0.01582
#
# Static dielectric constant tensor:
#      x y z
#    x 2.008140 0.024720 0.034380 
#    y 0.024720 1.960880 0.007100 
#    z 0.034380 0.007100 2.064200 
# 
# From -- ./inp_files/225312.got.cif
#   From: 2010.05.17/outbox.cif.g08.bks.cpg/sg2_113_cif.got.tgz:225312.got - 2010.06.03 11:33:40.
