data_PCOD9055969
_publ_section_title
;
Structure prediction by ZEFSAII (Michael W. Deem and Ramdas Pophale) SiO2 
 PCOD9055969
Probable space group: P -1
;
_chemical_formula_sum "Si O2"
_cell_formula_units_Z 16
_cell_length_a 8.657936
_cell_length_b 8.783494
_cell_length_c 12.454789
_cell_angle_alpha 80.919816
_cell_angle_beta 85.422402
_cell_angle_gamma 49.697136
_cell_volume 712.965621
_symmetry_space_group_name_H-M "P -1"
_symmetry_group_IT_number 2
_symmetry_cell_setting 'triclinic'
loop_
_space_group_symop_operation_xyz
x,y,z
-x,-y,-z
loop_
_atom_site_type_symbol
_atom_site_label
_atom_site_fract_x
_atom_site_fract_y
_atom_site_fract_z
Si Si1 0.912163 0.676651 0.201658
Si Si2 0.685519 0.761771 0.001245
Si Si3 0.147872 0.549335 0.643480
Si Si4 0.803130 0.067611 0.217847
Si Si5 0.366447 0.446863 0.148502
Si Si6 0.592690 0.302532 0.737112
Si Si7 0.941932 0.171844 0.567692
Si Si8 0.891426 0.851746 0.816117
O O1 0.855174 0.632446 0.321224
O O2 0.153100 0.526398 0.197269
O O3 0.840964 0.896221 0.160683
O O4 0.792804 0.659237 0.119183
O O5 0.629494 0.636842 0.959377
O O6 0.843902 0.756514 0.919450
O O7 0.500000 0.000000 0.000000
O O8 0.367622 0.460164 0.685277
O O9 0.096513 0.652184 0.520060
O O10 0.979602 0.720712 0.717334
O O11 0.568290 0.254423 0.214002
O O12 0.941282 0.123897 0.168099
O O13 0.882656 0.956180 0.339879
O O14 0.375938 0.620086 0.163185
O O15 0.742729 0.269854 0.639921
O O16 0.680300 0.076040 0.779497
O O17 0.000000 0.000000 0.500000
#
# Coordination Sequence:
#
# PCOD9055969 Si02
#       8
#     2   2   2   2   2   2   2   2
#     4  12  26  47  65  99 141 175 227 284 337 400
#     4  12  26  47  72  97 138 187 221 282 348 399
#     4  12  24  42  73 100 136 185 227 273 342 404
#     4  11  24  46  67 101 139 171 226 290 326 400
#     4  12  23  45  70  97 142 175 222 287 337 393
#     4  11  23  43  71 104 135 177 225 282 334 405
#     4  11  21  44  73  99 138 178 224 278 338 404
#     4  11  23  44  69 100 135 178 231 278 335 401
#
# _framework density 22.441476999999999
#
# number of rings (size 3 to 8) (size 9 to 14) (size 15 to 20)
#    0.000    0.500    8.750    1.500    0.000    1.000 
#    0.000    3.750    0.000    0.000    0.000    0.000 
#    0.000    0.000    0.000    0.000    0.000    0.000 
#
# Total GULP energy -89373.736174 kJ/mol
# GULP energy per Si atom -5585.858511 kJ/mol
# Density = 2.239040 g / cm^3
# Si number density = 22.441477 Si / 1000 Ang^3
#
#
#
# Elastic Constant Matrix: (Units=GPa)
#
#
# Indices 1 2 3 4 5 6 
#
# 1 61.7379 34.0851 33.3731 -4.5433 8.0238 -12.8740
# 2 34.0851 99.0654 13.5123 6.8591 -2.9601 -17.7342
# 3 33.3731 13.5123 88.5729 -12.1395 -8.5778 -0.6127
# 4 -4.5433 6.8591 -12.1395 42.2529 6.3103 10.3204
# 5 8.0238 -2.9601 -8.5778 6.3103 41.7005 -6.2692
# 6 -12.8740 -17.7342 -0.6127 10.3204 -6.2692 40.6652
#
#
#
# Elastic Compliance Matrix: (Units=1/GPa)
#
#
# Indices 1 2 3 4 5 6 
#
# 1 0.027656 -0.007907 -0.009687 0.001744 -0.007606 0.003546
# 2 -0.007907 0.014218 0.000575 -0.005004 0.004253 0.005631
# 3 -0.009687 0.000575 0.015710 0.003437 0.004195 -0.002805
# 4 0.001744 -0.005004 0.003437 0.028924 -0.005837 -0.009819
# 5 -0.007606 0.004253 0.004195 -0.005837 0.028297 0.005354
# 6 0.003546 0.005631 -0.002805 -0.009819 0.005354 0.031444
#
#
# Mechanical properties :
#
#
# Convention : Reuss Voigt Hill
#
# Bulk Modulus (GPa) = 42.47002 45.70190 44.08596
# Shear Modulus (GPa) = 26.57639 36.15076 31.36358
#
# Velocity S-wave (km/s) = 3.44503 4.01794 3.74247
# Velocity P-wave (km/s) = 5.89832 6.47567 6.19373
#
# Compressibility (1/GPa) = 0.02354602
#
# Stress axis : x y z
#
# Youngs Moduli (GPa) = 36.15865 70.33253 63.65273
#
# Poissons Ratio (x) = 0.55615 0.61661
# Poissons Ratio (y) = 0.28592 -0.03663
# Poissons Ratio (z) = 0.35027 -0.04047
#
# Static dielectric constant tensor:
#      x y z
#    x 1.857700 0.080900 0.045870 
#    y 0.080900 1.915770 0.073650 
#    z 0.045870 0.073650 1.840430 
# 
# From -- ./inp_files/382311.got.cif
#   From: 2010.05.17/outbox.cif.g08.bks.cpg/sg2_192_cif.got.tgz:382311.got - 2010.06.03 11:33:40.
