data_PCOD9055060
_publ_section_title
;
Structure prediction by ZEFSAII (Michael W. Deem and Ramdas Pophale) SiO2 
 PCOD9055060
Probable space group: P -1
;
_chemical_formula_sum "Si O2"
_cell_formula_units_Z 14
_cell_length_a 16.621904
_cell_length_b 18.144296
_cell_length_c 5.822629
_cell_angle_alpha 56.362287
_cell_angle_beta 56.514769
_cell_angle_gamma 24.112671
_cell_volume 591.767507
_symmetry_space_group_name_H-M "P -1"
_symmetry_group_IT_number 2
_symmetry_cell_setting 'triclinic'
loop_
_space_group_symop_operation_xyz
x,y,z
-x,-y,-z
loop_
_atom_site_type_symbol
_atom_site_label
_atom_site_fract_x
_atom_site_fract_y
_atom_site_fract_z
Si Si1 0.639663 0.740358 0.714269
Si Si2 0.551790 0.204404 0.435562
Si Si3 0.831198 0.220975 0.619983
Si Si4 0.253671 0.777762 0.746422
Si Si5 0.056731 0.212131 0.367142
Si Si6 0.356003 0.093051 0.850112
Si Si7 0.153272 0.458234 0.839679
O O1 0.534045 0.738790 0.780469
O O2 0.716932 0.753706 0.393777
O O3 0.481156 0.931250 0.760847
O O4 0.810946 0.567288 0.901007
O O5 0.592637 0.265201 0.380950
O O6 0.385132 0.283641 0.700639
O O7 0.765203 0.985419 0.459047
O O8 0.723035 0.284374 0.437697
O O9 0.904450 0.263398 0.420515
O O10 0.736790 0.282931 0.918638
O O11 0.030893 0.999327 0.700540
O O12 0.947179 0.375208 0.404817
O O13 0.174884 0.177389 0.061842
O O14 0.500000 0.000000 0.000000
O O15 0.000000 0.500000 0.000000
#
# Coordination Sequence:
#
# PCOD9055060 Si02
#       7
#     2   2   2   2   2   2   2
#     4  11  23  40  69  93 134 183 227 278 349 407
#     4  11  24  44  70  99 133 186 228 285 349 418
#     4   9  20  40  66 107 131 180 231 296 345 421
#     4   9  20  40  71  98 140 173 236 290 356 412
#     4  11  23  43  70  96 141 178 232 283 350 414
#     4  11  21  40  64  98 127 180 231 277 333 415
#     4  12  27  44  64 103 144 175 233 286 342 421
#
# _framework density 23.657938999999999
#
# number of rings (size 3 to 8) (size 9 to 14) (size 15 to 20)
#    0.000    1.429    2.857    1.714    4.000    5.714 
#    2.571    1.429    0.000    0.000    0.000    0.000 
#    0.000    0.000    0.000    0.000    0.000    0.000 
#
# Total GULP energy -77951.857085 kJ/mol
# GULP energy per Si atom -5567.989792 kJ/mol
# Density = 2.360409 g / cm^3
# Si number density = 23.657939 Si / 1000 Ang^3
#
#
#
# Elastic Constant Matrix: (Units=GPa)
#
#
# Indices 1 2 3 4 5 6 
#
# 1 232.1450 32.8353 72.1570 1.1943 0.1503 -31.9605
# 2 32.8353 43.5152 2.8284 -0.4479 1.1914 -14.0285
# 3 72.1570 2.8284 85.3548 7.4794 -0.5416 -12.8766
# 4 1.1943 -0.4479 7.4794 20.9026 -0.3190 -0.7215
# 5 0.1503 1.1914 -0.5416 -0.3190 34.0290 -3.8767
# 6 -31.9605 -14.0285 -12.8766 -0.7215 -3.8767 19.6371
#
#
#
# Elastic Compliance Matrix: (Units=1/GPa)
#
#
# Indices 1 2 3 4 5 6 
#
# 1 0.007217 -0.003059 -0.005175 0.001605 0.000734 0.006372
# 2 -0.003059 0.031732 0.004728 -0.000089 0.001376 0.021059
# 3 -0.005175 0.004728 0.017380 -0.005592 0.000800 0.006304
# 4 0.001605 -0.000089 -0.005592 0.049783 0.000465 0.000802
# 5 0.000734 0.001376 0.000800 0.000465 0.030345 0.008709
# 6 0.006372 0.021059 0.006304 0.000802 0.008709 0.082222
#
#
# Mechanical properties :
#
#
# Convention : Reuss Voigt Hill
#
# Bulk Modulus (GPa) = 20.27678 64.07295 42.17486
# Shear Modulus (GPa) = 20.65018 31.79337 26.22178
#
# Velocity S-wave (km/s) = 2.95763 3.66987 3.33283
# Velocity P-wave (km/s) = 4.50032 6.71559 5.71629
#
# Compressibility (1/GPa) = 0.04931749
#
# Stress axis : x y z
#
# Youngs Moduli (GPa) = 138.55670 31.51420 57.53786
#
# Poissons Ratio (x) = 0.09640 0.29774
# Poissons Ratio (y) = 0.42384 -0.27204
# Poissons Ratio (z) = 0.71698 -0.14900
#
# Static dielectric constant tensor:
#      x y z
#    x 1.968770 0.239010 0.094610 
#    y 0.239010 2.358830 0.043320 
#    z 0.094610 0.043320 2.023070 
# 
# From -- ./inp_files/99296.got.cif
#   From: 2010.05.17/outbox.cif.g08.bks.cpg/sg2_50_cif.got.tgz:99296.got - 2010.06.03 11:33:40.
