data_PCOD9055352
_publ_section_title
;
Structure prediction by ZEFSAII (Michael W. Deem and Ramdas Pophale) SiO2 
 PCOD9055352
Probable space group: P -1
;
_chemical_formula_sum "Si O2"
_cell_formula_units_Z 16
_cell_length_a 8.553708
_cell_length_b 12.337314
_cell_length_c 9.376571
_cell_angle_alpha 122.814428
_cell_angle_beta 105.086365
_cell_angle_gamma 64.903036
_cell_volume 752.498780
_symmetry_space_group_name_H-M "P -1"
_symmetry_group_IT_number 2
_symmetry_cell_setting 'triclinic'
loop_
_space_group_symop_operation_xyz
x,y,z
-x,-y,-z
loop_
_atom_site_type_symbol
_atom_site_label
_atom_site_fract_x
_atom_site_fract_y
_atom_site_fract_z
Si Si1 0.334690 0.177366 0.151026
Si Si2 0.537293 0.196754 0.477493
Si Si3 0.174610 0.973433 0.110399
Si Si4 0.619696 0.460929 0.639877
Si Si5 0.057703 0.475720 0.333037
Si Si6 0.851918 0.957715 0.511803
Si Si7 0.243054 0.301409 0.701419
Si Si8 0.510924 0.730397 0.999750
O O1 0.492033 0.181551 0.291851
O O2 0.168282 0.316627 0.223972
O O3 0.402492 0.179234 0.009460
O O4 0.274193 0.058397 0.110322
O O5 0.612078 0.319439 0.597337
O O6 0.351863 0.244322 0.543567
O O7 0.668036 0.060982 0.483380
O O8 0.139188 0.023718 0.301870
O O9 0.308942 0.816734 0.031981
O O10 0.000000 0.000000 0.000000
O O11 0.500000 0.500000 0.500000
O O12 0.808677 0.448995 0.623889
O O13 0.550103 0.587169 0.823635
O O14 0.000000 0.500000 0.500000
O O15 0.890025 0.545845 0.246978
O O16 0.856142 0.804742 0.367031
O O17 0.000000 0.000000 0.500000
O O18 0.385456 0.296145 0.847926
#
# Coordination Sequence:
#
# PCOD9055352 Si02
#       8
#     2   2   2   2   2   2   2   2
#     4  11  24  44  71  98 134 185 221 274 346 405
#     4  12  22  45  72  96 135 184 227 274 340 412
#     4  12  27  46  67 103 138 173 229 285 340 407
#     4  11  23  43  69 102 137 179 227 273 339 409
#     4  11  21  41  69 102 132 180 227 273 335 404
#     4  12  27  45  70 101 136 183 227 283 343 402
#     4  12  24  45  71  98 139 177 230 283 338 404
#     4  11  26  45  69 102 134 180 225 280 344 398
#
# _framework density 21.262492999999999
#
# number of rings (size 3 to 8) (size 9 to 14) (size 15 to 20)
#    0.000    0.500    6.250    2.250    3.500    5.500 
#    2.250    0.000    0.000    0.000    0.000    0.000 
#    0.000    0.000    0.000    0.000    0.000    0.000 
#
# Total GULP energy -89503.092412 kJ/mol
# GULP energy per Si atom -5593.943276 kJ/mol
# Density = 2.121410 g / cm^3
# Si number density = 21.262493 Si / 1000 Ang^3
#
#
#
# Elastic Constant Matrix: (Units=GPa)
#
#
# Indices 1 2 3 4 5 6 
#
# 1 63.3030 23.0069 1.9021 9.3641 3.5370 -18.1737
# 2 23.0069 128.0016 35.5345 -6.0877 12.4655 -28.6715
# 3 1.9021 35.5345 67.7352 -7.6529 6.7417 -20.3026
# 4 9.3641 -6.0877 -7.6529 36.2907 0.8142 12.6345
# 5 3.5370 12.4655 6.7417 0.8142 23.7419 -2.3975
# 6 -18.1737 -28.6715 -20.3026 12.6345 -2.3975 51.5259
#
#
#
# Elastic Compliance Matrix: (Units=1/GPa)
#
#
# Indices 1 2 3 4 5 6 
#
# 1 0.020492 -0.002747 0.002669 -0.008188 -0.001209 0.008703
# 2 -0.002747 0.010488 -0.004112 0.000669 -0.003659 0.002913
# 3 0.002669 -0.004112 0.018971 0.000663 -0.003060 0.005823
# 4 -0.008188 0.000669 0.000663 0.033636 -0.001541 -0.010574
# 5 -0.001209 -0.003659 -0.003060 -0.001541 0.045022 -0.001195
# 6 0.008703 0.002913 0.005823 -0.010574 -0.001195 0.028930
#
#
# Mechanical properties :
#
#
# Convention : Reuss Voigt Hill
#
# Bulk Modulus (GPa) = 24.05476 42.21412 33.13444
# Shear Modulus (GPa) = 27.81244 35.55143 31.68194
#
# Velocity S-wave (km/s) = 3.62062 4.09348 3.86429
# Velocity P-wave (km/s) = 5.36809 6.49915 5.96051
#
# Compressibility (1/GPa) = 0.04157182
#
# Stress axis : x y z
#
# Youngs Moduli (GPa) = 48.79870 95.34478 52.71292
#
# Poissons Ratio (x) = 0.26187 -0.14070
# Poissons Ratio (y) = 0.13403 0.21677
# Poissons Ratio (z) = -0.13025 0.39209
#
# Static dielectric constant tensor:
#      x y z
#    x 1.765360 0.006850 -0.005640 
#    y 0.006850 1.788290 0.017360 
#    z -0.005640 0.017360 1.743860 
# 
# From -- ./inp_files/190252.got.cif
#   From: 2010.05.17/outbox.cif.g08.bks.cpg/sg2_96_cif.got.tgz:190252.got - 2010.06.03 11:33:40.
