data_PCOD9055014
_publ_section_title
;
Structure prediction by ZEFSAII (Michael W. Deem and Ramdas Pophale) SiO2 
 PCOD9055014
Probable space group: P -1
;
_chemical_formula_sum "Si O2"
_cell_formula_units_Z 16
_cell_length_a 7.999521
_cell_length_b 9.740656
_cell_length_c 11.425630
_cell_angle_alpha 99.975421
_cell_angle_beta 80.540068
_cell_angle_gamma 50.860187
_cell_volume 634.925002
_symmetry_space_group_name_H-M "P -1"
_symmetry_group_IT_number 2
_symmetry_cell_setting 'triclinic'
loop_
_space_group_symop_operation_xyz
x,y,z
-x,-y,-z
loop_
_atom_site_type_symbol
_atom_site_label
_atom_site_fract_x
_atom_site_fract_y
_atom_site_fract_z
Si Si1 0.516646 0.325940 0.495226
Si Si2 0.855843 0.957224 0.955233
Si Si3 0.010614 0.122005 0.329791
Si Si4 0.235899 0.270983 0.358726
Si Si5 0.080597 0.598299 0.261811
Si Si6 0.608483 0.323719 0.734290
Si Si7 0.708409 0.861630 0.175353
Si Si8 0.608991 0.642991 0.028839
O O1 0.500000 0.500000 0.500000
O O2 0.354410 0.307323 0.445014
O O3 0.475943 0.341302 0.640281
O O4 0.214886 0.836743 0.597911
O O5 0.983213 0.840785 0.803417
O O6 0.606047 0.160775 0.981032
O O7 0.828721 0.862278 0.048122
O O8 0.000000 0.000000 0.000000
O O9 0.074590 0.229592 0.406304
O O10 0.215165 0.897417 0.286781
O O11 0.095687 0.451293 0.315418
O O12 0.456808 0.073109 0.243721
O O13 0.242425 0.624137 0.306642
O O14 0.839677 0.797374 0.274917
O O15 0.204549 0.496777 0.108936
O O16 0.468145 0.435500 0.884811
O O17 0.695078 0.708261 0.121628
#
# Coordination Sequence:
#
# PCOD9055014 Si02
#       8
#     2   2   2   2   2   2   2   2
#     4  12  27  48  73 104 146 190 249 310 364 427
#     4  11  21  39  71 104 146 190 233 295 369 434
#     4  11  26  47  75 106 142 196 250 298 365 439
#     4  12  25  51  77 106 149 196 240 307 366 432
#     4  12  25  42  75 109 146 189 238 302 366 434
#     4  11  24  48  68 104 143 186 248 296 359 440
#     4  12  23  44  71 108 148 187 240 293 369 440
#     4  11  23  43  69 108 145 184 238 298 361 441
#
# _framework density 25.199824
#
# number of rings (size 3 to 8) (size 9 to 14) (size 15 to 20)
#    0.000    0.500    5.000    5.250    0.000    3.000 
#    2.250    0.000    0.000    0.000    0.000    0.000 
#    0.000    0.000    0.000    0.000    0.000    0.000 
#
# Total GULP energy -89578.092009 kJ/mol
# GULP energy per Si atom -5598.630751 kJ/mol
# Density = 2.514247 g / cm^3
# Si number density = 25.199824 Si / 1000 Ang^3
#
#
#
# Elastic Constant Matrix: (Units=GPa)
#
#
# Indices 1 2 3 4 5 6 
#
# 1 116.3192 11.6197 46.0676 1.7548 14.5449 7.1275
# 2 11.6197 67.6765 25.0347 -4.5350 -4.7414 2.7576
# 3 46.0676 25.0347 111.8125 -6.7079 4.0040 -4.0776
# 4 1.7548 -4.5350 -6.7079 32.1855 1.4046 9.5405
# 5 14.5449 -4.7414 4.0040 1.4046 43.3608 -0.8672
# 6 7.1275 2.7576 -4.0776 9.5405 -0.8672 35.4545
#
#
#
# Elastic Compliance Matrix: (Units=1/GPa)
#
#
# Indices 1 2 3 4 5 6 
#
# 1 0.010988 -0.000415 -0.004449 -0.000671 -0.003351 -0.002590
# 2 -0.000415 0.016548 -0.003560 0.002152 0.002165 -0.002139
# 3 -0.004449 -0.003560 0.011744 0.001565 0.000010 0.002101
# 4 -0.000671 0.002152 0.001565 0.034494 -0.000985 -0.009158
# 5 -0.003351 0.002165 0.000010 -0.000985 0.024481 0.001370
# 6 -0.002590 -0.002139 0.002101 -0.009158 0.001370 0.031632
#
#
# Mechanical properties :
#
#
# Convention : Reuss Voigt Hill
#
# Bulk Modulus (GPa) = 44.58165 51.25023 47.91594
# Shear Modulus (GPa) = 32.42281 36.40590 34.41435
#
# Velocity S-wave (km/s) = 3.59085 3.80503 3.69949
# Velocity P-wave (km/s) = 5.90948 6.29968 6.10770
#
# Compressibility (1/GPa) = 0.02243075
#
# Stress axis : x y z
#
# Youngs Moduli (GPa) = 91.00600 60.43199 85.15037
#
# Poissons Ratio (x) = 0.02508 0.37884
# Poissons Ratio (y) = 0.03777 0.30317
# Poissons Ratio (z) = 0.40489 0.21516
#
# Static dielectric constant tensor:
#      x y z
#    x 2.610050 0.476980 -0.951330 
#    y 0.476980 2.561890 -0.903130 
#    z -0.951330 -0.903130 3.599610 
# 
# From -- ./inp_files/382634.got.cif
#   From: 2010.05.17/outbox.cif.g08.bks.cpg/sg2_192_cif.got.tgz:382634.got - 2010.06.03 11:33:40.
