data_PCOD9055359
_publ_section_title
;
Structure prediction by ZEFSAII (Michael W. Deem and Ramdas Pophale) SiO2 
 PCOD9055359
Probable space group: P -1
;
_chemical_formula_sum "Si O2"
_cell_formula_units_Z 16
_cell_length_a 5.472370
_cell_length_b 9.587232
_cell_length_c 13.557318
_cell_angle_alpha 84.084343
_cell_angle_beta 93.966966
_cell_angle_gamma 78.753217
_cell_volume 690.996654
_symmetry_space_group_name_H-M "P -1"
_symmetry_group_IT_number 2
_symmetry_cell_setting 'triclinic'
loop_
_space_group_symop_operation_xyz
x,y,z
-x,-y,-z
loop_
_atom_site_type_symbol
_atom_site_label
_atom_site_fract_x
_atom_site_fract_y
_atom_site_fract_z
Si Si1 0.618068 0.836821 0.653260
Si Si2 0.753627 0.119313 0.995412
Si Si3 0.921376 0.754343 0.340996
Si Si4 0.093691 0.798024 0.541253
Si Si5 0.768702 0.434732 0.966559
Si Si6 0.285266 0.491781 0.265780
Si Si7 0.446647 0.035058 0.819975
Si Si8 0.315968 0.477940 0.584711
O O1 0.347060 0.834204 0.593687
O O2 0.719330 0.674208 0.706584
O O3 0.579190 0.945634 0.736904
O O4 0.836545 0.865846 0.584862
O O5 0.826339 0.268787 0.005041
O O6 0.601403 0.124028 0.887586
O O7 0.615032 0.075425 0.091346
O O8 0.000000 0.000000 0.000000
O O9 0.723735 0.683638 0.402960
O O10 0.094016 0.609344 0.314362
O O11 0.064979 0.828427 0.421281
O O12 0.790034 0.858083 0.243838
O O13 0.111041 0.624148 0.559703
O O14 0.749254 0.461409 0.849043
O O15 0.500000 0.500000 0.000000
O O16 0.000000 0.500000 0.000000
O O17 0.556723 0.506629 0.308753
O O18 0.500000 0.500000 0.500000
#
# Coordination Sequence:
#
# PCOD9055359 Si02
#       8
#     2   2   2   2   2   2   2   2
#     4  11  26  46  69 108 151 198 241 304 379 443
#     4  11  27  53  78 106 153 204 258 315 395 461
#     4  12  23  43  74 108 144 197 261 307 378 458
#     4  11  24  43  71 105 150 192 247 310 369 439
#     4  12  30  49  80 118 153 191 256 330 386 448
#     4  11  24  41  74 103 145 193 254 308 376 446
#     4  11  28  47  77 107 150 207 255 313 383 473
#     4  11  21  41  69 109 144 194 250 314 369 443
#
# _framework density 23.154958000000001
#
# number of rings (size 3 to 8) (size 9 to 14) (size 15 to 20)
#    0.000    0.750    2.500    4.125   10.500    1.000 
#    0.000    0.000    0.000    0.000    0.000    0.000 
#    0.000    0.000    0.000    0.000    0.000    0.000 
#
# Total GULP energy -89474.172229 kJ/mol
# GULP energy per Si atom -5592.135764 kJ/mol
# Density = 2.310226 g / cm^3
# Si number density = 23.154958 Si / 1000 Ang^3
#
#
#
# Elastic Constant Matrix: (Units=GPa)
#
#
# Indices 1 2 3 4 5 6 
#
# 1 83.2871 40.4446 39.8403 5.2234 -5.7557 1.3235
# 2 40.4446 137.9796 27.3368 -2.2359 -1.6250 1.8888
# 3 39.8403 27.3368 120.7458 10.9202 11.9369 -4.5394
# 4 5.2234 -2.2359 10.9202 34.9116 -14.2315 -2.9746
# 5 -5.7557 -1.6250 11.9369 -14.2315 20.5544 -1.1388
# 6 1.3235 1.8888 -4.5394 -2.9746 -1.1388 39.3408
#
#
#
# Elastic Compliance Matrix: (Units=1/GPa)
#
#
# Indices 1 2 3 4 5 6 
#
# 1 0.017281 -0.003645 -0.006234 0.003345 0.010455 -0.000570
# 2 -0.003645 0.008598 -0.001125 0.002164 0.001800 -0.000204
# 3 -0.006234 -0.001125 0.013100 -0.009788 -0.016188 0.000567
# 4 0.003345 0.002164 -0.009788 0.048045 0.040249 0.003452
# 5 0.010455 0.001800 -0.016188 0.040249 0.089174 0.003318
# 6 -0.000570 -0.000204 0.000567 0.003452 0.003318 0.025870
#
#
# Mechanical properties :
#
#
# Convention : Reuss Voigt Hill
#
# Bulk Modulus (GPa) = 58.92637 61.91733 60.42185
# Shear Modulus (GPa) = 21.76433 34.58741 28.17587
#
# Velocity S-wave (km/s) = 3.06917 3.86908 3.49211
# Velocity P-wave (km/s) = 6.16958 6.83800 6.51237
#
# Compressibility (1/GPa) = 0.01697033
#
# Stress axis : x y z
#
# Youngs Moduli (GPa) = 57.86829 116.30787 76.33338
#
# Poissons Ratio (x) = 0.42395 0.47587
# Poissons Ratio (y) = 0.21093 0.08589
# Poissons Ratio (z) = 0.36075 0.13087
#
# Static dielectric constant tensor:
#      x y z
#    x 2.044640 -0.038720 -0.034610 
#    y -0.038720 1.898630 -0.031690 
#    z -0.034610 -0.031690 1.789850 
# 
# From -- ./inp_files/107223.got.cif
#   From: 2010.05.17/outbox.cif.g08.bks.cpg/sg2_54_cif.got.tgz:107223.got - 2010.06.03 11:33:40.
