data_PCOD9055616
_publ_section_title
;
Structure prediction by ZEFSAII (Michael W. Deem and Ramdas Pophale) SiO2 
 PCOD9055616
Probable space group: P -1
;
_chemical_formula_sum "Si O2"
_cell_formula_units_Z 14
_cell_length_a 14.849889
_cell_length_b 9.145825
_cell_length_c 10.018042
_cell_angle_alpha 111.787203
_cell_angle_beta 55.195941
_cell_angle_gamma 148.756716
_cell_volume 557.229101
_symmetry_space_group_name_H-M "P -1"
_symmetry_group_IT_number 2
_symmetry_cell_setting 'triclinic'
loop_
_space_group_symop_operation_xyz
x,y,z
-x,-y,-z
loop_
_atom_site_type_symbol
_atom_site_label
_atom_site_fract_x
_atom_site_fract_y
_atom_site_fract_z
Si Si1 0.022534 0.478915 0.202862
Si Si2 0.447962 0.285246 0.380739
Si Si3 0.409563 0.113041 0.747070
Si Si4 0.765413 0.751720 0.608572
Si Si5 0.134656 0.288250 0.908822
Si Si6 0.844486 0.028732 0.872548
Si Si7 0.388547 0.874850 0.203191
O O1 0.103192 0.742434 0.165702
O O2 0.147238 0.589759 0.270834
O O3 0.774603 0.180728 0.289974
O O4 0.104437 0.430779 0.028776
O O5 0.500000 0.500000 0.500000
O O6 0.248122 0.110743 0.423837
O O7 0.641482 0.508087 0.194749
O O8 0.419229 0.064046 0.338523
O O9 0.597046 0.414738 0.607849
O O10 0.515236 0.141080 0.787034
O O11 0.280288 0.085882 0.927931
O O12 0.716323 0.757234 0.798848
O O13 0.000000 0.000000 0.500000
O O14 0.057659 0.203362 0.792855
O O15 0.000000 0.000000 0.000000
O O16 0.500000 0.000000 0.000000
#
# Coordination Sequence:
#
# PCOD9055616 Si02
#       7
#     2   2   2   2   2   2   2
#     4  11  22  42  72 108 139 177 238 294 361 412
#     4  12  24  45  68 101 143 187 233 297 362 421
#     4  11  24  43  74 107 138 181 244 300 351 421
#     4  12  27  47  64  98 146 196 233 291 365 433
#     4  11  23  38  68 106 138 177 238 296 349 424
#     4  11  21  42  72 101 139 180 236 298 358 420
#     4  12  22  43  78 108 142 186 240 299 357 432
#
# _framework density 25.124313999999998
#
# number of rings (size 3 to 8) (size 9 to 14) (size 15 to 20)
#    0.000    0.571    4.286    5.571    2.000    0.000 
#    2.571    5.000    0.000    0.000    0.000    0.000 
#    0.000    0.000    0.000    0.000    0.000    0.000 
#
# Total GULP energy -77938.405626 kJ/mol
# GULP energy per Si atom -5567.028973 kJ/mol
# Density = 2.506713 g / cm^3
# Si number density = 25.124314 Si / 1000 Ang^3
#
#
#
# Elastic Constant Matrix: (Units=GPa)
#
#
# Indices 1 2 3 4 5 6 
#
# 1 139.9288 29.1701 27.6616 -4.1927 -24.9955 0.0004
# 2 29.1701 134.8749 29.1553 -3.8552 -4.3223 20.1555
# 3 27.6616 29.1553 57.7605 1.0164 -10.3436 -2.5808
# 4 -4.1927 -3.8552 1.0164 47.8527 9.1942 -0.1173
# 5 -24.9955 -4.3223 -10.3436 9.1942 29.6468 2.0796
# 6 0.0004 20.1555 -2.5808 -0.1173 2.0796 29.1827
#
#
#
# Elastic Compliance Matrix: (Units=1/GPa)
#
#
# Indices 1 2 3 4 5 6 
#
# 1 0.009094 -0.001250 -0.002494 -0.000552 0.006775 0.000157
# 2 -0.001250 0.009795 -0.004884 0.000984 -0.001136 -0.007112
# 3 -0.002494 -0.004884 0.022164 -0.002072 0.005213 0.004954
# 4 -0.000552 0.000984 -0.002072 0.022511 -0.008012 -0.000202
# 5 0.006775 -0.001136 0.005213 -0.008012 0.043714 -0.001902
# 6 0.000157 -0.007112 0.004954 -0.000202 -0.001902 0.039752
#
#
# Mechanical properties :
#
#
# Convention : Reuss Voigt Hill
#
# Bulk Modulus (GPa) = 42.02303 56.05978 49.04141
# Shear Modulus (GPa) = 29.03301 37.77492 33.40396
#
# Velocity S-wave (km/s) = 3.40306 3.88173 3.65025
# Velocity P-wave (km/s) = 5.67481 6.51551 6.10964
#
# Compressibility (1/GPa) = 0.02379648
#
# Stress axis : x y z
#
# Youngs Moduli (GPa) = 109.96589 102.09413 45.11826
#
# Poissons Ratio (x) = 0.12760 0.11253
# Poissons Ratio (y) = 0.13744 0.22036
# Poissons Ratio (z) = 0.27427 0.49864
#
# Static dielectric constant tensor:
#      x y z
#    x 1.801900 0.058080 0.193550 
#    y 0.058080 2.040370 0.012430 
#    z 0.193550 0.012430 2.011400 
# 
# From -- ./inp_files/448013.got.cif
#   From: 2010.05.17/outbox.cif.g08.bks.cpg/sg2_225_cif.got.tgz:448013.got - 2010.06.03 11:33:40.
