data_PCOD9055342
_publ_section_title
;
Structure prediction by ZEFSAII (Michael W. Deem and Ramdas Pophale) SiO2 
 PCOD9055342
Probable space group: P -1
;
_chemical_formula_sum "Si O2"
_cell_formula_units_Z 16
_cell_length_a 14.362911
_cell_length_b 13.645444
_cell_length_c 12.678465
_cell_angle_alpha 55.365117
_cell_angle_beta 36.484122
_cell_angle_gamma 29.593574
_cell_volume 653.267996
_symmetry_space_group_name_H-M "P -1"
_symmetry_group_IT_number 2
_symmetry_cell_setting 'triclinic'
loop_
_space_group_symop_operation_xyz
x,y,z
-x,-y,-z
loop_
_atom_site_type_symbol
_atom_site_label
_atom_site_fract_x
_atom_site_fract_y
_atom_site_fract_z
Si Si1 0.129040 0.831177 0.839029
Si Si2 0.154461 0.468870 0.475621
Si Si3 0.843517 0.653439 0.230137
Si Si4 0.786865 0.981700 0.856245
Si Si5 0.314993 0.500383 0.604016
Si Si6 0.477007 0.296336 0.787217
Si Si7 0.320641 0.699709 0.963907
Si Si8 0.622325 0.958209 0.736098
O O1 0.440523 0.649978 0.613785
O O2 0.198730 0.722424 0.952291
O O3 0.916926 0.911134 0.897095
O O4 0.967582 0.059093 0.870000
O O5 0.181425 0.360371 0.615435
O O6 0.459926 0.332438 0.246930
O O7 0.000000 0.500000 0.500000
O O8 0.944041 0.711015 0.560832
O O9 0.829174 0.536422 0.254370
O O10 0.573604 0.899080 0.277836
O O11 0.152611 0.505261 0.001861
O O12 0.043932 0.760339 0.689889
O O13 0.687165 0.165997 0.776584
O O14 0.517501 0.063584 0.060401
O O15 0.472470 0.396915 0.638126
O O16 0.572821 0.111113 0.754605
O O17 0.500000 0.500000 0.000000
#
# Coordination Sequence:
#
# PCOD9055342 Si02
#       8
#     2   2   2   2   2   2   2   2
#     4  11  27  45  65  92 134 178 220 272 316 392
#     4  12  26  43  70 100 126 170 230 279 322 381
#     4  11  21  41  68  96 134 167 209 271 337 395
#     4  12  22  38  65 101 135 168 213 267 328 395
#     4  11  22  41  64  96 134 171 214 260 334 398
#     4  11  22  37  68 100 132 170 210 268 335 399
#     4  11  28  49  69  91 131 183 228 266 328 387
#     4  11  22  38  68  97 133 168 211 273 335 385
#
# _framework density 24.492243999999999
#
# number of rings (size 3 to 8) (size 9 to 14) (size 15 to 20)
#    0.000    0.750    5.000    3.000    3.500    3.000 
#    0.000    0.000    0.000    0.000    0.000    0.000 
#    0.000    0.000    0.000    0.000    0.000    0.000 
#
# Total GULP energy -89583.656709 kJ/mol
# GULP energy per Si atom -5598.978544 kJ/mol
# Density = 2.443650 g / cm^3
# Si number density = 24.492244 Si / 1000 Ang^3
#
#
#
# Elastic Constant Matrix: (Units=GPa)
#
#
# Indices 1 2 3 4 5 6 
#
# 1 86.1600 27.7092 12.7849 1.1831 15.2104 -25.0318
# 2 27.7092 133.2015 24.5354 1.3840 32.1500 -36.9772
# 3 12.7849 24.5354 78.5902 12.5743 24.8077 7.9223
# 4 1.1831 1.3840 12.5743 36.1463 -10.4641 12.6620
# 5 15.2104 32.1500 24.8077 -10.4641 28.2444 -13.1670
# 6 -25.0318 -36.9772 7.9223 12.6620 -13.1670 42.0660
#
#
#
# Elastic Compliance Matrix: (Units=1/GPa)
#
#
# Indices 1 2 3 4 5 6 
#
# 1 0.015532 0.001444 -0.001210 -0.005596 -0.006120 0.010508
# 2 0.001444 0.013955 0.000703 -0.009149 -0.015605 0.010863
# 3 -0.001210 0.000703 0.027791 -0.015934 -0.035961 -0.011796
# 4 -0.005596 -0.009149 -0.015934 0.049199 0.040796 -0.010411
# 5 -0.006120 -0.015605 -0.035961 0.040796 0.108308 0.011035
# 6 0.010508 0.010863 -0.011796 -0.010411 0.011035 0.048383
#
#
# Mechanical properties :
#
#
# Convention : Reuss Voigt Hill
#
# Bulk Modulus (GPa) = 16.90535 47.55674 32.23105
# Shear Modulus (GPa) = 17.79305 36.81949 27.30627
#
# Velocity S-wave (km/s) = 2.69825 3.88146 3.34263
# Velocity P-wave (km/s) = 4.07734 6.28863 5.29960
#
# Compressibility (1/GPa) = 0.05915286
#
# Stress axis : x y z
#
# Youngs Moduli (GPa) = 64.38527 71.66107 35.98263
#
# Poissons Ratio (x) = -0.10350 0.04353
# Poissons Ratio (y) = -0.09299 -0.02530
# Poissons Ratio (z) = 0.07789 -0.05039
#
# Static dielectric constant tensor:
#      x y z
#    x 2.045590 -0.009390 0.001220 
#    y -0.009390 1.923740 -0.050340 
#    z 0.001220 -0.050340 1.900580 
# 
# From -- ./inp_files/271984.got.cif
#   From: 2010.05.17/outbox.cif.g08.bks.cpg/sg2_136_cif.got.tgz:271984.got - 2010.06.03 11:33:40.
