data_PCOD9055249
_publ_section_title
;
Structure prediction by ZEFSAII (Michael W. Deem and Ramdas Pophale) SiO2 
 PCOD9055249
Probable space group: P -1
;
_chemical_formula_sum "Si O2"
_cell_formula_units_Z 14
_cell_length_a 7.158418
_cell_length_b 31.956717
_cell_length_c 10.029703
_cell_angle_alpha 148.413699
_cell_angle_beta 137.388547
_cell_angle_gamma 39.072913
_cell_volume 737.872687
_symmetry_space_group_name_H-M "P -1"
_symmetry_group_IT_number 2
_symmetry_cell_setting 'triclinic'
loop_
_space_group_symop_operation_xyz
x,y,z
-x,-y,-z
loop_
_atom_site_type_symbol
_atom_site_label
_atom_site_fract_x
_atom_site_fract_y
_atom_site_fract_z
Si Si1 0.255164 0.045029 0.104081
Si Si2 0.293109 0.330853 0.472392
Si Si3 0.631489 0.414879 0.438383
Si Si4 0.523174 0.525729 0.930858
Si Si5 0.770021 0.979913 0.684559
Si Si6 0.835699 0.646670 0.844337
Si Si7 0.966394 0.201963 0.546756
O O1 0.348116 0.993727 0.155021
O O2 0.157792 0.146143 0.368183
O O3 0.500000 0.000000 0.000000
O O4 0.954448 0.033338 0.878230
O O5 0.293875 0.344209 0.349071
O O6 0.608979 0.248273 0.450017
O O7 0.952185 0.341500 0.353475
O O8 0.326360 0.406522 0.785399
O O9 0.500000 0.500000 0.500000
O O10 0.690912 0.449636 0.707038
O O11 0.380654 0.377032 0.233956
O O12 0.177146 0.570328 0.817027
O O13 0.500000 0.500000 0.000000
O O14 0.973924 0.875354 0.523893
O O15 0.500000 0.000000 0.500000
O O16 0.896346 0.730794 0.150110
#
# Coordination Sequence:
#
# PCOD9055249 Si02
#       7
#     2   2   2   2   2   2   2
#     4   9  20  42  65  94 121 163 209 242 309 380
#     4  11  23  41  60  90 128 165 206 261 320 357
#     4  12  23  41  66  91 120 171 222 252 305 377
#     4  11  21  41  64  84 124 165 212 263 305 366
#     4   9  20  41  66  93 123 160 205 249 306 370
#     4  11  23  41  59  93 127 165 205 266 322 349
#     4   9  23  42  62  89 134 163 197 264 314 368
#
# _framework density 18.973464
#
# number of rings (size 3 to 8) (size 9 to 14) (size 15 to 20)
#    0.857    0.857    2.857    1.714    2.000    0.571 
#    5.143    0.000    0.000    0.000    0.000    0.000 
#    0.000    0.000    0.000    0.000    0.000    0.000 
#
# Total GULP energy -77947.691656 kJ/mol
# GULP energy per Si atom -5567.692261 kJ/mol
# Density = 1.893028 g / cm^3
# Si number density = 18.973464 Si / 1000 Ang^3
#
#
#
# Elastic Constant Matrix: (Units=GPa)
#
#
# Indices 1 2 3 4 5 6 
#
# 1 108.9448 19.5089 34.3563 1.1588 -1.8895 -19.0390
# 2 19.5089 83.4198 30.4367 -16.6760 -1.0126 -7.1125
# 3 34.3563 30.4367 89.2045 -6.6635 4.4573 -8.3136
# 4 1.1588 -16.6760 -6.6635 37.3604 -5.4937 -1.1568
# 5 -1.8895 -1.0126 4.4573 -5.4937 24.7832 4.2494
# 6 -19.0390 -7.1125 -8.3136 -1.1568 4.2494 19.7853
#
#
#
# Elastic Compliance Matrix: (Units=1/GPa)
#
#
# Indices 1 2 3 4 5 6 
#
# 1 0.012202 -0.000970 -0.003509 -0.001195 -0.000448 0.009945
# 2 -0.000970 0.015321 -0.004231 0.006536 0.002301 0.002685
# 3 -0.003509 -0.004231 0.014369 0.000361 -0.003264 0.001863
# 4 -0.001195 0.006536 0.000361 0.030816 0.006646 0.001725
# 5 -0.000448 0.002301 -0.003264 0.006646 0.044198 -0.010080
# 6 0.009945 0.002685 0.001863 0.001725 -0.010080 0.064126
#
#
# Mechanical properties :
#
#
# Convention : Reuss Voigt Hill
#
# Bulk Modulus (GPa) = 40.86023 50.01924 45.43973
# Shear Modulus (GPa) = 24.20038 29.53694 26.86866
#
# Velocity S-wave (km/s) = 3.57527 3.94985 3.76722
# Velocity P-wave (km/s) = 6.21495 6.87180 6.55161
#
# Compressibility (1/GPa) = 0.02447368
#
# Stress axis : x y z
#
# Youngs Moduli (GPa) = 81.95356 65.26829 69.59593
#
# Poissons Ratio (x) = 0.06330 0.24418
# Poissons Ratio (y) = 0.07949 0.29444
# Poissons Ratio (z) = 0.28754 0.27613
#
# Static dielectric constant tensor:
#      x y z
#    x 1.649730 0.015770 0.004500 
#    y 0.015770 1.662760 0.011730 
#    z 0.004500 0.011730 1.674950 
# 
# From -- ./inp_files/143421.got.cif
#   From: 2010.05.17/outbox.cif.g08.bks.cpg/sg2_72_cif.got.tgz:143421.got - 2010.06.03 11:33:40.
