data_PCOD9055400
_publ_section_title
;
Structure prediction by ZEFSAII (Michael W. Deem and Ramdas Pophale) SiO2 
 PCOD9055400
Probable space group: P -1
;
_chemical_formula_sum "Si O2"
_cell_formula_units_Z 16
_cell_length_a 10.836126
_cell_length_b 9.601722
_cell_length_c 13.826101
_cell_angle_alpha 58.153698
_cell_angle_beta 31.658387
_cell_angle_gamma 64.471585
_cell_volume 640.835458
_symmetry_space_group_name_H-M "P -1"
_symmetry_group_IT_number 2
_symmetry_cell_setting 'triclinic'
loop_
_space_group_symop_operation_xyz
x,y,z
-x,-y,-z
loop_
_atom_site_type_symbol
_atom_site_label
_atom_site_fract_x
_atom_site_fract_y
_atom_site_fract_z
Si Si1 0.470492 0.736636 0.521802
Si Si2 0.137921 0.725815 0.394808
Si Si3 0.302812 0.375789 0.408321
Si Si4 0.767259 0.443217 0.945540
Si Si5 0.678876 0.156722 0.960528
Si Si6 0.214478 0.379556 0.805264
Si Si7 0.828893 0.827013 0.720319
Si Si8 0.017971 0.130619 0.179298
O O1 0.643815 0.741179 0.495552
O O2 0.346778 0.553070 0.674400
O O3 0.612165 0.736818 0.327011
O O4 0.262622 0.860121 0.629711
O O5 0.905660 0.690981 0.496947
O O6 0.054008 0.837793 0.496148
O O7 0.227485 0.552237 0.433870
O O8 0.325643 0.800033 0.166722
O O9 0.536991 0.405679 0.177877
O O10 0.755531 0.317752 0.910130
O O11 0.772894 0.628624 0.835968
O O12 0.995703 0.413244 0.868800
O O13 0.868655 0.019587 0.896151
O O14 0.412472 0.104033 0.183950
O O15 0.120487 0.291976 0.996624
O O16 0.891723 0.874274 0.769836
#
# Coordination Sequence:
#
# PCOD9055400 Si02
#       8
#     2   2   2   2   2   2   2   2
#     4  11  23  43  70 101 127 174 220 275 325 387
#     4  11  24  40  67 101 130 169 221 277 322 384
#     4  11  21  41  71 100 130 166 223 281 324 375
#     4  12  21  45  73  98 127 174 226 274 325 385
#     4  12  27  43  65  99 138 177 215 270 334 391
#     4  11  24  43  72  96 132 170 224 273 323 391
#     4  12  24  44  69  97 131 176 226 270 323 389
#     4  12  27  44  65 100 139 175 216 266 336 395
#
# _framework density 24.967409
#
# number of rings (size 3 to 8) (size 9 to 14) (size 15 to 20)
#    0.000    0.500    5.000    4.875    1.750    2.000 
#    0.000    1.250    0.000    0.000    0.000    0.000 
#    0.000    0.000    0.000    0.000    0.000    0.000 
#
# Total GULP energy -89796.304183 kJ/mol
# GULP energy per Si atom -5612.269011 kJ/mol
# Density = 2.491058 g / cm^3
# Si number density = 24.967409 Si / 1000 Ang^3
#
#
#
# Elastic Constant Matrix: (Units=GPa)
#
#
# Indices 1 2 3 4 5 6 
#
# 1 98.1694 29.8550 21.8943 9.3635 -10.1289 -5.5319
# 2 29.8550 98.6907 26.3455 36.0298 -11.3278 1.2762
# 3 21.8943 26.3455 123.2291 24.4900 0.2030 1.9567
# 4 9.3635 36.0298 24.4900 46.9500 -1.3255 -4.1598
# 5 -10.1289 -11.3278 0.2030 -1.3255 45.5426 11.8704
# 6 -5.5319 1.2762 1.9567 -4.1598 11.8704 28.7117
#
#
#
# Elastic Compliance Matrix: (Units=1/GPa)
#
#
# Indices 1 2 3 4 5 6 
#
# 1 0.011743 -0.003539 -0.001660 0.001473 0.001195 0.002252
# 2 -0.003539 0.016151 -0.000414 -0.011781 0.004137 -0.004789
# 3 -0.001660 -0.000414 0.009395 -0.004389 -0.000258 -0.001471
# 4 0.001473 -0.011781 -0.004389 0.032885 -0.003537 0.007334
# 5 0.001195 0.004137 -0.000258 -0.003537 0.026077 -0.011230
# 6 0.002252 -0.004789 -0.001471 0.007334 -0.011230 0.041282
#
#
# Mechanical properties :
#
#
# Convention : Reuss Voigt Hill
#
# Bulk Modulus (GPa) = 38.36939 52.91986 45.64462
# Shear Modulus (GPa) = 31.75685 40.37382 36.06534
#
# Velocity S-wave (km/s) = 3.57028 4.02563 3.80478
# Velocity P-wave (km/s) = 5.69184 6.54593 6.13377
#
# Compressibility (1/GPa) = 0.02606244
#
# Stress axis : x y z
#
# Youngs Moduli (GPa) = 85.15949 61.91439 106.44520
#
# Poissons Ratio (x) = 0.21911 0.17673
# Poissons Ratio (y) = 0.30137 0.04405
# Poissons Ratio (z) = 0.14139 0.02562
#
# Static dielectric constant tensor:
#      x y z
#    x 1.905930 -0.002200 0.001080 
#    y -0.002200 2.002640 -0.008070 
#    z 0.001080 -0.008070 1.985770 
# 
# From -- ./inp_files/515277.got.cif
#   From: 2010.05.17/outbox.cif.g08.bks.cpg/sg2_258_cif.got.tgz:515277.got - 2010.06.03 11:33:40.
