data_PCOD9055156
_publ_section_title
;
Structure prediction by ZEFSAII (Michael W. Deem and Ramdas Pophale) SiO2 
 PCOD9055156
Probable space group: P -1
;
_chemical_formula_sum "Si O2"
_cell_formula_units_Z 16
_cell_length_a 12.130335
_cell_length_b 8.315631
_cell_length_c 8.415487
_cell_angle_alpha 123.708539
_cell_angle_beta 93.825592
_cell_angle_gamma 83.288444
_cell_volume 701.319542
_symmetry_space_group_name_H-M "P -1"
_symmetry_group_IT_number 2
_symmetry_cell_setting 'triclinic'
loop_
_space_group_symop_operation_xyz
x,y,z
-x,-y,-z
loop_
_atom_site_type_symbol
_atom_site_label
_atom_site_fract_x
_atom_site_fract_y
_atom_site_fract_z
Si Si1 0.742682 0.157913 0.751013
Si Si2 0.418642 0.191508 0.128191
Si Si3 0.209886 0.592199 0.866571
Si Si4 0.193564 0.282957 0.987304
Si Si5 0.469052 0.584982 0.217372
Si Si6 0.997525 0.174151 0.713957
Si Si7 0.014113 0.444459 0.288329
Si Si8 0.336008 0.248099 0.510026
O O1 0.653461 0.301374 0.726418
O O2 0.872088 0.188366 0.771904
O O3 0.727967 0.942087 0.572021
O O4 0.721419 0.231168 0.972347
O O5 0.473740 0.392236 0.217231
O O6 0.374233 0.211866 0.313922
O O7 0.314836 0.192884 0.997149
O O8 0.500000 0.000000 0.000000
O O9 0.207833 0.447222 0.942448
O O10 0.262571 0.448327 0.655701
O O11 0.088564 0.673259 0.836554
O O12 0.100800 0.156528 0.834406
O O13 0.133146 0.357226 0.186997
O O14 0.556037 0.732608 0.360742
O O15 0.500000 0.500000 0.000000
O O16 0.008693 0.365893 0.718625
O O17 0.000000 0.000000 0.500000
O O18 0.000000 0.500000 0.500000
#
# Coordination Sequence:
#
# PCOD9055156 Si02
#       8
#     2   2   2   2   2   2   2   2
#     4  12  22  44  73 102 139 187 236 281 351 425
#     4  12  27  47  70 106 144 182 236 301 358 413
#     4  11  21  43  73  99 143 186 236 285 345 426
#     4  11  21  45  69  97 139 189 231 284 350 422
#     4  12  24  47  76  98 137 191 235 289 356 423
#     4  11  23  41  69 103 139 184 236 281 342 434
#     4  11  21  40  69 103 140 185 228 289 355 406
#     4  12  27  43  70 108 141 180 239 296 351 418
#
# _framework density 22.814136000000001
#
# number of rings (size 3 to 8) (size 9 to 14) (size 15 to 20)
#    0.000    0.500    5.000    4.500    0.000    2.000 
#    2.250    2.500    0.000    0.000    0.000    0.000 
#    0.000    0.000    0.000    0.000    0.000    0.000 
#
# Total GULP energy -89332.336037 kJ/mol
# GULP energy per Si atom -5583.271002 kJ/mol
# Density = 2.276221 g / cm^3
# Si number density = 22.814136 Si / 1000 Ang^3
#
#
#
# Elastic Constant Matrix: (Units=GPa)
#
#
# Indices 1 2 3 4 5 6 
#
# 1 123.5723 17.9621 55.0346 -2.3953 18.5001 -17.7789
# 2 17.9621 22.0001 24.8117 0.0168 6.0624 -2.9715
# 3 55.0346 24.8117 135.2756 5.4303 15.0980 -3.4327
# 4 -2.3953 0.0168 5.4303 41.8141 4.9547 -4.1693
# 5 18.5001 6.0624 15.0980 4.9547 56.7334 2.8600
# 6 -17.7789 -2.9715 -3.4327 -4.1693 2.8600 28.2608
#
#
#
# Elastic Compliance Matrix: (Units=1/GPa)
#
#
# Indices 1 2 3 4 5 6 
#
# 1 0.011811 -0.003656 -0.003702 0.002240 -0.003036 0.007234
# 2 -0.003656 0.060104 -0.009168 0.001672 -0.003111 0.003467
# 3 -0.003702 -0.009168 0.010637 -0.001767 -0.000377 -0.002224
# 4 0.002240 0.001672 -0.001767 0.025153 -0.002907 0.005375
# 5 -0.003036 -0.003111 -0.000377 -0.002907 0.019539 -0.004689
# 6 0.007234 0.003467 -0.002224 0.005375 -0.004689 0.041298
#
#
# Mechanical properties :
#
#
# Convention : Reuss Voigt Hill
#
# Bulk Modulus (GPa) = 20.20258 52.94055 36.57157
# Shear Modulus (GPa) = 22.92572 37.56431 30.24502
#
# Velocity S-wave (km/s) = 3.17344 4.06216 3.64499
# Velocity P-wave (km/s) = 4.72252 6.72733 5.81202
#
# Compressibility (1/GPa) = 0.04949862
#
# Stress axis : x y z
#
# Youngs Moduli (GPa) = 84.66362 16.63778 94.01378
#
# Poissons Ratio (x) = 0.06083 0.34806
# Poissons Ratio (y) = 0.30955 0.86196
# Poissons Ratio (z) = 0.31344 0.15254
#
# Static dielectric constant tensor:
#      x y z
#    x 1.962640 0.036350 -0.051280 
#    y 0.036350 1.879100 -0.003770 
#    z -0.051280 -0.003770 1.900390 
# 
# From -- ./inp_files/245973.got.cif
#   From: 2010.05.17/outbox.cif.g08.bks.cpg/sg2_123_cif.got.tgz:245973.got - 2010.06.03 11:33:40.
