data_PCOD9055482
_publ_section_title
;
Structure prediction by ZEFSAII (Michael W. Deem and Ramdas Pophale) SiO2 
 PCOD9055482
Probable space group: P -1
;
_chemical_formula_sum "Si O2"
_cell_formula_units_Z 16
_cell_length_a 18.030551
_cell_length_b 12.210155
_cell_length_c 24.284921
_cell_angle_alpha 29.578256
_cell_angle_beta 18.500942
_cell_angle_gamma 29.430862
_cell_volume 800.154113
_symmetry_space_group_name_H-M "P -1"
_symmetry_group_IT_number 2
_symmetry_cell_setting 'triclinic'
loop_
_space_group_symop_operation_xyz
x,y,z
-x,-y,-z
loop_
_atom_site_type_symbol
_atom_site_label
_atom_site_fract_x
_atom_site_fract_y
_atom_site_fract_z
Si Si1 0.018897 0.245517 0.120525
Si Si2 0.467741 0.829889 0.965430
Si Si3 0.329163 0.995394 0.760081
Si Si4 0.614550 0.944622 0.691201
Si Si5 0.092317 0.529343 0.361146
Si Si6 0.103827 0.580809 0.105351
Si Si7 0.294332 0.043189 0.580552
Si Si8 0.216639 0.650150 0.639503
O O1 0.875524 0.277930 0.265313
O O2 0.879870 0.122025 0.229163
O O3 0.000000 0.500000 0.000000
O O4 0.296053 0.070177 0.008850
O O5 0.516300 0.905185 0.837015
O O6 0.720856 0.653318 0.887844
O O7 0.294066 0.664385 0.162137
O O8 0.115860 0.227806 0.791395
O O9 0.395594 0.010609 0.771066
O O10 0.569707 0.980490 0.563229
O O11 0.257584 0.758627 0.902789
O O12 0.792587 0.708636 0.645841
O O13 0.771417 0.125435 0.501295
O O14 0.000000 0.500000 0.500000
O O15 0.871155 0.695043 0.410832
O O16 0.962269 0.484944 0.199980
O O17 0.500000 0.000000 0.500000
O O18 0.500000 0.500000 0.500000
#
# Coordination Sequence:
#
# PCOD9055482 Si02
#       8
#     2   2   2   2   2   2   2   2
#     4  11  25  45  67  96 136 176 217 270 336 399
#     4  11  25  41  67 101 130 170 225 272 324 391
#     4  11  23  42  68  97 131 177 218 268 330 393
#     4  12  22  42  68  95 133 176 215 265 340 396
#     4  11  21  42  66  94 133 171 215 270 329 389
#     4  11  25  40  68  97 130 167 225 272 319 393
#     4  11  24  41  67  97 131 167 225 273 322 383
#     4  12  24  45  68  92 132 179 214 266 340 397
#
# _framework density 19.996148000000002
#
# number of rings (size 3 to 8) (size 9 to 14) (size 15 to 20)
#    0.000    0.750    5.000    1.875    3.500    3.000 
#    2.250    0.000    0.000    0.000    0.000    0.000 
#    0.000    0.000    0.000    0.000    0.000    0.000 
#
# Total GULP energy -89238.938529 kJ/mol
# GULP energy per Si atom -5577.433658 kJ/mol
# Density = 1.995064 g / cm^3
# Si number density = 19.996148 Si / 1000 Ang^3
#
#
#
# Elastic Constant Matrix: (Units=GPa)
#
#
# Indices 1 2 3 4 5 6 
#
# 1 93.5551 40.0068 36.1187 3.9372 -5.2999 -10.2825
# 2 40.0068 174.8907 41.3020 10.1801 1.0964 -16.2535
# 3 36.1187 41.3020 89.2042 -9.7504 6.6452 5.3798
# 4 3.9372 10.1801 -9.7504 45.1846 7.1693 -8.8412
# 5 -5.2999 1.0964 6.6452 7.1693 37.8873 8.7294
# 6 -10.2825 -16.2535 5.3798 -8.8412 8.7294 33.5377
#
#
#
# Elastic Compliance Matrix: (Units=1/GPa)
#
#
# Indices 1 2 3 4 5 6 
#
# 1 0.014083 -0.001496 -0.005606 -0.001857 0.002581 0.003331
# 2 -0.001496 0.007162 -0.003037 -0.001456 -0.000347 0.003206
# 3 -0.005606 -0.003037 0.015849 0.004427 -0.003470 -0.003663
# 4 -0.001857 -0.001456 0.004427 0.026110 -0.007514 0.006854
# 5 0.002581 -0.000347 -0.003470 -0.007514 0.030829 -0.008826
# 6 0.003331 0.003206 -0.003663 0.006854 -0.008826 0.037083
#
#
# Mechanical properties :
#
#
# Convention : Reuss Voigt Hill
#
# Bulk Modulus (GPa) = 59.46359 65.83389 62.64874
# Shear Modulus (GPa) = 31.84696 39.33673 35.59185
#
# Velocity S-wave (km/s) = 3.99514 4.44014 4.22350
# Velocity P-wave (km/s) = 7.14728 7.69943 7.42849
#
# Compressibility (1/GPa) = 0.01681701
#
# Stress axis : x y z
#
# Youngs Moduli (GPa) = 71.00579 139.62128 63.09409
#
# Poissons Ratio (x) = 0.20892 0.35369
# Poissons Ratio (y) = 0.10625 0.19161
# Poissons Ratio (z) = 0.39804 0.42403
#
# Static dielectric constant tensor:
#      x y z
#    x 1.725650 -0.018790 -0.013890 
#    y -0.018790 1.741890 0.020420 
#    z -0.013890 0.020420 1.690050 
# 
# From -- ./inp_files/613165.got.cif
#   From: 2010.05.17/outbox.cif.g08.bks.cpg/sg2_307_cif.got.tgz:613165.got - 2010.06.03 11:33:40.
