data_PCOD9055294
_publ_section_title
;
Structure prediction by ZEFSAII (Michael W. Deem and Ramdas Pophale) SiO2 
 PCOD9055294
Probable space group: P -1
;
_chemical_formula_sum "Si O2"
_cell_formula_units_Z 16
_cell_length_a 29.717570
_cell_length_b 19.754646
_cell_length_c 5.717921
_cell_angle_alpha 77.507835
_cell_angle_beta 110.872781
_cell_angle_gamma 165.407698
_cell_volume 662.097831
_symmetry_space_group_name_H-M "P -1"
_symmetry_group_IT_number 2
_symmetry_cell_setting 'triclinic'
loop_
_space_group_symop_operation_xyz
x,y,z
-x,-y,-z
loop_
_atom_site_type_symbol
_atom_site_label
_atom_site_fract_x
_atom_site_fract_y
_atom_site_fract_z
Si Si1 0.062542 0.370120 0.563498
Si Si2 0.672854 0.990440 0.724994
Si Si3 0.078195 0.552771 0.412811
Si Si4 0.326408 0.134750 0.501415
Si Si5 0.624580 0.465645 0.102442
Si Si6 0.687445 0.789547 0.956822
Si Si7 0.973971 0.064993 0.172380
Si Si8 0.213238 0.433521 0.845134
O O1 0.137798 0.556235 0.575752
O O2 0.230247 0.541142 0.779735
O O3 0.885581 0.118427 0.633960
O O4 0.899990 0.126283 0.221943
O O5 0.434171 0.636081 0.662647
O O6 0.857657 0.239840 0.079461
O O7 0.734840 0.022089 0.621715
O O8 0.720638 0.133108 0.604336
O O9 0.000000 0.500000 0.500000
O O10 0.455632 0.289049 0.849041
O O11 0.440075 0.339349 0.360254
O O12 0.853777 0.821645 0.166783
O O13 0.586360 0.339730 0.987531
O O14 0.788731 0.864185 0.971673
O O15 0.500000 0.500000 0.000000
O O16 0.087666 0.238869 0.509440
O O17 0.104230 0.258957 0.023162
#
# Coordination Sequence:
#
# PCOD9055294 Si02
#       8
#     2   2   2   2   2   2   2   2
#     4  11  22  42  63  99 128 177 221 276 341 397
#     4  11  23  38  66  99 130 164 223 289 340 402
#     4  11  21  41  66  98 127 169 220 285 349 401
#     4  12  21  39  67  93 135 167 226 278 337 392
#     4  12  26  41  65 100 133 182 229 274 335 406
#     4  11  23  38  63 100 138 173 221 282 334 397
#     4  11  25  44  67  96 140 189 230 266 337 408
#     4  11  27  46  67  97 143 187 225 276 334 411
#
# _framework density 24.165611999999999
#
# number of rings (size 3 to 8) (size 9 to 14) (size 15 to 20)
#    0.000    0.750    5.000    2.250    7.000    1.000 
#    0.000    0.625    0.000    3.000    0.000    0.000 
#    0.000    0.000    0.000    0.000    0.000    0.000 
#
# Total GULP energy -89203.021579 kJ/mol
# GULP energy per Si atom -5575.188849 kJ/mol
# Density = 2.411061 g / cm^3
# Si number density = 24.165612 Si / 1000 Ang^3
#
#
#
# Elastic Constant Matrix: (Units=GPa)
#
#
# Indices 1 2 3 4 5 6 
#
# 1 167.4470 26.3161 16.4275 -18.7366 15.1161 -21.9105
# 2 26.3161 92.0778 27.0938 -44.2504 13.7058 -28.3356
# 3 16.4275 27.0938 90.2401 -16.8863 1.1668 -16.7852
# 4 -18.7366 -44.2504 -16.8863 33.4723 -6.9068 6.7898
# 5 15.1161 13.7058 1.1668 -6.9068 43.3833 -12.8978
# 6 -21.9105 -28.3356 -16.7852 6.7898 -12.8978 45.6225
#
#
#
# Elastic Compliance Matrix: (Units=1/GPa)
#
#
# Indices 1 2 3 4 5 6 
#
# 1 0.006812 0.001701 -0.000194 0.005082 -0.001153 0.003174
# 2 0.001701 0.040288 0.000545 0.050779 0.000266 0.018558
# 3 -0.000194 0.000545 0.013031 0.006658 0.001975 0.004606
# 4 0.005082 0.050779 0.006658 0.099519 0.004671 0.022938
# 5 -0.001153 0.000266 0.001975 0.004671 0.026150 0.007036
# 6 0.003174 0.018558 0.004606 0.022938 0.007036 0.035240
#
#
# Mechanical properties :
#
#
# Convention : Reuss Voigt Hill
#
# Bulk Modulus (GPa) = 15.56831 54.38217 34.97524
# Shear Modulus (GPa) = 20.97768 43.15746 32.06757
#
# Velocity S-wave (km/s) = 2.94952 4.23058 3.64674
# Velocity P-wave (km/s) = 4.24922 6.81297 5.67769
#
# Compressibility (1/GPa) = 0.06423303
#
# Stress axis : x y z
#
# Youngs Moduli (GPa) = 146.80312 24.82108 76.74249
#
# Poissons Ratio (x) = -0.04222 0.01493
# Poissons Ratio (y) = -0.24972 -0.04179
# Poissons Ratio (z) = 0.02855 -0.01352
#
# Static dielectric constant tensor:
#      x y z
#    x 1.944040 0.012970 0.018880 
#    y 0.012970 2.005790 0.036990 
#    z 0.018880 0.036990 1.999980 
# 
# From -- ./inp_files/127429.got.cif
#   From: 2010.05.17/outbox.cif.g08.bks.cpg/sg2_64_cif.got.tgz:127429.got - 2010.06.03 11:33:40.
