data_PCOD9055483
_publ_section_title
;
Structure prediction by ZEFSAII (Michael W. Deem and Ramdas Pophale) SiO2 
 PCOD9055483
Probable space group: P -1
;
_chemical_formula_sum "Si O2"
_cell_formula_units_Z 16
_cell_length_a 9.457548
_cell_length_b 14.639475
_cell_length_c 15.690437
_cell_angle_alpha 35.857616
_cell_angle_beta 142.337636
_cell_angle_gamma 127.995124
_cell_volume 775.471728
_symmetry_space_group_name_H-M "P -1"
_symmetry_group_IT_number 2
_symmetry_cell_setting 'triclinic'
loop_
_space_group_symop_operation_xyz
x,y,z
-x,-y,-z
loop_
_atom_site_type_symbol
_atom_site_label
_atom_site_fract_x
_atom_site_fract_y
_atom_site_fract_z
Si Si1 0.344004 0.654941 0.782041
Si Si2 0.632939 0.470016 0.383353
Si Si3 0.757706 0.836251 0.766675
Si Si4 0.185285 0.072989 0.095530
Si Si5 0.941873 0.183820 0.322896
Si Si6 0.414541 0.157808 0.503716
Si Si7 0.860122 0.370400 0.981509
Si Si8 0.097141 0.425560 0.727891
O O1 0.523665 0.764188 0.741596
O O2 0.157615 0.580162 0.689725
O O3 0.211630 0.739597 0.733333
O O4 0.500000 0.500000 0.000000
O O5 0.569711 0.300236 0.448003
O O6 0.389903 0.562580 0.219578
O O7 0.760739 0.563520 0.300636
O O8 0.823148 0.435384 0.572861
O O9 0.842390 0.944308 0.801539
O O10 0.695845 0.899916 0.594014
O O11 0.963663 0.702356 0.949960
O O12 0.433963 0.978348 0.272987
O O13 0.175558 0.258756 0.933672
O O14 0.000000 0.000000 0.000000
O O15 0.205237 0.234405 0.403048
O O16 0.000000 0.000000 0.500000
O O17 0.826350 0.238509 0.137029
O O18 0.000000 0.500000 0.000000
#
# Coordination Sequence:
#
# PCOD9055483 Si02
#       8
#     2   2   2   2   2   2   2   2
#     4  12  22  40  71 102 126 172 233 287 324 400
#     4  11  22  42  66  93 135 182 220 278 341 409
#     4  11  23  41  70  96 127 175 230 269 335 409
#     4  12  25  42  64  99 139 178 220 285 345 402
#     4  11  25  40  65 102 135 169 220 284 348 389
#     4  11  23  43  64  96 136 178 222 277 337 408
#     4  11  21  42  66  95 131 174 219 279 335 406
#     4  11  24  41  67  98 132 180 231 279 339 399
#
# _framework density 20.632603
#
# number of rings (size 3 to 8) (size 9 to 14) (size 15 to 20)
#    0.000    0.750    6.250    2.625    1.750    1.000 
#    2.250    1.250    0.000    1.500    0.000    0.000 
#    0.000    0.000    0.000    0.000    0.000    0.000 
#
# Total GULP energy -89314.103276 kJ/mol
# GULP energy per Si atom -5582.131455 kJ/mol
# Density = 2.058564 g / cm^3
# Si number density = 20.632603 Si / 1000 Ang^3
#
#
#
# Elastic Constant Matrix: (Units=GPa)
#
#
# Indices 1 2 3 4 5 6 
#
# 1 114.7310 32.2581 48.7479 -0.7582 28.8238 -10.4339
# 2 32.2581 86.5297 35.3271 12.3341 11.5574 -9.6964
# 3 48.7479 35.3271 152.5152 2.4272 29.7622 3.0931
# 4 -0.7582 12.3341 2.4272 40.1238 3.7223 -0.7808
# 5 28.8238 11.5574 29.7622 3.7223 39.7594 -6.5596
# 6 -10.4339 -9.6964 3.0931 -0.7808 -6.5596 28.5443
#
#
#
# Elastic Compliance Matrix: (Units=1/GPa)
#
#
# Indices 1 2 3 4 5 6 
#
# 1 0.012203 -0.002864 -0.002098 0.001862 -0.006233 0.002333
# 2 -0.002864 0.014715 -0.002695 -0.004418 0.000946 0.004340
# 3 -0.002098 -0.002695 0.008903 0.000645 -0.005045 -0.003789
# 4 0.001862 -0.004418 0.000645 0.026555 -0.003182 -0.000895
# 5 -0.006233 0.000946 -0.005045 -0.003182 0.034532 0.006438
# 6 0.002333 0.004340 -0.003789 -0.000895 0.006438 0.039226
#
#
# Mechanical properties :
#
#
# Convention : Reuss Voigt Hill
#
# Bulk Modulus (GPa) = 48.76580 65.16022 56.96301
# Shear Modulus (GPa) = 31.58909 37.51504 34.55206
#
# Velocity S-wave (km/s) = 3.91708 4.26871 4.09667
# Velocity P-wave (km/s) = 6.64414 7.47968 7.07426
#
# Compressibility (1/GPa) = 0.02050617
#
# Stress axis : x y z
#
# Youngs Moduli (GPa) = 81.94656 67.95995 112.32653
#
# Poissons Ratio (x) = 0.19465 0.23561
# Poissons Ratio (y) = 0.23472 0.30275
# Poissons Ratio (z) = 0.17189 0.18317
#
# Static dielectric constant tensor:
#      x y z
#    x 1.779950 0.028130 -0.026930 
#    y 0.028130 1.795320 -0.021870 
#    z -0.026930 -0.021870 1.808300 
# 
# From -- ./inp_files/503941.got.cif
#   From: 2010.05.17/outbox.cif.g08.bks.cpg/sg2_252_cif.got.tgz:503941.got - 2010.06.03 11:33:40.
