data_PCOD9055705
_publ_section_title
;
Structure prediction by ZEFSAII (Michael W. Deem and Ramdas Pophale) SiO2 
 PCOD9055705
Probable space group: P -1
;
_chemical_formula_sum "Si O2"
_cell_formula_units_Z 16
_cell_length_a 12.238997
_cell_length_b 7.377224
_cell_length_c 19.187885
_cell_angle_alpha 139.093429
_cell_angle_beta 30.446609
_cell_angle_gamma 127.649636
_cell_volume 570.529270
_symmetry_space_group_name_H-M "P -1"
_symmetry_group_IT_number 2
_symmetry_cell_setting 'triclinic'
loop_
_space_group_symop_operation_xyz
x,y,z
-x,-y,-z
loop_
_atom_site_type_symbol
_atom_site_label
_atom_site_fract_x
_atom_site_fract_y
_atom_site_fract_z
Si Si1 0.029523 0.479349 0.060575
Si Si2 0.720215 0.036800 0.430283
Si Si3 0.015473 0.722673 0.826517
Si Si4 0.542168 0.354106 0.128273
Si Si5 0.542449 0.164925 0.367780
Si Si6 0.865606 0.818592 0.735593
Si Si7 0.542940 0.030743 0.167772
Si Si8 0.898758 0.133077 0.665444
O O1 0.953751 0.296504 0.111943
O O2 0.892116 0.768670 0.242601
O O3 0.289502 0.431670 0.915923
O O4 0.000000 0.500000 0.000000
O O5 0.627880 0.005209 0.549334
O O6 0.500000 0.000000 0.500000
O O7 0.892716 0.261475 0.389684
O O8 0.995707 0.414765 0.717163
O O9 0.217536 0.885211 0.743168
O O10 0.787591 0.891713 0.980956
O O11 0.306473 0.404074 0.237970
O O12 0.511349 0.295157 0.209684
O O13 0.698702 0.074959 0.934492
O O14 0.500000 0.500000 0.500000
O O15 0.519374 0.121412 0.286238
O O16 0.915779 0.920557 0.659861
O O17 0.363759 0.828299 0.189129
O O18 0.000000 0.000000 0.500000
#
# Coordination Sequence:
#
# PCOD9055705 Si02
#       8
#     2   2   2   2   2   2   2   2
#     4  11  23  42  65  93 132 175 215 265 332 392
#     4  11  24  40  64  91 127 169 216 268 325 385
#     4  12  24  42  64 101 133 166 226 276 321 394
#     4   9  19  37  66  88 121 166 216 256 325 382
#     4  12  24  44  62  94 133 174 216 269 337 392
#     4   9  18  39  62  89 119 167 213 264 315 390
#     4  11  25  38  69  97 128 171 221 276 326 389
#     4  11  21  43  67  93 130 177 216 268 340 393
#
# _framework density 28.044138
#
# number of rings (size 3 to 8) (size 9 to 14) (size 15 to 20)
#    0.000    1.250    3.750    3.000    5.250    0.000 
#    0.000    0.000    0.000    1.500    0.000    0.000 
#    0.000    0.000    0.000    0.000    0.000    0.000 
#
# Total GULP energy -89519.767672 kJ/mol
# GULP energy per Si atom -5594.985480 kJ/mol
# Density = 2.798031 g / cm^3
# Si number density = 28.044138 Si / 1000 Ang^3
#
#
#
# Elastic Constant Matrix: (Units=GPa)
#
#
# Indices 1 2 3 4 5 6 
#
# 1 131.8090 35.6350 57.9189 -35.0935 -17.3666 28.1731
# 2 35.6350 90.3268 23.5211 -28.4353 -10.9833 29.9906
# 3 57.9189 23.5211 144.5373 -31.1806 -14.2839 24.3567
# 4 -35.0935 -28.4353 -31.1806 58.3169 18.0886 -13.9942
# 5 -17.3666 -10.9833 -14.2839 18.0886 75.9304 -23.5999
# 6 28.1731 29.9906 24.3567 -13.9942 -23.5999 52.9001
#
#
#
# Elastic Compliance Matrix: (Units=1/GPa)
#
#
# Indices 1 2 3 4 5 6 
#
# 1 0.010762 -0.001509 -0.002853 0.003577 0.000048 -0.002594
# 2 -0.001509 0.015624 0.000373 0.005635 -0.001684 -0.007486
# 3 -0.002853 0.000373 0.008949 0.002807 -0.000264 -0.002188
# 4 0.003577 0.005635 0.002807 0.024423 -0.004221 -0.001815
# 5 0.000048 -0.001684 -0.000264 -0.004221 0.016106 0.007120
# 6 -0.002594 -0.007486 -0.002188 -0.001815 0.007120 0.028233
#
#
# Mechanical properties :
#
#
# Convention : Reuss Voigt Hill
#
# Bulk Modulus (GPa) = 36.55464 66.75812 51.65638
# Shear Modulus (GPa) = 41.25600 54.06934 47.66267
#
# Velocity S-wave (km/s) = 3.83967 4.39567 4.12704
# Velocity P-wave (km/s) = 5.72017 7.04407 6.41636
#
# Compressibility (1/GPa) = 0.02735631
#
# Stress axis : x y z
#
# Youngs Moduli (GPa) = 92.92140 64.00358 111.74018
#
# Poissons Ratio (x) = 0.09660 0.31882
# Poissons Ratio (y) = 0.14025 -0.04169
# Poissons Ratio (z) = 0.26512 -0.02388
#
# Static dielectric constant tensor:
#      x y z
#    x 2.348210 0.190360 0.014270 
#    y 0.190360 2.386310 0.068490 
#    z 0.014270 0.068490 2.229200 
# 
# From -- ./inp_files/566889.got.cif
#   From: 2010.05.17/outbox.cif.g08.bks.cpg/sg2_284_cif.got.tgz:566889.got - 2010.06.03 11:33:40.
