data_PCOD9055458
_publ_section_title
;
Structure prediction by ZEFSAII (Michael W. Deem and Ramdas Pophale) SiO2 
 PCOD9055458
Probable space group: P -1
;
_chemical_formula_sum "Si O2"
_cell_formula_units_Z 14
_cell_length_a 19.797562
_cell_length_b 9.324458
_cell_length_c 8.313236
_cell_angle_alpha 147.447328
_cell_angle_beta 57.475326
_cell_angle_gamma 116.776402
_cell_volume 696.226233
_symmetry_space_group_name_H-M "P -1"
_symmetry_group_IT_number 2
_symmetry_cell_setting 'triclinic'
loop_
_space_group_symop_operation_xyz
x,y,z
-x,-y,-z
loop_
_atom_site_type_symbol
_atom_site_label
_atom_site_fract_x
_atom_site_fract_y
_atom_site_fract_z
Si Si1 0.555978 0.244417 0.701492
Si Si2 0.753372 0.903584 0.698227
Si Si3 0.317243 0.882941 0.333842
Si Si4 0.939736 0.535671 0.755863
Si Si5 0.716531 0.377395 0.428819
Si Si6 0.935113 0.979682 0.423493
Si Si7 0.768394 0.628572 0.931202
O O1 0.595980 0.186892 0.770151
O O2 0.630309 0.296593 0.535001
O O3 0.500000 0.000000 0.500000
O O4 0.500000 0.500000 0.000000
O O5 0.719952 0.619349 0.527441
O O6 0.846237 0.891317 0.511098
O O7 0.697908 0.001030 0.713291
O O8 0.750335 0.116635 0.049558
O O9 0.271068 0.604357 0.133440
O O10 0.278516 0.097416 0.712252
O O11 0.858329 0.653534 0.897341
O O12 0.000000 0.500000 0.500000
O O13 0.926039 0.258439 0.604083
O O14 0.969321 0.754130 0.049009
O O15 0.762758 0.507660 0.645090
O O16 0.000000 0.000000 0.500000
#
# Coordination Sequence:
#
# PCOD9055458 Si02
#       7
#     2   2   2   2   2   2   2
#     4  11  23  45  69  98 132 168 213 268 326 398
#     4  12  23  43  64  97 136 170 220 269 323 397
#     4  11  22  42  69  92 128 175 213 261 328 389
#     4  12  25  43  65  94 131 172 233 274 324 384
#     4  11  25  39  69  98 128 170 221 262 327 389
#     4  12  27  44  64  96 139 178 216 278 342 371
#     4  11  21  42  63  93 125 176 225 266 310 388
#
# _framework density 20.108405999999999
#
# number of rings (size 3 to 8) (size 9 to 14) (size 15 to 20)
#    0.000    0.571    2.857    6.857    4.000    0.000 
#    0.000    4.286    0.000    0.000    0.000    0.000 
#    0.000    0.000    0.000    0.000    0.000    0.000 
#
# Total GULP energy -78244.539833 kJ/mol
# GULP energy per Si atom -5588.895702 kJ/mol
# Density = 2.006264 g / cm^3
# Si number density = 20.108406 Si / 1000 Ang^3
#
#
#
# Elastic Constant Matrix: (Units=GPa)
#
#
# Indices 1 2 3 4 5 6 
#
# 1 114.4991 38.1717 29.0983 -5.6723 8.7346 -3.9483
# 2 38.1717 107.1325 9.4985 11.0735 -4.5883 6.2063
# 3 29.0983 9.4985 135.9426 -0.3855 10.9297 -5.0908
# 4 -5.6723 11.0735 -0.3855 40.0609 -7.7365 7.4140
# 5 8.7346 -4.5883 10.9297 -7.7365 31.7251 6.7948
# 6 -3.9483 6.2063 -5.0908 7.4140 6.7948 27.8211
#
#
#
# Elastic Compliance Matrix: (Units=1/GPa)
#
#
# Indices 1 2 3 4 5 6 
#
# 1 0.010982 -0.004213 -0.001700 0.001616 -0.003197 0.002537
# 2 -0.004213 0.011441 -0.000265 -0.002590 0.002966 -0.003233
# 3 -0.001700 -0.000265 0.008076 -0.001132 -0.003135 0.002363
# 4 0.001616 -0.002590 -0.001132 0.029308 0.008718 -0.009339
# 5 -0.003197 0.002966 -0.003135 0.008718 0.038932 -0.013521
# 6 0.002537 -0.003233 0.002363 -0.009339 -0.013521 0.043249
#
#
# Mechanical properties :
#
#
# Convention : Reuss Voigt Hill
#
# Bulk Modulus (GPa) = 55.11529 56.79014 55.95272
# Shear Modulus (GPa) = 31.17430 38.64180 34.90805
#
# Velocity S-wave (km/s) = 3.94167 4.38845 4.17104
# Velocity P-wave (km/s) = 6.94149 7.34719 7.14722
#
# Compressibility (1/GPa) = 0.01814378
#
# Stress axis : x y z
#
# Youngs Moduli (GPa) = 91.06149 87.40584 123.82932
#
# Poissons Ratio (x) = 0.36824 0.21046
# Poissons Ratio (y) = 0.38365 0.03275
# Poissons Ratio (z) = 0.15477 0.02312
#
# Static dielectric constant tensor:
#      x y z
#    x 1.885180 -0.087760 -0.064800 
#    y -0.087760 1.708960 0.030110 
#    z -0.064800 0.030110 1.728610 
# 
# From -- ./inp_files/218455.got.cif
#   From: 2010.05.17/outbox.cif.g08.bks.cpg/sg2_110_cif.got.tgz:218455.got - 2010.06.03 11:33:40.
