data_PCOD9055967
_publ_section_title
;
Structure prediction by ZEFSAII (Michael W. Deem and Ramdas Pophale) SiO2 
 PCOD9055967
Probable space group: P -1
;
_chemical_formula_sum "Si O2"
_cell_formula_units_Z 16
_cell_length_a 8.667514
_cell_length_b 8.359090
_cell_length_c 14.499981
_cell_angle_alpha 85.757829
_cell_angle_beta 45.444783
_cell_angle_gamma 74.354215
_cell_volume 710.625719
_symmetry_space_group_name_H-M "P -1"
_symmetry_group_IT_number 2
_symmetry_cell_setting 'triclinic'
loop_
_space_group_symop_operation_xyz
x,y,z
-x,-y,-z
loop_
_atom_site_type_symbol
_atom_site_label
_atom_site_fract_x
_atom_site_fract_y
_atom_site_fract_z
Si Si1 0.669055 0.879226 0.140928
Si Si2 0.722627 0.199207 0.376621
Si Si3 0.218193 0.322439 0.546096
Si Si4 0.374761 0.768916 0.943390
Si Si5 0.930812 0.857316 0.211927
Si Si6 0.234310 0.006745 0.443277
Si Si7 0.901674 0.618007 0.759828
Si Si8 0.801274 0.534509 0.007031
O O1 0.858168 0.812837 0.143879
O O2 0.672587 0.732620 0.073054
O O3 0.704775 0.049722 0.079995
O O4 0.430965 0.932428 0.291223
O O5 0.476540 0.326652 0.448165
O O6 0.921849 0.280514 0.300869
O O7 0.807250 0.055766 0.269754
O O8 0.706694 0.103214 0.482981
O O9 0.170557 0.226355 0.661037
O O10 0.214582 0.198628 0.469313
O O11 0.016563 0.495816 0.632037
O O12 0.642933 0.726281 0.846939
O O13 0.337292 0.601240 0.920038
O O14 0.204496 0.804781 0.101564
O O15 0.000000 0.000000 0.500000
O O16 0.888511 0.523937 0.865764
O O17 0.000000 0.500000 0.000000
#
# Coordination Sequence:
#
# PCOD9055967 Si02
#       8
#     2   2   2   2   2   2   2   2
#     4  12  24  46  70 104 143 183 234 287 349 418
#     4  11  23  44  72  97 132 194 235 276 347 421
#     4  11  22  45  71  94 139 186 229 287 341 417
#     4  12  27  45  70 106 144 182 229 294 357 405
#     4  11  21  44  73  97 138 182 239 283 345 420
#     4  11  24  42  68 104 136 180 232 288 353 410
#     4  12  27  46  66 107 140 179 236 291 352 410
#     4  12  27  44  73 105 138 185 230 289 348 417
#
# _framework density 22.515369
#
# number of rings (size 3 to 8) (size 9 to 14) (size 15 to 20)
#    0.000    0.500    5.000    3.375    3.500    3.000 
#    2.250    1.250    0.000    0.000    0.000    0.000 
#    0.000    0.000    0.000    0.000    0.000    0.000 
#
# Total GULP energy -89426.346248 kJ/mol
# GULP energy per Si atom -5589.146641 kJ/mol
# Density = 2.246412 g / cm^3
# Si number density = 22.515369 Si / 1000 Ang^3
#
#
#
# Elastic Constant Matrix: (Units=GPa)
#
#
# Indices 1 2 3 4 5 6 
#
# 1 46.7929 3.6648 28.1218 11.9805 -20.9377 13.2427
# 2 3.6648 91.2583 35.7950 4.6292 4.2254 19.4193
# 3 28.1218 35.7950 120.2369 24.8910 -29.6720 19.0609
# 4 11.9805 4.6292 24.8910 42.9096 2.8184 -3.7154
# 5 -20.9377 4.2254 -29.6720 2.8184 40.5184 1.0089
# 6 13.2427 19.4193 19.0609 -3.7154 1.0089 28.7807
#
#
#
# Elastic Compliance Matrix: (Units=1/GPa)
#
#
# Indices 1 2 3 4 5 6 
#
# 1 0.043751 0.002185 0.004315 -0.019181 0.027569 -0.027906
# 2 0.002185 0.014395 -0.004409 -0.000047 -0.003406 -0.007685
# 3 0.004315 -0.004409 0.017505 -0.013098 0.016741 -0.012882
# 4 -0.019181 -0.000047 -0.013098 0.039797 -0.022852 0.023471
# 5 0.027569 -0.003406 0.016741 -0.022852 0.053786 -0.026310
# 6 -0.027906 -0.007685 -0.012882 0.023471 -0.026310 0.065255
#
#
# Mechanical properties :
#
#
# Convention : Reuss Voigt Hill
#
# Bulk Modulus (GPa) = 12.52609 43.71682 28.12145
# Shear Modulus (GPa) = 19.46151 35.15549 27.30850
#
# Velocity S-wave (km/s) = 2.94320 3.95574 3.48642
# Velocity P-wave (km/s) = 4.13827 6.35000 5.35947
#
# Compressibility (1/GPa) = 0.07983340
#
# Stress axis : x y z
#
# Youngs Moduli (GPa) = 22.85661 69.46883 57.12568
#
# Poissons Ratio (x) = -0.15181 -0.24649
# Poissons Ratio (y) = -0.04995 0.25187
# Poissons Ratio (z) = -0.09862 0.30629
#
# Static dielectric constant tensor:
#      x y z
#    x 1.845600 -0.027590 -0.015550 
#    y -0.027590 1.945570 0.033720 
#    z -0.015550 0.033720 1.828080 
# 
# From -- ./inp_files/184924.got.cif
#   From: 2010.05.17/outbox.cif.g08.bks.cpg/sg2_93_cif.got.tgz:184924.got - 2010.06.03 11:33:40.
