data_PCOD9055057
_publ_section_title
;
Structure prediction by ZEFSAII (Michael W. Deem and Ramdas Pophale) SiO2 
 PCOD9055057
Probable space group: P -1
;
_chemical_formula_sum "Si O2"
_cell_formula_units_Z 16
_cell_length_a 19.237684
_cell_length_b 8.066668
_cell_length_c 9.281172
_cell_angle_alpha 32.667977
_cell_angle_beta 87.721118
_cell_angle_gamma 83.165548
_cell_volume 766.980752
_symmetry_space_group_name_H-M "P -1"
_symmetry_group_IT_number 2
_symmetry_cell_setting 'triclinic'
loop_
_space_group_symop_operation_xyz
x,y,z
-x,-y,-z
loop_
_atom_site_type_symbol
_atom_site_label
_atom_site_fract_x
_atom_site_fract_y
_atom_site_fract_z
Si Si1 0.601794 0.066177 0.312744
Si Si2 0.166854 0.477565 0.198584
Si Si3 0.189569 0.683451 0.449186
Si Si4 0.949474 0.300803 0.729751
Si Si5 0.625315 0.725406 0.865091
Si Si6 0.513006 0.134113 0.744955
Si Si7 0.245505 0.060756 0.726355
Si Si8 0.782790 0.647001 0.016126
O O1 0.617947 0.857989 0.606699
O O2 0.540351 0.960971 0.301033
O O3 0.671675 0.039590 0.227545
O O4 0.586374 0.425401 0.098952
O O5 0.094352 0.540162 0.246570
O O6 0.213275 0.180067 0.487057
O O7 0.163344 0.414728 0.076124
O O8 0.206025 0.782353 0.988575
O O9 0.111492 0.752180 0.338637
O O10 0.228425 0.372417 0.594908
O O11 0.222007 0.996054 0.194830
O O12 0.193741 0.588185 0.685162
O O13 0.000000 0.500000 0.500000
O O14 0.000000 0.000000 0.000000
O O15 0.706255 0.614077 0.983682
O O16 0.589571 0.990268 0.783053
O O17 0.500000 0.500000 0.500000
O O18 0.500000 0.000000 0.000000
#
# Coordination Sequence:
#
# PCOD9055057 Si02
#       8
#     2   2   2   2   2   2   2   2
#     4  12  23  44  68  94 130 178 230 264 340 400
#     4  11  22  42  66  98 130 167 220 265 317 398
#     4  11  25  39  66  98 136 164 214 276 329 372
#     4  11  23  45  69  94 131 181 219 254 321 407
#     4  12  25  44  68  95 133 183 219 268 342 401
#     4  12  28  45  66  98 138 173 228 285 331 392
#     4  11  21  40  64  96 125 175 220 267 320 398
#     4  12  23  41  64 101 135 163 217 283 331 375
#
# _framework density 20.86102
#
# number of rings (size 3 to 8) (size 9 to 14) (size 15 to 20)
#    0.000    0.500    2.500    7.500    3.500    0.000 
#    0.000    3.750    0.000    0.000    0.000    0.000 
#    0.000    0.000    0.000    0.000    0.000    0.000 
#
# Total GULP energy -89530.344657 kJ/mol
# GULP energy per Si atom -5595.646541 kJ/mol
# Density = 2.081354 g / cm^3
# Si number density = 20.861020 Si / 1000 Ang^3
#
#
#
# Elastic Constant Matrix: (Units=GPa)
#
#
# Indices 1 2 3 4 5 6 
#
# 1 79.8399 25.9711 26.5175 4.6564 13.2095 -7.4635
# 2 25.9711 81.3564 21.5684 -0.4125 11.4467 5.0163
# 3 26.5175 21.5684 134.6134 2.1974 12.6718 9.9861
# 4 4.6564 -0.4125 2.1974 49.2807 8.2198 -2.2946
# 5 13.2095 11.4467 12.6718 8.2198 29.7040 -1.0374
# 6 -7.4635 5.0163 9.9861 -2.2946 -1.0374 38.6855
#
#
#
# Elastic Compliance Matrix: (Units=1/GPa)
#
#
# Indices 1 2 3 4 5 6 
#
# 1 0.015718 -0.004065 -0.002345 -0.000538 -0.004133 0.004022
# 2 -0.004065 0.014540 -0.001013 0.001061 -0.003743 -0.002446
# 3 -0.002345 -0.001013 0.008457 0.000099 -0.002291 -0.002560
# 4 -0.000538 0.001061 0.000099 0.021405 -0.006106 0.000839
# 5 -0.004133 -0.003743 -0.002291 -0.006106 0.039647 0.000980
# 6 0.004022 -0.002446 -0.002560 0.000839 0.000980 0.027679
#
#
# Mechanical properties :
#
#
# Convention : Reuss Voigt Hill
#
# Bulk Modulus (GPa) = 41.89491 49.32485 45.60988
# Shear Modulus (GPa) = 33.27822 38.31754 35.79788
#
# Velocity S-wave (km/s) = 3.99837 4.29044 4.14698
# Velocity P-wave (km/s) = 6.43758 6.94548 6.69635
#
# Compressibility (1/GPa) = 0.02386925
#
# Stress axis : x y z
#
# Youngs Moduli (GPa) = 63.62319 68.77376 118.24636
#
# Poissons Ratio (x) = 0.27955 0.27734
# Poissons Ratio (y) = 0.25862 0.11973
# Poissons Ratio (z) = 0.14922 0.06964
#
# Static dielectric constant tensor:
#      x y z
#    x 1.739480 -0.000090 -0.011400 
#    y -0.000090 1.775000 0.003050 
#    z -0.011400 0.003050 1.720360 
# 
# From -- ./inp_files/342344.got.cif
#   From: 2010.05.17/outbox.cif.g08.bks.cpg/sg2_172_cif.got.tgz:342344.got - 2010.06.03 11:33:40.
