data_PCOD9055111
_publ_section_title
;
Structure prediction by ZEFSAII (Michael W. Deem and Ramdas Pophale) SiO2 
 PCOD9055111
Probable space group: P -1
;
_chemical_formula_sum "Si O2"
_cell_formula_units_Z 16
_cell_length_a 11.488086
_cell_length_b 12.695982
_cell_length_c 8.845908
_cell_angle_alpha 132.520609
_cell_angle_beta 61.762046
_cell_angle_gamma 125.784119
_cell_volume 764.828947
_symmetry_space_group_name_H-M "P -1"
_symmetry_group_IT_number 2
_symmetry_cell_setting 'triclinic'
loop_
_space_group_symop_operation_xyz
x,y,z
-x,-y,-z
loop_
_atom_site_type_symbol
_atom_site_label
_atom_site_fract_x
_atom_site_fract_y
_atom_site_fract_z
Si Si1 0.855887 0.520995 0.556532
Si Si2 0.839126 0.957334 0.629141
Si Si3 0.788731 0.175382 0.660221
Si Si4 0.306405 0.134754 0.771351
Si Si5 0.373493 0.631486 0.179122
Si Si6 0.083505 0.439662 0.768352
Si Si7 0.865963 0.869509 0.868099
Si Si8 0.721252 0.666100 0.239861
O O1 0.732365 0.435082 0.675563
O O2 0.834413 0.465337 0.338522
O O3 0.868503 0.699094 0.715376
O O4 0.000000 0.500000 0.500000
O O5 0.858359 0.922924 0.755474
O O6 0.710458 0.800685 0.485554
O O7 0.796591 0.098852 0.742651
O O8 0.000000 0.000000 0.500000
O O9 0.693622 0.273891 0.793467
O O10 0.952237 0.290449 0.634889
O O11 0.736074 0.034083 0.436393
O O12 0.470622 0.247750 0.744991
O O13 0.211175 0.218881 0.833043
O O14 0.276505 0.134300 0.964300
O O15 0.383057 0.492940 0.934859
O O16 0.183562 0.389281 0.763996
O O17 0.000000 0.500000 0.000000
O O18 0.000000 0.000000 0.000000
#
# Coordination Sequence:
#
# PCOD9055111 Si02
#       8
#     2   2   2   2   2   2   2   2
#     4  12  24  41  67 102 134 169 227 276 331 392
#     4  11  22  39  63  97 134 168 220 274 333 387
#     4  11  23  43  69  93 136 178 219 275 333 394
#     4  11  26  45  67  99 134 182 225 265 337 403
#     4  12  25  46  68  97 138 180 219 276 334 401
#     4  12  22  40  66 103 133 167 219 281 337 383
#     4  12  25  42  69 100 133 174 226 278 323 399
#     4  11  21  40  67  92 130 173 218 268 329 390
#
# _framework density 20.919709000000001
#
# number of rings (size 3 to 8) (size 9 to 14) (size 15 to 20)
#    0.000    0.500    6.250    3.000    0.000    0.000 
#    0.000    4.375    0.000    0.000    0.000    0.000 
#    0.000    0.000    0.000    0.000    0.000    0.000 
#
# Total GULP energy -89141.362912 kJ/mol
# GULP energy per Si atom -5571.335182 kJ/mol
# Density = 2.087210 g / cm^3
# Si number density = 20.919709 Si / 1000 Ang^3
#
#
#
# Elastic Constant Matrix: (Units=GPa)
#
#
# Indices 1 2 3 4 5 6 
#
# 1 70.2357 52.3327 24.7987 -9.4764 14.8612 -9.7247
# 2 52.3327 123.9981 59.5252 -13.5303 3.8645 -13.4247
# 3 24.7987 59.5252 94.1075 -2.3060 21.3480 5.1659
# 4 -9.4764 -13.5303 -2.3060 40.6899 -1.3480 4.9877
# 5 14.8612 3.8645 21.3480 -1.3480 30.0346 6.9757
# 6 -9.7247 -13.4247 5.1659 4.9877 6.9757 51.5090
#
#
#
# Elastic Compliance Matrix: (Units=1/GPa)
#
#
# Indices 1 2 3 4 5 6 
#
# 1 0.025089 -0.011430 0.003713 0.001390 -0.014259 0.003182
# 2 -0.011430 0.018449 -0.011164 0.002954 0.010883 0.002010
# 3 0.003713 -0.011164 0.020002 -0.001927 -0.014216 -0.002103
# 4 0.001390 0.002954 -0.001927 0.026022 0.001828 -0.001542
# 5 -0.014259 0.010883 -0.014216 0.001828 0.050398 -0.005432
# 6 0.003182 0.002010 -0.002103 -0.001542 -0.005432 0.021634
#
#
# Mechanical properties :
#
#
# Convention : Reuss Voigt Hill
#
# Bulk Modulus (GPa) = 38.79481 62.40605 50.60043
# Shear Modulus (GPa) = 24.04427 34.55901 29.30164
#
# Velocity S-wave (km/s) = 3.39390 4.06887 3.74661
# Velocity P-wave (km/s) = 5.82606 7.20904 6.55413
#
# Compressibility (1/GPa) = 0.02577664
#
# Stress axis : x y z
#
# Youngs Moduli (GPa) = 39.85862 54.20433 49.99431
#
# Poissons Ratio (x) = 0.61957 -0.18561
# Poissons Ratio (y) = 0.45559 0.55813
# Poissons Ratio (z) = -0.14798 0.60513
#
# Static dielectric constant tensor:
#      x y z
#    x 1.788340 0.003770 0.008760 
#    y 0.003770 1.793300 0.002130 
#    z 0.008760 0.002130 1.837250 
# 
# From -- ./inp_files/260576.got.cif
#   From: 2010.05.17/outbox.cif.g08.bks.cpg/sg2_131_cif.got.tgz:260576.got - 2010.06.03 11:33:40.
