data_PCOD9055690
_publ_section_title
;
Structure prediction by ZEFSAII (Michael W. Deem and Ramdas Pophale) SiO2 
 PCOD9055690
Probable space group: P -1
;
_chemical_formula_sum "Si O2"
_cell_formula_units_Z 16
_cell_length_a 12.436297
_cell_length_b 9.645901
_cell_length_c 15.647911
_cell_angle_alpha 44.073018
_cell_angle_beta 37.413975
_cell_angle_gamma 64.172551
_cell_volume 751.734029
_symmetry_space_group_name_H-M "P -1"
_symmetry_group_IT_number 2
_symmetry_cell_setting 'triclinic'
loop_
_space_group_symop_operation_xyz
x,y,z
-x,-y,-z
loop_
_atom_site_type_symbol
_atom_site_label
_atom_site_fract_x
_atom_site_fract_y
_atom_site_fract_z
Si Si1 0.278725 0.727875 0.317512
Si Si2 0.905020 0.586862 0.906808
Si Si3 0.666654 0.379486 0.385751
Si Si4 0.934706 0.750274 0.630471
Si Si5 0.237333 0.327581 0.406097
Si Si6 0.409694 0.205888 0.767503
Si Si7 0.151543 0.012496 0.149179
Si Si8 0.566809 0.242597 0.329099
O O1 0.240058 0.544990 0.352280
O O2 0.459679 0.742437 0.252840
O O3 0.110442 0.690528 0.508309
O O4 0.272095 0.932604 0.178348
O O5 0.864340 0.633919 0.814449
O O6 0.852985 0.756268 0.924493
O O7 0.124938 0.624481 0.756998
O O8 0.777907 0.354226 0.115572
O O9 0.554794 0.203550 0.602006
O O10 0.671736 0.616420 0.298124
O O11 0.556088 0.341898 0.383811
O O12 0.790091 0.689013 0.670876
O O13 0.000000 0.000000 0.500000
O O14 0.426631 0.289767 0.330443
O O15 0.057277 0.147039 0.637814
O O16 0.236787 0.020159 0.997168
O O17 0.500000 0.000000 0.500000
#
# Coordination Sequence:
#
# PCOD9055690 Si02
#       8
#     2   2   2   2   2   2   2   2
#     4  11  21  43  66 100 141 167 219 283 341 391
#     4  12  23  44  72  96 130 181 229 273 333 400
#     4  11  24  44  67  94 132 174 228 269 317 406
#     4  11  22  41  72 101 131 175 226 278 330 408
#     4  11  24  44  66 100 143 170 218 283 347 390
#     4  11  23  41  67  97 125 178 226 268 320 404
#     4  11  22  40  72  96 129 178 219 272 337 406
#     4  12  27  44  65  98 137 181 223 283 337 391
#
# _framework density 21.284125
#
# number of rings (size 3 to 8) (size 9 to 14) (size 15 to 20)
#    0.000    0.750    6.250    3.000    1.750    0.500 
#    4.500    0.625    0.000    0.000    0.000    0.000 
#    0.000    0.000    0.000    0.000    0.000    0.000 
#
# Total GULP energy -89327.769776 kJ/mol
# GULP energy per Si atom -5582.985611 kJ/mol
# Density = 2.123568 g / cm^3
# Si number density = 21.284125 Si / 1000 Ang^3
#
#
#
# Elastic Constant Matrix: (Units=GPa)
#
#
# Indices 1 2 3 4 5 6 
#
# 1 87.4098 10.9855 12.5803 12.9009 -3.3822 7.5914
# 2 10.9855 69.7112 3.6528 -1.1365 -8.1756 -10.4798
# 3 12.5803 3.6528 103.2799 11.8654 22.0472 -5.5608
# 4 12.9009 -1.1365 11.8654 24.7609 -0.5499 -0.0325
# 5 -3.3822 -8.1756 22.0472 -0.5499 32.9608 7.2621
# 6 7.5914 -10.4798 -5.5608 -0.0325 7.2621 30.2761
#
#
#
# Elastic Compliance Matrix: (Units=1/GPa)
#
#
# Indices 1 2 3 4 5 6 
#
# 1 0.013523 -0.002592 -0.001763 -0.006260 0.002996 -0.005337
# 2 -0.002592 0.016014 -0.000961 0.002625 0.003238 0.005243
# 3 -0.001763 -0.000961 0.013050 -0.005602 -0.010339 0.004980
# 4 -0.006260 0.002625 -0.005602 0.046552 0.004437 0.000435
# 5 0.002996 0.003238 -0.010339 0.004437 0.040939 -0.011344
# 6 -0.005337 0.005243 0.004980 0.000435 -0.011344 0.039819
#
#
# Mechanical properties :
#
#
# Convention : Reuss Voigt Hill
#
# Bulk Modulus (GPa) = 31.29352 34.98199 33.13776
# Shear Modulus (GPa) = 26.15321 33.14503 29.64912
#
# Velocity S-wave (km/s) = 3.50918 3.95050 3.73636
# Velocity P-wave (km/s) = 5.58156 6.10574 5.84952
#
# Compressibility (1/GPa) = 0.03195549
#
# Stress axis : x y z
#
# Youngs Moduli (GPa) = 73.94662 62.44393 76.62820
#
# Poissons Ratio (x) = 0.16184 0.13511
# Poissons Ratio (y) = 0.19165 0.07365
# Poissons Ratio (z) = 0.13038 0.06002
#
# Static dielectric constant tensor:
#      x y z
#    x 1.756670 -0.013360 0.011460 
#    y -0.013360 1.801740 0.012660 
#    z 0.011460 0.012660 1.797490 
# 
# From -- ./inp_files/515015.got.cif
#   From: 2010.05.17/outbox.cif.g08.bks.cpg/sg2_258_cif.got.tgz:515015.got - 2010.06.03 11:33:40.
