data_PCOD9055085
_publ_section_title
;
Structure prediction by ZEFSAII (Michael W. Deem and Ramdas Pophale) SiO2 
 PCOD9055085
Probable space group: P -1
;
_chemical_formula_sum "Si O2"
_cell_formula_units_Z 16
_cell_length_a 13.290100
_cell_length_b 11.678831
_cell_length_c 9.435806
_cell_angle_alpha 88.640889
_cell_angle_beta 102.610962
_cell_angle_gamma 146.273944
_cell_volume 759.109852
_symmetry_space_group_name_H-M "P -1"
_symmetry_group_IT_number 2
_symmetry_cell_setting 'triclinic'
loop_
_space_group_symop_operation_xyz
x,y,z
-x,-y,-z
loop_
_atom_site_type_symbol
_atom_site_label
_atom_site_fract_x
_atom_site_fract_y
_atom_site_fract_z
Si Si1 0.900401 0.011670 0.393509
Si Si2 0.163720 0.448329 0.386337
Si Si3 0.248944 0.595437 0.830016
Si Si4 0.492634 0.447079 0.839730
Si Si5 0.503853 0.308442 0.291792
Si Si6 0.614518 0.308169 0.833395
Si Si7 0.761862 0.183876 0.350866
Si Si8 0.174454 0.882109 0.374215
O O1 0.722781 0.796615 0.257490
O O2 0.839382 0.037747 0.504548
O O3 0.000000 0.000000 0.500000
O O4 0.046269 0.219650 0.332930
O O5 0.323885 0.562118 0.548695
O O6 0.271644 0.601117 0.280554
O O7 0.987451 0.364257 0.384377
O O8 0.414305 0.661745 0.831869
O O9 0.274314 0.728144 0.732140
O O10 0.037685 0.343814 0.743800
O O11 0.281438 0.652564 0.002574
O O12 0.536436 0.594732 0.743360
O O13 0.613631 0.444778 0.853625
O O14 0.500000 0.500000 0.000000
O O15 0.316579 0.065044 0.295262
O O16 0.397725 0.052310 0.759272
O O17 0.742337 0.150119 0.515282
#
# Coordination Sequence:
#
# PCOD9055085 Si02
#       8
#     2   2   2   2   2   2   2   2
#     4  11  21  40  66  93 134 174 216 267 326 389
#     4  11  23  42  70  96 130 176 222 267 330 393
#     4  12  26  45  68 100 138 171 224 282 326 381
#     4  12  24  42  67  98 139 172 216 275 330 398
#     4  12  24  42  70 101 134 176 218 274 334 390
#     4  12  26  45  66 102 135 176 222 270 338 394
#     4  11  24  46  71  96 134 178 223 275 326 397
#     4  11  24  42  67 104 130 170 231 269 326 401
#
# _framework density 21.077318000000002
#
# number of rings (size 3 to 8) (size 9 to 14) (size 15 to 20)
#    0.000    0.500    8.750    0.750    1.750    5.000 
#    0.000    1.250    0.000    0.000    0.000    0.000 
#    0.000    0.000    0.000    0.000    0.000    0.000 
#
# Total GULP energy -89394.052496 kJ/mol
# GULP energy per Si atom -5587.128281 kJ/mol
# Density = 2.102934 g / cm^3
# Si number density = 21.077318 Si / 1000 Ang^3
#
#
#
# Elastic Constant Matrix: (Units=GPa)
#
#
# Indices 1 2 3 4 5 6 
#
# 1 46.8271 25.9876 -1.8261 -6.0564 16.1162 -13.0941
# 2 25.9876 143.2971 39.4789 -8.1623 6.3954 -2.3247
# 3 -1.8261 39.4789 99.4263 4.2589 6.6833 6.6311
# 4 -6.0564 -8.1623 4.2589 29.1470 -4.0393 2.6885
# 5 16.1162 6.3954 6.6833 -4.0393 22.9835 -7.2467
# 6 -13.0941 -2.3247 6.6311 2.6885 -7.2467 29.6021
#
#
#
# Elastic Compliance Matrix: (Units=1/GPa)
#
#
# Indices 1 2 3 4 5 6 
#
# 1 0.034722 -0.006223 0.003863 0.001220 -0.020745 0.008815
# 2 -0.006223 0.009206 -0.004051 0.002374 0.003224 -0.000548
# 3 0.003863 -0.004051 0.012484 -0.002813 -0.006576 -0.002760
# 4 0.001220 0.002374 -0.002813 0.036459 0.005519 -0.000604
# 5 -0.020745 0.003224 -0.006576 0.005519 0.062346 0.007311
# 6 0.008815 -0.000548 -0.002760 -0.000604 0.007311 0.040101
#
#
# Mechanical properties :
#
#
# Convention : Reuss Voigt Hill
#
# Bulk Modulus (GPa) = 22.94184 46.31461 34.62822
# Shear Modulus (GPa) = 22.45482 31.40720 26.93101
#
# Velocity S-wave (km/s) = 3.26752 3.86436 3.57841
# Velocity P-wave (km/s) = 5.01436 6.47553 5.79121
#
# Compressibility (1/GPa) = 0.04358848
#
# Stress axis : x y z
#
# Youngs Moduli (GPa) = 28.80045 108.62859 80.10279
#
# Poissons Ratio (x) = 0.67598 -0.30943
# Poissons Ratio (y) = 0.17922 0.32453
# Poissons Ratio (z) = -0.11125 0.44010
#
# Static dielectric constant tensor:
#      x y z
#    x 1.842250 -0.011290 -0.018940 
#    y -0.011290 1.768680 -0.021070 
#    z -0.018940 -0.021070 1.747090 
# 
# From -- ./inp_files/242084.got.cif
#   From: 2010.05.17/outbox.cif.g08.bks.cpg/sg2_122_cif.got.tgz:242084.got - 2010.06.03 11:33:40.
