data_PCOD9055839
_publ_section_title
;
Structure prediction by ZEFSAII (Michael W. Deem and Ramdas Pophale) SiO2 
 PCOD9055839
Probable space group: P -1
;
_chemical_formula_sum "Si O2"
_cell_formula_units_Z 16
_cell_length_a 11.735311
_cell_length_b 14.411576
_cell_length_c 9.141398
_cell_angle_alpha 72.755757
_cell_angle_beta 37.986619
_cell_angle_gamma 98.894884
_cell_volume 682.308712
_symmetry_space_group_name_H-M "P -1"
_symmetry_group_IT_number 2
_symmetry_cell_setting 'triclinic'
loop_
_space_group_symop_operation_xyz
x,y,z
-x,-y,-z
loop_
_atom_site_type_symbol
_atom_site_label
_atom_site_fract_x
_atom_site_fract_y
_atom_site_fract_z
Si Si1 0.341654 0.852214 0.172895
Si Si2 0.643165 0.959648 0.305504
Si Si3 0.290926 0.412676 0.873301
Si Si4 0.447986 0.201978 0.269202
Si Si5 0.900533 0.445488 0.880381
Si Si6 0.936163 0.778119 0.401747
Si Si7 0.658460 0.506259 0.704460
Si Si8 0.193878 0.730133 0.677110
O O1 0.077174 0.789015 0.397952
O O2 0.296902 0.760927 0.392340
O O3 0.483261 0.852554 0.895499
O O4 0.500000 0.000000 0.000000
O O5 0.698433 0.901933 0.403567
O O6 0.439568 0.847006 0.455696
O O7 0.500000 0.000000 0.500000
O O8 0.872408 0.083268 0.932854
O O9 0.500000 0.500000 0.500000
O O10 0.450249 0.418663 0.834836
O O11 0.188742 0.478478 0.015753
O O12 0.046855 0.285023 0.101569
O O13 0.302475 0.238850 0.324876
O O14 0.686878 0.328386 0.048490
O O15 0.152491 0.518195 0.498333
O O16 0.909734 0.387667 0.050904
O O17 0.860704 0.665349 0.419356
O O18 0.500000 0.500000 0.000000
#
# Coordination Sequence:
#
# PCOD9055839 Si02
#       8
#     2   2   2   2   2   2   2   2
#     4  12  24  45  66 100 144 180 226 291 355 405
#     4  11  21  43  74  95 133 187 226 283 347 416
#     4  12  26  45  72 106 140 182 235 295 351 414
#     4  11  24  42  72 103 134 184 235 288 345 424
#     4  11  24  48  71 102 142 183 239 286 347 425
#     4  12  23  45  71 101 137 180 237 279 348 424
#     4  12  26  45  73 105 139 189 234 285 351 421
#     4  11  24  44  68 100 141 181 226 291 352 401
#
# _framework density 23.449794000000001
#
# number of rings (size 3 to 8) (size 9 to 14) (size 15 to 20)
#    0.000    0.500    6.250    2.250    0.000    2.000 
#    2.250    0.000    0.000    0.000    0.000    0.000 
#    0.000    0.000    0.000    0.000    0.000    0.000 
#
# Total GULP energy -89282.619037 kJ/mol
# GULP energy per Si atom -5580.163690 kJ/mol
# Density = 2.339642 g / cm^3
# Si number density = 23.449794 Si / 1000 Ang^3
#
#
#
# Elastic Constant Matrix: (Units=GPa)
#
#
# Indices 1 2 3 4 5 6 
#
# 1 144.6959 24.7474 27.4805 13.0774 -2.8127 14.6040
# 2 24.7474 101.5515 30.1726 11.1921 -6.3888 8.1365
# 3 27.4805 30.1726 117.6760 14.6487 -2.6942 7.6073
# 4 13.0774 11.1921 14.6487 35.2230 -1.5328 -5.5647
# 5 -2.8127 -6.3888 -2.6942 -1.5328 47.7849 7.0994
# 6 14.6040 8.1365 7.6073 -5.5647 7.0994 30.8089
#
#
#
# Elastic Compliance Matrix: (Units=1/GPa)
#
#
# Indices 1 2 3 4 5 6 
#
# 1 0.007931 -0.000965 -0.000980 -0.002821 0.000779 -0.003952
# 2 -0.000965 0.011353 -0.002117 -0.002755 0.001685 -0.002904
# 3 -0.000980 -0.002117 0.009835 -0.003369 0.000419 -0.002110
# 4 -0.002821 -0.002755 -0.003369 0.033109 -0.001016 0.009111
# 5 0.000779 0.001685 0.000419 -0.001016 0.022110 -0.006196
# 6 -0.003952 -0.002904 -0.002110 0.009111 -0.006196 0.038693
#
#
# Mechanical properties :
#
#
# Convention : Reuss Voigt Hill
#
# Bulk Modulus (GPa) = 47.62828 58.74716 53.18772
# Shear Modulus (GPa) = 36.19165 41.53155 38.86160
#
# Velocity S-wave (km/s) = 3.93283 4.21299 4.07532
# Velocity P-wave (km/s) = 6.40139 6.98372 6.69889
#
# Compressibility (1/GPa) = 0.02099593
#
# Stress axis : x y z
#
# Youngs Moduli (GPa) = 126.08466 88.07857 101.67910
#
# Poissons Ratio (x) = 0.08500 0.09967
# Poissons Ratio (y) = 0.12167 0.21521
# Poissons Ratio (z) = 0.12360 0.18642
#
# Static dielectric constant tensor:
#      x y z
#    x 1.977440 0.017010 0.089920 
#    y 0.017010 1.920510 -0.016000 
#    z 0.089920 -0.016000 2.088190 
# 
# From -- ./inp_files/277761.got.cif
#   From: 2010.05.17/outbox.cif.g08.bks.cpg/sg2_139_cif.got.tgz:277761.got - 2010.06.03 11:33:40.
