data_PCOD9055973
_publ_section_title
;
Structure prediction by ZEFSAII (Michael W. Deem and Ramdas Pophale) SiO2 
 PCOD9055973
Probable space group: P -1
;
_chemical_formula_sum "Si O2"
_cell_formula_units_Z 16
_cell_length_a 14.989270
_cell_length_b 9.450205
_cell_length_c 14.331460
_cell_angle_alpha 39.002614
_cell_angle_beta 42.744178
_cell_angle_gamma 39.723468
_cell_volume 767.925701
_symmetry_space_group_name_H-M "P -1"
_symmetry_group_IT_number 2
_symmetry_cell_setting 'triclinic'
loop_
_space_group_symop_operation_xyz
x,y,z
-x,-y,-z
loop_
_atom_site_type_symbol
_atom_site_label
_atom_site_fract_x
_atom_site_fract_y
_atom_site_fract_z
Si Si1 0.961860 0.172604 0.730042
Si Si2 0.728069 0.848415 0.259899
Si Si3 0.631949 0.264069 0.966326
Si Si4 0.495976 0.736215 0.137333
Si Si5 0.624467 0.445476 0.509288
Si Si6 0.786162 0.241959 0.129788
Si Si7 0.945758 0.462225 0.763869
Si Si8 0.091519 0.024797 0.502869
O O1 0.788643 0.263577 0.832587
O O2 0.989062 0.371739 0.670231
O O3 0.076803 0.912692 0.826979
O O4 0.998821 0.131679 0.613879
O O5 0.636803 0.688489 0.416447
O O6 0.901818 0.643074 0.240389
O O7 0.719495 0.058227 0.235818
O O8 0.675582 0.008757 0.122912
O O9 0.569773 0.271191 0.908479
O O10 0.500000 0.500000 0.000000
O O11 0.400008 0.703887 0.309614
O O12 0.657640 0.492519 0.145025
O O13 0.500000 0.000000 0.000000
O O14 0.500000 0.500000 0.500000
O O15 0.775929 0.252632 0.441555
O O16 0.853293 0.330631 0.946295
O O17 0.858800 0.764476 0.674210
O O18 0.000000 0.000000 0.500000
#
# Coordination Sequence:
#
# PCOD9055973 Si02
#       8
#     2   2   2   2   2   2   2   2
#     4  11  23  41  71 102 132 181 233 282 344 416
#     4  11  22  44  70 101 142 176 230 291 352 410
#     4  12  23  44  70 105 138 173 233 290 351 413
#     4  12  26  46  70 101 143 186 233 284 353 419
#     4  12  27  47  68 101 147 186 230 293 351 409
#     4  11  22  46  72 103 135 184 233 288 349 419
#     4  11  21  44  74 100 141 172 237 289 339 417
#     4  12  25  45  66 101 141 185 232 285 348 408
#
# _framework density 20.835349999999998
#
# number of rings (size 3 to 8) (size 9 to 14) (size 15 to 20)
#    0.000    0.500    5.000    4.125    0.000    1.500 
#    0.000    1.875    0.000    0.000    0.000    0.000 
#    0.000    0.000    0.000    0.000    0.000    0.000 
#
# Total GULP energy -89342.374835 kJ/mol
# GULP energy per Si atom -5583.898427 kJ/mol
# Density = 2.078793 g / cm^3
# Si number density = 20.835350 Si / 1000 Ang^3
#
#
#
# Elastic Constant Matrix: (Units=GPa)
#
#
# Indices 1 2 3 4 5 6 
#
# 1 136.8422 50.3800 49.1370 1.6535 0.0691 2.9259
# 2 50.3800 108.7557 38.8190 -2.5282 -7.8696 -0.0485
# 3 49.1370 38.8190 111.3197 -7.8289 -1.8946 23.5762
# 4 1.6535 -2.5282 -7.8289 34.9409 6.4370 -2.4001
# 5 0.0691 -7.8696 -1.8946 6.4370 32.1169 4.0198
# 6 2.9259 -0.0485 23.5762 -2.4001 4.0198 35.3230
#
#
#
# Elastic Compliance Matrix: (Units=1/GPa)
#
#
# Indices 1 2 3 4 5 6 
#
# 1 0.009823 -0.003363 -0.003610 -0.001218 -0.001017 0.001624
# 2 -0.003363 0.012048 -0.003116 0.000014 0.002511 0.002090
# 3 -0.003610 -0.003116 0.013692 0.002284 0.000692 -0.008768
# 4 -0.001218 0.000014 0.002284 0.030410 -0.006122 0.001340
# 5 -0.001017 0.002511 0.000692 -0.006122 0.033599 -0.004614
# 6 0.001624 0.002090 -0.008768 0.001340 -0.004614 0.034647
#
#
# Mechanical properties :
#
#
# Convention : Reuss Voigt Hill
#
# Bulk Modulus (GPa) = 64.99639 70.39887 67.69763
# Shear Modulus (GPa) = 31.34322 35.04825 33.19574
#
# Velocity S-wave (km/s) = 3.88278 4.10586 3.99587
# Velocity P-wave (km/s) = 7.16688 7.50593 7.33836
#
# Compressibility (1/GPa) = 0.01538547
#
# Stress axis : x y z
#
# Youngs Moduli (GPa) = 101.80677 83.00242 73.03302
#
# Poissons Ratio (x) = 0.27912 0.26365
# Poissons Ratio (y) = 0.34236 0.22756
# Poissons Ratio (z) = 0.36752 0.25862
#
# Static dielectric constant tensor:
#      x y z
#    x 1.771170 0.016990 -0.008900 
#    y 0.016990 1.711180 0.018280 
#    z -0.008900 0.018280 1.765620 
# 
# From -- ./inp_files/298792.got.cif
#   From: 2010.05.17/outbox.cif.g08.bks.cpg/sg2_150_cif.got.tgz:298792.got - 2010.06.03 11:33:40.
