data_PCOD9055963
_publ_section_title
;
Structure prediction by ZEFSAII (Michael W. Deem and Ramdas Pophale) SiO2 
 PCOD9055963
Probable space group: P -1
;
_chemical_formula_sum "Si O2"
_cell_formula_units_Z 16
_cell_length_a 14.214955
_cell_length_b 14.549559
_cell_length_c 11.639806
_cell_angle_alpha 41.520649
_cell_angle_beta 120.039996
_cell_angle_gamma 151.809876
_cell_volume 649.025341
_symmetry_space_group_name_H-M "P -1"
_symmetry_group_IT_number 2
_symmetry_cell_setting 'triclinic'
loop_
_space_group_symop_operation_xyz
x,y,z
-x,-y,-z
loop_
_atom_site_type_symbol
_atom_site_label
_atom_site_fract_x
_atom_site_fract_y
_atom_site_fract_z
Si Si1 0.603580 0.835749 0.567112
Si Si2 0.096955 0.290245 0.042938
Si Si3 0.752533 0.644730 0.698455
Si Si4 0.672610 0.356627 0.722713
Si Si5 0.827667 0.187102 0.148133
Si Si6 0.933208 0.273063 0.540411
Si Si7 0.755018 0.374439 0.391666
Si Si8 0.677025 0.643932 0.305813
O O1 0.489072 0.859222 0.484376
O O2 0.397310 0.497595 0.731827
O O3 0.756456 0.017308 0.375798
O O4 0.755626 0.978226 0.637856
O O5 0.942325 0.218017 0.094873
O O6 0.257911 0.393396 0.136085
O O7 0.916729 0.990203 0.146875
O O8 0.232957 0.531011 0.807933
O O9 0.732174 0.476982 0.773769
O O10 0.536593 0.494335 0.665775
O O11 0.000000 0.000000 0.500000
O O12 0.688505 0.520840 0.507836
O O13 0.858858 0.470391 0.665174
O O14 0.408516 0.015695 0.859592
O O15 0.000000 0.500000 0.000000
O O16 0.806791 0.273068 0.495767
O O17 0.050633 0.355362 0.652009
#
# Coordination Sequence:
#
# PCOD9055963 Si02
#       8
#     2   2   2   2   2   2   2   2
#     4  11  24  45  72 100 137 190 236 285 358 425
#     4  12  26  44  67 111 145 177 238 300 348 414
#     4  12  22  39  72 103 143 191 224 281 365 421
#     4  11  21  44  73 106 139 188 236 287 349 433
#     4  11  23  44  71 102 144 179 232 301 345 409
#     4  11  23  47  76  96 132 197 239 276 363 423
#     4  11  26  47  71 100 142 186 237 300 344 426
#     4  11  23  41  68 102 145 179 233 291 347 423
#
# _framework density 24.652349999999998
#
# number of rings (size 3 to 8) (size 9 to 14) (size 15 to 20)
#    0.000    0.750    5.000    4.500    0.000    1.500 
#    2.250    3.125    0.000    0.000    0.000    0.000 
#    0.000    0.000    0.000    0.000    0.000    0.000 
#
# Total GULP energy -89594.149034 kJ/mol
# GULP energy per Si atom -5599.634315 kJ/mol
# Density = 2.459624 g / cm^3
# Si number density = 24.652350 Si / 1000 Ang^3
#
#
#
# Elastic Constant Matrix: (Units=GPa)
#
#
# Indices 1 2 3 4 5 6 
#
# 1 105.7615 18.2552 -1.1161 -13.8728 -16.1816 -4.1680
# 2 18.2552 157.8778 10.2488 -1.4389 4.0294 -31.9672
# 3 -1.1161 10.2488 46.5687 9.0640 -1.9593 -12.6008
# 4 -13.8728 -1.4389 9.0640 44.3513 -5.3259 1.8112
# 5 -16.1816 4.0294 -1.9593 -5.3259 24.3354 -1.4942
# 6 -4.1680 -31.9672 -12.6008 1.8112 -1.4942 49.3647
#
#
#
# Elastic Compliance Matrix: (Units=1/GPa)
#
#
# Indices 1 2 3 4 5 6 
#
# 1 0.011731 -0.001526 0.000126 0.004681 0.009096 0.000138
# 2 -0.001526 0.007516 -0.000425 -0.000591 -0.002141 0.004587
# 3 0.000126 -0.000425 0.024272 -0.005020 0.001388 0.006157
# 4 0.004681 -0.000591 -0.005020 0.026107 0.008399 -0.001973
# 5 0.009096 -0.002141 0.001388 0.008399 0.049502 0.000926
# 6 0.000138 0.004587 0.006157 -0.001973 0.000926 0.024911
#
#
# Mechanical properties :
#
#
# Convention : Reuss Voigt Hill
#
# Bulk Modulus (GPa) = 25.08205 40.55376 32.81790
# Shear Modulus (GPa) = 31.05997 42.46495 36.76246
#
# Velocity S-wave (km/s) = 3.55339 4.15487 3.86584
# Velocity P-wave (km/s) = 5.19921 6.28516 5.76780
#
# Compressibility (1/GPa) = 0.03986915
#
# Stress axis : x y z
#
# Youngs Moduli (GPa) = 85.24293 133.04846 41.20050
#
# Poissons Ratio (x) = 0.20306 -0.00519
# Poissons Ratio (y) = 0.13010 0.01749
# Poissons Ratio (z) = -0.01074 0.05649
#
# Static dielectric constant tensor:
#      x y z
#    x 1.994470 0.008050 0.014150 
#    y 0.008050 1.979550 0.001130 
#    z 0.014150 0.001130 1.939990 
# 
# From -- ./inp_files/455558.got.cif
#   From: 2010.05.17/outbox.cif.g08.bks.cpg/sg2_228_cif.got.tgz:455558.got - 2010.06.03 11:33:40.
