data_PCOD9055592
_publ_section_title
;
Structure prediction by ZEFSAII (Michael W. Deem and Ramdas Pophale) SiO2 
 PCOD9055592
Probable space group: P -1
;
_chemical_formula_sum "Si O2"
_cell_formula_units_Z 16
_cell_length_a 9.277185
_cell_length_b 11.243543
_cell_length_c 16.954768
_cell_angle_alpha 145.103020
_cell_angle_beta 129.812045
_cell_angle_gamma 67.561894
_cell_volume 734.621929
_symmetry_space_group_name_H-M "P -1"
_symmetry_group_IT_number 2
_symmetry_cell_setting 'triclinic'
loop_
_space_group_symop_operation_xyz
x,y,z
-x,-y,-z
loop_
_atom_site_type_symbol
_atom_site_label
_atom_site_fract_x
_atom_site_fract_y
_atom_site_fract_z
Si Si1 0.432754 0.862921 0.054405
Si Si2 0.164773 0.844097 0.667442
Si Si3 0.843413 0.361461 0.932579
Si Si4 0.740273 0.922769 0.016051
Si Si5 0.525043 0.496980 0.813057
Si Si6 0.028493 0.754646 0.932544
Si Si7 0.274116 0.429558 0.418504
Si Si8 0.756245 0.849053 0.582302
O O1 0.382503 0.617163 0.869061
O O2 0.259231 0.869441 0.054756
O O3 0.665540 0.953960 0.206273
O O4 0.414530 0.028830 0.069875
O O5 0.211294 0.632834 0.539248
O O6 0.940156 0.843502 0.587347
O O7 0.196106 0.882377 0.793254
O O8 0.651086 0.432958 0.890602
O O9 0.785995 0.102199 0.750658
O O10 0.000000 0.500000 0.000000
O O11 0.949475 0.409955 0.081042
O O12 0.657083 0.696184 0.911630
O O13 0.924494 0.909759 0.023374
O O14 0.430525 0.289916 0.611114
O O15 0.884554 0.662561 0.758135
O O16 0.500000 0.500000 0.500000
O O17 0.261800 0.279076 0.410014
#
# Coordination Sequence:
#
# PCOD9055592 Si02
#       8
#     2   2   2   2   2   2   2   2
#     4  11  23  39  72 105 139 175 232 294 351 398
#     4  11  22  41  65 103 140 181 222 276 345 425
#     4  12  26  46  71  95 136 194 243 273 332 428
#     4  11  21  42  71 101 137 183 232 281 344 418
#     4  11  23  45  68 102 138 187 233 279 335 422
#     4  12  25  43  69 103 141 178 228 292 354 397
#     4  12  27  42  70 112 149 168 222 301 365 398
#     4  12  24  44  71 101 141 186 233 283 347 412
#
# _framework density 21.779911999999999
#
# number of rings (size 3 to 8) (size 9 to 14) (size 15 to 20)
#    0.000    0.500    2.500    7.875    3.500    0.500 
#    0.000    0.000    0.000    6.750    0.000    0.000 
#    0.000    0.000    0.000    0.000    0.000    0.000 
#
# Total GULP energy -89306.446602 kJ/mol
# GULP energy per Si atom -5581.652913 kJ/mol
# Density = 2.173034 g / cm^3
# Si number density = 21.779912 Si / 1000 Ang^3
#
#
#
# Elastic Constant Matrix: (Units=GPa)
#
#
# Indices 1 2 3 4 5 6 
#
# 1 131.0283 19.9969 30.2528 3.1696 -10.6510 -19.8894
# 2 19.9969 109.9326 38.6446 -4.3288 -0.1960 -3.3748
# 3 30.2528 38.6446 71.7055 -0.1904 -13.5862 -5.6739
# 4 3.1696 -4.3288 -0.1904 41.1495 -5.2443 -5.0316
# 5 -10.6510 -0.1960 -13.5862 -5.2443 33.7339 6.5253
# 6 -19.8894 -3.3748 -5.6739 -5.0316 6.5253 31.7259
#
#
#
# Elastic Compliance Matrix: (Units=1/GPa)
#
#
# Indices 1 2 3 4 5 6 
#
# 1 0.009244 -0.000421 -0.003149 -0.000070 0.000662 0.005040
# 2 -0.000421 0.011496 -0.006473 0.000937 -0.002622 0.000489
# 3 -0.003149 -0.006473 0.020098 0.000519 0.007235 -0.000474
# 4 -0.000070 0.000937 0.000519 0.025270 0.003454 0.003446
# 5 0.000662 -0.002622 0.007235 0.003454 0.034269 -0.005070
# 6 0.005040 0.000489 -0.000474 0.003446 -0.005070 0.036236
#
#
# Mechanical properties :
#
#
# Convention : Reuss Voigt Hill
#
# Bulk Modulus (GPa) = 48.19214 54.49501 51.34358
# Shear Modulus (GPa) = 30.55926 36.24001 33.39963
#
# Velocity S-wave (km/s) = 3.74985 4.08354 3.92025
# Velocity P-wave (km/s) = 6.39714 6.87814 6.64200
#
# Compressibility (1/GPa) = 0.02075027
#
# Stress axis : x y z
#
# Youngs Moduli (GPa) = 108.18050 86.98676 49.75657
#
# Poissons Ratio (x) = 0.03666 0.15667
# Poissons Ratio (y) = 0.04559 0.32210
# Poissons Ratio (z) = 0.34064 0.56310
#
# Static dielectric constant tensor:
#      x y z
#    x 1.855900 -0.007070 0.040650 
#    y -0.007070 1.803510 -0.021150 
#    z 0.040650 -0.021150 1.860760 
# 
# From -- ./inp_files/560215.got.cif
#   From: 2010.05.17/outbox.cif.g08.bks.cpg/sg2_281_cif.got.tgz:560215.got - 2010.06.03 11:33:40.
