data_PCOD9055374
_publ_section_title
;
Structure prediction by ZEFSAII (Michael W. Deem and Ramdas Pophale) SiO2 
 PCOD9055374
Probable space group: P -1
;
_chemical_formula_sum "Si O2"
_cell_formula_units_Z 16
_cell_length_a 9.903671
_cell_length_b 13.792666
_cell_length_c 14.142082
_cell_angle_alpha 150.558297
_cell_angle_beta 134.411184
_cell_angle_gamma 42.909416
_cell_volume 635.310994
_symmetry_space_group_name_H-M "P -1"
_symmetry_group_IT_number 2
_symmetry_cell_setting 'triclinic'
loop_
_space_group_symop_operation_xyz
x,y,z
-x,-y,-z
loop_
_atom_site_type_symbol
_atom_site_label
_atom_site_fract_x
_atom_site_fract_y
_atom_site_fract_z
Si Si1 0.649976 0.833970 0.772534
Si Si2 0.299451 0.783783 0.661831
Si Si3 0.146594 0.611768 0.259501
Si Si4 0.971230 0.246667 0.204512
Si Si5 0.582271 0.268487 0.801971
Si Si6 0.994966 0.233039 0.871813
Si Si7 0.585879 0.326696 0.177372
Si Si8 0.339511 0.156335 0.422268
O O1 0.527932 0.756163 0.722256
O O2 0.892416 0.721215 0.787158
O O3 0.570434 0.813650 0.609777
O O4 0.598613 0.084394 0.971423
O O5 0.195948 0.709848 0.461943
O O6 0.313725 0.662389 0.662974
O O7 0.177777 0.031336 0.825395
O O8 0.023917 0.775096 0.258422
O O9 0.356071 0.476179 0.194282
O O10 0.033715 0.449834 0.091232
O O11 0.100928 0.262195 0.373826
O O12 0.736283 0.363689 0.205154
O O13 0.000000 0.000000 0.000000
O O14 0.793929 0.230220 0.821198
O O15 0.429475 0.230949 0.619332
O O16 0.615491 0.090871 0.747525
O O17 0.500000 0.500000 0.000000
#
# Coordination Sequence:
#
# PCOD9055374 Si02
#       8
#     2   2   2   2   2   2   2   2
#     4   9  20  39  67  93 133 177 214 270 336 399
#     4  12  23  43  70  98 134 178 226 273 334 403
#     4  11  26  43  66  99 136 176 221 282 332 395
#     4   8  18  37  66  92 125 175 211 269 335 387
#     4  11  24  39  67  96 130 175 224 278 324 402
#     4  11  26  44  66  97 135 180 225 270 338 400
#     4  11  21  41  69  99 135 174 223 283 328 392
#     4   9  21  42  63  95 132 173 219 272 339 389
#
# _framework density 25.184515999999999
#
# number of rings (size 3 to 8) (size 9 to 14) (size 15 to 20)
#    0.750    1.000    1.250    2.625    1.750    3.000 
#    0.000    0.625    0.000    0.000    0.000    0.000 
#    0.000    0.000    0.000    0.000    0.000    0.000 
#
# Total GULP energy -89646.469550 kJ/mol
# GULP energy per Si atom -5602.904347 kJ/mol
# Density = 2.512719 g / cm^3
# Si number density = 25.184516 Si / 1000 Ang^3
#
#
#
# Elastic Constant Matrix: (Units=GPa)
#
#
# Indices 1 2 3 4 5 6 
#
# 1 95.4096 15.5015 19.7803 -2.1578 15.1919 10.5985
# 2 15.5015 95.9156 14.1069 5.6100 3.1766 21.7163
# 3 19.7803 14.1069 103.3473 -10.5048 0.5147 -0.0482
# 4 -2.1578 5.6100 -10.5048 43.5314 0.0352 6.1948
# 5 15.1919 3.1766 0.5147 0.0352 33.7636 -3.2890
# 6 10.5985 21.7163 -0.0482 6.1948 -3.2890 21.2428
#
#
#
# Elastic Compliance Matrix: (Units=1/GPa)
#
#
# Indices 1 2 3 4 5 6 
#
# 1 0.012898 0.000230 -0.002350 0.001192 -0.006574 -0.008040
# 2 0.000230 0.014186 -0.001989 -0.000157 -0.002871 -0.015020
# 3 -0.002350 -0.001989 0.010627 0.002310 0.001349 0.002765
# 4 0.001192 -0.000157 0.002310 0.024727 -0.001347 -0.007848
# 5 -0.006574 -0.002871 0.001349 -0.001347 0.033983 0.011872
# 6 -0.008040 -0.015020 0.002765 -0.007848 0.011872 0.070574
#
#
# Mechanical properties :
#
#
# Convention : Reuss Voigt Hill
#
# Bulk Modulus (GPa) = 33.90721 43.71664 38.81193
# Shear Modulus (GPa) = 27.02065 36.05982 31.54024
#
# Velocity S-wave (km/s) = 3.27908 3.78805 3.54272
# Velocity P-wave (km/s) = 5.27534 6.04390 5.67265
#
# Compressibility (1/GPa) = 0.02949225
#
# Stress axis : x y z
#
# Youngs Moduli (GPa) = 77.53245 70.49077 94.10279
#
# Poissons Ratio (x) = -0.01618 0.22112
# Poissons Ratio (y) = -0.01779 0.18717
# Poissons Ratio (z) = 0.18218 0.14021
#
# Static dielectric constant tensor:
#      x y z
#    x 1.927800 -0.005130 -0.020700 
#    y -0.005130 1.931820 0.004410 
#    z -0.020700 0.004410 2.034780 
# 
# From -- ./inp_files/570407.got.cif
#   From: 2010.05.17/outbox.cif.g08.bks.cpg/sg2_286_cif.got.tgz:570407.got - 2010.06.03 11:33:40.
