data_PCOD9055927
_publ_section_title
;
Structure prediction by ZEFSAII (Michael W. Deem and Ramdas Pophale) SiO2 
 PCOD9055927
Probable space group: P -1
;
_chemical_formula_sum "Si O2"
_cell_formula_units_Z 12
_cell_length_a 7.583702
_cell_length_b 9.052456
_cell_length_c 8.730824
_cell_angle_alpha 102.200198
_cell_angle_beta 124.299366
_cell_angle_gamma 96.364922
_cell_volume 463.928174
_symmetry_space_group_name_H-M "P -1"
_symmetry_group_IT_number 2
_symmetry_cell_setting 'triclinic'
loop_
_space_group_symop_operation_xyz
x,y,z
-x,-y,-z
loop_
_atom_site_type_symbol
_atom_site_label
_atom_site_fract_x
_atom_site_fract_y
_atom_site_fract_z
Si Si1 0.168707 0.115432 0.992122
Si Si2 0.711041 0.092369 0.267664
Si Si3 0.113613 0.638369 0.795080
Si Si4 0.470376 0.783389 0.232772
Si Si5 0.632002 0.682093 0.594298
Si Si6 0.903058 0.718577 0.290122
O O1 0.346306 0.228982 0.215197
O O2 0.069710 0.226808 0.860336
O O3 0.247635 0.012175 0.879311
O O4 0.000000 0.000000 0.000000
O O5 0.715053 0.254383 0.218824
O O6 0.919298 0.151918 0.496536
O O7 0.527701 0.965560 0.249490
O O8 0.067926 0.453337 0.709296
O O9 0.885163 0.685594 0.677238
O O10 0.234364 0.687134 0.027658
O O11 0.513805 0.761890 0.427193
O O12 0.657293 0.716061 0.226576
O O13 0.500000 0.500000 0.500000
#
# Coordination Sequence:
#
# PCOD9055927 Si02
#       6
#     2   2   2   2   2   2
#     4  11  21  44  71  97 141 186 223 282 344 407
#     4  11  23  46  73 104 137 182 234 286 343 410
#     4  12  25  45  73 105 139 178 237 287 342 410
#     4  11  24  46  72 104 137 183 233 283 347 409
#     4  12  27  47  71 101 143 185 231 283 349 411
#     4  11  23  43  75 102 142 180 231 287 346 406
#
# _framework density 25.866070000000001
#
# number of rings (size 3 to 8) (size 9 to 14) (size 15 to 20)
#    0.000    0.667    3.333    5.500    0.000    4.000 
#    3.000    0.833    0.000    0.000    0.000    0.000 
#    0.000    0.000    0.000    0.000    0.000    0.000 
#
# Total GULP energy -67286.264615 kJ/mol
# GULP energy per Si atom -5607.188718 kJ/mol
# Density = 2.580720 g / cm^3
# Si number density = 25.866070 Si / 1000 Ang^3
#
#
#
# Elastic Constant Matrix: (Units=GPa)
#
#
# Indices 1 2 3 4 5 6 
#
# 1 75.5314 18.1436 33.3478 6.6958 -8.9089 10.4920
# 2 18.1436 185.8062 79.9115 7.7902 -25.4486 6.6732
# 3 33.3478 79.9115 244.0737 -2.6086 -16.3349 18.9678
# 4 6.6958 7.7902 -2.6086 60.8751 7.9966 0.9503
# 5 -8.9089 -25.4486 -16.3349 7.9966 40.8774 -8.4626
# 6 10.4920 6.6732 18.9678 0.9503 -8.4626 34.3078
#
#
#
# Elastic Compliance Matrix: (Units=1/GPa)
#
#
# Indices 1 2 3 4 5 6 
#
# 1 0.014849 -0.000286 -0.001575 -0.001902 0.002174 -0.003026
# 2 -0.000286 0.006837 -0.002025 -0.001449 0.003848 0.000866
# 3 -0.001575 -0.002025 0.005132 0.000697 -0.000105 -0.002007
# 4 -0.001902 -0.001449 0.000697 0.017487 -0.004700 -0.001166
# 5 0.002174 0.003848 -0.000105 -0.004700 0.029461 0.006042
# 6 -0.003026 0.000866 -0.002007 -0.001166 0.006042 0.032537
#
#
# Mechanical properties :
#
#
# Convention : Reuss Voigt Hill
#
# Bulk Modulus (GPa) = 52.50413 85.35747 68.93080
# Shear Modulus (GPa) = 41.51994 52.14597 46.83295
#
# Velocity S-wave (km/s) = 4.01083 4.49486 4.25972
# Velocity P-wave (km/s) = 6.46464 7.74660 7.13447
#
# Compressibility (1/GPa) = 0.01904612
#
# Stress axis : x y z
#
# Youngs Moduli (GPa) = 67.34453 146.25402 194.87156
#
# Poissons Ratio (x) = 0.04190 0.30686
# Poissons Ratio (y) = 0.01929 0.39457
# Poissons Ratio (z) = 0.10605 0.29613
#
# Static dielectric constant tensor:
#      x y z
#    x 2.216160 -0.083160 0.053160 
#    y -0.083160 1.994290 -0.053630 
#    z 0.053160 -0.053630 2.015540 
# 
# From -- ./inp_files/151812.got.cif
#   From: 2010.05.17/outbox.cif.g08.bks.cpg/sg2_76_cif.got.tgz:151812.got - 2010.06.03 11:33:40.
