data_PCOD9055912
_publ_section_title
;
Structure prediction by ZEFSAII (Michael W. Deem and Ramdas Pophale) SiO2 
 PCOD9055912
Probable space group: P -1
;
_chemical_formula_sum "Si O2"
_cell_formula_units_Z 14
_cell_length_a 6.813782
_cell_length_b 8.179243
_cell_length_c 16.655823
_cell_angle_alpha 128.438134
_cell_angle_beta 116.035895
_cell_angle_gamma 58.189199
_cell_volume 609.181038
_symmetry_space_group_name_H-M "P -1"
_symmetry_group_IT_number 2
_symmetry_cell_setting 'triclinic'
loop_
_space_group_symop_operation_xyz
x,y,z
-x,-y,-z
loop_
_atom_site_type_symbol
_atom_site_label
_atom_site_fract_x
_atom_site_fract_y
_atom_site_fract_z
Si Si1 0.369459 0.235685 0.004200
Si Si2 0.101039 0.650128 0.715843
Si Si3 0.741413 0.794885 0.479397
Si Si4 0.018075 0.613279 0.145122
Si Si5 0.609673 0.688941 0.595513
Si Si6 0.876380 0.054113 0.345424
Si Si7 0.821780 0.246767 0.061833
O O1 0.567834 0.263890 0.991773
O O2 0.270964 0.451713 0.110595
O O3 0.142292 0.250820 0.916309
O O4 0.500000 0.000000 0.000000
O O5 0.239029 0.392255 0.639082
O O6 0.134115 0.799542 0.692826
O O7 0.187875 0.722526 0.834757
O O8 0.830125 0.666662 0.685178
O O9 0.733844 0.695676 0.535586
O O10 0.962267 0.872883 0.541391
O O11 0.500000 0.000000 0.500000
O O12 0.904165 0.437207 0.100158
O O13 0.004246 0.796461 0.265083
O O14 0.500000 0.500000 0.500000
O O15 0.381755 0.892012 0.647971
O O16 0.000000 0.000000 0.000000
#
# Coordination Sequence:
#
# PCOD9055912 Si02
#       7
#     2   2   2   2   2   2   2
#     4  11  24  49  72  96 141 181 231 292 344 406
#     4  11  25  43  69  97 135 185 223 280 349 401
#     4  11  25  42  64 101 140 172 226 283 340 416
#     4  11  27  44  72 104 133 183 234 283 350 411
#     4  11  21  44  70  94 131 178 228 275 337 410
#     4  11  24  44  69  99 135 175 229 283 343 411
#     4  12  27  45  69 103 138 179 233 283 342 412
#
# _framework density 22.981674000000002
#
# number of rings (size 3 to 8) (size 9 to 14) (size 15 to 20)
#    0.000    0.857    4.286    2.143    8.000    4.000 
#    0.000    0.000    0.000    0.000    0.000    0.000 
#    0.000    0.000    0.000    0.000    0.000    0.000 
#
# Total GULP energy -78250.212831 kJ/mol
# GULP energy per Si atom -5589.300917 kJ/mol
# Density = 2.292937 g / cm^3
# Si number density = 22.981674 Si / 1000 Ang^3
#
#
#
# Elastic Constant Matrix: (Units=GPa)
#
#
# Indices 1 2 3 4 5 6 
#
# 1 104.5576 23.4556 8.1334 16.4449 -4.1140 -25.5359
# 2 23.4556 100.2592 33.0748 27.9723 -1.0101 -14.7227
# 3 8.1334 33.0748 115.8000 34.0381 -12.9087 -12.8586
# 4 16.4449 27.9723 34.0381 46.3452 -5.2489 -7.4815
# 5 -4.1140 -1.0101 -12.9087 -5.2489 30.8927 8.0489
# 6 -25.5359 -14.7227 -12.8586 -7.4815 8.0489 46.9675
#
#
#
# Elastic Compliance Matrix: (Units=1/GPa)
#
#
# Indices 1 2 3 4 5 6 
#
# 1 0.011691 -0.001368 0.001157 -0.003252 -0.000051 0.005735
# 2 -0.001368 0.012819 -0.001858 -0.005768 -0.002094 0.002206
# 3 0.001157 -0.001858 0.011780 -0.007312 0.003375 0.001528
# 4 -0.003252 -0.005768 -0.007312 0.031662 0.001928 -0.000865
# 5 -0.000051 -0.002094 0.003375 0.001928 0.035474 -0.005533
# 6 0.005735 0.002206 0.001528 -0.000865 -0.005533 0.026330
#
#
# Mechanical properties :
#
#
# Convention : Reuss Voigt Hill
#
# Bulk Modulus (GPa) = 31.10234 49.99382 40.54808
# Shear Modulus (GPa) = 34.57522 41.90462 38.23992
#
# Velocity S-wave (km/s) = 3.88296 4.27475 4.08356
# Velocity P-wave (km/s) = 5.80225 6.79453 6.31790
#
# Compressibility (1/GPa) = 0.03215192
#
# Stress axis : x y z
#
# Youngs Moduli (GPa) = 85.53504 78.00708 84.88745
#
# Poissons Ratio (x) = 0.10668 -0.09818
# Poissons Ratio (y) = 0.11698 0.15776
# Poissons Ratio (z) = -0.09893 0.14497
#
# Static dielectric constant tensor:
#      x y z
#    x 1.866070 -0.018590 0.025050 
#    y -0.018590 1.832330 -0.012950 
#    z 0.025050 -0.012950 1.853700 
# 
# From -- ./inp_files/107644.got.cif
#   From: 2010.05.17/outbox.cif.g08.bks.cpg/sg2_54_cif.got.tgz:107644.got - 2010.06.03 11:33:40.
