data_PCOD9055666
_publ_section_title
;
Structure prediction by ZEFSAII (Michael W. Deem and Ramdas Pophale) SiO2 
 PCOD9055666
Probable space group: P -1
;
_chemical_formula_sum "Si O2"
_cell_formula_units_Z 16
_cell_length_a 13.832196
_cell_length_b 8.226163
_cell_length_c 11.628216
_cell_angle_alpha 67.924608
_cell_angle_beta 132.275783
_cell_angle_gamma 76.781437
_cell_volume 645.923481
_symmetry_space_group_name_H-M "P -1"
_symmetry_group_IT_number 2
_symmetry_cell_setting 'triclinic'
loop_
_space_group_symop_operation_xyz
x,y,z
-x,-y,-z
loop_
_atom_site_type_symbol
_atom_site_label
_atom_site_fract_x
_atom_site_fract_y
_atom_site_fract_z
Si Si1 0.629177 0.213757 0.657067
Si Si2 0.565858 0.359139 0.967836
Si Si3 0.258408 0.389791 0.730095
Si Si4 0.336257 0.429158 0.187063
Si Si5 0.902517 0.803913 0.455771
Si Si6 0.986959 0.768927 0.971868
Si Si7 0.163168 0.288315 0.345871
Si Si8 0.592147 0.924760 0.837563
O O1 0.500000 0.500000 0.500000
O O2 0.503852 0.229117 0.459923
O O3 0.834261 0.050566 0.817531
O O4 0.645694 0.074354 0.818200
O O5 0.750634 0.079571 0.216765
O O6 0.500000 0.500000 0.000000
O O7 0.407056 0.375210 0.795979
O O8 0.599710 0.478164 0.871646
O O9 0.165780 0.329180 0.594232
O O10 0.094793 0.653553 0.587596
O O11 0.357606 0.194099 0.965768
O O12 0.304340 0.291869 0.116767
O O13 0.162884 0.651021 0.066214
O O14 0.917322 0.777497 0.611552
O O15 0.868984 0.756673 0.794662
O O16 0.067329 0.569658 0.190579
O O17 0.376428 0.104486 0.595475
#
# Coordination Sequence:
#
# PCOD9055666 Si02
#       8
#     2   2   2   2   2   2   2   2
#     4  12  28  45  72 106 144 182 234 306 369 421
#     4  12  26  45  70 108 147 186 243 296 349 417
#     4  11  25  46  74 103 146 193 238 295 354 430
#     4  12  25  46  72 103 142 194 238 295 351 428
#     4  11  25  45  72 105 141 196 238 291 364 420
#     4  11  24  44  73 106 138 183 245 292 355 428
#     4  11  21  42  78 105 135 189 242 296 348 427
#     4  12  22  48  75 102 141 189 243 290 363 425
#
# _framework density 24.770737
#
# number of rings (size 3 to 8) (size 9 to 14) (size 15 to 20)
#    0.000    0.500    5.000    3.750    1.750    2.000 
#    0.000    0.000    0.000    0.000    0.000    0.000 
#    0.000    0.000    0.000    0.000    0.000    0.000 
#
# Total GULP energy -89703.251272 kJ/mol
# GULP energy per Si atom -5606.453204 kJ/mol
# Density = 2.471436 g / cm^3
# Si number density = 24.770737 Si / 1000 Ang^3
#
#
#
# Elastic Constant Matrix: (Units=GPa)
#
#
# Indices 1 2 3 4 5 6 
#
# 1 142.9299 19.6747 44.7487 -28.9215 5.6185 -6.5108
# 2 19.6747 62.2684 12.5870 -27.7154 10.3699 -6.2277
# 3 44.7487 12.5870 122.3220 -28.4995 31.3710 -13.4252
# 4 -28.9215 -27.7154 -28.4995 50.1173 -8.4078 6.2769
# 5 5.6185 10.3699 31.3710 -8.4078 41.8038 -8.2020
# 6 -6.5108 -6.2277 -13.4252 6.2769 -8.2020 30.5377
#
#
#
# Elastic Compliance Matrix: (Units=1/GPa)
#
#
# Indices 1 2 3 4 5 6 
#
# 1 0.008565 -0.001068 -0.002755 0.003063 0.001849 0.000264
# 2 -0.001068 0.022148 0.002165 0.011944 -0.004250 0.001644
# 3 -0.002755 0.002165 0.012442 0.005064 -0.008070 0.002116
# 4 0.003063 0.011944 0.005064 0.031184 -0.001179 -0.001412
# 5 0.001849 -0.004250 -0.008070 -0.001179 0.031463 0.004673
# 6 0.000264 0.001644 0.002116 -0.001412 0.004673 0.035613
#
#
# Mechanical properties :
#
#
# Convention : Reuss Voigt Hill
#
# Bulk Modulus (GPa) = 25.10119 53.50456 39.30287
# Shear Modulus (GPa) = 31.64355 41.19242 36.41798
#
# Velocity S-wave (km/s) = 3.57803 4.08235 3.83848
# Velocity P-wave (km/s) = 5.21777 6.62326 5.96208
#
# Compressibility (1/GPa) = 0.03983875
#
# Stress axis : x y z
#
# Youngs Moduli (GPa) = 116.75349 45.15139 80.37366
#
# Poissons Ratio (x) = 0.04821 0.22144
# Poissons Ratio (y) = 0.12466 -0.17400
# Poissons Ratio (z) = 0.32167 -0.09775
#
# Static dielectric constant tensor:
#      x y z
#    x 1.948630 -0.001390 0.042670 
#    y -0.001390 2.057100 0.019730 
#    z 0.042670 0.019730 1.906040 
# 
# From -- ./inp_files/447214.got.cif
#   From: 2010.05.17/outbox.cif.g08.bks.cpg/sg2_224_cif.got.tgz:447214.got - 2010.06.03 11:33:40.
