data_PCOD9055455
_publ_section_title
;
Structure prediction by ZEFSAII (Michael W. Deem and Ramdas Pophale) SiO2 
 PCOD9055455
Probable space group: P -1
;
_chemical_formula_sum "Si O2"
_cell_formula_units_Z 14
_cell_length_a 15.134606
_cell_length_b 5.191516
_cell_length_c 14.666782
_cell_angle_alpha 99.087014
_cell_angle_beta 153.074946
_cell_angle_gamma 89.443332
_cell_volume 492.637295
_symmetry_space_group_name_H-M "P -1"
_symmetry_group_IT_number 2
_symmetry_cell_setting 'triclinic'
loop_
_space_group_symop_operation_xyz
x,y,z
-x,-y,-z
loop_
_atom_site_type_symbol
_atom_site_label
_atom_site_fract_x
_atom_site_fract_y
_atom_site_fract_z
Si Si1 0.196389 0.942270 0.722935
Si Si2 0.566107 0.637462 0.681369
Si Si3 0.944509 0.601422 0.609590
Si Si4 0.442663 0.326587 0.844405
Si Si5 0.235407 0.815330 0.206573
Si Si6 0.124540 0.208293 0.262634
Si Si7 0.781114 0.663764 0.070468
O O1 0.355484 0.024267 0.791355
O O2 0.259656 0.140936 0.878464
O O3 0.000000 0.000000 0.500000
O O4 0.108031 0.662341 0.680593
O O5 0.605656 0.924127 0.681899
O O6 0.335386 0.454764 0.477904
O O7 0.671198 0.434969 0.713833
O O8 0.699118 0.705820 0.899390
O O9 0.733694 0.583007 0.365126
O O10 0.961907 0.830766 0.716412
O O11 0.996832 0.369440 0.704892
O O12 0.500000 0.500000 0.000000
O O13 0.621459 0.369948 0.938133
O O14 0.168002 0.944126 0.242316
O O15 0.041497 0.730050 0.954874
#
# Coordination Sequence:
#
# PCOD9055455 Si02
#       7
#     2   2   2   2   2   2   2
#     4   9  21  39  62  90 130 169 226 288 350 419
#     4  12  25  48  73 108 148 192 244 298 359 433
#     4  11  21  42  62  95 131 172 227 287 352 416
#     4   9  20  39  62  92 126 171 223 286 350 425
#     4  11  27  47  74 107 149 192 244 297 360 433
#     4  11  24  45  72 106 145 194 240 300 364 429
#     4  11  22  39  66  92 133 177 230 293 348 427
#
# _framework density 28.418475000000001
#
# number of rings (size 3 to 8) (size 9 to 14) (size 15 to 20)
#    0.000    1.429    2.857    1.714    0.000    9.143 
#    5.143    4.286    0.000    0.000    0.000    0.000 
#    0.000    0.000    0.000    0.000    0.000    0.000 
#
# Total GULP energy -78420.103466 kJ/mol
# GULP energy per Si atom -5601.435962 kJ/mol
# Density = 2.835379 g / cm^3
# Si number density = 28.418475 Si / 1000 Ang^3
#
#
#
# Elastic Constant Matrix: (Units=GPa)
#
#
# Indices 1 2 3 4 5 6 
#
# 1 129.7491 20.5908 21.4710 9.2271 -27.7703 6.3193
# 2 20.5908 107.6166 31.6774 -14.3943 -4.8509 7.3952
# 3 21.4710 31.6774 167.1962 -7.6596 -28.3231 -10.5478
# 4 9.2271 -14.3943 -7.6596 52.7506 -5.6359 -3.1688
# 5 -27.7703 -4.8509 -28.3231 -5.6359 59.4110 -2.4915
# 6 6.3193 7.3952 -10.5478 -3.1688 -2.4915 37.2877
#
#
#
# Elastic Compliance Matrix: (Units=1/GPa)
#
#
# Indices 1 2 3 4 5 6 
#
# 1 0.008993 -0.001590 -0.000389 -0.001745 0.003672 -0.001222
# 2 -0.001590 0.010651 -0.001936 0.002703 -0.000633 -0.002203
# 3 -0.000389 -0.001936 0.007185 0.001104 0.003308 0.002797
# 4 -0.001745 0.002703 0.001104 0.020486 0.001957 0.001944
# 5 0.003672 -0.000633 0.003308 0.001957 0.020341 0.001964
# 6 -0.001222 -0.002203 0.002797 0.001944 0.001964 0.028550
#
#
# Mechanical properties :
#
#
# Convention : Reuss Voigt Hill
#
# Bulk Modulus (GPa) = 52.63264 61.33781 56.98523
# Shear Modulus (GPa) = 45.30220 51.94472 48.62346
#
# Velocity S-wave (km/s) = 3.99696 4.27997 4.14089
# Velocity P-wave (km/s) = 6.31362 6.78637 6.55426
#
# Compressibility (1/GPa) = 0.01899962
#
# Stress axis : x y z
#
# Youngs Moduli (GPa) = 111.19384 93.88908 139.17713
#
# Poissons Ratio (x) = 0.14931 0.05408
# Poissons Ratio (y) = 0.17682 0.26945
# Poissons Ratio (z) = 0.04321 0.18177
#
# Static dielectric constant tensor:
#      x y z
#    x 2.212380 0.106430 0.129960 
#    y 0.106430 2.333920 0.141420 
#    z 0.129960 0.141420 2.345890 
# 
# From -- ./inp_files/141454.got.cif
#   From: 2010.05.17/outbox.cif.g08.bks.cpg/sg2_71_cif.got.tgz:141454.got - 2010.06.03 11:33:40.
