data_PCOD9055741
_publ_section_title
;
Structure prediction by ZEFSAII (Michael W. Deem and Ramdas Pophale) SiO2 
 PCOD9055741
Probable space group: P -1
;
_chemical_formula_sum "Si O2"
_cell_formula_units_Z 16
_cell_length_a 9.470638
_cell_length_b 15.266331
_cell_length_c 21.468202
_cell_angle_alpha 17.755453
_cell_angle_beta 46.865956
_cell_angle_gamma 47.899459
_cell_volume 688.152645
_symmetry_space_group_name_H-M "P -1"
_symmetry_group_IT_number 2
_symmetry_cell_setting 'triclinic'
loop_
_space_group_symop_operation_xyz
x,y,z
-x,-y,-z
loop_
_atom_site_type_symbol
_atom_site_label
_atom_site_fract_x
_atom_site_fract_y
_atom_site_fract_z
Si Si1 0.940254 0.828694 0.938352
Si Si2 0.662239 0.419723 0.058360
Si Si3 0.957569 0.523893 0.272762
Si Si4 0.409470 0.528816 0.724266
Si Si5 0.809812 0.019713 0.588194
Si Si6 0.662050 0.851024 0.227596
Si Si7 0.376983 0.479236 0.208369
Si Si8 0.382053 0.684161 0.315237
O O1 0.823345 0.137357 0.755309
O O2 0.791435 0.607290 0.104679
O O3 0.156720 0.802189 0.864110
O O4 0.962068 0.719108 0.077296
O O5 0.763747 0.718487 0.833857
O O6 0.500000 0.500000 0.000000
O O7 0.546938 0.340023 0.208010
O O8 0.168211 0.378160 0.325116
O O9 0.831467 0.261574 0.470259
O O10 0.859786 0.721212 0.222689
O O11 0.358130 0.845543 0.497817
O O12 0.557352 0.537683 0.729326
O O13 0.499498 0.333688 0.772641
O O14 0.000000 0.000000 0.500000
O O15 0.500001 0.826046 0.239205
O O16 0.634232 0.637862 0.437167
O O17 0.653938 0.178268 0.029460
#
# Coordination Sequence:
#
# PCOD9055741 Si02
#       8
#     2   2   2   2   2   2   2   2
#     4  11  21  43  69  94 136 179 223 274 342 399
#     4  12  25  47  70  99 138 178 228 279 336 404
#     4  11  23  44  69 100 134 182 219 279 340 402
#     4  11  22  42  69 100 135 178 228 280 334 405
#     4  11  21  44  72  94 132 183 227 268 346 401
#     4  11  23  41  70 100 138 174 228 281 338 404
#     4  12  25  43  68 105 135 180 228 277 341 394
#     4  11  22  41  67 103 131 180 228 281 334 405
#
# _framework density 23.250657
#
# number of rings (size 3 to 8) (size 9 to 14) (size 15 to 20)
#    0.000    0.750    7.500    2.250    1.750    0.500 
#    4.500    2.500    0.000    0.000    0.000    0.000 
#    0.000    0.000    0.000    0.000    0.000    0.000 
#
# Total GULP energy -89595.807684 kJ/mol
# GULP energy per Si atom -5599.737980 kJ/mol
# Density = 2.319774 g / cm^3
# Si number density = 23.250657 Si / 1000 Ang^3
#
#
#
# Elastic Constant Matrix: (Units=GPa)
#
#
# Indices 1 2 3 4 5 6 
#
# 1 127.2769 33.8374 25.8166 8.9846 19.6592 -19.3725
# 2 33.8374 129.9835 5.3585 5.7400 4.5936 -34.6602
# 3 25.8166 5.3585 29.7949 -5.3196 5.0339 -4.7308
# 4 8.9846 5.7400 -5.3196 25.1400 -3.4132 3.3010
# 5 19.6592 4.5936 5.0339 -3.4132 24.0949 -6.4691
# 6 -19.3725 -34.6602 -4.7308 3.3010 -6.4691 39.5676
#
#
#
# Elastic Compliance Matrix: (Units=1/GPa)
#
#
# Indices 1 2 3 4 5 6 
#
# 1 0.012569 -0.001414 -0.010176 -0.007826 -0.008158 0.003018
# 2 -0.001414 0.010542 0.000042 -0.002918 0.001132 0.008976
# 3 -0.010176 0.000042 0.044517 0.013223 0.000703 -0.000611
# 4 -0.007826 -0.002918 0.013223 0.048231 0.009037 -0.007353
# 5 -0.008158 0.001132 0.000703 0.009037 0.050298 0.004551
# 6 0.003018 0.008976 -0.000611 -0.007353 0.004551 0.035897
#
#
# Mechanical properties :
#
#
# Convention : Reuss Voigt Hill
#
# Bulk Modulus (GPa) = 22.45548 46.34226 34.39887
# Shear Modulus (GPa) = 20.83393 32.56337 26.69865
#
# Velocity S-wave (km/s) = 2.99667 3.74643 3.39233
# Velocity P-wave (km/s) = 4.65321 6.22006 5.49279
#
# Compressibility (1/GPa) = 0.04453257
#
# Stress axis : x y z
#
# Youngs Moduli (GPa) = 79.56303 94.86051 22.46314
#
# Poissons Ratio (x) = 0.13412 0.22859
# Poissons Ratio (y) = 0.11249 -0.00095
# Poissons Ratio (z) = 0.80963 -0.00400
#
# Static dielectric constant tensor:
#      x y z
#    x 1.855650 -0.031250 -0.027830 
#    y -0.031250 1.897250 0.001300 
#    z -0.027830 0.001300 1.886030 
# 
# From -- ./inp_files/508044.got.cif
#   From: 2010.05.17/outbox.cif.g08.bks.cpg/sg2_255_cif.got.tgz:508044.got - 2010.06.03 11:33:40.
