data_PCOD9055957
_publ_section_title
;
Structure prediction by ZEFSAII (Michael W. Deem and Ramdas Pophale) SiO2 
 PCOD9055957
Probable space group: P -1
;
_chemical_formula_sum "Si O2"
_cell_formula_units_Z 14
_cell_length_a 16.546159
_cell_length_b 15.486405
_cell_length_c 9.398944
_cell_angle_alpha 31.457960
_cell_angle_beta 149.669183
_cell_angle_gamma 148.183233
_cell_volume 572.862442
_symmetry_space_group_name_H-M "P -1"
_symmetry_group_IT_number 2
_symmetry_cell_setting 'triclinic'
loop_
_space_group_symop_operation_xyz
x,y,z
-x,-y,-z
loop_
_atom_site_type_symbol
_atom_site_label
_atom_site_fract_x
_atom_site_fract_y
_atom_site_fract_z
Si Si1 0.841259 0.680533 0.782299
Si Si2 0.615856 0.404852 0.588707
Si Si3 0.897007 0.119427 0.620382
Si Si4 0.700183 0.955110 0.261770
Si Si5 0.866019 0.442045 0.666425
Si Si6 0.646599 0.443614 0.068634
Si Si7 0.543569 0.067855 0.310966
O O1 0.696137 0.535089 0.662505
O O2 0.812605 0.862837 0.482569
O O3 0.799554 0.606885 0.984370
O O4 0.020821 0.673630 0.017560
O O5 0.475468 0.206319 0.705862
O O6 0.775553 0.415047 0.720056
O O7 0.502270 0.490431 0.210964
O O8 0.725965 0.070119 0.530200
O O9 0.012749 0.339492 0.483736
O O10 0.820266 0.067627 0.416543
O O11 0.000000 0.000000 0.000000
O O12 0.610715 0.029819 0.901152
O O13 0.722125 0.390006 0.396372
O O14 0.572672 0.277097 0.079546
O O15 0.500000 0.000000 0.500000
#
# Coordination Sequence:
#
# PCOD9055957 Si02
#       7
#     2   2   2   2   2   2   2
#     4  11  21  44  73 101 135 183 233 293 346 411
#     4  11  22  43  75 102 132 183 242 285 341 420
#     4  12  28  47  69 109 154 184 226 296 366 416
#     4  11  24  50  74 102 142 189 238 290 350 424
#     4  12  26  42  71 109 143 178 233 296 355 414
#     4  11  22  44  70 100 139 183 240 280 342 422
#     4  12  27  47  73 102 143 193 239 286 354 427
#
# _framework density 24.438676000000001
#
# number of rings (size 3 to 8) (size 9 to 14) (size 15 to 20)
#    0.000    0.571    4.286    4.286    6.000    0.000 
#    2.571    1.429    0.000    0.000    0.000    0.000 
#    0.000    0.000    0.000    0.000    0.000    0.000 
#
# Total GULP energy -78477.724563 kJ/mol
# GULP energy per Si atom -5605.551754 kJ/mol
# Density = 2.438305 g / cm^3
# Si number density = 24.438676 Si / 1000 Ang^3
#
#
#
# Elastic Constant Matrix: (Units=GPa)
#
#
# Indices 1 2 3 4 5 6 
#
# 1 153.4287 31.2894 87.0719 -7.5163 14.2005 3.6696
# 2 31.2894 78.4928 34.7057 3.7955 -12.1706 -2.4816
# 3 87.0719 34.7057 168.1571 -0.0927 3.9839 14.9772
# 4 -7.5163 3.7955 -0.0927 21.6077 -20.0427 -0.6499
# 5 14.2005 -12.1706 3.9839 -20.0427 46.7455 17.0384
# 6 3.6696 -2.4816 14.9772 -0.6499 17.0384 28.5409
#
#
#
# Elastic Compliance Matrix: (Units=1/GPa)
#
#
# Indices 1 2 3 4 5 6 
#
# 1 0.010219 -0.002480 -0.005028 -0.000645 -0.005109 0.004144
# 2 -0.002480 0.015423 -0.001958 0.002155 0.006215 -0.000974
# 3 -0.005028 -0.001958 0.009441 0.001265 0.003038 -0.006263
# 4 -0.000645 0.002155 0.001265 0.091270 0.050062 -0.028201
# 5 -0.005109 0.006215 0.003038 0.050062 0.058151 -0.033972
# 6 0.004144 -0.000974 -0.006263 -0.028201 -0.033972 0.057345
#
#
# Mechanical properties :
#
#
# Convention : Reuss Voigt Hill
#
# Bulk Modulus (GPa) = 61.91849 78.46808 70.19328
# Shear Modulus (GPa) = 18.78529 35.84626 27.31578
#
# Velocity S-wave (km/s) = 2.77550 3.83402 3.34687
# Velocity P-wave (km/s) = 5.97181 7.19565 6.61211
#
# Compressibility (1/GPa) = 0.01615026
#
# Stress axis : x y z
#
# Youngs Moduli (GPa) = 97.85686 64.83721 105.92140
#
# Poissons Ratio (x) = 0.16082 0.53256
# Poissons Ratio (y) = 0.24273 0.20741
# Poissons Ratio (z) = 0.49201 0.12696
#
# Static dielectric constant tensor:
#      x y z
#    x 1.890710 0.026630 0.007960 
#    y 0.026630 1.990990 -0.044140 
#    z 0.007960 -0.044140 1.930590 
# 
# From -- ./inp_files/241180.got.cif
#   From: 2010.05.17/outbox.cif.g08.bks.cpg/sg2_121_cif.got.tgz:241180.got - 2010.06.03 11:33:40.
