data_PCOD9055697
_publ_section_title
;
Structure prediction by ZEFSAII (Michael W. Deem and Ramdas Pophale) SiO2 
 PCOD9055697
Probable space group: P -1
;
_chemical_formula_sum "Si O2"
_cell_formula_units_Z 14
_cell_length_a 8.325834
_cell_length_b 7.871696
_cell_length_c 11.781395
_cell_angle_alpha 75.950536
_cell_angle_beta 77.540624
_cell_angle_gamma 54.103702
_cell_volume 604.126015
_symmetry_space_group_name_H-M "P -1"
_symmetry_group_IT_number 2
_symmetry_cell_setting 'triclinic'
loop_
_space_group_symop_operation_xyz
x,y,z
-x,-y,-z
loop_
_atom_site_type_symbol
_atom_site_label
_atom_site_fract_x
_atom_site_fract_y
_atom_site_fract_z
Si Si1 0.977323 0.362080 0.857673
Si Si2 0.173794 0.171431 0.204542
Si Si3 0.698707 0.227347 0.884607
Si Si4 0.394222 0.952066 0.873863
Si Si5 0.882855 0.231527 0.430722
Si Si6 0.448400 0.665376 0.716417
Si Si7 0.847386 0.483484 0.601264
O O1 0.907934 0.595353 0.870706
O O2 0.831221 0.289375 0.924105
O O3 0.954149 0.370435 0.721385
O O4 0.202428 0.186720 0.883411
O O5 0.410926 0.059306 0.190603
O O6 0.049891 0.232568 0.330435
O O7 0.160238 0.994708 0.168904
O O8 0.557894 0.429853 0.792728
O O9 0.573355 0.181609 0.996364
O O10 0.347943 0.838989 0.801690
O O11 0.707675 0.292315 0.361237
O O12 0.794939 0.367605 0.535931
O O13 0.000000 0.000000 0.500000
O O14 0.629284 0.677339 0.639699
O O15 0.000000 0.500000 0.500000
#
# Coordination Sequence:
#
# PCOD9055697 Si02
#       7
#     2   2   2   2   2   2   2
#     4  11  25  46  71 103 146 179 237 286 345 424
#     4  12  26  46  69 109 138 180 245 285 339 428
#     4  11  25  47  72 102 143 183 235 286 354 414
#     4  12  24  47  73 102 142 189 226 293 353 405
#     4  12  25  44  68 100 141 182 235 287 350 415
#     4  11  24  44  72 101 139 188 231 286 349 419
#     4  11  21  43  66  98 136 178 229 285 342 409
#
# _framework density 23.173974000000001
#
# number of rings (size 3 to 8) (size 9 to 14) (size 15 to 20)
#    0.000    0.571    4.286    5.143    2.000    1.714 
#    0.000    2.857    0.000    0.000    0.000    0.000 
#    0.000    0.000    0.000    0.000    0.000    0.000 
#
# Total GULP energy -78216.262996 kJ/mol
# GULP energy per Si atom -5586.875928 kJ/mol
# Density = 2.312123 g / cm^3
# Si number density = 23.173974 Si / 1000 Ang^3
#
#
#
# Elastic Constant Matrix: (Units=GPa)
#
#
# Indices 1 2 3 4 5 6 
#
# 1 92.4629 39.8768 20.7625 -27.9371 -14.9548 -26.3563
# 2 39.8768 140.4483 -6.3455 -4.7091 14.4067 3.2741
# 3 20.7625 -6.3455 56.7523 1.8337 -9.3894 -13.5092
# 4 -27.9371 -4.7091 1.8337 29.9631 -2.4847 8.8878
# 5 -14.9548 14.4067 -9.3894 -2.4847 34.6588 6.2651
# 6 -26.3563 3.2741 -13.5092 8.8878 6.2651 45.9123
#
#
#
# Elastic Compliance Matrix: (Units=1/GPa)
#
#
# Indices 1 2 3 4 5 6 
#
# 1 0.028719 -0.009359 -0.008046 0.024604 0.014410 0.008057
# 2 -0.009359 0.010520 0.002883 -0.007028 -0.007614 -0.002875
# 3 -0.008046 0.002883 0.022018 -0.009430 -0.000011 0.003481
# 4 0.024604 -0.007028 -0.009430 0.057466 0.015350 -0.001368
# 5 0.014410 -0.007614 -0.000011 0.015350 0.039245 0.000485
# 6 0.008057 -0.002875 0.003481 -0.001368 0.000485 0.027834
#
#
# Mechanical properties :
#
#
# Convention : Reuss Voigt Hill
#
# Bulk Modulus (GPa) = 31.04283 44.25012 37.64647
# Shear Modulus (GPa) = 22.16478 37.79816 29.98147
#
# Velocity S-wave (km/s) = 3.09601 4.04302 3.60078
# Velocity P-wave (km/s) = 5.11908 6.39773 5.79379
#
# Compressibility (1/GPa) = 0.03221356
#
# Stress axis : x y z
#
# Youngs Moduli (GPa) = 34.81996 95.05820 45.41747
#
# Poissons Ratio (x) = 0.88961 0.36544
# Poissons Ratio (y) = 0.32587 -0.13094
# Poissons Ratio (z) = 0.28017 -0.27406
#
# Static dielectric constant tensor:
#      x y z
#    x 1.950640 0.073460 -0.037440 
#    y 0.073460 1.778070 -0.007990 
#    z -0.037440 -0.007990 2.002470 
# 
# From -- ./inp_files/203487.got.cif
#   From: 2010.05.17/outbox.cif.g08.bks.cpg/sg2_102_cif.got.tgz:203487.got - 2010.06.03 11:33:40.
