data_PCOD9055192
_publ_section_title
;
Structure prediction by ZEFSAII (Michael W. Deem and Ramdas Pophale) SiO2 
 PCOD9055192
Probable space group: P -1
;
_chemical_formula_sum "Si O2"
_cell_formula_units_Z 16
_cell_length_a 14.823341
_cell_length_b 11.644923
_cell_length_c 10.099904
_cell_angle_alpha 84.598284
_cell_angle_beta 76.201031
_cell_angle_gamma 29.236531
_cell_volume 802.698069
_symmetry_space_group_name_H-M "P -1"
_symmetry_group_IT_number 2
_symmetry_cell_setting 'triclinic'
loop_
_space_group_symop_operation_xyz
x,y,z
-x,-y,-z
loop_
_atom_site_type_symbol
_atom_site_label
_atom_site_fract_x
_atom_site_fract_y
_atom_site_fract_z
Si Si1 0.445119 0.086525 0.191651
Si Si2 0.015554 0.117986 0.453905
Si Si3 0.389294 0.352019 0.821044
Si Si4 0.608212 0.639842 0.658119
Si Si5 0.569891 0.292736 0.525424
Si Si6 0.949286 0.821139 0.852710
Si Si7 0.825886 0.710778 0.934017
Si Si8 0.463028 0.675088 0.968361
O O1 0.419744 0.195737 0.313965
O O2 0.248262 0.300004 0.147869
O O3 0.509150 0.883651 0.210917
O O4 0.626738 0.942384 0.062527
O O5 0.036052 0.118127 0.290187
O O6 0.822202 0.386754 0.550935
O O7 0.209281 0.949684 0.476345
O O8 0.000000 0.000000 0.500000
O O9 0.442604 0.376418 0.677991
O O10 0.462099 0.334239 0.930272
O O11 0.156602 0.590220 0.877192
O O12 0.461985 0.749357 0.588286
O O13 0.569174 0.608297 0.808429
O O14 0.500000 0.500000 0.500000
O O15 0.890861 0.756328 0.834268
O O16 0.771427 0.053429 0.983152
O O17 0.000000 0.500000 0.000000
O O18 0.500000 0.500000 0.000000
#
# Coordination Sequence:
#
# PCOD9055192 Si02
#       8
#     2   2   2   2   2   2   2   2
#     4  11  23  42  65 102 140 175 224 287 340 400
#     4  12  24  46  70  96 135 183 230 279 344 412
#     4  12  24  45  73  96 140 188 223 275 352 419
#     4  12  26  41  68 108 136 171 232 290 335 399
#     4  12  24  46  71  95 135 185 227 278 347 409
#     4  12  23  43  72  98 130 187 229 266 353 409
#     4  11  21  40  70  96 138 184 221 271 347 412
#     4  12  25  43  70 102 137 171 232 293 331 401
#
# _framework density 19.932774999999999
#
# number of rings (size 3 to 8) (size 9 to 14) (size 15 to 20)
#    0.000    0.250    7.500    2.250    0.000    3.000 
#    0.000    1.250    0.000    0.000    0.000    0.000 
#    0.000    0.000    0.000    0.000    0.000    0.000 
#
# Total GULP energy -89422.754801 kJ/mol
# GULP energy per Si atom -5588.922175 kJ/mol
# Density = 1.988741 g / cm^3
# Si number density = 19.932775 Si / 1000 Ang^3
#
#
#
# Elastic Constant Matrix: (Units=GPa)
#
#
# Indices 1 2 3 4 5 6 
#
# 1 108.8688 43.9678 2.5824 0.9184 7.3491 -14.1744
# 2 43.9678 84.9428 -10.5125 -2.0512 7.9755 -19.2729
# 3 2.5824 -10.5125 41.1882 -5.6498 -8.4729 -2.5134
# 4 0.9184 -2.0512 -5.6498 33.6280 1.3175 -2.3929
# 5 7.3491 7.9755 -8.4729 1.3175 49.1195 -5.7648
# 6 -14.1744 -19.2729 -2.5134 -2.3929 -5.7648 38.8039
#
#
#
# Elastic Compliance Matrix: (Units=1/GPa)
#
#
# Indices 1 2 3 4 5 6 
#
# 1 0.011969 -0.006250 -0.002664 -0.001051 -0.001106 0.000866
# 2 -0.006250 0.017324 0.005554 0.002653 -0.000191 0.006816
# 3 -0.002664 0.005554 0.027828 0.005231 0.004698 0.004608
# 4 -0.001051 0.002653 0.005231 0.031028 0.000173 0.003212
# 5 -0.001106 -0.000191 0.004698 0.000173 0.021718 0.003043
# 6 0.000866 0.006816 0.004608 0.003212 0.003043 0.030421
#
#
# Mechanical properties :
#
#
# Convention : Reuss Voigt Hill
#
# Bulk Modulus (GPa) = 19.84120 34.11946 26.98033
# Shear Modulus (GPa) = 30.52330 37.57442 34.04886
#
# Velocity S-wave (km/s) = 3.91744 4.34643 4.13750
# Velocity P-wave (km/s) = 5.51702 6.50716 6.03244
#
# Compressibility (1/GPa) = 0.05040017
#
# Stress axis : x y z
#
# Youngs Moduli (GPa) = 83.54890 57.72436 35.93439
#
# Poissons Ratio (x) = 0.36079 0.09574
# Poissons Ratio (y) = 0.52219 -0.19958
# Poissons Ratio (z) = 0.22261 -0.32060
#
# Static dielectric constant tensor:
#      x y z
#    x 1.712560 0.013180 -0.008470 
#    y 0.013180 1.735590 -0.015820 
#    z -0.008470 -0.015820 1.691240 
# 
# From -- ./inp_files/307513.got.cif
#   From: 2010.05.17/outbox.cif.g08.bks.cpg/sg2_154_cif.got.tgz:307513.got - 2010.06.03 11:33:40.
