data_PCOD9055847
_publ_section_title
;
Structure prediction by ZEFSAII (Michael W. Deem and Ramdas Pophale) SiO2 
 PCOD9055847
Probable space group: P -1
;
_chemical_formula_sum "Si O2"
_cell_formula_units_Z 16
_cell_length_a 8.224604
_cell_length_b 8.317800
_cell_length_c 11.654219
_cell_angle_alpha 82.666239
_cell_angle_beta 72.467927
_cell_angle_gamma 58.717628
_cell_volume 649.308264
_symmetry_space_group_name_H-M "P -1"
_symmetry_group_IT_number 2
_symmetry_cell_setting 'triclinic'
loop_
_space_group_symop_operation_xyz
x,y,z
-x,-y,-z
loop_
_atom_site_type_symbol
_atom_site_label
_atom_site_fract_x
_atom_site_fract_y
_atom_site_fract_z
Si Si1 0.349527 0.026510 0.429331
Si Si2 0.052025 0.990451 0.663413
Si Si3 0.636436 0.644610 0.293008
Si Si4 0.780428 0.673496 0.032099
Si Si5 0.436851 0.386349 0.110662
Si Si6 0.174990 0.999092 0.891539
Si Si7 0.022739 0.645295 0.617558
Si Si8 0.285393 0.612718 0.351805
O O1 0.500267 0.864928 0.327224
O O2 0.500000 0.000000 0.500000
O O3 0.193025 0.986363 0.532137
O O4 0.208625 0.229642 0.381611
O O5 0.117055 0.032502 0.767229
O O6 0.834234 0.165821 0.672412
O O7 0.050923 0.797308 0.671890
O O8 0.665181 0.620963 0.153914
O O9 0.850319 0.545800 0.318630
O O10 0.499029 0.557835 0.363164
O O11 0.782492 0.852030 0.067641
O O12 0.686086 0.688024 0.927842
O O13 0.000000 0.500000 0.000000
O O14 0.316846 0.507957 0.234595
O O15 0.634792 0.205587 0.126228
O O16 0.500000 0.500000 0.000000
O O17 0.000000 0.000000 0.000000
O O18 0.147742 0.593871 0.477025
#
# Coordination Sequence:
#
# PCOD9055847 Si02
#       8
#     2   2   2   2   2   2   2   2
#     4  11  24  44  68 105 151 188 237 306 367 435
#     4  11  22  44  72 107 142 191 246 301 364 442
#     4  12  24  44  75 103 148 189 247 304 366 442
#     4  12  28  51  69 109 147 189 253 311 368 441
#     4  12  25  46  75 105 145 196 243 303 371 438
#     4  12  28  47  75 104 142 197 248 308 375 439
#     4  11  24  43  75 110 142 196 245 294 369 445
#     4  11  21  43  75 107 146 191 246 300 361 445
#
# _framework density 24.64161
#
# number of rings (size 3 to 8) (size 9 to 14) (size 15 to 20)
#    0.000    0.500    3.750    5.250    3.500    1.500 
#    4.500    0.000    0.000    0.000    0.000    0.000 
#    0.000    0.000    0.000    0.000    0.000    0.000 
#
# Total GULP energy -89611.713059 kJ/mol
# GULP energy per Si atom -5600.732066 kJ/mol
# Density = 2.458552 g / cm^3
# Si number density = 24.641610 Si / 1000 Ang^3
#
#
#
# Elastic Constant Matrix: (Units=GPa)
#
#
# Indices 1 2 3 4 5 6 
#
# 1 108.4331 45.1267 33.2015 6.5409 22.6503 -22.0425
# 2 45.1267 130.4459 40.8955 23.1191 4.9654 -24.8681
# 3 33.2015 40.8955 137.5310 35.4446 19.8062 -5.0911
# 4 6.5409 23.1191 35.4446 43.6691 -1.5855 2.1620
# 5 22.6503 4.9654 19.8062 -1.5855 40.8108 -1.7684
# 6 -22.0425 -24.8681 -5.0911 2.1620 -1.7684 51.6545
#
#
#
# Elastic Compliance Matrix: (Units=1/GPa)
#
#
# Indices 1 2 3 4 5 6 
#
# 1 0.012913 -0.003226 -0.001267 0.000406 -0.005987 0.003611
# 2 -0.003226 0.010629 -0.001315 -0.004225 0.001137 0.003827
# 3 -0.001267 -0.001315 0.010688 -0.007960 -0.004631 0.000054
# 4 0.000406 -0.004225 -0.007960 0.031914 0.005227 -0.003802
# 5 -0.005987 0.001137 -0.004631 0.005227 0.030067 -0.001653
# 6 0.003611 0.003827 0.000054 -0.003802 -0.001653 0.022850
#
#
# Mechanical properties :
#
#
# Convention : Reuss Voigt Hill
#
# Bulk Modulus (GPa) = 44.21795 68.31747 56.26771
# Shear Modulus (GPa) = 36.17533 44.37263 40.27398
#
# Velocity S-wave (km/s) = 3.83568 4.24809 4.04714
# Velocity P-wave (km/s) = 6.13188 7.20044 6.68754
#
# Compressibility (1/GPa) = 0.02261525
#
# Stress axis : x y z
#
# Youngs Moduli (GPa) = 77.44322 94.07995 93.55886
#
# Poissons Ratio (x) = 0.30346 0.11852
# Poissons Ratio (y) = 0.24980 0.12305
# Poissons Ratio (z) = 0.09810 0.12374
#
# Static dielectric constant tensor:
#      x y z
#    x 1.862680 0.041450 -0.299220 
#    y 0.041450 1.920670 -0.061660 
#    z -0.299220 -0.061660 1.458570 
# 
# From -- ./inp_files/382266.got.cif
#   From: 2010.05.17/outbox.cif.g08.bks.cpg/sg2_192_cif.got.tgz:382266.got - 2010.06.03 11:33:40.
