data_PCOD9055602
_publ_section_title
;
Structure prediction by ZEFSAII (Michael W. Deem and Ramdas Pophale) SiO2 
 PCOD9055602
Probable space group: P -1
;
_chemical_formula_sum "Si O2"
_cell_formula_units_Z 14
_cell_length_a 6.902103
_cell_length_b 13.128006
_cell_length_c 19.719654
_cell_angle_alpha 29.025352
_cell_angle_beta 137.821290
_cell_angle_gamma 135.092050
_cell_volume 572.068768
_symmetry_space_group_name_H-M "P -1"
_symmetry_group_IT_number 2
_symmetry_cell_setting 'triclinic'
loop_
_space_group_symop_operation_xyz
x,y,z
-x,-y,-z
loop_
_atom_site_type_symbol
_atom_site_label
_atom_site_fract_x
_atom_site_fract_y
_atom_site_fract_z
Si Si1 0.698006 0.116868 0.275294
Si Si2 0.929979 0.507379 0.714252
Si Si3 0.878264 0.752573 0.961528
Si Si4 0.838755 0.815578 0.136601
Si Si5 0.292935 0.946257 0.843933
Si Si6 0.288421 0.401291 0.636337
Si Si7 0.710174 0.015178 0.481338
O O1 0.470407 0.278347 0.120075
O O2 0.574924 0.984664 0.388362
O O3 0.689094 0.048388 0.234788
O O4 0.049705 0.138806 0.364230
O O5 0.985258 0.328957 0.778073
O O6 0.591240 0.527682 0.612385
O O7 0.124673 0.737586 0.617941
O O8 0.017845 0.414198 0.863224
O O9 0.979201 0.983841 0.891576
O O10 0.045747 0.776668 0.918468
O O11 0.398948 0.094473 0.022444
O O12 0.665950 0.657267 0.239739
O O13 0.235266 0.176168 0.715828
O O14 0.000000 0.500000 0.500000
O O15 0.500000 0.000000 0.500000
#
# Coordination Sequence:
#
# PCOD9055602 Si02
#       7
#     2   2   2   2   2   2   2
#     4  11  25  47  75  94 136 196 241 302 361 412
#     4  12  24  43  75 101 144 191 238 295 356 426
#     4  11  21  42  71 110 143 182 229 285 368 439
#     4  11  22  41  70 112 155 182 223 289 360 449
#     4  11  21  43  72 107 151 186 223 292 364 438
#     4  11  25  40  68 115 154 188 230 280 364 453
#     4  11  29  52  67  98 139 190 258 308 351 407
#
# _framework density 24.472580000000001
#
# number of rings (size 3 to 8) (size 9 to 14) (size 15 to 20)
#    0.000    0.857    4.286    3.000    6.000    3.429 
#    0.000    1.429    0.000    0.000    0.000    0.000 
#    0.000    0.000    0.000    0.000    0.000    0.000 
#
# Total GULP energy -78277.539540 kJ/mol
# GULP energy per Si atom -5591.252824 kJ/mol
# Density = 2.441688 g / cm^3
# Si number density = 24.472580 Si / 1000 Ang^3
#
#
#
# Elastic Constant Matrix: (Units=GPa)
#
#
# Indices 1 2 3 4 5 6 
#
# 1 221.9756 63.2197 82.1492 4.8184 -9.7620 3.1793
# 2 63.2197 64.0477 69.3406 2.0528 5.9491 -0.8388
# 3 82.1492 69.3406 121.5905 6.4292 16.7830 -1.0294
# 4 4.8184 2.0528 6.4292 47.4457 -0.4158 -10.1839
# 5 -9.7620 5.9491 16.7830 -0.4158 57.7252 12.1570
# 6 3.1793 -0.8388 -1.0294 -10.1839 12.1570 35.1933
#
#
#
# Elastic Compliance Matrix: (Units=1/GPa)
#
#
# Indices 1 2 3 4 5 6 
#
# 1 0.006811 -0.004203 -0.002568 -0.000544 0.002726 -0.001889
# 2 -0.004203 0.043908 -0.022439 0.001770 0.001112 0.000898
# 3 -0.002568 -0.022439 0.023599 -0.001633 -0.005367 0.001769
# 4 -0.000544 0.001770 -0.001633 0.022773 -0.001113 0.007018
# 5 0.002726 0.001112 -0.005367 -0.001113 0.020889 -0.007915
# 6 -0.001889 0.000898 0.001769 0.007018 -0.007915 0.033423
#
#
# Mechanical properties :
#
#
# Convention : Reuss Voigt Hill
#
# Bulk Modulus (GPa) = 62.91040 93.00365 77.95702
# Shear Modulus (GPa) = 23.24247 40.93312 32.08780
#
# Velocity S-wave (km/s) = 3.08512 4.09419 3.62494
# Velocity P-wave (km/s) = 6.20104 7.77403 7.03166
#
# Compressibility (1/GPa) = 0.01589562
#
# Stress axis : x y z
#
# Youngs Moduli (GPa) = 146.81424 22.77508 42.37551
#
# Poissons Ratio (x) = 0.09573 0.10884
# Poissons Ratio (y) = 0.61707 0.95088
# Poissons Ratio (z) = 0.37709 0.51106
#
# Static dielectric constant tensor:
#      x y z
#    x 1.936700 0.007570 -0.026380 
#    y 0.007570 2.021920 -0.029970 
#    z -0.026380 -0.029970 1.941960 
# 
# From -- ./inp_files/583617.got.cif
#   From: 2010.05.17/outbox.cif.g08.bks.cpg/sg2_292_cif.got.tgz:583617.got - 2010.06.03 11:33:40.
