data_PCOD9055681
_publ_section_title
;
Structure prediction by ZEFSAII (Michael W. Deem and Ramdas Pophale) SiO2 
 PCOD9055681
Probable space group: P -1
;
_chemical_formula_sum "Si O2"
_cell_formula_units_Z 16
_cell_length_a 15.434618
_cell_length_b 9.437129
_cell_length_c 9.332102
_cell_angle_alpha 110.909131
_cell_angle_beta 67.210707
_cell_angle_gamma 143.138822
_cell_volume 749.042596
_symmetry_space_group_name_H-M "P -1"
_symmetry_group_IT_number 2
_symmetry_cell_setting 'triclinic'
loop_
_space_group_symop_operation_xyz
x,y,z
-x,-y,-z
loop_
_atom_site_type_symbol
_atom_site_label
_atom_site_fract_x
_atom_site_fract_y
_atom_site_fract_z
Si Si1 0.829327 0.929796 0.765142
Si Si2 0.462585 0.238798 0.529973
Si Si3 0.352448 0.613427 0.290786
Si Si4 0.153803 0.858950 0.452625
Si Si5 0.920527 0.559311 0.732527
Si Si6 0.567898 0.743615 0.989557
Si Si7 0.391788 0.477372 0.742529
Si Si8 0.078190 0.220138 0.929455
O O1 0.832104 0.994839 0.624828
O O2 0.988576 0.116101 0.801514
O O3 0.738066 0.658661 0.731932
O O4 0.740447 0.933206 0.930660
O O5 0.559687 0.249681 0.569417
O O6 0.408660 0.316707 0.686918
O O7 0.573041 0.438837 0.411969
O O8 0.313111 0.006836 0.463592
O O9 0.229055 0.571608 0.296064
O O10 0.485007 0.761914 0.145517
O O11 0.077678 0.620150 0.340058
O O12 0.054141 0.781288 0.625039
O O13 0.922151 0.630744 0.916441
O O14 0.500000 0.500000 0.000000
O O15 0.514966 0.700228 0.845673
O O16 0.239824 0.357836 0.846853
O O17 0.000000 0.000000 0.000000
#
# Coordination Sequence:
#
# PCOD9055681 Si02
#       8
#     2   2   2   2   2   2   2   2
#     4  11  22  39  66  97 122 165 209 257 317 367
#     4  11  22  38  64  90 130 164 201 253 320 365
#     4  11  22  38  67  96 122 159 214 263 300 370
#     4  11  26  45  61  88 134 173 202 251 323 378
#     4  11  26  45  62  91 131 165 209 261 310 379
#     4  10  17  36  58  93 127 151 200 267 309 349
#     4  11  20  37  59  99 126 154 206 272 299 359
#     4  12  23  39  67  96 124 162 214 262 312 361
#
# _framework density 21.360600999999999
#
# number of rings (size 3 to 8) (size 9 to 14) (size 15 to 20)
#    0.000    1.000    6.250    2.250    3.500    1.500 
#    0.000    2.500    0.000    0.000    0.000    0.000 
#    0.000    0.000    0.000    0.000    0.000    0.000 
#
# Total GULP energy -89325.077918 kJ/mol
# GULP energy per Si atom -5582.817370 kJ/mol
# Density = 2.131198 g / cm^3
# Si number density = 21.360601 Si / 1000 Ang^3
#
#
#
# Elastic Constant Matrix: (Units=GPa)
#
#
# Indices 1 2 3 4 5 6 
#
# 1 55.1676 9.0152 6.6459 2.8295 8.5150 17.8121
# 2 9.0152 23.0170 18.3500 3.5233 -9.2771 2.6291
# 3 6.6459 18.3500 72.0678 -1.2535 -0.0924 -4.8184
# 4 2.8295 3.5233 -1.2535 28.8952 15.4100 -1.9408
# 5 8.5150 -9.2771 -0.0924 15.4100 40.0650 -0.5614
# 6 17.8121 2.6291 -4.8184 -1.9408 -0.5614 26.5611
#
#
#
# Elastic Compliance Matrix: (Units=1/GPa)
#
#
# Indices 1 2 3 4 5 6 
#
# 1 0.027223 -0.013226 -0.000232 0.003326 -0.010366 -0.016965
# 2 -0.013226 0.082709 -0.020563 -0.027211 0.032320 -0.004352
# 3 -0.000232 -0.020563 0.019672 0.007851 -0.007600 0.006173
# 4 0.003326 -0.027211 0.007851 0.052809 -0.027229 0.005171
# 5 -0.010366 0.032320 -0.007600 -0.027229 0.045120 0.001338
# 6 -0.016965 -0.004352 0.006173 0.005171 0.001338 0.050983
#
#
# Mechanical properties :
#
#
# Convention : Reuss Voigt Hill
#
# Bulk Modulus (GPa) = 16.24390 24.25272 20.24831
# Shear Modulus (GPa) = 13.62099 26.85367 20.23733
#
# Velocity S-wave (km/s) = 2.52795 3.54949 3.08135
# Velocity P-wave (km/s) = 4.01769 5.30821 4.70738
#
# Compressibility (1/GPa) = 0.06156156
#
# Stress axis : x y z
#
# Youngs Moduli (GPa) = 36.73383 12.09055 50.83245
#
# Poissons Ratio (x) = 0.15991 0.01181
# Poissons Ratio (y) = 0.48586 1.04525
# Poissons Ratio (z) = 0.00854 0.24861
#
# Static dielectric constant tensor:
#      x y z
#    x 1.789300 -0.014300 -0.010780 
#    y -0.014300 1.768780 0.028550 
#    z -0.010780 0.028550 1.794600 
# 
# From -- ./inp_files/298770.got.cif
#   From: 2010.05.17/outbox.cif.g08.bks.cpg/sg2_150_cif.got.tgz:298770.got - 2010.06.03 11:33:40.
