data_PCOD9055619
_publ_section_title
;
Structure prediction by ZEFSAII (Michael W. Deem and Ramdas Pophale) SiO2 
 PCOD9055619
Probable space group: P -1
;
_chemical_formula_sum "Si O2"
_cell_formula_units_Z 16
_cell_length_a 18.502900
_cell_length_b 11.189357
_cell_length_c 9.489159
_cell_angle_alpha 81.440150
_cell_angle_beta 141.491198
_cell_angle_gamma 127.307936
_cell_volume 733.376409
_symmetry_space_group_name_H-M "P -1"
_symmetry_group_IT_number 2
_symmetry_cell_setting 'triclinic'
loop_
_space_group_symop_operation_xyz
x,y,z
-x,-y,-z
loop_
_atom_site_type_symbol
_atom_site_label
_atom_site_fract_x
_atom_site_fract_y
_atom_site_fract_z
Si Si1 0.301965 0.354945 0.803349
Si Si2 0.400534 0.516167 0.245521
Si Si3 0.066675 0.817151 0.842497
Si Si4 0.586352 0.143250 0.238322
Si Si5 0.014623 0.762266 0.278292
Si Si6 0.981476 0.504252 0.639850
Si Si7 0.252330 0.043475 0.832398
Si Si8 0.693058 0.980424 0.556053
O O1 0.222073 0.153338 0.715192
O O2 0.144548 0.309039 0.495531
O O3 0.500000 0.500000 0.000000
O O4 0.354617 0.440079 0.027123
O O5 0.500000 0.500000 0.500000
O O6 0.527298 0.745860 0.383268
O O7 0.191735 0.352360 0.027157
O O8 0.101627 0.712675 0.849617
O O9 0.214860 0.019845 0.944423
O O10 0.134204 0.878214 0.093537
O O11 0.771622 0.355135 0.410601
O O12 0.622620 0.062082 0.416892
O O13 0.447052 0.132847 0.082077
O O14 0.500000 0.000000 0.000000
O O15 0.977825 0.592381 0.215623
O O16 0.086708 0.831672 0.537012
O O17 0.196042 0.959005 0.431185
O O18 0.000000 0.500000 0.500000
#
# Coordination Sequence:
#
# PCOD9055619 Si02
#       8
#     2   2   2   2   2   2   2   2
#     4  12  27  45  72 103 140 192 239 296 355 430
#     4  12  28  49  73 105 143 193 243 292 358 435
#     4  12  26  45  72 103 146 182 235 303 354 421
#     4  11  23  42  73 104 143 188 235 292 356 427
#     4  11  25  44  75 100 142 191 234 294 358 428
#     4  11  21  42  72 103 135 187 238 284 359 425
#     4  12  23  44  71 103 140 188 239 289 358 428
#     4  11  28  48  71 111 143 184 241 302 360 417
#
# _framework density 21.816901000000001
#
# number of rings (size 3 to 8) (size 9 to 14) (size 15 to 20)
#    0.000    0.500    5.000    2.625    8.750    3.000 
#    4.500    0.000    0.000    0.000    0.000    0.000 
#    0.000    0.000    0.000    0.000    0.000    0.000 
#
# Total GULP energy -89247.512212 kJ/mol
# GULP energy per Si atom -5577.969513 kJ/mol
# Density = 2.176725 g / cm^3
# Si number density = 21.816901 Si / 1000 Ang^3
#
#
#
# Elastic Constant Matrix: (Units=GPa)
#
#
# Indices 1 2 3 4 5 6 
#
# 1 59.7046 6.5771 38.0701 -9.5682 10.2539 -8.6834
# 2 6.5771 80.1398 17.3250 -4.8155 1.4525 -15.1146
# 3 38.0701 17.3250 113.7269 -24.5023 14.0988 -4.7994
# 4 -9.5682 -4.8155 -24.5023 27.5767 3.2806 0.2597
# 5 10.2539 1.4525 14.0988 3.2806 45.8155 5.0004
# 6 -8.6834 -15.1146 -4.7994 0.2597 5.0004 34.6678
#
#
#
# Elastic Compliance Matrix: (Units=1/GPa)
#
#
# Indices 1 2 3 4 5 6 
#
# 1 0.022687 0.000835 -0.006398 0.002750 -0.003955 0.005711
# 2 0.000835 0.014054 -0.001799 0.001187 -0.000841 0.006200
# 3 -0.006398 -0.001799 0.013831 0.010171 -0.003491 -0.000045
# 4 0.002750 0.001187 0.010171 0.047326 -0.007537 0.003347
# 5 -0.003955 -0.000841 -0.003491 -0.007537 0.024940 -0.005381
# 6 0.005711 0.006200 -0.000045 0.003347 -0.005381 0.033724
#
#
# Mechanical properties :
#
#
# Convention : Reuss Voigt Hill
#
# Bulk Modulus (GPa) = 27.89477 41.94618 34.92048
# Shear Modulus (GPa) = 27.28737 34.38527 30.83632
#
# Velocity S-wave (km/s) = 3.54042 3.97430 3.76362
# Velocity P-wave (km/s) = 5.43382 6.35045 5.90994
#
# Compressibility (1/GPa) = 0.03584901
#
# Stress axis : x y z
#
# Youngs Moduli (GPa) = 44.07742 71.15171 72.30208
#
# Poissons Ratio (x) = -0.05943 0.46259
# Poissons Ratio (y) = -0.03681 0.13007
# Poissons Ratio (z) = 0.28201 0.12800
#
# Static dielectric constant tensor:
#      x y z
#    x 1.630140 -0.924130 -0.004240 
#    y -0.924130 -3.363330 -0.322650 
#    z -0.004240 -0.322650 1.746380 
# 
# From -- ./inp_files/307151.got.cif
#   From: 2010.05.17/outbox.cif.g08.bks.cpg/sg2_154_cif.got.tgz:307151.got - 2010.06.03 11:33:40.
