data_PCOD9055838
_publ_section_title
;
Structure prediction by ZEFSAII (Michael W. Deem and Ramdas Pophale) SiO2 
 PCOD9055838
Probable space group: P -1
;
_chemical_formula_sum "Si O2"
_cell_formula_units_Z 14
_cell_length_a 20.449753
_cell_length_b 13.926832
_cell_length_c 8.363685
_cell_angle_alpha 47.356556
_cell_angle_beta 132.223812
_cell_angle_gamma 158.397595
_cell_volume 637.204940
_symmetry_space_group_name_H-M "P -1"
_symmetry_group_IT_number 2
_symmetry_cell_setting 'triclinic'
loop_
_space_group_symop_operation_xyz
x,y,z
-x,-y,-z
loop_
_atom_site_type_symbol
_atom_site_label
_atom_site_fract_x
_atom_site_fract_y
_atom_site_fract_z
Si Si1 0.637803 0.081529 0.467328
Si Si2 0.433647 0.604079 0.882460
Si Si3 0.502043 0.556101 0.622388
Si Si4 0.179685 0.294552 0.535896
Si Si5 0.787712 0.120906 0.413215
Si Si6 0.144556 0.536297 0.330016
Si Si7 0.581610 0.975760 0.958845
O O1 0.797732 0.232342 0.451790
O O2 0.707906 0.271563 0.502109
O O3 0.502317 0.989139 0.238700
O O4 0.549927 0.843294 0.680116
O O5 0.248914 0.345482 0.772466
O O6 0.444508 0.704547 0.947908
O O7 0.515787 0.576406 0.118837
O O8 0.500000 0.500000 0.500000
O O9 0.342083 0.453000 0.510798
O O10 0.698414 0.872779 0.607105
O O11 0.146296 0.406879 0.375253
O O12 0.000000 0.000000 0.500000
O O13 0.959918 0.318557 0.365319
O O14 0.632225 0.982557 0.202432
O O15 0.222738 0.757279 0.106927
#
# Coordination Sequence:
#
# PCOD9055838 Si02
#       7
#     2   2   2   2   2   2   2
#     4  11  22  44  74  97 136 181 232 283 332 410
#     4  11  22  45  73  97 135 186 226 274 352 399
#     4  12  25  46  70 100 139 179 232 278 338 415
#     4  12  25  45  71  98 138 182 227 277 345 412
#     4  12  24  40  69 107 139 176 231 281 336 403
#     4  11  23  45  66 103 137 177 227 283 344 399
#     4  11  21  43  74  94 140 182 227 282 339 405
#
# _framework density 21.970953999999999
#
# number of rings (size 3 to 8) (size 9 to 14) (size 15 to 20)
#    0.000    0.571    5.714    3.429    0.000    0.000 
#    0.000    5.714    0.000    0.000    0.000    0.000 
#    0.000    0.000    0.000    0.000    0.000    0.000 
#
# Total GULP energy -78026.265378 kJ/mol
# GULP energy per Si atom -5573.304670 kJ/mol
# Density = 2.192095 g / cm^3
# Si number density = 21.970954 Si / 1000 Ang^3
#
#
#
# Elastic Constant Matrix: (Units=GPa)
#
#
# Indices 1 2 3 4 5 6 
#
# 1 125.8817 47.0540 13.9316 -2.4721 -8.4301 -6.2266
# 2 47.0540 120.8402 21.8286 7.4052 4.6249 -6.0644
# 3 13.9316 21.8286 96.9880 2.2788 9.7506 -0.6580
# 4 -2.4721 7.4052 2.2788 20.8858 -10.7048 -6.6624
# 5 -8.4301 4.6249 9.7506 -10.7048 16.9211 7.9334
# 6 -6.2266 -6.0644 -0.6580 -6.6624 7.9334 43.4572
#
#
#
# Elastic Compliance Matrix: (Units=1/GPa)
#
#
# Indices 1 2 3 4 5 6 
#
# 1 0.011517 -0.005410 -0.002331 0.011692 0.016090 -0.000285
# 2 -0.005410 0.011714 -0.000211 -0.011251 -0.013655 0.001624
# 3 -0.002331 -0.000211 0.012305 -0.008372 -0.014004 0.001096
# 4 0.011692 -0.011251 -0.008372 0.090681 0.070628 0.000987
# 5 0.016090 -0.013655 -0.014004 0.070628 0.129518 -0.012629
# 6 -0.000285 0.001624 0.001096 0.000987 -0.012629 0.025670
#
#
# Mechanical properties :
#
#
# Convention : Reuss Voigt Hill
#
# Bulk Modulus (GPa) = 50.93872 56.59316 53.76594
# Shear Modulus (GPa) = 16.45532 33.64587 25.05059
#
# Velocity S-wave (km/s) = 2.73968 3.91753 3.38030
# Velocity P-wave (km/s) = 5.76565 6.80271 6.30553
#
# Compressibility (1/GPa) = 0.01963143
#
# Stress axis : x y z
#
# Youngs Moduli (GPa) = 86.82609 85.36935 81.26833
#
# Poissons Ratio (x) = 0.46187 0.18943
# Poissons Ratio (y) = 0.46975 0.01716
# Poissons Ratio (z) = 0.20239 0.01802
#
# Static dielectric constant tensor:
#      x y z
#    x 1.871720 -0.011260 0.021010 
#    y -0.011260 1.836880 0.003160 
#    z 0.021010 0.003160 1.835030 
# 
# From -- ./inp_files/347511.got.cif
#   From: 2010.05.17/outbox.cif.g08.bks.cpg/sg2_174_cif.got.tgz:347511.got - 2010.06.03 11:33:40.
