data_PCOD9055981
_publ_section_title
;
Structure prediction by ZEFSAII (Michael W. Deem and Ramdas Pophale) SiO2 
 PCOD9055981
Probable space group: P -1
;
_chemical_formula_sum "Si O2"
_cell_formula_units_Z 16
_cell_length_a 9.203189
_cell_length_b 14.390782
_cell_length_c 15.890877
_cell_angle_alpha 28.059088
_cell_angle_beta 136.148194
_cell_angle_gamma 133.110773
_cell_volume 678.663466
_symmetry_space_group_name_H-M "P -1"
_symmetry_group_IT_number 2
_symmetry_cell_setting 'triclinic'
loop_
_space_group_symop_operation_xyz
x,y,z
-x,-y,-z
loop_
_atom_site_type_symbol
_atom_site_label
_atom_site_fract_x
_atom_site_fract_y
_atom_site_fract_z
Si Si1 0.067093 0.714791 0.715445
Si Si2 0.882784 0.721249 0.929131
Si Si3 0.992235 0.838483 0.050690
Si Si4 0.282675 0.830733 0.891685
Si Si5 0.418371 0.232425 0.532449
Si Si6 0.347663 0.119662 0.892740
Si Si7 0.638388 0.932821 0.535646
Si Si8 0.859989 0.510310 0.517494
O O1 0.169950 0.743776 0.828426
O O2 0.812489 0.696941 0.630555
O O3 0.171261 0.897381 0.553616
O O4 0.124601 0.509334 0.869706
O O5 0.730295 0.753259 0.763312
O O6 0.110407 0.800199 0.918349
O O7 0.838014 0.828416 0.912914
O O8 0.009573 0.614642 0.265853
O O9 0.208957 0.934109 0.024795
O O10 0.000000 0.000000 0.000000
O O11 0.365470 0.058464 0.718107
O O12 0.496476 0.752565 0.076055
O O13 0.473752 0.139828 0.539855
O O14 0.622857 0.386573 0.517363
O O15 0.192907 0.264343 0.672265
O O16 0.500000 0.000000 0.000000
O O17 0.500000 0.000000 0.500000
O O18 0.000000 0.500000 0.500000
#
# Coordination Sequence:
#
# PCOD9055981 Si02
#       8
#     2   2   2   2   2   2   2   2
#     4  11  24  46  75 112 146 186 247 303 364 445
#     4  12  25  43  76 104 147 189 246 301 363 438
#     4  12  28  49  70 104 149 199 247 304 372 442
#     4  11  21  44  74 111 146 184 241 315 362 433
#     4  11  23  45  78 106 145 193 245 302 370 445
#     4  12  26  45  75 108 144 197 254 307 365 439
#     4  11  26  44  69 112 153 191 233 301 374 434
#     4  12  28  48  74 105 148 202 248 309 380 439
#
# _framework density 23.575748000000001
#
# number of rings (size 3 to 8) (size 9 to 14) (size 15 to 20)
#    0.000    0.500    6.250    1.875    3.500    4.000 
#    0.000    0.000    0.000    0.000    0.000    0.000 
#    0.000    0.000    0.000    0.000    0.000    0.000 
#
# Total GULP energy -89241.600032 kJ/mol
# GULP energy per Si atom -5577.600002 kJ/mol
# Density = 2.352209 g / cm^3
# Si number density = 23.575748 Si / 1000 Ang^3
#
#
#
# Elastic Constant Matrix: (Units=GPa)
#
#
# Indices 1 2 3 4 5 6 
#
# 1 84.4488 -1.2533 12.2321 -6.7204 -7.9078 -25.1426
# 2 -1.2533 41.1414 9.8005 9.1080 -11.5103 -13.0772
# 3 12.2321 9.8005 124.5612 -5.6178 -3.9025 -22.1267
# 4 -6.7204 9.1080 -5.6178 28.2150 -2.8195 -2.7180
# 5 -7.9078 -11.5103 -3.9025 -2.8195 35.3403 1.5803
# 6 -25.1426 -13.0772 -22.1267 -2.7180 1.5803 34.2364
#
#
#
# Elastic Compliance Matrix: (Units=1/GPa)
#
#
# Indices 1 2 3 4 5 6 
#
# 1 0.017341 0.005838 0.001007 0.004515 0.005550 0.015718
# 2 0.005838 0.034397 -0.000392 -0.007124 0.011178 0.016090
# 3 0.001007 -0.000392 0.009339 0.002989 0.001063 0.006814
# 4 0.004515 -0.007124 0.002989 0.040151 0.001972 0.005623
# 5 0.005550 0.011178 0.001063 0.001972 0.033111 0.007660
# 6 0.015718 0.016090 0.006814 0.005623 0.007660 0.051394
#
#
# Mechanical properties :
#
#
# Convention : Reuss Voigt Hill
#
# Bulk Modulus (GPa) = 13.51698 32.41222 22.96460
# Shear Modulus (GPa) = 25.31806 34.84980 30.08393
#
# Velocity S-wave (km/s) = 3.28060 3.84891 3.57607
# Velocity P-wave (km/s) = 4.48282 5.79052 5.17812
#
# Compressibility (1/GPa) = 0.07398103
#
# Stress axis : x y z
#
# Youngs Moduli (GPa) = 57.66720 29.07260 107.08304
#
# Poissons Ratio (x) = -0.16971 -0.10788
# Poissons Ratio (y) = -0.33664 0.04203
# Poissons Ratio (z) = -0.05809 0.01141
#
# Static dielectric constant tensor:
#      x y z
#    x 1.811400 -0.024600 0.022680 
#    y -0.024600 2.098620 0.105570 
#    z 0.022680 0.105570 1.938220 
# 
# From -- ./inp_files/505166.got.cif
#   From: 2010.05.17/outbox.cif.g08.bks.cpg/sg2_253_cif.got.tgz:505166.got - 2010.06.03 11:33:40.
