data_PCOD9055840
_publ_section_title
;
Structure prediction by ZEFSAII (Michael W. Deem and Ramdas Pophale) SiO2 
 PCOD9055840
Probable space group: P -1
;
_chemical_formula_sum "Si O2"
_cell_formula_units_Z 12
_cell_length_a 8.560813
_cell_length_b 16.016559
_cell_length_c 6.381783
_cell_angle_alpha 117.906016
_cell_angle_beta 53.043295
_cell_angle_gamma 131.775949
_cell_volume 518.102776
_symmetry_space_group_name_H-M "P -1"
_symmetry_group_IT_number 2
_symmetry_cell_setting 'triclinic'
loop_
_space_group_symop_operation_xyz
x,y,z
-x,-y,-z
loop_
_atom_site_type_symbol
_atom_site_label
_atom_site_fract_x
_atom_site_fract_y
_atom_site_fract_z
Si Si1 0.947042 0.686277 0.912310
Si Si2 0.779168 0.165146 0.505596
Si Si3 0.690221 0.307314 0.042824
Si Si4 0.641400 0.757984 0.427580
Si Si5 0.237484 0.553006 0.237206
Si Si6 0.609894 0.972453 0.683301
O O1 0.866012 0.759298 0.179368
O O2 0.018069 0.731049 0.669433
O O3 0.150505 0.692094 0.896398
O O4 0.744296 0.554862 0.922628
O O5 0.652359 0.207908 0.805921
O O6 0.606808 0.088255 0.372045
O O7 0.813942 0.084631 0.533429
O O8 0.795596 0.411880 0.924574
O O9 0.463171 0.290556 0.316014
O O10 0.443581 0.665808 0.316404
O O11 0.674012 0.879521 0.548422
O O12 0.000000 0.500000 0.500000
O O13 0.500000 0.000000 0.000000
#
# Coordination Sequence:
#
# PCOD9055840 Si02
#       6
#     2   2   2   2   2   2
#     4  12  26  43  67 105 136 174 228 274 333 400
#     4  11  22  42  73  93 135 178 223 273 333 400
#     4  12  22  45  67  98 136 180 217 275 340 395
#     4  12  26  43  69 104 134 174 229 277 332 395
#     4  12  23  45  71  94 139 184 218 272 337 397
#     4  11  21  43  74  96 129 181 226 271 337 397
#
# _framework density 23.161428999999998
#
# number of rings (size 3 to 8) (size 9 to 14) (size 15 to 20)
#    0.000    0.333    8.333    1.000    0.000    2.667 
#    0.000    3.333    0.000    0.000    0.000    0.000 
#    0.000    0.000    0.000    0.000    0.000    0.000 
#
# Total GULP energy -67007.966204 kJ/mol
# GULP energy per Si atom -5583.997184 kJ/mol
# Density = 2.310871 g / cm^3
# Si number density = 23.161429 Si / 1000 Ang^3
#
#
#
# Elastic Constant Matrix: (Units=GPa)
#
#
# Indices 1 2 3 4 5 6 
#
# 1 35.9364 23.4702 23.5201 -2.3678 7.4765 -3.8667
# 2 23.4702 148.8883 37.9301 -6.1878 11.4315 -47.9295
# 3 23.5201 37.9301 150.7120 10.0603 7.2160 -23.8586
# 4 -2.3678 -6.1878 10.0603 55.1444 1.5509 11.4396
# 5 7.4765 11.4315 7.2160 1.5509 36.4744 11.7618
# 6 -3.8667 -47.9295 -23.8586 11.4396 11.7618 33.9283
#
#
#
# Elastic Compliance Matrix: (Units=1/GPa)
#
#
# Indices 1 2 3 4 5 6 
#
# 1 0.035953 -0.008495 -0.006023 0.004561 0.000789 -0.013950
# 2 -0.008495 0.021065 0.003617 -0.006403 -0.018131 0.039777
# 3 -0.006023 0.003617 0.009646 -0.004536 -0.006441 0.014968
# 4 0.004561 -0.006403 -0.004536 0.022824 0.008172 -0.022243
# 5 0.000789 -0.018131 -0.006441 0.008172 0.050037 -0.050154
# 6 -0.013950 0.039777 0.014968 -0.022243 -0.050154 0.119489
#
#
# Mechanical properties :
#
#
# Convention : Reuss Voigt Hill
#
# Bulk Modulus (GPa) = 22.29122 56.15306 39.22214
# Shear Modulus (GPa) = 16.90508 41.81718 29.36113
#
# Velocity S-wave (km/s) = 2.70456 4.25369 3.56430
# Velocity P-wave (km/s) = 4.40432 6.95859 5.82323
#
# Compressibility (1/GPa) = 0.04486071
#
# Stress axis : x y z
#
# Youngs Moduli (GPa) = 27.81442 47.47186 103.67294
#
# Poissons Ratio (x) = 0.40325 0.62447
# Poissons Ratio (y) = 0.23627 -0.37495
# Poissons Ratio (z) = 0.16754 -0.17169
#
# Static dielectric constant tensor:
#      x y z
#    x 1.916200 0.018660 -0.011860 
#    y 0.018660 1.978300 0.006520 
#    z -0.011860 0.006520 1.856410 
# 
# From -- ./inp_files/36493.got.cif
#   From: 2010.05.17/outbox.cif.g08.bks.cpg/sg2_19_cif.got.tgz:36493.got - 2010.06.03 11:33:40.
