data_PCOD9055748
_publ_section_title
;
Structure prediction by ZEFSAII (Michael W. Deem and Ramdas Pophale) SiO2 
 PCOD9055748
Probable space group: P -1
;
_chemical_formula_sum "Si O2"
_cell_formula_units_Z 14
_cell_length_a 8.652726
_cell_length_b 8.633610
_cell_length_c 12.697337
_cell_angle_alpha 73.056256
_cell_angle_beta 77.964272
_cell_angle_gamma 130.979218
_cell_volume 570.569730
_symmetry_space_group_name_H-M "P -1"
_symmetry_group_IT_number 2
_symmetry_cell_setting 'triclinic'
loop_
_space_group_symop_operation_xyz
x,y,z
-x,-y,-z
loop_
_atom_site_type_symbol
_atom_site_label
_atom_site_fract_x
_atom_site_fract_y
_atom_site_fract_z
Si Si1 0.710317 0.146293 0.679426
Si Si2 0.615861 0.671959 0.221670
Si Si3 0.922679 0.797732 0.628664
Si Si4 0.735010 0.414264 0.188075
Si Si5 0.727759 0.060691 0.981605
Si Si6 0.939215 0.036031 0.755788
Si Si7 0.154321 0.657407 0.603503
O O1 0.724525 0.251443 0.546495
O O2 0.868686 0.374763 0.693899
O O3 0.444800 0.853895 0.791820
O O4 0.894189 0.135795 0.653081
O O5 0.333287 0.462138 0.330596
O O6 0.656188 0.541164 0.169872
O O7 0.684516 0.892798 0.110920
O O8 0.789764 0.777808 0.275517
O O9 0.864996 0.814403 0.752045
O O10 0.129916 0.825026 0.603590
O O11 0.000000 0.000000 0.500000
O O12 0.712216 0.341774 0.327834
O O13 0.026842 0.645315 0.081133
O O14 0.792311 0.997229 0.883190
O O15 0.500000 0.000000 0.000000
#
# Coordination Sequence:
#
# PCOD9055748 Si02
#       7
#     2   2   2   2   2   2   2
#     4  11  22  41  71 103 137 192 226 280 349 409
#     4  11  24  44  72 102 142 184 232 291 350 410
#     4  12  25  45  68 109 145 182 231 284 346 426
#     4  11  21  43  70 100 136 185 235 284 350 407
#     4  11  25  49  74 101 140 182 240 301 341 412
#     4  11  23  46  71 101 141 185 225 284 357 402
#     4  11  23  41  68 103 149 179 231 284 337 417
#
# _framework density 24.536878000000002
#
# number of rings (size 3 to 8) (size 9 to 14) (size 15 to 20)
#    0.000    0.857    5.714    3.000    0.000    2.286 
#    2.571    0.714    0.000    0.000    0.000    0.000 
#    0.000    0.000    0.000    0.000    0.000    0.000 
#
# Total GULP energy -78182.691772 kJ/mol
# GULP energy per Si atom -5584.477984 kJ/mol
# Density = 2.448103 g / cm^3
# Si number density = 24.536878 Si / 1000 Ang^3
#
#
#
# Elastic Constant Matrix: (Units=GPa)
#
#
# Indices 1 2 3 4 5 6 
#
# 1 97.2361 25.0852 13.4202 -14.5816 -0.3896 -0.9439
# 2 25.0852 101.8665 31.4975 -20.8662 -8.9844 19.1817
# 3 13.4202 31.4975 82.9149 -30.5960 9.1668 12.7349
# 4 -14.5816 -20.8662 -30.5960 42.6038 -1.0575 -8.4480
# 5 -0.3896 -8.9844 9.1668 -1.0575 39.1902 -5.6924
# 6 -0.9439 19.1817 12.7349 -8.4480 -5.6924 40.0806
#
#
#
# Elastic Compliance Matrix: (Units=1/GPa)
#
#
# Indices 1 2 3 4 5 6 
#
# 1 0.011435 -0.002586 -0.000080 0.003017 -0.000065 0.002159
# 2 -0.002586 0.013065 -0.003386 0.002310 0.003200 -0.004296
# 3 -0.000080 -0.003386 0.018333 0.010825 -0.005159 -0.002657
# 4 0.003017 0.002310 0.010825 0.033903 -0.000684 0.002575
# 5 -0.000065 0.003200 -0.005159 -0.000684 0.028010 0.003940
# 6 0.002159 -0.004296 -0.002657 0.002575 0.003940 0.029003
#
#
# Mechanical properties :
#
#
# Convention : Reuss Voigt Hill
#
# Bulk Modulus (GPa) = 32.54185 46.89148 39.71667
# Shear Modulus (GPa) = 32.03148 38.50922 35.27035
#
# Velocity S-wave (km/s) = 3.61701 3.96592 3.79548
# Velocity P-wave (km/s) = 5.54391 6.33431 5.95224
#
# Compressibility (1/GPa) = 0.03072966
#
# Stress axis : x y z
#
# Youngs Moduli (GPa) = 87.44786 76.54143 54.54711
#
# Poissons Ratio (x) = 0.19791 0.00435
# Poissons Ratio (y) = 0.22611 0.18471
# Poissons Ratio (z) = 0.00698 0.25918
#
# Static dielectric constant tensor:
#      x y z
#    x 1.953280 -0.034470 0.011020 
#    y -0.034470 2.029290 0.000400 
#    z 0.011020 0.000400 1.989200 
# 
# From -- ./inp_files/494653.got.cif
#   From: 2010.05.17/outbox.cif.g08.bks.cpg/sg2_248_cif.got.tgz:494653.got - 2010.06.03 11:33:40.
