data_PCOD9055696
_publ_section_title
;
Structure prediction by ZEFSAII (Michael W. Deem and Ramdas Pophale) SiO2 
 PCOD9055696
Probable space group: P -1
;
_chemical_formula_sum "Si O2"
_cell_formula_units_Z 16
_cell_length_a 9.717295
_cell_length_b 8.577354
_cell_length_c 11.403562
_cell_angle_alpha 58.068665
_cell_angle_beta 94.610354
_cell_angle_gamma 105.562993
_cell_volume 774.870529
_symmetry_space_group_name_H-M "P -1"
_symmetry_group_IT_number 2
_symmetry_cell_setting 'triclinic'
loop_
_space_group_symop_operation_xyz
x,y,z
-x,-y,-z
loop_
_atom_site_type_symbol
_atom_site_label
_atom_site_fract_x
_atom_site_fract_y
_atom_site_fract_z
Si Si1 0.530196 0.501039 0.639692
Si Si2 0.323505 0.680196 0.689935
Si Si3 0.182933 0.253672 0.445160
Si Si4 0.385267 0.106002 0.911700
Si Si5 0.875491 0.896983 0.741039
Si Si6 0.910955 0.300854 0.519279
Si Si7 0.790074 0.045584 0.258839
Si Si8 0.660081 0.626147 0.002841
O O1 0.500000 0.500000 0.500000
O O2 0.470291 0.654921 0.649965
O O3 0.700543 0.550616 0.646905
O O4 0.456849 0.296343 0.768115
O O5 0.223785 0.672888 0.572425
O O6 0.300472 0.850795 0.703365
O O7 0.283257 0.506542 0.849456
O O8 0.181275 0.118615 0.389514
O O9 0.023026 0.263275 0.447063
O O10 0.227116 0.160706 0.601483
O O11 0.339395 0.187793 0.995278
O O12 0.269484 0.976329 0.868238
O O13 0.500000 0.000000 0.000000
O O14 0.037005 0.872866 0.765131
O O15 0.881172 0.119529 0.678572
O O16 0.768413 0.720946 0.869808
O O17 0.000000 0.500000 0.500000
O O18 0.500000 0.500000 0.000000
#
# Coordination Sequence:
#
# PCOD9055696 Si02
#       8
#     2   2   2   2   2   2   2   2
#     4  11  23  41  67  97 133 178 221 279 337 388
#     4  11  23  43  65  99 133 171 227 280 329 397
#     4  11  21  43  66  97 136 173 223 279 333 396
#     4  11  25  44  65  93 139 175 221 281 332 401
#     4  11  23  44  70  95 135 185 220 268 349 402
#     4  11  23  41  67 100 135 172 227 280 327 398
#     4  11  22  43  67  98 135 173 225 282 332 404
#     4  11  26  47  66  98 139 178 223 279 338 404
#
# _framework density 20.648610000000001
#
# number of rings (size 3 to 8) (size 9 to 14) (size 15 to 20)
#    0.000    1.000    3.750    3.750    5.250    3.500 
#    4.500    0.000    0.000    0.000    0.000    0.000 
#    0.000    0.000    0.000    0.000    0.000    0.000 
#
# Total GULP energy -89151.834789 kJ/mol
# GULP energy per Si atom -5571.989674 kJ/mol
# Density = 2.060161 g / cm^3
# Si number density = 20.648610 Si / 1000 Ang^3
#
#
#
# Elastic Constant Matrix: (Units=GPa)
#
#
# Indices 1 2 3 4 5 6 
#
# 1 82.5553 12.3441 42.8716 -3.4017 -1.4870 13.2952
# 2 12.3441 65.6826 13.2357 12.8707 -0.8310 9.3953
# 3 42.8716 13.2357 66.0092 8.8353 -5.9229 1.0314
# 4 -3.4017 12.8707 8.8353 30.2868 6.7518 4.6978
# 5 -1.4870 -0.8310 -5.9229 6.7518 41.0452 -5.3650
# 6 13.2952 9.3953 1.0314 4.6978 -5.3650 32.6387
#
#
#
# Elastic Compliance Matrix: (Units=1/GPa)
#
#
# Indices 1 2 3 4 5 6 
#
# 1 0.022828 -0.001664 -0.016177 0.010682 -0.004686 -0.010616
# 2 -0.001664 0.017656 -0.001404 -0.006963 0.000819 -0.003223
# 3 -0.016177 -0.001404 0.028033 -0.012264 0.006619 0.008961
# 4 0.010682 -0.006963 -0.012264 0.044580 -0.010170 -0.010047
# 5 -0.004686 0.000819 0.006619 -0.010170 0.027819 0.007500
# 6 -0.010616 -0.003223 0.008961 -0.010047 0.007500 0.038287
#
#
# Mechanical properties :
#
#
# Convention : Reuss Voigt Hill
#
# Bulk Modulus (GPa) = 33.30263 39.01666 36.15965
# Shear Modulus (GPa) = 21.95855 30.51386 26.23620
#
# Velocity S-wave (km/s) = 3.26458 3.84835 3.56842
# Velocity P-wave (km/s) = 5.51119 6.21956 5.87606
#
# Compressibility (1/GPa) = 0.03002766
#
# Stress axis : x y z
#
# Youngs Moduli (GPa) = 43.80535 56.63731 35.67231
#
# Poissons Ratio (x) = 0.09426 0.57707
# Poissons Ratio (y) = 0.07290 0.05007
# Poissons Ratio (z) = 0.70864 0.07950
#
# Static dielectric constant tensor:
#      x y z
#    x 1.739760 0.089850 0.004040 
#    y 0.089850 1.865980 0.009210 
#    z 0.004040 0.009210 1.712710 
# 
# From -- ./inp_files/377985.got.cif
#   From: 2010.05.17/outbox.cif.g08.bks.cpg/sg2_189_cif.got.tgz:377985.got - 2010.06.03 11:33:40.
