data_PCOD9055029
_publ_section_title
;
Structure prediction by ZEFSAII (Michael W. Deem and Ramdas Pophale) SiO2 
 PCOD9055029
Probable space group: P -1
;
_chemical_formula_sum "Si O2"
_cell_formula_units_Z 16
_cell_length_a 12.168118
_cell_length_b 18.045010
_cell_length_c 10.433084
_cell_angle_alpha 44.719832
_cell_angle_beta 53.046816
_cell_angle_gamma 27.961957
_cell_volume 753.375255
_symmetry_space_group_name_H-M "P -1"
_symmetry_group_IT_number 2
_symmetry_cell_setting 'triclinic'
loop_
_space_group_symop_operation_xyz
x,y,z
-x,-y,-z
loop_
_atom_site_type_symbol
_atom_site_label
_atom_site_fract_x
_atom_site_fract_y
_atom_site_fract_z
Si Si1 0.137279 0.696165 0.662680
Si Si2 0.500324 0.831906 0.742212
Si Si3 0.452813 0.141057 0.796817
Si Si4 0.642962 0.940403 0.665977
Si Si5 0.030086 0.456713 0.382821
Si Si6 0.820154 0.374008 0.582716
Si Si7 0.331085 0.785305 0.374140
Si Si8 0.373768 0.713559 0.128356
O O1 0.172927 0.654046 0.538032
O O2 0.138148 0.822854 0.516572
O O3 0.364402 0.499965 0.806236
O O4 0.891439 0.794096 0.743855
O O5 0.350003 0.992875 0.548884
O O6 0.736069 0.652638 0.720024
O O7 0.577491 0.864064 0.761780
O O8 0.364318 0.817967 0.913029
O O9 0.459508 0.110299 0.679367
O O10 0.202041 0.346169 0.759923
O O11 0.652280 0.103362 0.736938
O O12 0.500000 0.000000 0.000000
O O13 0.011692 0.341459 0.522959
O O14 0.000000 0.500000 0.500000
O O15 0.569104 0.587850 0.511195
O O16 0.806833 0.270191 0.789667
O O17 0.343696 0.767221 0.232502
#
# Coordination Sequence:
#
# PCOD9055029 Si02
#       8
#     2   2   2   2   2   2   2   2
#     4   9  17  34  60  83 106 146 187 231 278 326
#     4  11  23  38  57  85 114 149 190 228 274 337
#     4  11  23  37  56  85 116 144 186 236 280 327
#     4  11  23  37  55  83 121 145 182 235 283 322
#     4  11  21  40  60  78 113 160 183 217 290 341
#     4   8  16  35  59  83 108 146 188 228 275 333
#     4   8  17  35  57  82 114 145 180 229 289 327
#     4   9  18  35  62  86 106 141 196 234 264 332
#
# _framework density 21.237756000000001
#
# number of rings (size 3 to 8) (size 9 to 14) (size 15 to 20)
#    0.000    2.250    2.500    2.250    1.750    1.000 
#    0.000    4.375    0.000    0.000    0.000    0.000 
#    0.000    0.000    0.000    0.000    0.000    0.000 
#
# Total GULP energy -89247.352983 kJ/mol
# GULP energy per Si atom -5577.959561 kJ/mol
# Density = 2.118942 g / cm^3
# Si number density = 21.237756 Si / 1000 Ang^3
#
#
#
# Elastic Constant Matrix: (Units=GPa)
#
#
# Indices 1 2 3 4 5 6 
#
# 1 58.5455 -0.4301 32.6353 -4.4757 -17.4711 18.2854
# 2 -0.4301 57.3396 3.0286 -8.2479 -2.3073 5.8939
# 3 32.6353 3.0286 110.5519 6.0815 -35.3168 9.0005
# 4 -4.4757 -8.2479 6.0815 20.3866 2.2719 0.7915
# 5 -17.4711 -2.3073 -35.3168 2.2719 25.9228 -6.6201
# 6 18.2854 5.8939 9.0005 0.7915 -6.6201 27.8773
#
#
#
# Elastic Compliance Matrix: (Units=1/GPa)
#
#
# Indices 1 2 3 4 5 6 
#
# 1 0.027795 0.003698 -0.005252 0.008995 0.007058 -0.015896
# 2 0.003698 0.019582 -0.001907 0.009647 -0.000849 -0.006426
# 3 -0.005252 -0.001907 0.018236 -0.010067 0.022963 0.003699
# 4 0.008995 0.009647 -0.010067 0.059938 -0.014563 -0.009850
# 5 0.007058 -0.000849 0.022963 -0.014563 0.077599 0.006977
# 6 -0.015896 -0.006426 0.003699 -0.009850 0.006977 0.048399
#
#
# Mechanical properties :
#
#
# Convention : Reuss Voigt Hill
#
# Bulk Modulus (GPa) = 17.03843 32.98939 25.01391
# Shear Modulus (GPa) = 17.98325 27.58423 22.78374
#
# Velocity S-wave (km/s) = 2.91307 3.60784 3.27891
# Velocity P-wave (km/s) = 4.39940 5.73781 5.11259
#
# Compressibility (1/GPa) = 0.05869084
#
# Stress axis : x y z
#
# Youngs Moduli (GPa) = 35.97827 51.06617 54.83520
#
# Poissons Ratio (x) = -0.18883 0.28800
# Poissons Ratio (y) = -0.13304 0.10457
# Poissons Ratio (z) = 0.18896 0.09738
#
# Static dielectric constant tensor:
#      x y z
#    x 1.806390 -0.015560 0.004990 
#    y -0.015560 1.823730 -0.003140 
#    z 0.004990 -0.003140 1.780770 
# 
# From -- ./inp_files/204263.got.cif
#   From: 2010.05.17/outbox.cif.g08.bks.cpg/sg2_103_cif.got.tgz:204263.got - 2010.06.03 11:33:40.
