data_PCOD9055758
_publ_section_title
;
Structure prediction by ZEFSAII (Michael W. Deem and Ramdas Pophale) SiO2 
 PCOD9055758
Probable space group: P -1
;
_chemical_formula_sum "Si O2"
_cell_formula_units_Z 16
_cell_length_a 11.926735
_cell_length_b 14.598155
_cell_length_c 13.378033
_cell_angle_alpha 42.674390
_cell_angle_beta 63.540365
_cell_angle_gamma 29.905500
_cell_volume 648.169840
_symmetry_space_group_name_H-M "P -1"
_symmetry_group_IT_number 2
_symmetry_cell_setting 'triclinic'
loop_
_space_group_symop_operation_xyz
x,y,z
-x,-y,-z
loop_
_atom_site_type_symbol
_atom_site_label
_atom_site_fract_x
_atom_site_fract_y
_atom_site_fract_z
Si Si1 0.176143 0.146688 0.820524
Si Si2 0.778823 0.151039 0.275798
Si Si3 0.674146 0.413111 0.583759
Si Si4 0.086102 0.238314 0.332770
Si Si5 0.550833 0.841651 0.303212
Si Si6 0.249916 0.656654 0.176014
Si Si7 0.260298 0.512739 0.913702
Si Si8 0.121890 0.281639 0.949547
O O1 0.235226 0.244966 0.690553
O O2 0.192894 0.124265 0.952319
O O3 0.886253 0.359497 0.739758
O O4 0.418983 0.824193 0.936692
O O5 0.447179 0.465345 0.154601
O O6 0.827993 0.249043 0.227411
O O7 0.851436 0.949660 0.473600
O O8 0.003925 0.929656 0.277238
O O9 0.500000 0.500000 0.500000
O O10 0.644525 0.601944 0.429580
O O11 0.581268 0.471657 0.687042
O O12 0.846526 0.431895 0.195480
O O13 0.995608 0.461458 0.244937
O O14 0.344015 0.025536 0.330736
O O15 0.371988 0.062274 0.102025
O O16 0.000000 0.000000 0.000000
O O17 0.106898 0.571762 0.010504
#
# Coordination Sequence:
#
# PCOD9055758 Si02
#       8
#     2   2   2   2   2   2   2   2
#     4  12  25  44  73 103 148 197 245 299 366 438
#     4  12  27  45  72 107 147 196 239 306 371 433
#     4  12  29  49  79 112 145 188 250 308 370 442
#     4  11  21  43  70 111 148 182 248 306 376 420
#     4  11  22  45  73 109 150 189 243 312 360 435
#     4  12  30  50  70 106 152 201 245 299 371 442
#     4  11  23  40  69 105 147 187 240 314 360 432
#     4  11  23  41  72 111 141 188 250 299 369 444
#
# _framework density 24.684888000000001
#
# number of rings (size 3 to 8) (size 9 to 14) (size 15 to 20)
#    0.000    0.500    5.000    3.750    7.000    2.000 
#    0.000    1.250    0.000    0.000    0.000    0.000 
#    0.000    0.000    0.000    0.000    0.000    0.000 
#
# Total GULP energy -89605.871055 kJ/mol
# GULP energy per Si atom -5600.366941 kJ/mol
# Density = 2.462870 g / cm^3
# Si number density = 24.684888 Si / 1000 Ang^3
#
#
#
# Elastic Constant Matrix: (Units=GPa)
#
#
# Indices 1 2 3 4 5 6 
#
# 1 96.3185 22.6364 26.6531 -5.5402 -18.0491 -13.3031
# 2 22.6364 107.8358 18.7547 -27.8106 -5.7068 -1.4968
# 3 26.6531 18.7547 101.9262 -13.1192 -27.4229 6.9607
# 4 -5.5402 -27.8106 -13.1192 41.2005 3.3085 -0.9452
# 5 -18.0491 -5.7068 -27.4229 3.3085 44.1999 -6.3450
# 6 -13.3031 -1.4968 6.9607 -0.9452 -6.3450 35.0994
#
#
#
# Elastic Compliance Matrix: (Units=1/GPa)
#
#
# Indices 1 2 3 4 5 6 
#
# 1 0.013227 -0.002220 -0.002320 -0.000687 0.004616 0.006194
# 2 -0.002220 0.011763 -0.000731 0.007440 -0.000408 -0.000068
# 3 -0.002320 -0.000731 0.012761 0.002696 0.006355 -0.002220
# 4 -0.000687 0.007440 0.002696 0.030055 0.000155 0.000359
# 5 0.004616 -0.000408 0.006355 0.000155 0.029214 0.005757
# 6 0.006194 -0.000068 -0.002220 0.000359 0.005757 0.032326
#
#
# Mechanical properties :
#
#
# Convention : Reuss Voigt Hill
#
# Bulk Modulus (GPa) = 36.75443 49.12988 42.94215
# Shear Modulus (GPa) = 33.56655 39.96904 36.76780
#
# Velocity S-wave (km/s) = 3.69155 4.02826 3.86357
# Velocity P-wave (km/s) = 5.75255 6.44840 6.11039
#
# Compressibility (1/GPa) = 0.02720761
#
# Stress axis : x y z
#
# Youngs Moduli (GPa) = 75.60339 85.01435 78.36605
#
# Poissons Ratio (x) = 0.18873 0.18180
# Poissons Ratio (y) = 0.16784 0.05732
# Poissons Ratio (z) = 0.17539 0.06219
#
# Static dielectric constant tensor:
#      x y z
#    x 1.937070 -0.041280 0.002950 
#    y -0.041280 1.964770 -0.008340 
#    z 0.002950 -0.008340 1.961670 
# 
# From -- ./inp_files/522240.got.cif
#   From: 2010.05.17/outbox.cif.g08.bks.cpg/sg2_262_cif.got.tgz:522240.got - 2010.06.03 11:33:40.
