data_PCOD9055107
_publ_section_title
;
Structure prediction by ZEFSAII (Michael W. Deem and Ramdas Pophale) SiO2 
 PCOD9055107
Probable space group: P -1
;
_chemical_formula_sum "Si O2"
_cell_formula_units_Z 16
_cell_length_a 11.857055
_cell_length_b 11.499748
_cell_length_c 11.310896
_cell_angle_alpha 47.430417
_cell_angle_beta 60.316042
_cell_angle_gamma 98.258166
_cell_volume 654.809701
_symmetry_space_group_name_H-M "P -1"
_symmetry_group_IT_number 2
_symmetry_cell_setting 'triclinic'
loop_
_space_group_symop_operation_xyz
x,y,z
-x,-y,-z
loop_
_atom_site_type_symbol
_atom_site_label
_atom_site_fract_x
_atom_site_fract_y
_atom_site_fract_z
Si Si1 0.682338 0.247111 0.891008
Si Si2 0.091037 0.904604 0.534629
Si Si3 0.456280 0.637171 0.958462
Si Si4 0.826559 0.096737 0.079120
Si Si5 0.131285 0.375397 0.925463
Si Si6 0.688714 0.767546 0.167804
Si Si7 0.264132 0.888342 0.254742
Si Si8 0.457280 0.790203 0.616435
O O1 0.795446 0.303128 0.674473
O O2 0.675848 0.418428 0.827600
O O3 0.455113 0.003158 0.146140
O O4 0.750848 0.188572 0.995741
O O5 0.000127 0.741229 0.809487
O O6 0.322798 0.110980 0.299699
O O7 0.092390 0.801132 0.485573
O O8 0.000000 0.000000 0.500000
O O9 0.371205 0.624278 0.888716
O O10 0.500000 0.500000 0.000000
O O11 0.818625 0.955810 0.078812
O O12 0.660197 0.896452 0.398064
O O13 0.019083 0.306564 0.910052
O O14 0.203860 0.262457 0.948101
O O15 0.314069 0.650237 0.675794
O O16 0.500000 0.500000 0.500000
O O17 0.655605 0.890381 0.018271
O O18 0.500000 0.000000 0.500000
#
# Coordination Sequence:
#
# PCOD9055107 Si02
#       8
#     2   2   2   2   2   2   2   2
#     4   9  20  41  68  97 140 187 243 294 356 435
#     4  11  21  40  67 106 148 184 241 305 363 433
#     4  11  23  40  69 100 143 193 241 304 360 437
#     4  11  23  44  69 105 144 188 242 300 364 439
#     4  12  25  43  72 110 145 190 244 306 362 436
#     4  11  22  41  75 106 144 192 245 299 367 433
#     4   9  20  39  70 102 142 197 237 297 367 431
#     4  12  25  45  68 103 143 189 239 294 374 435
#
# _framework density 24.434581000000001
#
# number of rings (size 3 to 8) (size 9 to 14) (size 15 to 20)
#    0.000    1.250    5.000    1.125    1.750    0.500 
#    0.000    0.000    0.000    3.750    0.000    0.000 
#    0.000    0.000    0.000    0.000    0.000    0.000 
#
# Total GULP energy -89402.070130 kJ/mol
# GULP energy per Si atom -5587.629383 kJ/mol
# Density = 2.437897 g / cm^3
# Si number density = 24.434581 Si / 1000 Ang^3
#
#
#
# Elastic Constant Matrix: (Units=GPa)
#
#
# Indices 1 2 3 4 5 6 
#
# 1 117.1392 52.9293 23.3104 -14.4921 -4.4128 14.4038
# 2 52.9293 216.5547 42.8965 10.9615 -7.7005 -14.5002
# 3 23.3104 42.8965 42.0345 8.6532 -2.9922 -0.7220
# 4 -14.4921 10.9615 8.6532 47.0108 9.6186 -19.0748
# 5 -4.4128 -7.7005 -2.9922 9.6186 33.7120 -6.7371
# 6 14.4038 -14.5002 -0.7220 -19.0748 -6.7371 46.8842
#
#
#
# Elastic Compliance Matrix: (Units=1/GPa)
#
#
# Indices 1 2 3 4 5 6 
#
# 1 0.011324 -0.002211 -0.004986 0.004043 -0.001171 -0.002763
# 2 -0.002211 0.006410 -0.005075 -0.000473 0.001377 0.002589
# 3 -0.004986 -0.005075 0.033579 -0.008121 0.003007 -0.002392
# 4 0.004043 -0.000473 -0.008121 0.029346 -0.006784 0.009451
# 5 -0.001171 0.001377 0.003007 -0.006784 0.032577 0.002753
# 6 -0.002763 0.002589 -0.002392 0.009451 0.002753 0.027183
#
#
# Mechanical properties :
#
#
# Convention : Reuss Voigt Hill
#
# Bulk Modulus (GPa) = 37.35854 68.22232 52.79043
# Shear Modulus (GPa) = 28.75450 42.62756 35.69103
#
# Velocity S-wave (km/s) = 3.43417 4.18132 3.82603
# Velocity P-wave (km/s) = 5.57199 7.16186 6.41636
#
# Compressibility (1/GPa) = 0.02676764
#
# Stress axis : x y z
#
# Youngs Moduli (GPa) = 88.30703 156.01058 29.78065
#
# Poissons Ratio (x) = 0.34500 0.14849
# Poissons Ratio (y) = 0.19528 0.15114
# Poissons Ratio (z) = 0.44031 0.79176
#
# Static dielectric constant tensor:
#      x y z
#    x 1.943030 0.009840 0.003350 
#    y 0.009840 2.398260 -0.128240 
#    z 0.003350 -0.128240 2.013840 
# 
# From -- ./inp_files/427548.got.cif
#   From: 2010.05.17/outbox.cif.g08.bks.cpg/sg2_214_cif.got.tgz:427548.got - 2010.06.03 11:33:40.
