data_PCOD9055723
_publ_section_title
;
Structure prediction by ZEFSAII (Michael W. Deem and Ramdas Pophale) SiO2 
 PCOD9055723
Probable space group: P -1
;
_chemical_formula_sum "Si O2"
_cell_formula_units_Z 14
_cell_length_a 9.146832
_cell_length_b 8.786069
_cell_length_c 11.440319
_cell_angle_alpha 43.935428
_cell_angle_beta 81.759593
_cell_angle_gamma 82.714682
_cell_volume 630.962429
_symmetry_space_group_name_H-M "P -1"
_symmetry_group_IT_number 2
_symmetry_cell_setting 'triclinic'
loop_
_space_group_symop_operation_xyz
x,y,z
-x,-y,-z
loop_
_atom_site_type_symbol
_atom_site_label
_atom_site_fract_x
_atom_site_fract_y
_atom_site_fract_z
Si Si1 0.449717 0.879199 0.687656
Si Si2 0.878175 0.629386 0.288419
Si Si3 0.087703 0.332894 0.001386
Si Si4 0.214184 0.642307 0.336810
Si Si5 0.198374 0.907625 0.860452
Si Si6 0.367999 0.086230 0.126085
Si Si7 0.415888 0.578959 0.155359
O O1 0.277506 0.912051 0.722751
O O2 0.530499 0.969887 0.743493
O O3 0.502497 0.624925 0.805269
O O4 0.500000 0.000000 0.500000
O O5 0.870629 0.580604 0.179278
O O6 0.807624 0.451239 0.479487
O O7 0.051901 0.642197 0.296790
O O8 0.797257 0.863044 0.198358
O O9 0.234635 0.246634 0.094955
O O10 0.000000 0.500000 0.000000
O O11 0.973317 0.141337 0.099834
O O12 0.333220 0.502080 0.323797
O O13 0.287115 0.878750 0.199378
O O14 0.286299 0.707198 0.025961
O O15 0.464718 0.231652 0.947684
#
# Coordination Sequence:
#
# PCOD9055723 Si02
#       7
#     2   2   2   2   2   2   2
#     4  11  25  45  67  97 139 177 215 276 347 388
#     4  11  24  42  66  98 140 177 217 276 342 383
#     4  12  23  41  67  99 129 174 229 273 322 400
#     4  11  23  42  66 101 137 176 219 278 332 391
#     4  11  21  43  68  93 133 182 219 263 334 400
#     4  11  24  41  66 101 129 173 234 269 320 406
#     4  11  22  43  69  96 134 177 220 270 332 398
#
# _framework density 22.188327000000001
#
# number of rings (size 3 to 8) (size 9 to 14) (size 15 to 20)
#    0.000    0.857    2.857    6.000    0.000    3.429 
#    0.000    5.714    0.000    0.000    0.000    0.000 
#    0.000    0.000    0.000    0.000    0.000    0.000 
#
# Total GULP energy -78272.335700 kJ/mol
# GULP energy per Si atom -5590.881121 kJ/mol
# Density = 2.213783 g / cm^3
# Si number density = 22.188327 Si / 1000 Ang^3
#
#
#
# Elastic Constant Matrix: (Units=GPa)
#
#
# Indices 1 2 3 4 5 6 
#
# 1 83.2146 -2.1824 22.1194 3.8278 -18.7720 -11.7596
# 2 -2.1824 90.3620 21.1998 6.8389 -8.2572 -25.2622
# 3 22.1194 21.1998 95.1473 21.3646 -21.0966 -6.7348
# 4 3.8278 6.8389 21.3646 40.7423 -7.6025 -8.1415
# 5 -18.7720 -8.2572 -21.0966 -7.6025 32.7064 2.1874
# 6 -11.7596 -25.2622 -6.7348 -8.1415 2.1874 39.8317
#
#
#
# Elastic Compliance Matrix: (Units=1/GPa)
#
#
# Indices 1 2 3 4 5 6 
#
# 1 0.015378 0.003273 -0.002542 0.002080 0.008084 0.006168
# 2 0.003273 0.014822 -0.002910 0.001355 0.003392 0.009965
# 3 -0.002542 -0.002910 0.014246 -0.006023 0.005711 -0.001732
# 4 0.002080 0.001355 -0.006023 0.029276 0.004040 0.006217
# 5 0.008084 0.003392 0.005711 0.004040 0.040419 0.004110
# 6 0.006168 0.009965 -0.001732 0.006217 0.004110 0.033999
#
#
# Mechanical properties :
#
#
# Convention : Reuss Voigt Hill
#
# Bulk Modulus (GPa) = 24.94558 38.99972 31.97265
# Shear Modulus (GPa) = 30.14575 37.82855 33.98715
#
# Velocity S-wave (km/s) = 3.68996 4.13351 3.91801
# Velocity P-wave (km/s) = 5.42416 6.35578 5.90836
#
# Compressibility (1/GPa) = 0.04008726
#
# Stress axis : x y z
#
# Youngs Moduli (GPa) = 65.02661 67.46803 70.19733
#
# Poissons Ratio (x) = -0.22085 0.17848
# Poissons Ratio (y) = -0.21286 0.20429
# Poissons Ratio (z) = 0.16533 0.19634
#
# Static dielectric constant tensor:
#      x y z
#    x 1.820640 0.006990 -0.017410 
#    y 0.006990 1.843790 -0.002340 
#    z -0.017410 -0.002340 1.831210 
# 
# From -- ./inp_files/153882.got.cif
#   From: 2010.05.17/outbox.cif.g08.bks.cpg/sg2_77_cif.got.tgz:153882.got - 2010.06.03 11:33:40.
