data_PCOD9055427
_publ_section_title
;
Structure prediction by ZEFSAII (Michael W. Deem and Ramdas Pophale) SiO2 
 PCOD9055427
Probable space group: P -1
;
_chemical_formula_sum "Si O2"
_cell_formula_units_Z 15
_cell_length_a 8.544902
_cell_length_b 9.376859
_cell_length_c 11.337058
_cell_angle_alpha 125.740169
_cell_angle_beta 115.185600
_cell_angle_gamma 65.436875
_cell_volume 649.710643
_symmetry_space_group_name_H-M "P -1"
_symmetry_group_IT_number 2
_symmetry_cell_setting 'triclinic'
loop_
_space_group_symop_operation_xyz
x,y,z
-x,-y,-z
loop_
_atom_site_type_symbol
_atom_site_label
_atom_site_fract_x
_atom_site_fract_y
_atom_site_fract_z
Si Si1 0.524831 0.461639 0.728463
Si Si2 0.088676 0.519832 0.411009
Si Si3 0.886336 0.532219 0.860277
Si Si4 0.500000 0.500000 0.000000
Si Si5 0.605106 0.809611 0.580957
Si Si6 0.237845 0.885100 0.141865
Si Si7 0.816147 0.937185 0.044490
Si Si8 0.318810 0.784833 0.659140
O O1 0.736121 0.417686 0.755555
O O2 0.437804 0.291007 0.598183
O O3 0.441693 0.606410 0.671365
O O4 0.466302 0.555614 0.878269
O O5 0.004756 0.503378 0.245939
O O6 0.251059 0.344348 0.378992
O O7 0.150994 0.707183 0.526720
O O8 0.000000 0.500000 0.500000
O O9 0.778399 0.739392 0.935622
O O10 0.000000 0.500000 0.000000
O O11 0.356312 0.684736 0.087090
O O12 0.426272 0.849227 0.619488
O O13 0.687460 0.982378 0.683151
O O14 0.030279 0.899236 0.104048
O O15 0.244384 0.967312 0.052489
O O16 0.732680 0.060736 0.185531
#
# Coordination Sequence:
#
# PCOD9055427 Si02
#       8
#     2   2   2   1   2   2   2   2
#     4  11  23  43  67 105 135 183 233 292 354 420
#     4  11  22  40  71 107 140 188 239 286 354 424
#     4  12  25  44  70 102 148 183 231 298 358 417
#     4  12  26  42  70 102 146 180 232 302 360 410
#     4  11  22  43  72  97 135 185 240 287 345 429
#     4  11  24  43  67 103 142 182 236 291 352 418
#     4  11  24  42  69 103 140 185 235 287 353 432
#     4  11  21  41  73 100 131 184 237 292 342 427
#
# _framework density 23.087201
#
# number of rings (size 3 to 8) (size 9 to 14) (size 15 to 20)
#    0.000    0.800    5.333    2.400    3.733    3.733 
#    0.000    0.667    2.933    0.000    0.000    0.000 
#    0.000    0.000    0.000    0.000    0.000    0.000 
#
# Total GULP energy -83631.844197 kJ/mol
# GULP energy per Si atom -5575.456280 kJ/mol
# Density = 2.303465 g / cm^3
# Si number density = 23.087201 Si / 1000 Ang^3
#
#
#
# Elastic Constant Matrix: (Units=GPa)
#
#
# Indices 1 2 3 4 5 6 
#
# 1 55.2195 2.6592 48.9514 5.2490 -9.6502 6.9275
# 2 2.6592 65.7960 15.5246 0.4827 4.3375 -12.2314
# 3 48.9514 15.5246 111.9808 -6.8047 -11.1837 9.0120
# 4 5.2490 0.4827 -6.8047 37.5672 6.3054 -10.5884
# 5 -9.6502 4.3375 -11.1837 6.3054 46.3965 -2.8439
# 6 6.9275 -12.2314 9.0120 -10.5884 -2.8439 24.5054
#
#
#
# Elastic Compliance Matrix: (Units=1/GPa)
#
#
# Indices 1 2 3 4 5 6 
#
# 1 0.033419 0.000296 -0.014189 -0.010235 0.004404 -0.007993
# 2 0.000296 0.018254 -0.003624 0.002599 -0.002183 0.011230
# 3 -0.014189 -0.003624 0.016099 0.004350 0.000568 -0.001773
# 4 -0.010235 0.002599 0.004350 0.034393 -0.004963 0.016876
# 5 0.004404 -0.002183 0.000568 -0.004963 0.023364 -0.001977
# 6 -0.007993 0.011230 -0.001773 0.016876 -0.001977 0.056386
#
#
# Mechanical properties :
#
#
# Convention : Reuss Voigt Hill
#
# Bulk Modulus (GPa) = 30.54517 40.80741 35.67629
# Shear Modulus (GPa) = 21.94327 32.75122 27.34724
#
# Velocity S-wave (km/s) = 3.08628 3.77050 3.44542
# Velocity P-wave (km/s) = 5.09502 6.05552 5.59592
#
# Compressibility (1/GPa) = 0.03273840
#
# Stress axis : x y z
#
# Youngs Moduli (GPa) = 29.92349 54.78214 62.11697
#
# Poissons Ratio (x) = -0.01622 0.88135
# Poissons Ratio (y) = -0.00886 0.22511
# Poissons Ratio (z) = 0.42457 0.19853
#
# Static dielectric constant tensor:
#      x y z
#    x 1.860460 -0.006440 0.053040 
#    y -0.006440 1.848750 -0.034410 
#    z 0.053040 -0.034410 1.888650 
# 
# From -- ./inp_files/380694.got.cif
#   From: 2010.05.17/outbox.cif.g08.bks.cpg/sg2_191_cif.got.tgz:380694.got - 2010.06.03 11:33:40.
