data_PCOD9055796
_publ_section_title
;
Structure prediction by ZEFSAII (Michael W. Deem and Ramdas Pophale) SiO2 
 PCOD9055796
Probable space group: P -1
;
_chemical_formula_sum "Si O2"
_cell_formula_units_Z 16
_cell_length_a 8.804663
_cell_length_b 15.260307
_cell_length_c 11.889618
_cell_angle_alpha 28.024333
_cell_angle_beta 65.709335
_cell_angle_gamma 73.135158
_cell_volume 674.118474
_symmetry_space_group_name_H-M "P -1"
_symmetry_group_IT_number 2
_symmetry_cell_setting 'triclinic'
loop_
_space_group_symop_operation_xyz
x,y,z
-x,-y,-z
loop_
_atom_site_type_symbol
_atom_site_label
_atom_site_fract_x
_atom_site_fract_y
_atom_site_fract_z
Si Si1 0.778254 0.291617 0.692892
Si Si2 0.740768 0.744055 0.953029
Si Si3 0.878400 0.059568 0.129358
Si Si4 0.689310 0.030795 0.454961
Si Si5 0.147573 0.381970 0.404887
Si Si6 0.428006 0.445644 0.429264
Si Si7 0.267923 0.082290 0.004458
Si Si8 0.086575 0.615685 0.948726
O O1 0.647291 0.432867 0.588557
O O2 0.966754 0.404491 0.486767
O O3 0.787084 0.173271 0.938789
O O4 0.737375 0.132949 0.788441
O O5 0.931046 0.706849 0.941918
O O6 0.715306 0.850592 0.724497
O O7 0.613653 0.546301 0.225797
O O8 0.701626 0.872681 0.924596
O O9 0.853222 0.840678 0.350611
O O10 0.803948 0.065703 0.268960
O O11 0.079747 0.127161 0.986708
O O12 0.756027 0.212902 0.307327
O O13 0.500000 0.000000 0.500000
O O14 0.304983 0.464714 0.339696
O O15 0.149419 0.474042 0.178076
O O16 0.393762 0.229100 0.724451
O O17 0.000000 0.500000 0.000000
#
# Coordination Sequence:
#
# PCOD9055796 Si02
#       8
#     2   2   2   2   2   2   2   2
#     4  11  22  39  72 107 137 188 236 288 355 418
#     4  12  27  46  69 101 146 187 227 303 362 415
#     4  11  21  43  72 101 138 182 239 290 353 416
#     4  12  27  49  73  99 139 189 247 294 354 432
#     4  11  22  41  72 102 139 185 240 290 346 432
#     4  12  24  44  69 108 147 184 240 286 354 433
#     4  11  23  43  68 105 146 183 231 293 354 422
#     4  12  27  46  71 106 140 190 242 297 365 421
#
# _framework density 23.734701000000001
#
# number of rings (size 3 to 8) (size 9 to 14) (size 15 to 20)
#    0.000    0.500    3.750    5.625    3.500    1.500 
#    2.250    2.500    0.000    0.000    0.000    0.000 
#    0.000    0.000    0.000    0.000    0.000    0.000 
#
# Total GULP energy -89682.302422 kJ/mol
# GULP energy per Si atom -5605.143901 kJ/mol
# Density = 2.368068 g / cm^3
# Si number density = 23.734701 Si / 1000 Ang^3
#
#
#
# Elastic Constant Matrix: (Units=GPa)
#
#
# Indices 1 2 3 4 5 6 
#
# 1 131.6578 24.6026 38.4043 -1.0608 -20.7942 15.6057
# 2 24.6026 74.7888 0.9583 2.5126 -9.9450 27.8382
# 3 38.4043 0.9583 87.1612 11.7803 -13.2277 14.6867
# 4 -1.0608 2.5126 11.7803 34.6771 12.5030 4.2023
# 5 -20.7942 -9.9450 -13.2277 12.5030 46.9002 -3.7419
# 6 15.6057 27.8382 14.6867 4.2023 -3.7419 32.3825
#
#
#
# Elastic Compliance Matrix: (Units=1/GPa)
#
#
# Indices 1 2 3 4 5 6 
#
# 1 0.009675 -0.002713 -0.003962 0.001066 0.002280 -0.000409
# 2 -0.002713 0.021917 0.005127 -0.002565 0.004054 -0.019058
# 3 -0.003962 0.005127 0.016271 -0.006830 0.005070 -0.008406
# 4 0.001066 -0.002565 -0.006830 0.035706 -0.011611 -0.001186
# 5 0.002280 0.004054 0.005070 -0.011611 0.027543 -0.002194
# 6 -0.000409 -0.019058 -0.008406 -0.001186 -0.002194 0.051174
#
#
# Mechanical properties :
#
#
# Convention : Reuss Voigt Hill
#
# Bulk Modulus (GPa) = 22.33721 46.83755 34.58738
# Shear Modulus (GPa) = 27.73090 38.10146 32.91618
#
# Velocity S-wave (km/s) = 3.42185 4.01097 3.72807
# Velocity P-wave (km/s) = 5.00437 6.42084 5.75634
#
# Compressibility (1/GPa) = 0.04476836
#
# Stress axis : x y z
#
# Youngs Moduli (GPa) = 103.35565 45.62722 61.45782
#
# Poissons Ratio (x) = 0.12377 0.24352
# Poissons Ratio (y) = 0.28036 -0.31512
# Poissons Ratio (z) = 0.40954 -0.23395
#
# Static dielectric constant tensor:
#      x y z
#    x 1.904680 0.035060 -0.021840 
#    y 0.035060 1.954870 -0.015130 
#    z -0.021840 -0.015130 1.879090 
# 
# From -- ./inp_files/307724.got.cif
#   From: 2010.05.17/outbox.cif.g08.bks.cpg/sg2_154_cif.got.tgz:307724.got - 2010.06.03 11:33:40.
