data_PCOD9055926
_publ_section_title
;
Structure prediction by ZEFSAII (Michael W. Deem and Ramdas Pophale) SiO2 
 PCOD9055926
Probable space group: P -1
;
_chemical_formula_sum "Si O2"
_cell_formula_units_Z 16
_cell_length_a 9.791626
_cell_length_b 12.285249
_cell_length_c 15.188815
_cell_angle_alpha 128.405202
_cell_angle_beta 50.760503
_cell_angle_gamma 144.887430
_cell_volume 791.558322
_symmetry_space_group_name_H-M "P -1"
_symmetry_group_IT_number 2
_symmetry_cell_setting 'triclinic'
loop_
_space_group_symop_operation_xyz
x,y,z
-x,-y,-z
loop_
_atom_site_type_symbol
_atom_site_label
_atom_site_fract_x
_atom_site_fract_y
_atom_site_fract_z
Si Si1 0.738634 0.744828 0.167588
Si Si2 0.514465 0.920214 0.721123
Si Si3 0.851952 0.723179 0.656588
Si Si4 0.845377 0.075611 0.057736
Si Si5 0.377548 0.992268 0.634858
Si Si6 0.700056 0.703304 0.895742
Si Si7 0.025543 0.088449 0.664040
Si Si8 0.494727 0.627093 0.501608
O O1 0.641578 0.850396 0.268337
O O2 0.520913 0.525023 0.112638
O O3 0.839191 0.766481 0.234798
O O4 0.972127 0.853347 0.062396
O O5 0.341169 0.900042 0.852609
O O6 0.406558 0.711455 0.633396
O O7 0.502596 0.001388 0.676074
O O8 0.789626 0.044536 0.706206
O O9 0.716641 0.722260 0.792872
O O10 0.683484 0.515193 0.576215
O O11 0.934451 0.887345 0.635799
O O12 0.094297 0.790742 0.634826
O O13 0.037034 0.199976 0.122705
O O14 0.680377 0.845103 0.017441
O O15 0.500000 0.000000 0.500000
O O16 0.234498 0.190312 0.555738
O O17 0.500000 0.500000 0.500000
#
# Coordination Sequence:
#
# PCOD9055926 Si02
#       8
#     2   2   2   2   2   2   2   2
#     4  11  23  45  70  95 136 183 217 268 333 398
#     4  12  25  43  66 102 138 171 222 279 330 395
#     4  11  22  45  70  95 133 180 219 270 336 395
#     4  11  23  43  67 100 137 172 221 277 330 387
#     4  11  24  41  67 103 135 171 219 281 331 383
#     4  11  21  44  71  97 132 178 225 262 337 393
#     4  11  24  45  67  96 135 176 218 274 336 392
#     4  12  26  44  71  96 133 181 220 270 342 402
#
# _framework density 20.213293
#
# number of rings (size 3 to 8) (size 9 to 14) (size 15 to 20)
#    0.000    0.750    6.250    3.000    1.750    2.000 
#    2.250    0.625    0.000    0.000    0.000    0.000 
#    0.000    0.000    0.000    0.000    0.000    0.000 
#
# Total GULP energy -89348.001017 kJ/mol
# GULP energy per Si atom -5584.250064 kJ/mol
# Density = 2.016729 g / cm^3
# Si number density = 20.213293 Si / 1000 Ang^3
#
#
#
# Elastic Constant Matrix: (Units=GPa)
#
#
# Indices 1 2 3 4 5 6 
#
# 1 97.1889 11.9789 23.5011 12.7869 -4.2888 7.4212
# 2 11.9789 90.3487 37.9526 25.3560 -8.5900 11.6587
# 3 23.5011 37.9526 124.8816 6.2283 -15.8190 2.7348
# 4 12.7869 25.3560 6.2283 36.4878 1.4304 18.9656
# 5 -4.2888 -8.5900 -15.8190 1.4304 32.0996 0.4868
# 6 7.4212 11.6587 2.7348 18.9656 0.4868 30.8850
#
#
#
# Elastic Compliance Matrix: (Units=1/GPa)
#
#
# Indices 1 2 3 4 5 6 
#
# 1 0.011271 0.000539 -0.001978 -0.003805 0.000851 -0.000413
# 2 0.000539 0.016003 -0.004066 -0.011286 0.002837 0.001075
# 3 -0.001978 -0.004066 0.009974 0.001649 0.003488 0.000060
# 4 -0.003805 -0.011286 0.001649 0.049688 -0.004545 -0.025412
# 5 0.000851 0.002837 0.003488 -0.004545 0.033938 0.000672
# 6 -0.000413 0.001075 0.000060 -0.025412 0.000672 0.047660
#
#
# Mechanical properties :
#
#
# Convention : Reuss Voigt Hill
#
# Bulk Modulus (GPa) = 38.11437 51.03164 44.57300
# Shear Modulus (GPa) = 26.55472 35.82692 31.19082
#
# Velocity S-wave (km/s) = 3.62847 4.21461 3.93247
# Velocity P-wave (km/s) = 6.03750 6.99895 6.53593
#
# Compressibility (1/GPa) = 0.02623683
#
# Stress axis : x y z
#
# Youngs Moduli (GPa) = 88.72400 62.48776 100.26123
#
# Poissons Ratio (x) = -0.03366 0.19833
# Poissons Ratio (y) = -0.04780 0.40768
# Poissons Ratio (z) = 0.17551 0.25409
#
# Static dielectric constant tensor:
#      x y z
#    x 1.738180 -0.019310 0.036430 
#    y -0.019310 1.735550 -0.026460 
#    z 0.036430 -0.026460 1.752190 
# 
# From -- ./inp_files/500806.got.cif
#   From: 2010.05.17/outbox.cif.g08.bks.cpg/sg2_251_cif.got.tgz:500806.got - 2010.06.03 11:33:40.
