data_PCOD9055415
_publ_section_title
;
Structure prediction by ZEFSAII (Michael W. Deem and Ramdas Pophale) SiO2 
 PCOD9055415
Probable space group: P -1
;
_chemical_formula_sum "Si O2"
_cell_formula_units_Z 14
_cell_length_a 10.374695
_cell_length_b 16.616759
_cell_length_c 5.773927
_cell_angle_alpha 118.646323
_cell_angle_beta 97.646541
_cell_angle_gamma 41.258426
_cell_volume 529.766598
_symmetry_space_group_name_H-M "P -1"
_symmetry_group_IT_number 2
_symmetry_cell_setting 'triclinic'
loop_
_space_group_symop_operation_xyz
x,y,z
-x,-y,-z
loop_
_atom_site_type_symbol
_atom_site_label
_atom_site_fract_x
_atom_site_fract_y
_atom_site_fract_z
Si Si1 0.979252 0.120392 0.118267
Si Si2 0.469830 0.672782 0.830560
Si Si3 0.316806 0.292002 0.219907
Si Si4 0.060009 0.399419 0.673623
Si Si5 0.049735 0.215039 0.643271
Si Si6 0.371888 0.483857 0.860503
Si Si7 0.704512 0.906486 0.077469
O O1 0.760521 0.244984 0.092634
O O2 0.952660 0.182392 0.447582
O O3 0.157687 0.088201 0.003837
O O4 0.000000 0.000000 0.000000
O O5 0.472138 0.781081 0.927202
O O6 0.555533 0.585345 0.478104
O O7 0.588276 0.597753 0.004208
O O8 0.291314 0.300341 0.500488
O O9 0.243730 0.231648 0.048581
O O10 0.136712 0.467922 0.357747
O O11 0.072582 0.285666 0.567250
O O12 0.000000 0.500000 0.000000
O O13 0.876297 0.351081 0.969820
O O14 0.273059 0.071043 0.621769
O O15 0.500000 0.500000 0.000000
O O16 0.500000 0.000000 0.000000
#
# Coordination Sequence:
#
# PCOD9055415 Si02
#       7
#     2   2   2   2   2   2   2
#     4  12  29  54  76 107 158 217 275 321 392 479
#     4  12  27  47  78 121 159 209 256 328 404 486
#     4  11  24  41  73 112 154 191 254 317 398 470
#     4  11  21  41  71 111 152 192 242 322 403 470
#     4  12  25  46  81 115 155 207 263 334 403 478
#     4  12  25  44  78 119 167 200 255 330 411 480
#     4  12  28  51  77 108 151 208 273 329 391 474
#
# _framework density 26.426732000000001
#
# number of rings (size 3 to 8) (size 9 to 14) (size 15 to 20)
#    0.000    0.286    5.714    3.000    4.000    1.143 
#    2.571    0.000    0.000    0.000    0.000    0.000 
#    0.000    0.000    0.000    0.000    0.000    0.000 
#
# Total GULP energy -77990.233516 kJ/mol
# GULP energy per Si atom -5570.730965 kJ/mol
# Density = 2.636658 g / cm^3
# Si number density = 26.426732 Si / 1000 Ang^3
#
#
#
# Elastic Constant Matrix: (Units=GPa)
#
#
# Indices 1 2 3 4 5 6 
#
# 1 230.1404 56.3994 29.8942 -0.0041 21.8350 16.5518
# 2 56.3994 123.1774 29.3436 -10.0325 22.4648 10.6550
# 3 29.8942 29.3436 75.7296 0.6361 33.7417 14.5689
# 4 -0.0041 -10.0325 0.6361 19.3047 -3.8371 11.0443
# 5 21.8350 22.4648 33.7417 -3.8371 44.6631 -9.9869
# 6 16.5518 10.6550 14.5689 11.0443 -9.9869 56.2863
#
#
#
# Elastic Compliance Matrix: (Units=1/GPa)
#
#
# Indices 1 2 3 4 5 6 
#
# 1 0.005095 -0.001905 -0.000306 -0.000599 -0.001627 -0.001229
# 2 -0.001905 0.010772 -0.001241 0.006695 -0.003672 -0.003123
# 3 -0.000306 -0.001241 0.024492 0.000064 -0.019859 -0.009551
# 4 -0.000599 0.006695 0.000064 0.062899 -0.000757 -0.013584
# 5 -0.001627 -0.003672 -0.019859 -0.000757 0.043126 0.014114
# 6 -0.001229 -0.003123 -0.009551 -0.013584 0.014114 0.026361
#
#
# Mechanical properties :
#
#
# Convention : Reuss Voigt Hill
#
# Bulk Modulus (GPa) = 29.89320 73.36909 51.63114
# Shear Modulus (GPa) = 26.20552 44.94484 35.57518
#
# Velocity S-wave (km/s) = 3.15243 4.12847 3.67302
# Velocity P-wave (km/s) = 4.95850 7.10979 6.12927
#
# Compressibility (1/GPa) = 0.03345243
#
# Stress axis : x y z
#
# Youngs Moduli (GPa) = 196.28196 92.83728 40.83031
#
# Poissons Ratio (x) = 0.17690 0.01250
# Poissons Ratio (y) = 0.37401 0.05067
# Poissons Ratio (z) = 0.06010 0.11522
#
# Static dielectric constant tensor:
#      x y z
#    x 2.217070 -0.052410 -0.152840 
#    y -0.052410 2.279530 0.009360 
#    z -0.152840 0.009360 2.195360 
# 
# From -- ./inp_files/78417.got.cif
#   From: 2010.05.17/outbox.cif.g08.bks.cpg/sg2_40_cif.got.tgz:78417.got - 2010.06.03 11:33:40.
