data_PCOD9055768
_publ_section_title
;
Structure prediction by ZEFSAII (Michael W. Deem and Ramdas Pophale) SiO2 
 PCOD9055768
Probable space group: P -1
;
_chemical_formula_sum "Si O2"
_cell_formula_units_Z 15
_cell_length_a 7.791592
_cell_length_b 12.679075
_cell_length_c 7.960336
_cell_angle_alpha 95.359681
_cell_angle_beta 86.236112
_cell_angle_gamma 46.829360
_cell_volume 561.869430
_symmetry_space_group_name_H-M "P -1"
_symmetry_group_IT_number 2
_symmetry_cell_setting 'triclinic'
loop_
_space_group_symop_operation_xyz
x,y,z
-x,-y,-z
loop_
_atom_site_type_symbol
_atom_site_label
_atom_site_fract_x
_atom_site_fract_y
_atom_site_fract_z
Si Si1 0.533434 0.676885 0.774537
Si Si2 0.038820 0.697490 0.533424
Si Si3 0.821536 0.133467 0.904034
Si Si4 0.944363 0.446482 0.187543
Si Si5 0.625603 0.012788 0.709100
Si Si6 0.500000 0.500000 0.500000
Si Si7 0.133463 0.286939 0.821816
Si Si8 0.811268 0.028152 0.384975
O O1 0.789335 0.624906 0.785695
O O2 0.566134 0.551894 0.661752
O O3 0.363687 0.826883 0.697241
O O4 0.385060 0.720202 0.960814
O O5 0.168675 0.562696 0.642712
O O6 0.944512 0.696701 0.363856
O O7 0.263991 0.676630 0.492498
O O8 0.824910 0.837075 0.678992
O O9 0.713227 0.080105 0.806586
O O10 0.002918 0.115866 0.766686
O O11 0.000000 0.000000 0.000000
O O12 0.801345 0.614056 0.176353
O O13 0.966430 0.362460 0.009566
O O14 0.361638 0.114730 0.811779
O O15 0.635626 0.037014 0.515016
O O16 0.000000 0.000000 0.500000
#
# Coordination Sequence:
#
# PCOD9055768 Si02
#       8
#     2   2   2   2   2   1   2   2
#     4  11  21  43  70  98 135 189 227 291 347 427
#     4  12  26  46  69 106 142 184 227 303 349 407
#     4   9  18  37  62  96 138 179 221 275 354 418
#     4  11  25  47  74  98 137 194 235 277 360 423
#     4  11  22  41  67 102 137 175 239 288 337 412
#     4  12  26  42  70 100 144 174 238 288 356 416
#     4  11  24  46  72 101 135 188 245 281 338 434
#     4   9  19  35  64  97 134 182 222 276 352 416
#
# _framework density 26.696591999999999
#
# number of rings (size 3 to 8) (size 9 to 14) (size 15 to 20)
#    0.000    1.333    2.667    4.000    1.867    0.533 
#    7.200    0.667    0.000    0.000    0.000    0.000 
#    0.000    0.000    0.000    0.000    0.000    0.000 
#
# Total GULP energy -83602.193988 kJ/mol
# GULP energy per Si atom -5573.479599 kJ/mol
# Density = 2.663583 g / cm^3
# Si number density = 26.696592 Si / 1000 Ang^3
#
#
#
# Elastic Constant Matrix: (Units=GPa)
#
#
# Indices 1 2 3 4 5 6 
#
# 1 82.1529 12.9818 27.8494 13.1950 23.1372 -15.7519
# 2 12.9818 106.6154 17.7701 7.8247 6.9829 -20.4008
# 3 27.8494 17.7701 161.2072 30.1107 14.0955 7.9188
# 4 13.1950 7.8247 30.1107 48.3114 6.8993 -2.8604
# 5 23.1372 6.9829 14.0955 6.8993 17.5350 -7.2526
# 6 -15.7519 -20.4008 7.9188 -2.8604 -7.2526 32.4442
#
#
#
# Elastic Compliance Matrix: (Units=1/GPa)
#
#
# Indices 1 2 3 4 5 6 
#
# 1 0.020338 0.000384 -0.001603 -0.001003 -0.023135 0.005247
# 2 0.000384 0.011060 -0.001524 -0.000444 -0.000462 0.007370
# 3 -0.001603 -0.001524 0.008008 -0.004001 -0.004201 -0.004983
# 4 -0.001003 -0.000444 -0.004001 0.024227 -0.004237 0.001399
# 5 -0.023135 -0.000462 -0.004201 -0.004237 0.097282 0.010875
# 6 0.005247 0.007370 -0.004983 0.001399 0.010875 0.041775
#
#
# Mechanical properties :
#
#
# Convention : Reuss Voigt Hill
#
# Bulk Modulus (GPa) = 29.48280 51.90868 40.69574
# Shear Modulus (GPa) = 22.78091 39.08308 30.93200
#
# Velocity S-wave (km/s) = 2.92434 3.83034 3.40759
# Velocity P-wave (km/s) = 4.74026 6.24885 5.54609
#
# Compressibility (1/GPa) = 0.03391808
#
# Stress axis : x y z
#
# Youngs Moduli (GPa) = 49.16884 90.41616 124.88046
#
# Poissons Ratio (x) = -0.03469 0.20022
# Poissons Ratio (y) = -0.01886 0.19034
# Poissons Ratio (z) = 0.07883 0.13781
#
# Static dielectric constant tensor:
#      x y z
#    x 1.615680 0.144340 0.059960 
#    y 0.144340 2.125570 0.045370 
#    z 0.059960 0.045370 1.873380 
# 
# From -- ./inp_files/207781.got.cif
#   From: 2010.05.17/outbox.cif.g08.bks.cpg/sg2_104_cif.got.tgz:207781.got - 2010.06.03 11:33:40.
