data_PCOD9055675
_publ_section_title
;
Structure prediction by ZEFSAII (Michael W. Deem and Ramdas Pophale) SiO2 
 PCOD9055675
Probable space group: P -1
;
_chemical_formula_sum "Si O2"
_cell_formula_units_Z 16
_cell_length_a 8.775887
_cell_length_b 8.717182
_cell_length_c 19.220971
_cell_angle_alpha 143.014498
_cell_angle_beta 57.555104
_cell_angle_gamma 129.955497
_cell_volume 677.222197
_symmetry_space_group_name_H-M "P -1"
_symmetry_group_IT_number 2
_symmetry_cell_setting 'triclinic'
loop_
_space_group_symop_operation_xyz
x,y,z
-x,-y,-z
loop_
_atom_site_type_symbol
_atom_site_label
_atom_site_fract_x
_atom_site_fract_y
_atom_site_fract_z
Si Si1 0.717374 0.744259 0.032554
Si Si2 0.586430 0.659839 0.608950
Si Si3 0.238107 0.180602 0.590807
Si Si4 0.019587 0.571655 0.102886
Si Si5 0.971601 0.789525 0.785684
Si Si6 0.985839 0.855409 0.651571
Si Si7 0.299029 0.946979 0.992191
Si Si8 0.809963 0.181950 0.662449
O O1 0.817561 0.991476 0.154755
O O2 0.500000 0.500000 0.000000
O O3 0.712543 0.904310 0.021831
O O4 0.851041 0.568731 0.942841
O O5 0.500000 0.500000 0.500000
O O6 0.420031 0.487019 0.644663
O O7 0.795855 0.656698 0.580509
O O8 0.652522 0.987668 0.688517
O O9 0.026481 0.192498 0.631661
O O10 0.259378 0.982617 0.453101
O O11 0.188240 0.005469 0.611845
O O12 0.072301 0.889610 0.220084
O O13 0.000000 0.500000 0.000000
O O14 0.801078 0.385100 0.117607
O O15 0.999935 0.727060 0.675982
O O16 0.827833 0.946977 0.887280
O O17 0.860801 0.504616 0.753166
O O18 0.500000 0.000000 0.000000
#
# Coordination Sequence:
#
# PCOD9055675 Si02
#       8
#     2   2   2   2   2   2   2   2
#     4  11  25  42  66  97 134 181 231 283 344 414
#     4   9  20  41  66  95 129 177 230 280 342 406
#     4   9  20  40  66  97 129 177 227 274 348 411
#     4  11  21  43  63  93 139 175 219 286 340 402
#     4  11  24  44  63 101 138 180 227 287 350 406
#     4  11  23  38  68  94 141 180 222 278 349 402
#     4  11  25  42  67  93 137 178 230 283 343 411
#     4   9  20  41  67  94 134 173 222 290 339 406
#
# _framework density 23.625924000000001
#
# number of rings (size 3 to 8) (size 9 to 14) (size 15 to 20)
#    0.000    1.750    2.500    3.000    7.000    2.500 
#    0.000    2.500    0.000    0.000    0.000    0.000 
#    0.000    0.000    0.000    0.000    0.000    0.000 
#
# Total GULP energy -89257.001263 kJ/mol
# GULP energy per Si atom -5578.562579 kJ/mol
# Density = 2.357215 g / cm^3
# Si number density = 23.625924 Si / 1000 Ang^3
#
#
#
# Elastic Constant Matrix: (Units=GPa)
#
#
# Indices 1 2 3 4 5 6 
#
# 1 109.4682 44.4625 27.4289 -1.6131 23.8564 5.7163
# 2 44.4625 190.7685 32.8133 4.6567 22.8999 4.2759
# 3 27.4289 32.8133 66.0263 12.0064 14.5756 -4.9467
# 4 -1.6131 4.6567 12.0064 48.0274 -8.7076 10.4878
# 5 23.8564 22.8999 14.5756 -8.7076 25.9743 -0.6033
# 6 5.7163 4.2759 -4.9467 10.4878 -0.6033 41.9127
#
#
#
# Elastic Compliance Matrix: (Units=1/GPa)
#
#
# Indices 1 2 3 4 5 6 
#
# 1 0.012352 -0.001327 -0.002730 0.000098 -0.008657 -0.002020
# 2 -0.001327 0.006312 -0.001664 -0.000798 -0.003691 -0.000513
# 3 -0.002730 -0.001664 0.021340 -0.008286 -0.010663 0.004981
# 4 0.000098 -0.000798 -0.008286 0.027189 0.014204 -0.007509
# 5 -0.008657 -0.003691 -0.010663 0.014204 0.060395 -0.002386
# 6 -0.002020 -0.000513 0.004981 -0.007509 -0.002386 0.026619
#
#
# Mechanical properties :
#
#
# Convention : Reuss Voigt Hill
#
# Bulk Modulus (GPa) = 35.01148 63.96362 49.48755
# Shear Modulus (GPa) = 28.54398 40.62009 34.58204
#
# Velocity S-wave (km/s) = 3.47964 4.15094 3.83003
# Velocity P-wave (km/s) = 5.56732 7.07856 6.36793
#
# Compressibility (1/GPa) = 0.02856206
#
# Stress axis : x y z
#
# Youngs Moduli (GPa) = 80.96098 158.44014 46.85992
#
# Poissons Ratio (x) = 0.21028 0.12791
# Poissons Ratio (y) = 0.10745 0.07796
# Poissons Ratio (z) = 0.22100 0.26361
#
# Static dielectric constant tensor:
#      x y z
#    x 1.890410 0.047620 0.050590 
#    y 0.047620 2.008320 0.053130 
#    z 0.050590 0.053130 2.005260 
# 
# From -- ./inp_files/587601.got.cif
#   From: 2010.05.17/outbox.cif.g08.bks.cpg/sg2_294_cif.got.tgz:587601.got - 2010.06.03 11:33:40.
