data_PCOD9055824
_publ_section_title
;
Structure prediction by ZEFSAII (Michael W. Deem and Ramdas Pophale) SiO2 
 PCOD9055824
Probable space group: P -1
;
_chemical_formula_sum "Si O2"
_cell_formula_units_Z 16
_cell_length_a 9.422283
_cell_length_b 15.081401
_cell_length_c 9.074054
_cell_angle_alpha 86.646219
_cell_angle_beta 116.095410
_cell_angle_gamma 139.145888
_cell_volume 669.903782
_symmetry_space_group_name_H-M "P -1"
_symmetry_group_IT_number 2
_symmetry_cell_setting 'triclinic'
loop_
_space_group_symop_operation_xyz
x,y,z
-x,-y,-z
loop_
_atom_site_type_symbol
_atom_site_label
_atom_site_fract_x
_atom_site_fract_y
_atom_site_fract_z
Si Si1 0.579886 0.549237 0.701602
Si Si2 0.459493 0.885843 0.775487
Si Si3 0.371135 0.166482 0.925487
Si Si4 0.891139 0.819526 0.988257
Si Si5 0.272501 0.766388 0.392323
Si Si6 0.886677 0.731924 0.286569
Si Si7 0.239825 0.982824 0.628994
Si Si8 0.829535 0.500429 0.993869
O O1 0.500000 0.500000 0.500000
O O2 0.306334 0.417323 0.688830
O O3 0.770859 0.556946 0.853432
O O4 0.730645 0.711823 0.783245
O O5 0.362727 0.785266 0.597433
O O6 0.319748 0.918639 0.722455
O O7 0.416991 0.805692 0.906488
O O8 0.787148 0.047393 0.897279
O O9 0.189716 0.125114 0.977126
O O10 0.209799 0.034291 0.746907
O O11 0.543137 0.324546 0.918823
O O12 0.782854 0.703664 0.079482
O O13 0.512646 0.868949 0.374487
O O14 0.183325 0.826912 0.375123
O O15 0.000505 0.603631 0.208414
O O16 0.973583 0.853377 0.418245
O O17 0.000000 0.500000 0.000000
#
# Coordination Sequence:
#
# PCOD9055824 Si02
#       8
#     2   2   2   2   2   2   2   2
#     4  12  28  47  74 103 136 187 240 287 350 422
#     4  11  24  44  71 101 137 186 233 284 347 416
#     4  12  27  41  67 107 143 181 229 292 346 408
#     4  12  23  47  72  97 143 180 229 286 351 414
#     4  11  21  44  74  98 130 185 236 277 346 419
#     4  11  21  43  73  97 132 182 230 278 345 413
#     4  11  22  43  71 101 135 187 232 281 347 418
#     4  12  25  44  70 100 142 182 229 290 347 409
#
# _framework density 23.884029000000002
#
# number of rings (size 3 to 8) (size 9 to 14) (size 15 to 20)
#    0.000    0.500    6.250    2.625    1.750    4.000 
#    2.250    0.000    0.000    0.000    0.000    0.000 
#    0.000    0.000    0.000    0.000    0.000    0.000 
#
# Total GULP energy -89385.700054 kJ/mol
# GULP energy per Si atom -5586.606253 kJ/mol
# Density = 2.382967 g / cm^3
# Si number density = 23.884029 Si / 1000 Ang^3
#
#
#
# Elastic Constant Matrix: (Units=GPa)
#
#
# Indices 1 2 3 4 5 6 
#
# 1 107.0308 20.1954 34.0587 18.3968 -9.9215 -6.8671
# 2 20.1954 52.1215 29.8260 9.6313 -5.4993 6.2086
# 3 34.0587 29.8260 172.8688 36.3942 -35.7468 -8.5520
# 4 18.3968 9.6313 36.3942 38.1110 -3.2150 -0.3820
# 5 -9.9215 -5.4993 -35.7468 -3.2150 35.2615 12.6715
# 6 -6.8671 6.2086 -8.5520 -0.3820 12.6715 29.8084
#
#
#
# Elastic Compliance Matrix: (Units=1/GPa)
#
#
# Indices 1 2 3 4 5 6 
#
# 1 0.011083 -0.003567 -0.000449 -0.003929 0.000742 0.002802
# 2 -0.003567 0.023673 -0.003033 -0.001253 0.002225 -0.007585
# 3 -0.000449 -0.003033 0.009805 -0.007641 0.008827 -0.000509
# 4 -0.003929 -0.001253 -0.007641 0.035255 -0.005873 0.000112
# 5 0.000742 0.002225 0.008827 -0.005873 0.043141 -0.016174
# 6 0.002802 -0.007585 -0.000509 0.000112 -0.016174 0.042504
#
#
# Mechanical properties :
#
#
# Convention : Reuss Voigt Hill
#
# Bulk Modulus (GPa) = 32.82582 55.57567 44.20074
# Shear Modulus (GPa) = 26.35559 37.16558 31.76059
#
# Velocity S-wave (km/s) = 3.32547 3.94900 3.65058
# Velocity P-wave (km/s) = 5.34029 6.64171 6.02624
#
# Compressibility (1/GPa) = 0.03046383
#
# Stress axis : x y z
#
# Youngs Moduli (GPa) = 90.22955 42.24161 101.98613
#
# Poissons Ratio (x) = 0.15066 0.04578
# Poissons Ratio (y) = 0.32182 0.30934
# Poissons Ratio (z) = 0.04051 0.12813
#
# Static dielectric constant tensor:
#      x y z
#    x 2.003480 -0.064310 0.035930 
#    y -0.064310 1.928200 -0.034450 
#    z 0.035930 -0.034450 2.006760 
# 
# From -- ./inp_files/207920.got.cif
#   From: 2010.05.17/outbox.cif.g08.bks.cpg/sg2_104_cif.got.tgz:207920.got - 2010.06.03 11:33:40.
