data_PCOD9055202
_publ_section_title
;
Structure prediction by ZEFSAII (Michael W. Deem and Ramdas Pophale) SiO2 
 PCOD9055202
Probable space group: P -1
;
_chemical_formula_sum "Si O2"
_cell_formula_units_Z 16
_cell_length_a 10.240954
_cell_length_b 22.409286
_cell_length_c 8.637053
_cell_angle_alpha 25.129595
_cell_angle_beta 124.603057
_cell_angle_gamma 128.852517
_cell_volume 655.523288
_symmetry_space_group_name_H-M "P -1"
_symmetry_group_IT_number 2
_symmetry_cell_setting 'triclinic'
loop_
_space_group_symop_operation_xyz
x,y,z
-x,-y,-z
loop_
_atom_site_type_symbol
_atom_site_label
_atom_site_fract_x
_atom_site_fract_y
_atom_site_fract_z
Si Si1 0.277412 0.080195 0.300332
Si Si2 0.336485 0.530008 0.385085
Si Si3 0.461355 0.293352 0.641454
Si Si4 0.074789 0.242597 0.974027
Si Si5 0.898253 0.112513 0.630800
Si Si6 0.276899 0.726363 0.351989
Si Si7 0.179437 0.373034 0.080859
Si Si8 0.374627 0.820234 0.539572
O O1 0.436868 0.094703 0.480440
O O2 0.195152 0.934365 0.486017
O O3 0.353265 0.199171 0.931266
O O4 0.143076 0.123037 0.215807
O O5 0.500000 0.500000 0.500000
O O6 0.395534 0.569947 0.506063
O O7 0.170653 0.391369 0.591220
O O8 0.318358 0.672459 0.954775
O O9 0.572982 0.215410 0.805971
O O10 0.344994 0.348020 0.320934
O O11 0.877083 0.210267 0.910393
O O12 0.136259 0.291286 0.076643
O O13 0.757772 0.097362 0.701016
O O14 0.027911 0.276689 0.315387
O O15 0.000000 0.000000 0.000000
O O16 0.359629 0.767645 0.478009
O O17 0.198592 0.546873 0.697704
#
# Coordination Sequence:
#
# PCOD9055202 Si02
#       8
#     2   2   2   2   2   2   2   2
#     4  11  25  48  73  96 141 191 234 277 342 417
#     4  11  21  40  71 105 141 174 226 283 353 424
#     4  11  23  41  70 101 139 182 223 286 351 417
#     4  12  25  43  68 108 143 177 227 292 355 415
#     4  12  26  48  70 101 140 189 244 282 331 415
#     4  12  26  41  70 113 141 170 232 294 361 416
#     4  12  26  42  73 101 144 184 224 292 360 405
#     4  11  25  43  74 102 137 189 227 288 351 405
#
# _framework density 24.407979000000001
#
# number of rings (size 3 to 8) (size 9 to 14) (size 15 to 20)
#    0.000    0.500    5.000    4.125    3.500    1.500 
#    0.000    0.625    0.000    0.000    0.000    0.000 
#    0.000    0.000    0.000    0.000    0.000    0.000 
#
# Total GULP energy -89625.090139 kJ/mol
# GULP energy per Si atom -5601.568134 kJ/mol
# Density = 2.435243 g / cm^3
# Si number density = 24.407979 Si / 1000 Ang^3
#
#
#
# Elastic Constant Matrix: (Units=GPa)
#
#
# Indices 1 2 3 4 5 6 
#
# 1 169.1563 31.1051 27.1145 1.3829 26.7736 -3.1616
# 2 31.1051 109.4255 -1.0391 9.4020 -1.3981 -19.9345
# 3 27.1145 -1.0391 53.8425 -6.1299 9.7541 9.1311
# 4 1.3829 9.4020 -6.1299 35.1307 5.9659 3.6596
# 5 26.7736 -1.3981 9.7541 5.9659 35.3666 -7.9012
# 6 -3.1616 -19.9345 9.1311 3.6596 -7.9012 31.0470
#
#
#
# Elastic Compliance Matrix: (Units=1/GPa)
#
#
# Indices 1 2 3 4 5 6 
#
# 1 0.007686 -0.002736 -0.002392 0.001214 -0.005900 -0.001915
# 2 -0.002736 0.012406 -0.002006 -0.005763 0.006455 0.010599
# 3 -0.002392 -0.002006 0.024209 0.007590 -0.008862 -0.011801
# 4 0.001214 -0.005763 0.007590 0.034667 -0.011979 -0.012943
# 5 -0.005900 0.006455 -0.008862 -0.011979 0.041512 0.018127
# 6 -0.001915 0.010599 -0.011801 -0.012943 0.018127 0.048429
#
#
# Mechanical properties :
#
#
# Convention : Reuss Voigt Hill
#
# Bulk Modulus (GPa) = 33.29485 49.64283 41.46884
# Shear Modulus (GPa) = 25.88169 38.65846 32.27008
#
# Velocity S-wave (km/s) = 3.25988 3.98407 3.64003
# Velocity P-wave (km/s) = 5.27633 6.44567 5.89009
#
# Compressibility (1/GPa) = 0.03003467
#
# Stress axis : x y z
#
# Youngs Moduli (GPa) = 130.10132 80.60768 41.30625
#
# Poissons Ratio (x) = 0.22056 0.09879
# Poissons Ratio (y) = 0.35598 0.08284
# Poissons Ratio (z) = 0.31116 0.16166
#
# Static dielectric constant tensor:
#      x y z
#    x 1.957620 -0.011420 -0.026870 
#    y -0.011420 1.916790 -0.023240 
#    z -0.026870 -0.023240 1.977200 
# 
# From -- ./inp_files/222879.got.cif
#   From: 2010.05.17/outbox.cif.g08.bks.cpg/sg2_112_cif.got.tgz:222879.got - 2010.06.03 11:33:40.
