data_PCOD9055936
_publ_section_title
;
Structure prediction by ZEFSAII (Michael W. Deem and Ramdas Pophale) SiO2 
 PCOD9055936
Probable space group: P -1
;
_chemical_formula_sum "Si O2"
_cell_formula_units_Z 16
_cell_length_a 8.843610
_cell_length_b 12.812215
_cell_length_c 17.623791
_cell_angle_alpha 35.986226
_cell_angle_beta 148.294182
_cell_angle_gamma 137.241663
_cell_volume 609.836718
_symmetry_space_group_name_H-M "P -1"
_symmetry_group_IT_number 2
_symmetry_cell_setting 'triclinic'
loop_
_space_group_symop_operation_xyz
x,y,z
-x,-y,-z
loop_
_atom_site_type_symbol
_atom_site_label
_atom_site_fract_x
_atom_site_fract_y
_atom_site_fract_z
Si Si1 0.904671 0.211436 0.474385
Si Si2 0.270061 0.088353 0.913658
Si Si3 0.275265 0.849185 0.273029
Si Si4 0.365653 0.385898 0.664305
Si Si5 0.512956 0.271059 0.407225
Si Si6 0.530021 0.265358 0.137805
Si Si7 0.097258 0.695419 0.128497
Si Si8 0.126682 0.838278 0.788447
O O1 0.694847 0.178285 0.478061
O O2 0.704073 0.262430 0.291682
O O3 0.150353 0.375758 0.507175
O O4 0.047873 0.035760 0.615436
O O5 0.278625 0.187665 0.778828
O O6 0.054439 0.180240 0.820523
O O7 0.596688 0.127593 0.059389
O O8 0.136468 0.879653 0.986728
O O9 0.461600 0.801035 0.453126
O O10 0.263657 0.750600 0.246126
O O11 0.375431 0.059048 0.177366
O O12 0.338644 0.524423 0.638276
O O13 0.697134 0.424164 0.755808
O O14 0.176965 0.254209 0.251456
O O15 0.764103 0.283725 0.159300
O O16 0.245223 0.364688 0.967350
#
# Coordination Sequence:
#
# PCOD9055936 Si02
#       8
#     2   2   2   2   2   2   2   2
#     4  12  25  44  70  99 137 181 227 278 335 398
#     4  11  22  42  73  96 137 173 230 279 329 399
#     4  11  21  44  72 101 138 169 229 284 334 394
#     4  12  27  46  67  99 139 187 224 269 342 407
#     4  12  29  44  65 102 145 179 221 277 340 408
#     4  11  23  43  71 105 134 166 233 290 327 394
#     4  11  23  44  73 107 127 180 228 283 334 394
#     4  12  24  44  71 104 130 177 227 287 334 392
#
# _framework density 26.236532
#
# number of rings (size 3 to 8) (size 9 to 14) (size 15 to 20)
#    0.000    0.500    6.250    2.250    3.500    1.000 
#    0.000    0.625    0.000    0.000    0.000    0.000 
#    0.000    0.000    0.000    0.000    0.000    0.000 
#
# Total GULP energy -89593.378195 kJ/mol
# GULP energy per Si atom -5599.586137 kJ/mol
# Density = 2.617682 g / cm^3
# Si number density = 26.236532 Si / 1000 Ang^3
#
#
#
# Elastic Constant Matrix: (Units=GPa)
#
#
# Indices 1 2 3 4 5 6 
#
# 1 103.2108 14.7696 34.2143 1.3269 33.1549 -9.2000
# 2 14.7696 69.3772 31.7598 10.7699 12.9205 4.5598
# 3 34.2143 31.7598 125.2281 35.9238 23.5345 -0.7023
# 4 1.3269 10.7699 35.9238 42.8494 7.5618 14.9222
# 5 33.1549 12.9205 23.5345 7.5618 56.9512 5.4694
# 6 -9.2000 4.5598 -0.7023 14.9222 5.4694 40.2010
#
#
#
# Elastic Compliance Matrix: (Units=1/GPa)
#
#
# Indices 1 2 3 4 5 6 
#
# 1 0.013200 -0.000827 -0.002688 0.002165 -0.006982 0.003214
# 2 -0.000827 0.016719 -0.003681 -0.000157 -0.001590 -0.001875
# 3 -0.002688 -0.003681 0.013327 -0.011386 -0.002031 0.004538
# 4 0.002165 -0.000157 -0.011386 0.037639 -0.000208 -0.013628
# 5 -0.006982 -0.001590 -0.002031 -0.000208 0.023288 -0.004544
# 6 0.003214 -0.001875 0.004538 -0.013628 -0.004544 0.031579
#
#
# Mechanical properties :
#
#
# Convention : Reuss Voigt Hill
#
# Bulk Modulus (GPa) = 34.65644 51.03371 42.84508
# Shear Modulus (GPa) = 31.29685 42.47181 36.88433
#
# Velocity S-wave (km/s) = 3.45755 4.02780 3.75352
# Velocity P-wave (km/s) = 5.40161 6.41284 5.92883
#
# Compressibility (1/GPa) = 0.02885466
#
# Stress axis : x y z
#
# Youngs Moduli (GPa) = 75.75879 59.81313 75.03632
#
# Poissons Ratio (x) = 0.04945 0.20167
# Poissons Ratio (y) = 0.06263 0.27621
# Poissons Ratio (z) = 0.20361 0.22017
#
# Static dielectric constant tensor:
#      x y z
#    x 2.057470 0.031080 -0.004380 
#    y 0.031080 2.075160 -0.054350 
#    z -0.004380 -0.054350 2.044140 
# 
# From -- ./inp_files/559824.got.cif
#   From: 2010.05.17/outbox.cif.g08.bks.cpg/sg2_280_cif.got.tgz:559824.got - 2010.06.03 11:33:40.
