data_PCOD9055517
_publ_section_title
;
Structure prediction by ZEFSAII (Michael W. Deem and Ramdas Pophale) SiO2 
 PCOD9055517
Probable space group: P -1
;
_chemical_formula_sum "Si O2"
_cell_formula_units_Z 12
_cell_length_a 9.154794
_cell_length_b 18.348699
_cell_length_c 9.479250
_cell_angle_alpha 150.383081
_cell_angle_beta 101.067157
_cell_angle_gamma 64.122517
_cell_volume 642.010373
_symmetry_space_group_name_H-M "P -1"
_symmetry_group_IT_number 2
_symmetry_cell_setting 'triclinic'
loop_
_space_group_symop_operation_xyz
x,y,z
-x,-y,-z
loop_
_atom_site_type_symbol
_atom_site_label
_atom_site_fract_x
_atom_site_fract_y
_atom_site_fract_z
Si Si1 0.319241 0.695685 0.284231
Si Si2 0.815051 0.019819 0.025379
Si Si3 0.684224 0.808617 0.747179
Si Si4 0.523568 0.111438 0.895510
Si Si5 0.498144 0.219084 0.759207
Si Si6 0.180462 0.480427 0.955397
O O1 0.299609 0.812964 0.611166
O O2 0.343826 0.782084 0.295603
O O3 0.500000 0.500000 0.000000
O O4 0.163710 0.658746 0.202371
O O5 0.703238 0.049251 0.911928
O O6 0.832837 0.853427 0.829401
O O7 0.000000 0.000000 0.000000
O O8 0.727058 0.660846 0.392562
O O9 0.642820 0.770064 0.829477
O O10 0.500000 0.000000 0.000000
O O11 0.516607 0.203699 0.904097
O O12 0.514303 0.942971 0.570668
O O13 0.315241 0.396099 0.970898
O O14 0.000000 0.500000 0.000000
#
# Coordination Sequence:
#
# PCOD9055517 Si02
#       6
#     2   2   2   2   2   2
#     4  10  20  35  55  82 109 147 184 218 270 336
#     4  11  20  34  56  84 108 139 190 229 263 318
#     4  10  17  36  58  79 105 150 192 210 263 339
#     4  10  19  35  60  81 108 144 189 227 265 323
#     4  10  19  36  57  84 107 146 186 225 270 323
#     4  11  21  36  57  84 115 144 178 228 279 325
#
# _framework density 18.691286000000002
#
# number of rings (size 3 to 8) (size 9 to 14) (size 15 to 20)
#    0.000    1.667    5.000    4.000    0.000    0.000 
#    0.000   10.833    0.000    0.000    0.000    0.000 
#    0.000    0.000    0.000    0.000    0.000    0.000 
#
# Total GULP energy -66897.195502 kJ/mol
# GULP energy per Si atom -5574.766292 kJ/mol
# Density = 1.864874 g / cm^3
# Si number density = 18.691286 Si / 1000 Ang^3
#
#
#
# Elastic Constant Matrix: (Units=GPa)
#
#
# Indices 1 2 3 4 5 6 
#
# 1 152.4010 64.9184 19.2424 -15.2376 18.0430 29.6689
# 2 64.9184 118.5833 39.0488 -29.4555 -0.5002 36.2004
# 3 19.2424 39.0488 84.1551 -19.0617 9.2807 11.3558
# 4 -15.2376 -29.4555 -19.0617 26.5532 7.4738 -2.8599
# 5 18.0430 -0.5002 9.2807 7.4738 30.2383 2.8646
# 6 29.6689 36.2004 11.3558 -2.8599 2.8646 26.3769
#
#
#
# Elastic Compliance Matrix: (Units=1/GPa)
#
#
# Indices 1 2 3 4 5 6 
#
# 1 0.010359 -0.002680 0.002008 0.005745 -0.007561 -0.007394
# 2 -0.002680 0.023757 -0.002267 0.020292 0.000176 -0.026434
# 3 0.002008 -0.002267 0.016993 0.013014 -0.009284 -0.004043
# 4 0.005745 0.020292 0.013014 0.076188 -0.023157 -0.029138
# 5 -0.007561 0.000176 -0.009284 -0.023157 0.045705 0.004785
# 6 -0.007394 -0.026434 -0.004043 -0.029138 0.004785 0.080569
#
#
# Mechanical properties :
#
#
# Convention : Reuss Voigt Hill
#
# Bulk Modulus (GPa) = 22.10897 66.83983 44.47440
# Shear Modulus (GPa) = 18.21321 32.09566 25.15444
#
# Velocity S-wave (km/s) = 3.12496 4.14834 3.67247
# Velocity P-wave (km/s) = 4.98745 7.66697 6.46750
#
# Compressibility (1/GPa) = 0.04523051
#
# Stress axis : x y z
#
# Youngs Moduli (GPa) = 96.53856 42.09266 58.84825
#
# Poissons Ratio (x) = 0.11279 -0.11814
# Poissons Ratio (y) = 0.25868 0.13341
# Poissons Ratio (z) = -0.19381 0.09543
#
# Static dielectric constant tensor:
#      x y z
#    x 1.738110 0.035170 0.014020 
#    y 0.035170 1.655090 0.007270 
#    z 0.014020 0.007270 1.665930 
# 
# From -- ./inp_files/147268.got.cif
#   From: 2010.05.17/outbox.cif.g08.bks.cpg/sg2_74_cif.got.tgz:147268.got - 2010.06.03 11:33:40.
