data_PCOD9055431
_publ_section_title
;
Structure prediction by ZEFSAII (Michael W. Deem and Ramdas Pophale) SiO2 
 PCOD9055431
Probable space group: P -1
;
_chemical_formula_sum "Si O2"
_cell_formula_units_Z 15
_cell_length_a 8.649449
_cell_length_b 13.452737
_cell_length_c 8.935240
_cell_angle_alpha 116.319591
_cell_angle_beta 111.871510
_cell_angle_gamma 46.157821
_cell_volume 668.693856
_symmetry_space_group_name_H-M "P -1"
_symmetry_group_IT_number 2
_symmetry_cell_setting 'triclinic'
loop_
_space_group_symop_operation_xyz
x,y,z
-x,-y,-z
loop_
_atom_site_type_symbol
_atom_site_label
_atom_site_fract_x
_atom_site_fract_y
_atom_site_fract_z
Si Si1 0.117770 0.690691 0.192432
Si Si2 0.443393 0.460921 0.604710
Si Si3 0.801728 0.909181 0.731554
Si Si4 0.645736 0.739937 0.520661
Si Si5 0.215968 0.723911 0.926321
Si Si6 0.172271 0.024464 0.558624
Si Si7 0.000000 0.500000 0.000000
Si Si8 0.440055 0.230516 0.844719
O O1 0.326831 0.662249 0.317990
O O2 0.909552 0.842197 0.277567
O O3 0.139523 0.689391 0.021397
O O4 0.119871 0.561475 0.147543
O O5 0.500000 0.500000 0.500000
O O6 0.315385 0.399825 0.498024
O O7 0.321039 0.595069 0.761118
O O8 0.795938 0.777953 0.649419
O O9 0.825950 0.933503 0.583403
O O10 0.005756 0.864382 0.867620
O O11 0.579634 0.059995 0.804522
O O12 0.639834 0.735416 0.334358
O O13 0.408397 0.878845 0.579229
O O14 0.388287 0.742623 0.051652
O O15 0.000000 0.000000 0.500000
O O16 0.235826 0.339929 0.947049
#
# Coordination Sequence:
#
# PCOD9055431 Si02
#       8
#     2   2   2   2   2   2   1   2
#     4  12  23  44  65 104 133 183 229 284 350 414
#     4  12  25  43  70  97 136 182 238 287 340 416
#     4  11  25  44  69 107 142 181 234 286 347 416
#     4  11  23  45  72  97 141 185 237 283 345 416
#     4  12  25  45  70  98 145 182 225 290 355 413
#     4  11  21  41  73 101 134 186 229 282 342 417
#     4  12  24  38  72  96 138 174 236 282 340 408
#     4  11  22  45  71 103 136 187 226 284 349 418
#
# _framework density 22.431788000000001
#
# number of rings (size 3 to 8) (size 9 to 14) (size 15 to 20)
#    0.000    0.533    4.000    6.400    0.000    1.600 
#    0.000    1.333    0.000    0.000    0.000    0.000 
#    0.000    0.000    0.000    0.000    0.000    0.000 
#
# Total GULP energy -83705.355056 kJ/mol
# GULP energy per Si atom -5580.357004 kJ/mol
# Density = 2.238073 g / cm^3
# Si number density = 22.431788 Si / 1000 Ang^3
#
#
#
# Elastic Constant Matrix: (Units=GPa)
#
#
# Indices 1 2 3 4 5 6 
#
# 1 59.6902 17.4474 25.5119 10.1179 16.1322 -13.4635
# 2 17.4474 68.0563 48.4324 21.2181 -11.9641 -0.1868
# 3 25.5119 48.4324 93.1091 29.8395 -7.6686 -6.7361
# 4 10.1179 21.2181 29.8395 42.7268 5.7031 8.4371
# 5 16.1322 -11.9641 -7.6686 5.7031 43.9286 15.2239
# 6 -13.4635 -0.1868 -6.7361 8.4371 15.2239 32.6566
#
#
#
# Elastic Compliance Matrix: (Units=1/GPa)
#
#
# Indices 1 2 3 4 5 6 
#
# 1 0.033395 -0.009236 -0.003743 -0.002407 -0.023641 0.024586
# 2 -0.009236 0.028166 -0.010488 -0.004101 0.013609 -0.011095
# 3 -0.003743 -0.010488 0.020715 -0.009461 0.001897 0.004230
# 4 -0.002407 -0.004101 -0.009461 0.035108 -0.002708 -0.010775
# 5 -0.023641 0.013609 0.001897 -0.002708 0.046286 -0.030155
# 6 0.024586 -0.011095 0.004230 -0.010775 -0.030155 0.058408
#
#
# Mechanical properties :
#
#
# Convention : Reuss Voigt Hill
#
# Bulk Modulus (GPa) = 28.29394 44.84877 36.57135
# Shear Modulus (GPa) = 17.80668 32.49333 25.15000
#
# Velocity S-wave (km/s) = 2.82053 3.81010 3.35203
# Velocity P-wave (km/s) = 4.82161 6.27635 5.59645
#
# Compressibility (1/GPa) = 0.03534325
#
# Stress axis : x y z
#
# Youngs Moduli (GPa) = 29.94420 35.50404 48.27323
#
# Poissons Ratio (x) = 0.32790 0.18070
# Poissons Ratio (y) = 0.27656 0.50628
# Poissons Ratio (z) = 0.11209 0.37236
#
# Static dielectric constant tensor:
#      x y z
#    x 1.895970 0.034570 0.043160 
#    y 0.034570 1.829050 0.016590 
#    z 0.043160 0.016590 1.811010 
# 
# From -- ./inp_files/190225.got.cif
#   From: 2010.05.17/outbox.cif.g08.bks.cpg/sg2_96_cif.got.tgz:190225.got - 2010.06.03 11:33:40.
