data_PCOD9055454
_publ_section_title
;
Structure prediction by ZEFSAII (Michael W. Deem and Ramdas Pophale) SiO2 
 PCOD9055454
Probable space group: P -1
;
_chemical_formula_sum "Si O2"
_cell_formula_units_Z 14
_cell_length_a 8.931775
_cell_length_b 16.888244
_cell_length_c 14.214934
_cell_angle_alpha 36.715396
_cell_angle_beta 137.384622
_cell_angle_gamma 146.591828
_cell_volume 691.146415
_symmetry_space_group_name_H-M "P -1"
_symmetry_group_IT_number 2
_symmetry_cell_setting 'triclinic'
loop_
_space_group_symop_operation_xyz
x,y,z
-x,-y,-z
loop_
_atom_site_type_symbol
_atom_site_label
_atom_site_fract_x
_atom_site_fract_y
_atom_site_fract_z
Si Si1 0.642922 0.358514 0.244617
Si Si2 0.849369 0.085587 0.325652
Si Si3 0.607694 0.121651 0.845961
Si Si4 0.792669 0.145442 0.450573
Si Si5 0.771676 0.689284 0.035749
Si Si6 0.418971 0.395251 0.280349
Si Si7 0.583929 0.659481 0.446148
O O1 0.835338 0.311387 0.345756
O O2 0.768323 0.550126 0.107002
O O3 0.562679 0.331461 0.343829
O O4 0.367040 0.254976 0.150454
O O5 0.751226 0.112581 0.351980
O O6 0.095068 0.268011 0.226823
O O7 0.602563 0.975145 0.244977
O O8 0.000000 0.000000 0.500000
O O9 0.596998 0.274870 0.717007
O O10 0.916335 0.181680 0.909931
O O11 0.500000 0.000000 0.000000
O O12 0.090813 0.186012 0.570355
O O13 0.500000 0.000000 0.500000
O O14 0.568196 0.579708 0.132868
O O15 0.443059 0.384346 0.413033
O O16 0.500000 0.500000 0.500000
#
# Coordination Sequence:
#
# PCOD9055454 Si02
#       7
#     2   2   2   2   2   2   2
#     4   9  19  40  64  94 123 164 214 249 323 375
#     4  11  21  42  62  93 127 171 211 255 323 383
#     4  12  25  41  66  96 132 167 212 267 326 375
#     4  11  23  37  67  91 123 167 214 262 306 386
#     4   9  21  38  68  91 125 172 205 260 322 384
#     4   9  19  40  68  83 126 170 213 252 310 393
#     4  11  25  43  61  96 126 164 220 266 313 371
#
# _framework density 20.256198000000001
#
# number of rings (size 3 to 8) (size 9 to 14) (size 15 to 20)
#    0.857    0.857    2.857    2.571    2.000    1.714 
#    2.571    2.143    0.000    0.000    0.000    0.000 
#    0.000    0.000    0.000    0.000    0.000    0.000 
#
# Total GULP energy -78022.444384 kJ/mol
# GULP energy per Si atom -5573.031742 kJ/mol
# Density = 2.021009 g / cm^3
# Si number density = 20.256198 Si / 1000 Ang^3
#
#
#
# Elastic Constant Matrix: (Units=GPa)
#
#
# Indices 1 2 3 4 5 6 
#
# 1 108.5304 22.6728 20.0731 2.1048 -15.3699 -1.7072
# 2 22.6728 100.6858 22.2023 18.1916 -17.6128 14.9559
# 3 20.0731 22.2023 48.7420 14.8218 -10.7870 2.4544
# 4 2.1048 18.1916 14.8218 33.7675 3.9812 0.5516
# 5 -15.3699 -17.6128 -10.7870 3.9812 23.7229 -1.4922
# 6 -1.7072 14.9559 2.4544 0.5516 -1.4922 39.8617
#
#
#
# Elastic Compliance Matrix: (Units=1/GPa)
#
#
# Indices 1 2 3 4 5 6 
#
# 1 0.010704 -0.001274 -0.003159 0.000855 0.004490 0.001287
# 2 -0.001274 0.014571 -0.000888 -0.008563 0.010714 -0.004947
# 3 -0.003159 -0.000888 0.029266 -0.013669 0.012836 -0.000934
# 4 0.000855 -0.008563 -0.013669 0.042362 -0.018952 0.002795
# 5 0.004490 0.010714 0.012836 -0.018952 0.061906 -0.002038
# 6 0.001287 -0.004947 -0.000934 0.002795 -0.002038 0.026941
#
#
# Mechanical properties :
#
#
# Convention : Reuss Voigt Hill
#
# Bulk Modulus (GPa) = 22.78003 43.09497 32.93750
# Shear Modulus (GPa) = 23.69380 32.33776 28.01578
#
# Velocity S-wave (km/s) = 3.42381 3.99988 3.72300
# Velocity P-wave (km/s) = 5.18655 6.53094 5.89718
#
# Compressibility (1/GPa) = 0.04389810
#
# Stress axis : x y z
#
# Youngs Moduli (GPa) = 93.42314 68.62993 34.16933
#
# Poissons Ratio (x) = 0.08744 0.10794
# Poissons Ratio (y) = 0.11903 0.03035
# Poissons Ratio (z) = 0.29513 0.06096
#
# Static dielectric constant tensor:
#      x y z
#    x 1.707950 0.015450 0.005280 
#    y 0.015450 1.801490 -0.014800 
#    z 0.005280 -0.014800 1.719840 
# 
# From -- ./inp_files/507282.got.cif
#   From: 2010.05.17/outbox.cif.g08.bks.cpg/sg2_254_cif.got.tgz:507282.got - 2010.06.03 11:33:40.
