data_PCOD9055399
_publ_section_title
;
Structure prediction by ZEFSAII (Michael W. Deem and Ramdas Pophale) SiO2 
 PCOD9055399
Probable space group: P -1
;
_chemical_formula_sum "Si O2"
_cell_formula_units_Z 16
_cell_length_a 16.369290
_cell_length_b 11.251792
_cell_length_c 8.368404
_cell_angle_alpha 120.975916
_cell_angle_beta 71.740948
_cell_angle_gamma 144.933102
_cell_volume 740.796185
_symmetry_space_group_name_H-M "P -1"
_symmetry_group_IT_number 2
_symmetry_cell_setting 'triclinic'
loop_
_space_group_symop_operation_xyz
x,y,z
-x,-y,-z
loop_
_atom_site_type_symbol
_atom_site_label
_atom_site_fract_x
_atom_site_fract_y
_atom_site_fract_z
Si Si1 0.735030 0.517166 0.155089
Si Si2 0.938277 0.975151 0.184717
Si Si3 0.794240 0.768479 0.602558
Si Si4 0.564435 0.579635 0.839026
Si Si5 0.057011 0.706775 0.512463
Si Si6 0.408099 0.086398 0.069495
Si Si7 0.887593 0.461032 0.123226
Si Si8 0.322343 0.128955 0.455181
O O1 0.741671 0.588523 0.379672
O O2 0.571163 0.251017 0.041738
O O3 0.852135 0.546387 0.093456
O O4 0.784631 0.704422 0.135823
O O5 0.045691 0.064441 0.322573
O O6 0.937995 0.140715 0.293330
O O7 0.000000 0.000000 0.000000
O O8 0.695789 0.653922 0.744276
O O9 0.774818 0.890125 0.605015
O O10 0.616384 0.803483 0.934505
O O11 0.436682 0.370565 0.648888
O O12 0.500000 0.500000 0.000000
O O13 0.000000 0.500000 0.500000
O O14 0.954848 0.591106 0.340570
O O15 0.219765 0.907508 0.480910
O O16 0.401848 0.128917 0.286323
O O17 0.270949 0.810893 0.936323
O O18 0.000000 0.500000 0.000000
#
# Coordination Sequence:
#
# PCOD9055399 Si02
#       8
#     2   2   2   2   2   2   2   2
#     4  12  23  47  73  97 135 181 245 287 339 419
#     4  12  28  43  71 103 139 181 240 298 350 407
#     4  11  21  41  71 100 129 179 231 285 337 410
#     4  11  24  38  70 106 141 173 227 292 352 408
#     4  12  27  44  66 100 146 183 225 290 363 417
#     4  11  23  43  70 101 134 181 231 284 345 422
#     4  12  27  45  68 101 138 185 235 287 355 423
#     4  11  21  44  70  98 133 180 234 281 343 416
#
# _framework density 21.598382000000001
#
# number of rings (size 3 to 8) (size 9 to 14) (size 15 to 20)
#    0.000    0.500    6.250    2.250    8.750    0.000 
#    0.000    0.000    0.000    3.000    0.000    0.000 
#    0.000    0.000    0.000    0.000    0.000    0.000 
#
# Total GULP energy -89445.201683 kJ/mol
# GULP energy per Si atom -5590.325105 kJ/mol
# Density = 2.154922 g / cm^3
# Si number density = 21.598382 Si / 1000 Ang^3
#
#
#
# Elastic Constant Matrix: (Units=GPa)
#
#
# Indices 1 2 3 4 5 6 
#
# 1 65.4787 26.2802 -0.3731 3.3888 -22.2632 7.4087
# 2 26.2802 125.7827 29.1108 6.7169 -15.7524 -4.0557
# 3 -0.3731 29.1108 76.0500 -10.9549 -10.4144 -4.6934
# 4 3.3888 6.7169 -10.9549 43.9313 6.4191 -3.1131
# 5 -22.2632 -15.7524 -10.4144 6.4191 30.1411 3.7860
# 6 7.4087 -4.0557 -4.6934 -3.1131 3.7860 35.7524
#
#
#
# Elastic Compliance Matrix: (Units=1/GPa)
#
#
# Indices 1 2 3 4 5 6 
#
# 1 0.024057 -0.003397 0.002982 -0.003852 0.018762 -0.007301
# 2 -0.003397 0.009932 -0.003870 -0.002410 0.001742 0.000928
# 3 0.002982 -0.003870 0.015882 0.003684 0.004777 0.000843
# 4 -0.003852 -0.002410 0.003684 0.025944 -0.008885 0.004208
# 5 0.018762 0.001742 0.004777 -0.008885 0.052671 -0.009414
# 6 -0.007301 0.000928 0.000843 0.004208 -0.009414 0.031062
#
#
# Mechanical properties :
#
#
# Convention : Reuss Voigt Hill
#
# Bulk Modulus (GPa) = 24.21173 41.92748 33.06960
# Shear Modulus (GPa) = 27.48992 36.11786 31.80389
#
# Velocity S-wave (km/s) = 3.57147 4.09375 3.84150
# Velocity P-wave (km/s) = 5.31427 6.46525 5.91781
#
# Compressibility (1/GPa) = 0.04130230
#
# Stress axis : x y z
#
# Youngs Moduli (GPa) = 41.56805 100.68170 62.96383
#
# Poissons Ratio (x) = 0.34197 -0.18776
# Poissons Ratio (y) = 0.14119 0.24367
# Poissons Ratio (z) = -0.12396 0.38964
#
# Static dielectric constant tensor:
#      x y z
#    x 1.820010 0.021190 -0.001540 
#    y 0.021190 1.830690 0.002410 
#    z -0.001540 0.002410 1.787880 
# 
# From -- ./inp_files/333739.got.cif
#   From: 2010.05.17/outbox.cif.g08.bks.cpg/sg2_167_cif.got.tgz:333739.got - 2010.06.03 11:33:40.
