data_PCOD9055996
_publ_section_title
;
Structure prediction by ZEFSAII (Michael W. Deem and Ramdas Pophale) SiO2 
 PCOD9055996
Probable space group: P -1
;
_chemical_formula_sum "Si O2"
_cell_formula_units_Z 14
_cell_length_a 16.777542
_cell_length_b 14.547678
_cell_length_c 9.432802
_cell_angle_alpha 37.374493
_cell_angle_beta 142.792437
_cell_angle_gamma 153.731343
_cell_volume 587.643372
_symmetry_space_group_name_H-M "P -1"
_symmetry_group_IT_number 2
_symmetry_cell_setting 'triclinic'
loop_
_space_group_symop_operation_xyz
x,y,z
-x,-y,-z
loop_
_atom_site_type_symbol
_atom_site_label
_atom_site_fract_x
_atom_site_fract_y
_atom_site_fract_z
Si Si1 0.083427 0.942028 0.358866
Si Si2 0.213788 0.488765 0.170781
Si Si3 0.231801 0.220015 0.673376
Si Si4 0.653906 0.261993 0.665812
Si Si5 0.635055 0.912938 0.164361
Si Si6 0.579029 0.643904 0.795407
Si Si7 0.020920 0.470900 0.403228
O O1 0.036384 0.750748 0.438917
O O2 0.900861 0.860490 0.280637
O O3 0.227182 0.004999 0.609531
O O4 0.200539 0.167227 0.162593
O O5 0.158534 0.267361 0.382839
O O6 0.211144 0.548139 0.256895
O O7 0.429680 0.674590 0.196051
O O8 0.094114 0.502707 0.887765
O O9 0.264881 0.079452 0.838579
O O10 0.444013 0.456859 0.716229
O O11 0.479509 0.228599 0.437007
O O12 0.765184 0.338931 0.583584
O O13 0.602334 0.061082 0.906677
O O14 0.500000 0.500000 0.000000
O O15 0.000000 0.500000 0.500000
#
# Coordination Sequence:
#
# PCOD9055996 Si02
#       7
#     2   2   2   2   2   2   2
#     4  12  23  47  76 104 148 190 240 302 368 426
#     4  11  21  44  76 102 148 187 245 305 354 424
#     4  11  25  45  71 115 144 186 247 301 359 436
#     4  11  22  47  72 103 143 188 246 301 354 425
#     4  12  23  42  80 112 137 187 253 304 357 424
#     4  11  26  47  74 101 149 196 234 294 373 435
#     4  12  26  44  72 110 147 193 244 301 368 436
#
# _framework density 23.823974
#
# number of rings (size 3 to 8) (size 9 to 14) (size 15 to 20)
#    0.000    0.571    7.143    3.429    0.000    2.857 
#    2.571    2.143    0.000    0.000    0.000    0.000 
#    0.000    0.000    0.000    0.000    0.000    0.000 
#
# Total GULP energy -78388.233297 kJ/mol
# GULP energy per Si atom -5599.159521 kJ/mol
# Density = 2.376975 g / cm^3
# Si number density = 23.823974 Si / 1000 Ang^3
#
#
#
# Elastic Constant Matrix: (Units=GPa)
#
#
# Indices 1 2 3 4 5 6 
#
# 1 147.5034 28.0004 24.4838 -4.8286 -7.2369 8.0859
# 2 28.0004 83.2560 2.5660 -10.8420 -1.2057 27.4405
# 3 24.4838 2.5660 80.4503 -25.4151 5.1180 -7.9461
# 4 -4.8286 -10.8420 -25.4151 30.3480 7.1109 0.6043
# 5 -7.2369 -1.2057 5.1180 7.1109 31.0227 -9.0455
# 6 8.0859 27.4405 -7.9461 0.6043 -9.0455 28.8738
#
#
#
# Elastic Compliance Matrix: (Units=1/GPa)
#
#
# Indices 1 2 3 4 5 6 
#
# 1 0.008024 -0.003443 -0.003670 -0.003893 0.003592 0.001222
# 2 -0.003443 0.021946 0.002600 0.012197 -0.009729 -0.022480
# 3 -0.003670 0.002600 0.020118 0.019070 -0.008109 0.001154
# 4 -0.003893 0.012197 0.019070 0.057738 -0.020578 -0.012908
# 5 0.003592 -0.009729 -0.008109 -0.020578 0.044710 0.020447
# 6 0.001222 -0.022480 0.001154 -0.012908 0.020447 0.062648
#
#
# Mechanical properties :
#
#
# Convention : Reuss Voigt Hill
#
# Bulk Modulus (GPa) = 24.35386 46.81223 35.58304
# Shear Modulus (GPa) = 21.01739 35.12622 28.07180
#
# Velocity S-wave (km/s) = 2.97340 3.84397 3.43636
# Velocity P-wave (km/s) = 4.69390 6.27641 5.54193
#
# Compressibility (1/GPa) = 0.04106126
#
# Stress axis : x y z
#
# Youngs Moduli (GPa) = 124.62510 45.56719 49.70642
#
# Poissons Ratio (x) = 0.15690 0.18241
# Poissons Ratio (y) = 0.42911 -0.12922
# Poissons Ratio (z) = 0.45734 -0.11846
#
# Static dielectric constant tensor:
#      x y z
#    x 1.924940 0.001430 0.006610 
#    y 0.001430 1.950990 0.018090 
#    z 0.006610 0.018090 1.924080 
# 
# From -- ./inp_files/153803.got.cif
#   From: 2010.05.17/outbox.cif.g08.bks.cpg/sg2_77_cif.got.tgz:153803.got - 2010.06.03 11:33:40.
