data_PCOD9055281
_publ_section_title
;
Structure prediction by ZEFSAII (Michael W. Deem and Ramdas Pophale) SiO2 
 PCOD9055281
Probable space group: P -1
;
_chemical_formula_sum "Si O2"
_cell_formula_units_Z 14
_cell_length_a 17.307423
_cell_length_b 10.510153
_cell_length_c 8.192878
_cell_angle_alpha 45.818303
_cell_angle_beta 47.330573
_cell_angle_gamma 40.621280
_cell_volume 659.549354
_symmetry_space_group_name_H-M "P -1"
_symmetry_group_IT_number 2
_symmetry_cell_setting 'triclinic'
loop_
_space_group_symop_operation_xyz
x,y,z
-x,-y,-z
loop_
_atom_site_type_symbol
_atom_site_label
_atom_site_fract_x
_atom_site_fract_y
_atom_site_fract_z
Si Si1 0.984964 0.813618 0.553788
Si Si2 0.392760 0.150409 0.645814
Si Si3 0.152387 0.362505 0.591647
Si Si4 0.997795 0.826492 0.903668
Si Si5 0.521307 0.689799 0.318277
Si Si6 0.716804 0.960407 0.831571
Si Si7 0.775282 0.569127 0.923060
O O1 0.033659 0.596827 0.585594
O O2 0.023989 0.757028 0.737586
O O3 0.834731 0.980411 0.631658
O O4 0.038117 0.934818 0.273821
O O5 0.267201 0.318354 0.579820
O O6 0.500000 0.000000 0.500000
O O7 0.354611 0.006258 0.927735
O O8 0.562868 0.739108 0.387570
O O9 0.195022 0.355966 0.352472
O O10 0.108223 0.205507 0.843067
O O11 0.122094 0.673630 0.967093
O O12 0.500000 0.500000 0.500000
O O13 0.390995 0.901036 0.267064
O O14 0.633473 0.631395 0.084038
O O15 0.780115 0.712070 0.929947
#
# Coordination Sequence:
#
# PCOD9055281 Si02
#       7
#     2   2   2   2   2   2   2
#     4  11  23  40  66  97 129 172 221 277 332 398
#     4  11  23  44  70  95 127 179 228 271 334 400
#     4  12  23  43  66  96 136 171 222 276 336 398
#     4  11  23  41  63  98 132 173 222 271 339 398
#     4  11  24  44  66  97 135 174 229 278 334 397
#     4  11  21  41  66  90 131 178 220 267 337 396
#     4  11  23  42  66  94 133 180 220 272 334 405
#
# _framework density 21.226613
#
# number of rings (size 3 to 8) (size 9 to 14) (size 15 to 20)
#    0.000    0.857    2.857    6.857    0.000    1.714 
#    5.143    1.429    0.000    0.000    0.000    0.000 
#    0.000    0.000    0.000    0.000    0.000    0.000 
#
# Total GULP energy -78169.427043 kJ/mol
# GULP energy per Si atom -5583.530503 kJ/mol
# Density = 2.117830 g / cm^3
# Si number density = 21.226613 Si / 1000 Ang^3
#
#
#
# Elastic Constant Matrix: (Units=GPa)
#
#
# Indices 1 2 3 4 5 6 
#
# 1 92.4668 40.3771 50.0313 9.1645 1.4284 -22.0272
# 2 40.3771 67.5182 49.0512 20.1719 -6.0398 -19.7136
# 3 50.0313 49.0512 172.8957 11.8292 -8.2659 1.5013
# 4 9.1645 20.1719 11.8292 31.2713 -3.2144 1.2404
# 5 1.4284 -6.0398 -8.2659 -3.2144 33.3128 -2.6329
# 6 -22.0272 -19.7136 1.5013 1.2404 -2.6329 27.3805
#
#
#
# Elastic Compliance Matrix: (Units=1/GPa)
#
#
# Indices 1 2 3 4 5 6 
#
# 1 0.017663 -0.003825 -0.004086 -0.001800 -0.001722 0.011596
# 2 -0.003825 0.036521 -0.007873 -0.019950 0.004885 0.025023
# 3 -0.004086 -0.007873 0.009086 0.003276 0.000564 -0.009548
# 4 -0.001800 -0.019950 0.003276 0.044868 0.000179 -0.018007
# 5 -0.001722 0.004885 0.000564 0.000179 0.031540 0.005125
# 6 0.011596 0.025023 -0.009548 -0.018007 0.005125 0.065699
#
#
# Mechanical properties :
#
#
# Convention : Reuss Voigt Hill
#
# Bulk Modulus (GPa) = 31.54403 67.97777 49.76090
# Shear Modulus (GPa) = 20.20101 31.28766 25.74434
#
# Velocity S-wave (km/s) = 3.08828 3.84341 3.48635
# Velocity P-wave (km/s) = 5.25448 7.19653 6.30078
#
# Compressibility (1/GPa) = 0.03170172
#
# Stress axis : x y z
#
# Youngs Moduli (GPa) = 56.61537 27.38142 110.06479
#
# Poissons Ratio (x) = 0.10473 0.44971
# Poissons Ratio (y) = 0.21655 0.86656
# Poissons Ratio (z) = 0.23132 0.21558
#
# Static dielectric constant tensor:
#      x y z
#    x 1.824930 -0.011870 -0.022270 
#    y -0.011870 1.763570 0.001490 
#    z -0.022270 0.001490 1.788010 
# 
# From -- ./inp_files/331523.got.cif
#   From: 2010.05.17/outbox.cif.g08.bks.cpg/sg2_166_cif.got.tgz:331523.got - 2010.06.03 11:33:40.
