data_PCOD9055858
_publ_section_title
;
Structure prediction by ZEFSAII (Michael W. Deem and Ramdas Pophale) SiO2 
 PCOD9055858
Probable space group: P -1
;
_chemical_formula_sum "Si O2"
_cell_formula_units_Z 14
_cell_length_a 11.884077
_cell_length_b 9.127161
_cell_length_c 7.663503
_cell_angle_alpha 129.430981
_cell_angle_beta 83.070497
_cell_angle_gamma 106.926222
_cell_volume 611.903954
_symmetry_space_group_name_H-M "P -1"
_symmetry_group_IT_number 2
_symmetry_cell_setting 'triclinic'
loop_
_space_group_symop_operation_xyz
x,y,z
-x,-y,-z
loop_
_atom_site_type_symbol
_atom_site_label
_atom_site_fract_x
_atom_site_fract_y
_atom_site_fract_z
Si Si1 0.600327 0.126692 0.950912
Si Si2 0.994930 0.929638 0.168322
Si Si3 0.742755 0.748152 0.118789
Si Si4 0.646406 0.308678 0.733590
Si Si5 0.240988 0.119559 0.140816
Si Si6 0.851632 0.110342 0.562112
Si Si7 0.376703 0.551337 0.535536
O O1 0.647205 0.331225 0.203094
O O2 0.570129 0.164928 0.786208
O O3 0.500000 0.000000 0.000000
O O4 0.698932 0.010461 0.850411
O O5 0.066421 0.869225 0.270547
O O6 0.876201 0.749779 0.036021
O O7 0.101551 0.014058 0.079702
O O8 0.940661 0.104415 0.380509
O O9 0.763704 0.885976 0.387621
O O10 0.662299 0.528734 0.972122
O O11 0.705497 0.864310 0.052166
O O12 0.771590 0.256745 0.672824
O O13 0.610788 0.319802 0.547525
O O14 0.276428 0.345427 0.369162
O O15 0.500000 0.500000 0.500000
#
# Coordination Sequence:
#
# PCOD9055858 Si02
#       7
#     2   2   2   2   2   2   2
#     4  12  26  44  68  97 122 174 225 269 330 384
#     4   9  19  37  64  94 133 172 205 261 317 385
#     4   9  21  38  63  96 129 172 212 253 327 387
#     4  11  24  43  70  95 132 174 211 274 325 381
#     4  11  21  44  62  92 137 168 212 272 320 376
#     4   9  19  38  59  96 132 163 218 250 322 385
#     4  11  26  47  65  96 132 168 228 272 322 388
#
# _framework density 22.879407
#
# number of rings (size 3 to 8) (size 9 to 14) (size 15 to 20)
#    0.857    0.857    2.857    1.286    2.000    1.714 
#    2.571    1.429    0.000    0.000    0.000    0.000 
#    0.000    0.000    0.000    0.000    0.000    0.000 
#
# Total GULP energy -78055.205152 kJ/mol
# GULP energy per Si atom -5575.371797 kJ/mol
# Density = 2.282733 g / cm^3
# Si number density = 22.879407 Si / 1000 Ang^3
#
#
#
# Elastic Constant Matrix: (Units=GPa)
#
#
# Indices 1 2 3 4 5 6 
#
# 1 60.6640 28.3303 2.5306 -2.3090 -10.4988 -2.4457
# 2 28.3303 114.5568 18.9010 -21.6964 -9.8212 -11.2702
# 3 2.5306 18.9010 56.5716 -6.3994 -3.1609 -6.7592
# 4 -2.3090 -21.6964 -6.3994 31.8369 1.8575 3.3058
# 5 -10.4988 -9.8212 -3.1609 1.8575 25.4105 -3.5319
# 6 -2.4457 -11.2702 -6.7592 3.3058 -3.5319 35.8477
#
#
#
# Elastic Compliance Matrix: (Units=1/GPa)
#
#
# Indices 1 2 3 4 5 6 
#
# 1 0.019802 -0.004793 0.000957 -0.002122 0.006726 0.000883
# 2 -0.004793 0.012111 -0.002612 0.006985 0.002221 0.002563
# 3 0.000957 -0.002612 0.019162 0.001721 0.002047 0.002900
# 4 -0.002122 0.006985 0.001721 0.036519 -0.000781 -0.001069
# 5 0.006726 0.002221 0.002047 -0.000781 0.044132 0.005963
# 6 0.000883 0.002563 0.002900 -0.001069 0.005963 0.029995
#
#
# Mechanical properties :
#
#
# Convention : Reuss Voigt Hill
#
# Bulk Modulus (GPa) = 26.19253 36.81293 31.50273
# Shear Modulus (GPa) = 26.68909 30.75439 28.72174
#
# Velocity S-wave (km/s) = 3.41913 3.67030 3.54694
# Velocity P-wave (km/s) = 5.20194 5.83836 5.52931
#
# Compressibility (1/GPa) = 0.03817883
#
# Stress axis : x y z
#
# Youngs Moduli (GPa) = 50.50087 82.56857 52.18661
#
# Poissons Ratio (x) = 0.39578 -0.04994
# Poissons Ratio (y) = 0.24207 0.13629
# Poissons Ratio (z) = -0.04833 0.21563
#
# Static dielectric constant tensor:
#      x y z
#    x 1.904910 -0.016380 -0.007990 
#    y -0.016380 1.934930 -0.024760 
#    z -0.007990 -0.024760 1.886930 
# 
# From -- ./inp_files/245987.got.cif
#   From: 2010.05.17/outbox.cif.g08.bks.cpg/sg2_123_cif.got.tgz:245987.got - 2010.06.03 11:33:40.
