data_PCOD9055412
_publ_section_title
;
Structure prediction by ZEFSAII (Michael W. Deem and Ramdas Pophale) SiO2 
 PCOD9055412
Probable space group: P -1
;
_chemical_formula_sum "Si O2"
_cell_formula_units_Z 16
_cell_length_a 8.117009
_cell_length_b 11.414518
_cell_length_c 13.834659
_cell_angle_alpha 42.757027
_cell_angle_beta 56.449401
_cell_angle_gamma 60.361706
_cell_volume 716.254366
_symmetry_space_group_name_H-M "P -1"
_symmetry_group_IT_number 2
_symmetry_cell_setting 'triclinic'
loop_
_space_group_symop_operation_xyz
x,y,z
-x,-y,-z
loop_
_atom_site_type_symbol
_atom_site_label
_atom_site_fract_x
_atom_site_fract_y
_atom_site_fract_z
Si Si1 0.181640 0.864482 0.564252
Si Si2 0.706524 0.593253 0.958654
Si Si3 0.380997 0.487966 0.259814
Si Si4 0.000601 0.747673 0.886964
Si Si5 0.571441 0.835046 0.679994
Si Si6 0.974831 0.706170 0.204446
Si Si7 0.849814 0.041276 0.154384
Si Si8 0.359092 0.511078 0.632249
O O1 0.113848 0.767503 0.738394
O O2 0.256850 0.711939 0.557392
O O3 0.338226 0.989471 0.466506
O O4 0.000000 0.000000 0.500000
O O5 0.495510 0.553881 0.089353
O O6 0.863906 0.414947 0.004909
O O7 0.693367 0.710801 0.797330
O O8 0.792674 0.694770 0.956864
O O9 0.407101 0.282404 0.351741
O O10 0.500496 0.526042 0.294741
O O11 0.148603 0.571442 0.281213
O O12 0.982163 0.927890 0.840853
O O13 0.353326 0.885786 0.767692
O O14 0.814258 0.610008 0.256652
O O15 0.857043 0.846296 0.232507
O O16 0.097514 0.830741 0.025367
O O17 0.500000 0.500000 0.500000
#
# Coordination Sequence:
#
# PCOD9055412 Si02
#       8
#     2   2   2   2   2   2   2   2
#     4  12  25  42  66 106 137 178 227 291 344 404
#     4  11  21  41  71 107 132 177 227 290 344 407
#     4  12  24  45  75 102 132 185 239 279 345 412
#     4  11  23  40  71 101 141 176 231 287 345 406
#     4  12  23  41  73 102 138 172 230 292 344 401
#     4  11  26  45  69 100 141 184 231 286 340 418
#     4  11  23  43  66 103 139 173 231 292 342 399
#     4  12  28  49  68  96 145 190 229 275 352 422
#
# _framework density 22.338432000000001
#
# number of rings (size 3 to 8) (size 9 to 14) (size 15 to 20)
#    0.000    0.500    5.000    3.375    1.750    4.500 
#    2.250    1.875    0.000    0.000    0.000    0.000 
#    0.000    0.000    0.000    0.000    0.000    0.000 
#
# Total GULP energy -89465.638956 kJ/mol
# GULP energy per Si atom -5591.602435 kJ/mol
# Density = 2.228759 g / cm^3
# Si number density = 22.338432 Si / 1000 Ang^3
#
#
#
# Elastic Constant Matrix: (Units=GPa)
#
#
# Indices 1 2 3 4 5 6 
#
# 1 138.2828 66.1166 26.7947 -29.1188 -5.1670 10.1902
# 2 66.1166 155.0089 41.0456 -20.8344 -0.4054 21.8441
# 3 26.7947 41.0456 77.5784 -16.5002 -2.4292 -6.8555
# 4 -29.1188 -20.8344 -16.5002 33.1474 7.9929 -7.5613
# 5 -5.1670 -0.4054 -2.4292 7.9929 45.4047 -11.7591
# 6 10.1902 21.8441 -6.8555 -7.5613 -11.7591 37.3693
#
#
#
# Elastic Compliance Matrix: (Units=1/GPa)
#
#
# Indices 1 2 3 4 5 6 
#
# 1 0.010371 -0.003534 -0.000181 0.006923 0.000084 0.000631
# 2 -0.003534 0.010143 -0.004815 -0.000081 -0.002258 -0.006576
# 3 -0.000181 -0.004815 0.017781 0.007095 0.001739 0.008109
# 4 0.006923 -0.000081 0.007095 0.042338 -0.004580 0.006587
# 5 0.000084 -0.002258 0.001739 -0.004580 0.025140 0.008600
# 6 0.000631 -0.006576 0.008109 0.006587 0.008600 0.035958
#
#
# Mechanical properties :
#
#
# Convention : Reuss Voigt Hill
#
# Bulk Modulus (GPa) = 47.09478 70.97601 59.03539
# Shear Modulus (GPa) = 30.14412 38.97849 34.56130
#
# Velocity S-wave (km/s) = 3.67744 4.18174 3.93767
# Velocity P-wave (km/s) = 6.25776 7.42684 6.86723
#
# Compressibility (1/GPa) = 0.02123378
#
# Stress axis : x y z
#
# Youngs Moduli (GPa) = 96.42646 98.58583 56.24056
#
# Poissons Ratio (x) = 0.34837 0.01021
# Poissons Ratio (y) = 0.34074 0.27082
# Poissons Ratio (z) = 0.01750 0.47473
#
# Static dielectric constant tensor:
#      x y z
#    x 1.951740 0.017800 -0.005940 
#    y 0.017800 1.822000 0.006170 
#    z -0.005940 0.006170 1.838720 
# 
# From -- ./inp_files/499856.got.cif
#   From: 2010.05.17/outbox.cif.g08.bks.cpg/sg2_250_cif.got.tgz:499856.got - 2010.06.03 11:33:40.
