data_PCOD9055656
_publ_section_title
;
Structure prediction by ZEFSAII (Michael W. Deem and Ramdas Pophale) SiO2 
 PCOD9055656
Probable space group: P -1
;
_chemical_formula_sum "Si O2"
_cell_formula_units_Z 14
_cell_length_a 13.630629
_cell_length_b 9.140111
_cell_length_c 7.448334
_cell_angle_alpha 94.793499
_cell_angle_beta 138.171785
_cell_angle_gamma 67.763536
_cell_volume 542.429368
_symmetry_space_group_name_H-M "P -1"
_symmetry_group_IT_number 2
_symmetry_cell_setting 'triclinic'
loop_
_space_group_symop_operation_xyz
x,y,z
-x,-y,-z
loop_
_atom_site_type_symbol
_atom_site_label
_atom_site_fract_x
_atom_site_fract_y
_atom_site_fract_z
Si Si1 0.157421 0.753776 0.011389
Si Si2 0.597063 0.907615 0.444527
Si Si3 0.100711 0.305807 0.567291
Si Si4 0.273497 0.852192 0.510812
Si Si5 0.590788 0.491884 0.906577
Si Si6 0.340195 0.369160 0.678557
Si Si7 0.241884 0.969194 0.868749
O O1 0.158555 0.807549 0.221359
O O2 0.313376 0.574342 0.154446
O O3 0.195272 0.879522 0.953353
O O4 0.002218 0.735716 0.726482
O O5 0.708027 0.705453 0.572668
O O6 0.500000 0.000000 0.500000
O O7 0.690213 0.006331 0.511359
O O8 0.437167 0.924965 0.113120
O O9 0.278211 0.271657 0.723056
O O10 0.000000 0.500000 0.500000
O O11 0.139822 0.169608 0.761297
O O12 0.452822 0.684666 0.738608
O O13 0.205287 0.909029 0.622408
O O14 0.495679 0.388052 0.813546
O O15 0.713605 0.471307 0.239902
#
# Coordination Sequence:
#
# PCOD9055656 Si02
#       7
#     2   2   2   2   2   2   2
#     4  12  26  46  67 109 140 186 234 278 348 432
#     4  12  22  42  74 108 133 172 241 296 337 411
#     4  12  27  45  70  99 144 187 232 285 351 417
#     4  12  24  41  73 106 140 179 233 292 347 404
#     4  11  21  42  74  99 142 174 232 294 342 401
#     4  11  21  44  70 103 134 181 237 281 351 414
#     4  12  24  46  73  96 142 188 226 291 350 406
#
# _framework density 25.809812000000001
#
# number of rings (size 3 to 8) (size 9 to 14) (size 15 to 20)
#    0.000    0.286    7.143    3.000    0.000    0.571 
#    0.000    0.714    0.000    0.000    0.000    0.000 
#    0.000    0.000    0.000    0.000    0.000    0.000 
#
# Total GULP energy -78025.644924 kJ/mol
# GULP energy per Si atom -5573.260352 kJ/mol
# Density = 2.575107 g / cm^3
# Si number density = 25.809812 Si / 1000 Ang^3
#
#
#
# Elastic Constant Matrix: (Units=GPa)
#
#
# Indices 1 2 3 4 5 6 
#
# 1 63.8904 20.8759 14.2354 5.1253 -1.7916 2.7919
# 2 20.8759 169.1752 34.8284 17.9387 1.9024 -5.4969
# 3 14.2354 34.8284 87.1177 26.3517 12.4981 2.2812
# 4 5.1253 17.9387 26.3517 49.8894 -9.4254 6.0784
# 5 -1.7916 1.9024 12.4981 -9.4254 40.3481 17.9181
# 6 2.7919 -5.4969 2.2812 6.0784 17.9181 39.7175
#
#
#
# Elastic Compliance Matrix: (Units=1/GPa)
#
#
# Indices 1 2 3 4 5 6 
#
# 1 0.016999 -0.001790 -0.002917 0.001459 0.003438 -0.003049
# 2 -0.001790 0.006758 -0.001766 -0.001762 -0.001124 0.001939
# 3 -0.002917 -0.001766 0.017237 -0.010735 -0.010212 0.005220
# 4 0.001459 -0.001762 -0.010735 0.030570 0.015722 -0.011501
# 5 0.003438 -0.001124 -0.010212 0.015722 0.041030 -0.020727
# 6 -0.003049 0.001939 0.005220 -0.011501 -0.020727 0.036472
#
#
# Mechanical properties :
#
#
# Convention : Reuss Voigt Hill
#
# Bulk Modulus (GPa) = 35.65166 51.11810 43.38488
# Shear Modulus (GPa) = 29.17839 42.67392 35.92615
#
# Velocity S-wave (km/s) = 3.36596 4.07061 3.73494
# Velocity P-wave (km/s) = 5.38047 6.47625 5.95363
#
# Compressibility (1/GPa) = 0.02804918
#
# Stress axis : x y z
#
# Youngs Moduli (GPa) = 58.82685 147.97552 58.01540
#
# Poissons Ratio (x) = 0.26481 0.16922
# Poissons Ratio (y) = 0.10527 0.10245
# Poissons Ratio (z) = 0.17159 0.26131
#
# Static dielectric constant tensor:
#      x y z
#    x 2.015730 -0.102680 0.001450 
#    y -0.102680 2.305520 -0.128780 
#    z 0.001450 -0.128780 2.200260 
# 
# From -- ./inp_files/295888.got.cif
#   From: 2010.05.17/outbox.cif.g08.bks.cpg/sg2_148_cif.got.tgz:295888.got - 2010.06.03 11:33:40.
