data_PCOD9055694
_publ_section_title
;
Structure prediction by ZEFSAII (Michael W. Deem and Ramdas Pophale) SiO2 
 PCOD9055694
Probable space group: P -1
;
_chemical_formula_sum "Si O2"
_cell_formula_units_Z 14
_cell_length_a 16.158258
_cell_length_b 16.089023
_cell_length_c 8.322430
_cell_angle_alpha 127.650372
_cell_angle_beta 110.759261
_cell_angle_gamma 25.943551
_cell_volume 619.617213
_symmetry_space_group_name_H-M "P -1"
_symmetry_group_IT_number 2
_symmetry_cell_setting 'triclinic'
loop_
_space_group_symop_operation_xyz
x,y,z
-x,-y,-z
loop_
_atom_site_type_symbol
_atom_site_label
_atom_site_fract_x
_atom_site_fract_y
_atom_site_fract_z
Si Si1 0.202993 0.546526 0.441905
Si Si2 0.765225 0.810811 0.644740
Si Si3 0.831460 0.841964 0.381160
Si Si4 0.474530 0.963652 0.776606
Si Si5 0.534526 0.587236 0.101098
Si Si6 0.008555 0.098029 0.024610
Si Si7 0.573718 0.238957 0.133740
O O1 0.344564 0.325337 0.405798
O O2 0.000883 0.811164 0.724803
O O3 0.366806 0.454277 0.370188
O O4 0.088811 0.604017 0.288590
O O5 0.796013 0.817969 0.494579
O O6 0.566852 0.940972 0.678302
O O7 0.000000 0.500000 0.500000
O O8 0.689369 0.996112 0.915200
O O9 0.760677 0.837868 0.189733
O O10 0.655783 0.132889 0.608529
O O11 0.500000 0.000000 0.000000
O O12 0.783281 0.346978 0.055512
O O13 0.500000 0.500000 0.000000
O O14 0.518025 0.631583 0.953210
O O15 0.000000 0.000000 0.000000
O O16 0.236237 0.882589 0.833947
#
# Coordination Sequence:
#
# PCOD9055694 Si02
#       7
#     2   2   2   2   2   2   2
#     4  12  24  45  67 103 140 173 232 285 335 412
#     4  11  21  43  66  95 135 182 231 274 335 405
#     4  11  24  42  69  96 137 184 224 283 340 404
#     4  12  24  42  64  97 139 181 228 278 336 399
#     4  11  22  45  70  97 133 175 226 280 346 409
#     4  12  23  46  75  94 135 181 221 287 349 404
#     4  11  25  43  68 102 134 177 231 277 341 410
#
# _framework density 22.594595999999999
#
# number of rings (size 3 to 8) (size 9 to 14) (size 15 to 20)
#    0.000    0.571    8.571    0.429    0.000    2.286 
#    0.000    1.429    0.000    0.000    0.000    0.000 
#    0.000    0.000    0.000    0.000    0.000    0.000 
#
# Total GULP energy -78249.376458 kJ/mol
# GULP energy per Si atom -5589.241176 kJ/mol
# Density = 2.254317 g / cm^3
# Si number density = 22.594596 Si / 1000 Ang^3
#
#
#
# Elastic Constant Matrix: (Units=GPa)
#
#
# Indices 1 2 3 4 5 6 
#
# 1 154.4149 47.2181 15.2506 7.3479 -4.5283 -16.8154
# 2 47.2181 118.9275 9.7549 8.2999 14.2961 -26.0415
# 3 15.2506 9.7549 22.5395 -6.7729 -0.1138 4.0606
# 4 7.3479 8.2999 -6.7729 24.5031 -6.3501 6.5542
# 5 -4.5283 14.2961 -0.1138 -6.3501 32.9971 7.0604
# 6 -16.8154 -26.0415 4.0606 6.5542 7.0604 53.4737
#
#
#
# Elastic Compliance Matrix: (Units=1/GPa)
#
#
# Indices 1 2 3 4 5 6 
#
# 1 0.008192 -0.001978 -0.006351 -0.004045 0.000645 0.002506
# 2 -0.001978 0.014679 -0.010916 -0.013165 -0.011445 0.010480
# 3 -0.006351 -0.010916 0.066531 0.032565 0.014257 -0.018239
# 4 -0.004045 -0.013165 0.032565 0.067101 0.022750 -0.021385
# 5 0.000645 -0.011445 0.014257 0.022750 0.042972 -0.014916
# 6 0.002506 0.010480 -0.018239 -0.021385 -0.014916 0.030568
#
#
# Mechanical properties :
#
#
# Convention : Reuss Voigt Hill
#
# Bulk Modulus (GPa) = 19.64157 48.92545 34.28351
# Shear Modulus (GPa) = 17.51288 37.10534 27.30911
#
# Velocity S-wave (km/s) = 2.78707 4.05683 3.48035
# Velocity P-wave (km/s) = 4.36680 6.60639 5.59970
#
# Compressibility (1/GPa) = 0.05091242
#
# Stress axis : x y z
#
# Youngs Moduli (GPa) = 122.06330 68.12576 15.03048
#
# Poissons Ratio (x) = 0.13478 0.09545
# Poissons Ratio (y) = 0.24148 0.16408
# Poissons Ratio (z) = 0.77518 0.74367
#
# Static dielectric constant tensor:
#      x y z
#    x 1.882440 -0.009770 0.102850 
#    y -0.009770 1.857230 0.027180 
#    z 0.102850 0.027180 1.960930 
# 
# From -- ./inp_files/293411.got.cif
#   From: 2010.05.17/outbox.cif.g08.bks.cpg/sg2_147_cif.got.tgz:293411.got - 2010.06.03 11:33:40.
