data_PCOD9055296
_publ_section_title
;
Structure prediction by ZEFSAII (Michael W. Deem and Ramdas Pophale) SiO2 
 PCOD9055296
Probable space group: P -1
;
_chemical_formula_sum "Si O2"
_cell_formula_units_Z 16
_cell_length_a 15.039736
_cell_length_b 9.562618
_cell_length_c 12.455016
_cell_angle_alpha 49.396873
_cell_angle_beta 37.739552
_cell_angle_gamma 40.962438
_cell_volume 712.299391
_symmetry_space_group_name_H-M "P -1"
_symmetry_group_IT_number 2
_symmetry_cell_setting 'triclinic'
loop_
_space_group_symop_operation_xyz
x,y,z
-x,-y,-z
loop_
_atom_site_type_symbol
_atom_site_label
_atom_site_fract_x
_atom_site_fract_y
_atom_site_fract_z
Si Si1 0.049054 0.079492 0.307699
Si Si2 0.918560 0.982485 0.265434
Si Si3 0.471363 0.731199 0.443432
Si Si4 0.153293 0.677366 0.022924
Si Si5 0.453611 0.665803 0.867066
Si Si6 0.301285 0.101356 0.929272
Si Si7 0.050042 0.448817 0.833797
Si Si8 0.637098 0.749152 0.488342
O O1 0.007611 0.991037 0.284898
O O2 0.940641 0.338200 0.282247
O O3 0.239500 0.033268 0.128010
O O4 0.000000 0.000000 0.500000
O O5 0.722417 0.082067 0.438052
O O6 0.909657 0.145694 0.100577
O O7 0.039829 0.759031 0.199382
O O8 0.500000 0.500000 0.500000
O O9 0.559395 0.827902 0.234858
O O10 0.575477 0.678265 0.479985
O O11 0.129540 0.502770 0.066829
O O12 0.332966 0.639446 0.910469
O O13 0.620082 0.634023 0.665190
O O14 0.362494 0.904655 0.885636
O O15 0.500000 0.500000 0.000000
O O16 0.133453 0.306297 0.932516
O O17 0.181158 0.294319 0.693837
O O18 0.500000 0.000000 0.500000
#
# Coordination Sequence:
#
# PCOD9055296 Si02
#       8
#     2   2   2   2   2   2   2   2
#     4  12  27  45  66 102 149 183 223 285 361 418
#     4  11  21  42  70 101 136 174 235 284 334 408
#     4  11  23  38  69 103 134 173 239 284 326 409
#     4  11  22  40  72 104 127 177 239 287 329 413
#     4  12  25  43  70 101 143 178 222 299 357 414
#     4  11  23  46  69  99 135 188 233 277 347 419
#     4  11  23  41  74 100 133 182 236 286 335 420
#     4  11  21  41  66  99 132 177 231 275 346 405
#
# _framework density 22.462464000000001
#
# number of rings (size 3 to 8) (size 9 to 14) (size 15 to 20)
#    0.000    0.750    6.250    3.375    3.500    0.000 
#    2.250    1.875    0.000    0.000    0.000    0.000 
#    0.000    0.000    0.000    0.000    0.000    0.000 
#
# Total GULP energy -89244.319503 kJ/mol
# GULP energy per Si atom -5577.769969 kJ/mol
# Density = 2.241134 g / cm^3
# Si number density = 22.462464 Si / 1000 Ang^3
#
#
#
# Elastic Constant Matrix: (Units=GPa)
#
#
# Indices 1 2 3 4 5 6 
#
# 1 70.0652 10.4242 18.9698 -16.0449 1.2796 27.3862
# 2 10.4242 42.0633 15.1299 -6.6459 -1.0824 10.7747
# 3 18.9698 15.1299 175.6877 6.0854 12.5852 2.4886
# 4 -16.0449 -6.6459 6.0854 39.3430 -7.1490 -5.6152
# 5 1.2796 -1.0824 12.5852 -7.1490 42.5689 -2.1645
# 6 27.3862 10.7747 2.4886 -5.6152 -2.1645 24.0059
#
#
#
# Elastic Compliance Matrix: (Units=1/GPa)
#
#
# Indices 1 2 3 4 5 6 
#
# 1 0.029406 0.003654 -0.003310 0.008416 -0.000071 -0.032881
# 2 0.003654 0.028688 -0.002922 0.004855 0.001512 -0.015470
# 3 -0.003310 -0.002922 0.006501 -0.002733 -0.002174 0.003579
# 4 0.008416 0.004855 -0.002733 0.030565 0.005616 -0.003841
# 5 -0.000071 0.001512 -0.002174 0.005616 0.025282 0.003221
# 6 -0.032881 -0.015470 0.003579 -0.003841 0.003221 0.085132
#
#
# Mechanical properties :
#
#
# Convention : Reuss Voigt Hill
#
# Bulk Modulus (GPa) = 16.82469 41.87379 29.34924
# Shear Modulus (GPa) = 21.68790 37.40303 29.54547
#
# Velocity S-wave (km/s) = 3.11065 4.08503 3.63068
# Velocity P-wave (km/s) = 4.51751 6.39782 5.53805
#
# Compressibility (1/GPa) = 0.05943645
#
# Stress axis : x y z
#
# Youngs Moduli (GPa) = 34.00695 34.85774 153.82882
#
# Poissons Ratio (x) = -0.12736 0.50923
# Poissons Ratio (y) = -0.12426 0.44956
# Poissons Ratio (z) = 0.11258 0.10187
#
# Static dielectric constant tensor:
#      x y z
#    x 2.521980 1.024680 -0.402650 
#    y 1.024680 3.375030 -0.425850 
#    z -0.402650 -0.425850 2.085720 
# 
# From -- ./inp_files/446744.got.cif
#   From: 2010.05.17/outbox.cif.g08.bks.cpg/sg2_224_cif.got.tgz:446744.got - 2010.06.03 11:33:40.
