data_PCOD9055472
_publ_section_title
;
Structure prediction by ZEFSAII (Michael W. Deem and Ramdas Pophale) SiO2 
 PCOD9055472
Probable space group: P -1
;
_chemical_formula_sum "Si O2"
_cell_formula_units_Z 16
_cell_length_a 19.288613
_cell_length_b 16.837319
_cell_length_c 26.187493
_cell_angle_alpha 18.404422
_cell_angle_beta 162.359739
_cell_angle_gamma 152.399884
_cell_volume 799.132749
_symmetry_space_group_name_H-M "P -1"
_symmetry_group_IT_number 2
_symmetry_cell_setting 'triclinic'
loop_
_space_group_symop_operation_xyz
x,y,z
-x,-y,-z
loop_
_atom_site_type_symbol
_atom_site_label
_atom_site_fract_x
_atom_site_fract_y
_atom_site_fract_z
Si Si1 0.852008 0.523844 0.953486
Si Si2 0.892495 0.725891 0.350852
Si Si3 0.011286 0.232977 0.405147
Si Si4 0.587677 0.105783 0.048970
Si Si5 0.825775 0.915646 0.613782
Si Si6 0.780136 0.398029 0.748891
Si Si7 0.895080 0.799694 0.190529
Si Si8 0.433503 0.702617 0.876097
O O1 0.743283 0.772274 0.692347
O O2 0.662539 0.382929 0.932470
O O3 0.975252 0.299090 0.139602
O O4 0.057667 0.576489 0.103114
O O5 0.964572 0.766859 0.318609
O O6 0.916953 0.426658 0.565079
O O7 0.628604 0.873152 0.078031
O O8 0.053226 0.856288 0.420856
O O9 0.121590 0.437546 0.325973
O O10 0.774026 0.332511 0.209324
O O11 0.194058 0.101805 0.654882
O O12 0.000000 0.000000 0.500000
O O13 0.500000 0.000000 0.000000
O O14 0.647869 0.029226 0.375182
O O15 0.500000 0.500000 0.500000
O O16 0.845354 0.099746 0.960832
O O17 0.654640 0.710514 0.061899
O O18 0.500000 0.500000 0.000000
#
# Coordination Sequence:
#
# PCOD9055472 Si02
#       8
#     2   2   2   2   2   2   2   2
#     4  11  23  39  68  99 134 169 227 288 336 394
#     4  11  22  43  65  95 132 180 224 268 340 409
#     4  12  24  43  71 102 133 180 233 278 341 410
#     4  12  23  40  67  98 133 171 224 281 331 400
#     4  11  21  42  65  95 132 175 224 273 343 398
#     4  12  24  43  69 105 140 174 230 289 341 405
#     4  11  25  42  67  95 134 181 222 274 340 408
#     4  12  24  45  69  97 137 186 226 280 343 413
#
# _framework density 20.021705000000001
#
# number of rings (size 3 to 8) (size 9 to 14) (size 15 to 20)
#    0.000    0.500    6.250    3.000    0.000    1.000 
#    2.250    1.250    0.000    0.000    0.000    0.000 
#    0.000    0.000    0.000    0.000    0.000    0.000 
#
# Total GULP energy -89220.459961 kJ/mol
# GULP energy per Si atom -5576.278748 kJ/mol
# Density = 1.997613 g / cm^3
# Si number density = 20.021705 Si / 1000 Ang^3
#
#
#
# Elastic Constant Matrix: (Units=GPa)
#
#
# Indices 1 2 3 4 5 6 
#
# 1 71.8663 28.5425 18.7006 -5.6583 -1.7954 2.5650
# 2 28.5425 97.6882 28.7665 -9.0263 4.6783 -9.5781
# 3 18.7006 28.7665 70.5134 -7.9194 -2.3663 7.2043
# 4 -5.6583 -9.0263 -7.9194 46.1747 -4.8881 -8.0345
# 5 -1.7954 4.6783 -2.3663 -4.8881 35.3041 -3.4618
# 6 2.5650 -9.5781 7.2043 -8.0345 -3.4618 34.3818
#
#
#
# Elastic Compliance Matrix: (Units=1/GPa)
#
#
# Indices 1 2 3 4 5 6 
#
# 1 0.016345 -0.004254 -0.002323 0.000607 0.001161 -0.001659
# 2 -0.004254 0.013713 -0.004840 0.002124 -0.001525 0.005494
# 3 -0.002323 -0.004840 0.017398 0.001135 0.001414 -0.004413
# 4 0.000607 0.002124 0.001135 0.023825 0.003737 0.006252
# 5 0.001161 -0.001525 0.001414 0.003737 0.029496 0.003036
# 6 -0.001659 0.005494 -0.004413 0.006252 0.003036 0.033431
#
#
# Mechanical properties :
#
#
# Convention : Reuss Voigt Hill
#
# Bulk Modulus (GPa) = 40.61363 43.56524 42.08944
# Shear Modulus (GPa) = 30.25760 34.10935 32.18348
#
# Velocity S-wave (km/s) = 3.89168 4.13197 4.01363
# Velocity P-wave (km/s) = 6.36572 6.67611 6.52276
#
# Compressibility (1/GPa) = 0.02462228
#
# Stress axis : x y z
#
# Youngs Moduli (GPa) = 61.18245 72.92474 57.47767
#
# Poissons Ratio (x) = 0.31020 0.13350
# Poissons Ratio (y) = 0.26025 0.27820
# Poissons Ratio (z) = 0.14211 0.35297
#
# Static dielectric constant tensor:
#      x y z
#    x 1.788440 0.004400 -0.003870 
#    y 0.004400 1.705680 -0.037580 
#    z -0.003870 -0.037580 1.733410 
# 
# From -- ./inp_files/263010.got.cif
#   From: 2010.05.17/outbox.cif.g08.bks.cpg/sg2_132_cif.got.tgz:263010.got - 2010.06.03 11:33:40.
