data_PCOD9055268
_publ_section_title
;
Structure prediction by ZEFSAII (Michael W. Deem and Ramdas Pophale) SiO2 
 PCOD9055268
Probable space group: P -1
;
_chemical_formula_sum "Si O2"
_cell_formula_units_Z 14
_cell_length_a 8.533156
_cell_length_b 9.519775
_cell_length_c 12.840140
_cell_angle_alpha 63.520446
_cell_angle_beta 117.805386
_cell_angle_gamma 73.903223
_cell_volume 652.546376
_symmetry_space_group_name_H-M "P -1"
_symmetry_group_IT_number 2
_symmetry_cell_setting 'triclinic'
loop_
_space_group_symop_operation_xyz
x,y,z
-x,-y,-z
loop_
_atom_site_type_symbol
_atom_site_label
_atom_site_fract_x
_atom_site_fract_y
_atom_site_fract_z
Si Si1 0.077945 0.887724 0.384818
Si Si2 0.886691 0.155553 0.819965
Si Si3 0.363149 0.413328 0.625157
Si Si4 0.133929 0.472475 0.328522
Si Si5 0.492285 0.837417 0.603977
Si Si6 0.686130 0.539547 0.168934
Si Si7 0.600317 0.220641 0.197246
O O1 0.055480 0.954270 0.236288
O O2 0.217182 0.651505 0.502907
O O3 0.238805 0.916653 0.486301
O O4 0.836208 0.009051 0.320045
O O5 0.617499 0.299928 0.703935
O O6 0.958855 0.299026 0.784799
O O7 0.000000 0.000000 0.000000
O O8 0.237661 0.384861 0.504778
O O9 0.366360 0.364419 0.763650
O O10 0.333474 0.357573 0.344794
O O11 0.940935 0.451702 0.254112
O O12 0.541121 0.795061 0.754859
O O13 0.500000 0.000000 0.500000
O O14 0.647021 0.372692 0.204485
O O15 0.529270 0.694738 0.979391
#
# Coordination Sequence:
#
# PCOD9055268 Si02
#       7
#     2   2   2   2   2   2   2
#     4  11  21  41  65  94 128 173 221 259 328 394
#     4  11  22  41  69  95 135 173 211 274 336 388
#     4  11  21  44  68  94 131 173 217 270 328 392
#     4  11  23  43  66 102 128 170 228 270 323 387
#     4  12  24  40  69  97 130 170 226 271 317 396
#     4  11  24  43  67  95 140 173 215 278 327 388
#     4  11  25  43  64  97 135 180 216 267 337 385
#
# _framework density 21.454412999999999
#
# number of rings (size 3 to 8) (size 9 to 14) (size 15 to 20)
#    0.000    0.857    4.286    3.429    2.000    2.857 
#    0.000    3.571    0.000    0.000    0.000    0.000 
#    0.000    0.000    0.000    0.000    0.000    0.000 
#
# Total GULP energy -78255.617245 kJ/mol
# GULP energy per Si atom -5589.686946 kJ/mol
# Density = 2.140558 g / cm^3
# Si number density = 21.454413 Si / 1000 Ang^3
#
#
#
# Elastic Constant Matrix: (Units=GPa)
#
#
# Indices 1 2 3 4 5 6 
#
# 1 81.0315 25.0667 55.0136 11.5914 -5.5545 -14.1272
# 2 25.0667 38.3292 30.2949 2.0229 -3.4365 -26.2828
# 3 55.0136 30.2949 96.9338 23.0364 -16.3358 -7.6558
# 4 11.5914 2.0229 23.0364 26.6335 -7.6850 -11.2528
# 5 -5.5545 -3.4365 -16.3358 -7.6850 44.4875 5.6538
# 6 -14.1272 -26.2828 -7.6558 -11.2528 5.6538 37.6498
#
#
#
# Elastic Compliance Matrix: (Units=1/GPa)
#
#
# Indices 1 2 3 4 5 6 
#
# 1 0.021864 0.003780 -0.014771 0.006533 -0.002567 0.010177
# 2 0.003780 0.154657 -0.064337 0.092031 -0.011257 0.125497
# 3 -0.014771 -0.064337 0.048175 -0.052030 0.009207 -0.057593
# 4 0.006533 0.092031 -0.052030 0.109426 -0.003635 0.089368
# 5 -0.002567 -0.011257 0.009207 -0.003635 0.025550 -0.011873
# 6 0.010177 0.125497 -0.057593 0.089368 -0.011873 0.134769
#
#
# Mechanical properties :
#
#
# Convention : Reuss Voigt Hill
#
# Bulk Modulus (GPa) = 13.50640 48.56054 31.03347
# Shear Modulus (GPa) = 7.46517 28.81545 18.14031
#
# Velocity S-wave (km/s) = 1.86738 3.66881 2.91095
# Velocity P-wave (km/s) = 3.31037 6.37419 5.07882
#
# Compressibility (1/GPa) = 0.07403896
#
# Stress axis : x y z
#
# Youngs Moduli (GPa) = 45.73756 6.46591 20.75766
#
# Poissons Ratio (x) = -0.02444 0.30662
# Poissons Ratio (y) = -0.17289 1.33549
# Poissons Ratio (z) = 0.67561 0.41600
#
# Static dielectric constant tensor:
#      x y z
#    x 1.771660 0.004050 -0.039460 
#    y 0.004050 1.870970 0.029210 
#    z -0.039460 0.029210 1.797270 
# 
# From -- ./inp_files/159420.got.cif
#   From: 2010.05.17/outbox.cif.g08.bks.cpg/sg2_80_cif.got.tgz:159420.got - 2010.06.03 11:33:40.
