data_PCOD9055844
_publ_section_title
;
Structure prediction by ZEFSAII (Michael W. Deem and Ramdas Pophale) SiO2 
 PCOD9055844
Probable space group: P -1
;
_chemical_formula_sum "Si O2"
_cell_formula_units_Z 16
_cell_length_a 7.313484
_cell_length_b 5.618952
_cell_length_c 17.676580
_cell_angle_alpha 82.954796
_cell_angle_beta 126.165985
_cell_angle_gamma 94.827121
_cell_volume 581.942780
_symmetry_space_group_name_H-M "P -1"
_symmetry_group_IT_number 2
_symmetry_cell_setting 'triclinic'
loop_
_space_group_symop_operation_xyz
x,y,z
-x,-y,-z
loop_
_atom_site_type_symbol
_atom_site_label
_atom_site_fract_x
_atom_site_fract_y
_atom_site_fract_z
Si Si1 0.284909 0.151575 0.462142
Si Si2 0.146320 0.476971 0.958143
Si Si3 0.833164 0.312886 0.504814
Si Si4 0.479952 0.383846 0.644768
Si Si5 0.240319 0.004771 0.904928
Si Si6 0.522887 0.443278 0.161571
Si Si7 0.574131 0.919135 0.219354
Si Si8 0.938798 0.482397 0.695302
O O1 0.387865 0.340887 0.538616
O O2 0.157878 0.255424 0.356265
O O3 0.500000 0.000000 0.500000
O O4 0.129527 0.967453 0.474223
O O5 0.130154 0.740553 0.904635
O O6 0.123170 0.231984 0.910736
O O7 0.403682 0.449252 0.052260
O O8 0.000000 0.500000 0.000000
O O9 0.619000 0.348336 0.390758
O O10 0.883572 0.357269 0.606120
O O11 0.000000 0.500000 0.500000
O O12 0.364354 0.193991 0.680203
O O13 0.751087 0.373264 0.710633
O O14 0.265957 0.041050 0.818231
O O15 0.500000 0.000000 0.000000
O O16 0.427705 0.682900 0.168006
O O17 0.794480 0.484449 0.228007
O O18 0.470557 0.181479 0.193059
#
# Coordination Sequence:
#
# PCOD9055844 Si02
#       8
#     2   2   2   2   2   2   2   2
#     4  11  21  43  75 102 145 210 271 325 389 466
#     4  12  26  52  89 120 157 209 271 331 404 502
#     4  11  23  41  71 100 144 204 261 321 391 467
#     4  11  25  44  68 110 150 204 270 324 389 477
#     4  12  23  52  87 116 159 206 263 331 410 496
#     4  12  27  50  74 117 159 201 263 330 406 471
#     4  12  28  48  77 115 163 201 258 333 404 478
#     4  11  25  43  71 106 152 203 266 331 398 465
#
# _framework density 27.494112999999999
#
# number of rings (size 3 to 8) (size 9 to 14) (size 15 to 20)
#    0.000    0.500    5.000    3.000    7.000    1.000 
#    6.750    0.000    0.000    0.000    0.000    0.000 
#    0.000    0.000    0.000    0.000    0.000    0.000 
#
# Total GULP energy -89153.932214 kJ/mol
# GULP energy per Si atom -5572.120763 kJ/mol
# Density = 2.743153 g / cm^3
# Si number density = 27.494113 Si / 1000 Ang^3
#
#
#
# Elastic Constant Matrix: (Units=GPa)
#
#
# Indices 1 2 3 4 5 6 
#
# 1 162.4009 32.9957 58.6355 -11.0312 -15.9184 13.6517
# 2 32.9957 184.6176 32.9298 -21.8861 -24.5510 21.5891
# 3 58.6355 32.9298 136.1038 -10.7787 3.3783 11.9276
# 4 -11.0312 -21.8861 -10.7787 47.4046 10.0143 -20.5455
# 5 -15.9184 -24.5510 3.3783 10.0143 60.3075 -7.0584
# 6 13.6517 21.5891 11.9276 -20.5455 -7.0584 29.8487
#
#
#
# Elastic Compliance Matrix: (Units=1/GPa)
#
#
# Indices 1 2 3 4 5 6 
#
# 1 0.007679 -0.000394 -0.003130 -0.000239 0.001883 -0.001696
# 2 -0.000394 0.006407 -0.001106 0.000927 0.002075 -0.002884
# 3 -0.003130 -0.001106 0.009196 0.000644 -0.002073 -0.001490
# 4 -0.000239 0.000927 0.000644 0.030687 -0.002511 0.019710
# 5 0.001883 0.002075 -0.002073 -0.002511 0.018589 0.001134
# 6 -0.001696 -0.002884 -0.001490 0.019710 0.001134 0.050794
#
#
# Mechanical properties :
#
#
# Convention : Reuss Voigt Hill
#
# Bulk Modulus (GPa) = 71.31112 81.36046 76.33579
# Shear Modulus (GPa) = 36.42040 51.41625 43.91833
#
# Velocity S-wave (km/s) = 3.64354 4.32914 4.00105
# Velocity P-wave (km/s) = 6.61012 7.39221 7.01208
#
# Compressibility (1/GPa) = 0.01402306
#
# Stress axis : x y z
#
# Youngs Moduli (GPa) = 130.23360 156.07268 108.73863
#
# Poissons Ratio (x) = 0.06145 0.34033
# Poissons Ratio (y) = 0.05128 0.12026
# Poissons Ratio (z) = 0.40761 0.17261
#
# Static dielectric constant tensor:
#      x y z
#    x 2.970990 -1.106070 0.299550 
#    y -1.106070 4.115500 -0.388990 
#    z 0.299550 -0.388990 2.384870 
# 
# From -- ./inp_files/553471.got.cif
#   From: 2010.05.17/outbox.cif.g08.bks.cpg/sg2_277_cif.got.tgz:553471.got - 2010.06.03 11:33:40.
