data_PCOD9055450
_publ_section_title
;
Structure prediction by ZEFSAII (Michael W. Deem and Ramdas Pophale) SiO2 
 PCOD9055450
Probable space group: P -1
;
_chemical_formula_sum "Si O2"
_cell_formula_units_Z 16
_cell_length_a 8.274789
_cell_length_b 11.523513
_cell_length_c 15.902744
_cell_angle_alpha 144.793636
_cell_angle_beta 130.483736
_cell_angle_gamma 54.660062
_cell_volume 660.950649
_symmetry_space_group_name_H-M "P -1"
_symmetry_group_IT_number 2
_symmetry_cell_setting 'triclinic'
loop_
_space_group_symop_operation_xyz
x,y,z
-x,-y,-z
loop_
_atom_site_type_symbol
_atom_site_label
_atom_site_fract_x
_atom_site_fract_y
_atom_site_fract_z
Si Si1 0.722257 0.574316 0.646247
Si Si2 0.516153 0.895426 0.295781
Si Si3 0.893696 0.949040 0.845587
Si Si4 0.049863 0.155739 0.683070
Si Si5 0.583635 0.710821 0.395302
Si Si6 0.250240 0.429034 0.156318
Si Si7 0.039723 0.785058 0.562610
Si Si8 0.273533 0.999969 0.880637
O O1 0.500000 0.500000 0.500000
O O2 0.789426 0.742923 0.705682
O O3 0.734721 0.650028 0.789907
O O4 0.895858 0.376935 0.583033
O O5 0.701665 0.835966 0.254299
O O6 0.542555 0.765170 0.314339
O O7 0.293603 0.900024 0.172189
O O8 0.517767 0.119278 0.471831
O O9 0.089822 0.936313 0.841119
O O10 0.000000 0.000000 0.000000
O O11 0.927449 0.377295 0.787524
O O12 0.972650 0.015598 0.649233
O O13 0.000000 0.000000 0.500000
O O14 0.473277 0.511399 0.257662
O O15 0.837870 0.705009 0.491705
O O16 0.214044 0.235204 0.973559
O O17 0.263133 0.827094 0.705422
O O18 0.500000 0.000000 0.000000
#
# Coordination Sequence:
#
# PCOD9055450 Si02
#       8
#     2   2   2   2   2   2   2   2
#     4  12  25  44  76 106 136 197 250 293 354 437
#     4  11  22  43  73 107 142 186 236 306 365 419
#     4  12  27  49  73 100 152 195 238 294 358 443
#     4  12  21  42  73 107 142 180 236 306 361 427
#     4  11  21  41  75 107 142 177 243 309 362 421
#     4  12  25  46  72 106 149 188 241 295 370 437
#     4  12  25  44  75 106 142 189 245 303 366 424
#     4  12  30  50  67 103 154 196 235 299 367 424
#
# _framework density 24.207557999999999
#
# number of rings (size 3 to 8) (size 9 to 14) (size 15 to 20)
#    0.000    0.250    6.250    3.000    3.500    1.000 
#    0.000    0.625    0.000    0.000    0.000    0.000 
#    0.000    0.000    0.000    0.000    0.000    0.000 
#
# Total GULP energy -89320.819861 kJ/mol
# GULP energy per Si atom -5582.551241 kJ/mol
# Density = 2.415246 g / cm^3
# Si number density = 24.207558 Si / 1000 Ang^3
#
#
#
# Elastic Constant Matrix: (Units=GPa)
#
#
# Indices 1 2 3 4 5 6 
#
# 1 102.5074 19.9374 50.9282 16.5068 23.9809 -16.6057
# 2 19.9374 70.6347 17.9670 -5.8375 11.5867 -11.2908
# 3 50.9282 17.9670 122.2688 -0.7863 15.4545 -4.1054
# 4 16.5068 -5.8375 -0.7863 43.8834 -3.0674 8.7026
# 5 23.9809 11.5867 15.4545 -3.0674 44.7330 6.8122
# 6 -16.6057 -11.2908 -4.1054 8.7026 6.8122 40.6385
#
#
#
# Elastic Compliance Matrix: (Units=1/GPa)
#
#
# Indices 1 2 3 4 5 6 
#
# 1 0.018610 -0.001263 -0.006036 -0.010035 -0.009843 0.010443
# 2 -0.001263 0.016214 -0.001251 0.001536 -0.003615 0.004139
# 3 -0.006036 -0.001251 0.010764 0.002799 0.000397 -0.002392
# 4 -0.010035 0.001536 0.002799 0.029540 0.007717 -0.011011
# 5 -0.009843 -0.003615 0.000397 0.007717 0.030756 -0.011795
# 6 0.010443 0.004139 -0.002392 -0.011011 -0.011795 0.034118
#
#
# Mechanical properties :
#
#
# Convention : Reuss Voigt Hill
#
# Bulk Modulus (GPa) = 35.10158 52.56402 43.83280
# Shear Modulus (GPa) = 30.01258 39.62284 34.81771
#
# Velocity S-wave (km/s) = 3.52490 4.05012 3.79661
# Velocity P-wave (km/s) = 5.57659 6.60548 6.11272
#
# Compressibility (1/GPa) = 0.02848875
#
# Stress axis : x y z
#
# Youngs Moduli (GPa) = 53.73423 61.67637 92.90208
#
# Poissons Ratio (x) = 0.07791 0.56074
# Poissons Ratio (y) = 0.06788 0.11618
# Poissons Ratio (z) = 0.32433 0.07713
#
# Static dielectric constant tensor:
#      x y z
#    x 1.963900 0.053710 -0.056610 
#    y 0.053710 2.142440 -0.101170 
#    z -0.056610 -0.101170 1.951200 
# 
# From -- ./inp_files/560214.got.cif
#   From: 2010.05.17/outbox.cif.g08.bks.cpg/sg2_281_cif.got.tgz:560214.got - 2010.06.03 11:33:40.
