data_PCOD9055830
_publ_section_title
;
Structure prediction by ZEFSAII (Michael W. Deem and Ramdas Pophale) SiO2 
 PCOD9055830
Probable space group: P -1
;
_chemical_formula_sum "Si O2"
_cell_formula_units_Z 14
_cell_length_a 9.223303
_cell_length_b 8.422694
_cell_length_c 17.629096
_cell_angle_alpha 127.134849
_cell_angle_beta 62.026697
_cell_angle_gamma 77.375440
_cell_volume 676.476200
_symmetry_space_group_name_H-M "P -1"
_symmetry_group_IT_number 2
_symmetry_cell_setting 'triclinic'
loop_
_space_group_symop_operation_xyz
x,y,z
-x,-y,-z
loop_
_atom_site_type_symbol
_atom_site_label
_atom_site_fract_x
_atom_site_fract_y
_atom_site_fract_z
Si Si1 0.222804 0.702310 0.401488
Si Si2 0.117420 0.346197 0.346711
Si Si3 0.581240 0.679432 0.239041
Si Si4 0.745853 0.705313 0.428631
Si Si5 0.451841 0.318706 0.931315
Si Si6 0.044194 0.367644 0.800621
Si Si7 0.357523 0.742807 0.540628
O O1 0.203603 0.483494 0.332679
O O2 0.461773 0.585643 0.275195
O O3 0.236236 0.732105 0.497727
O O4 0.000000 0.000000 0.500000
O O5 0.000000 0.500000 0.500000
O O6 0.920494 0.440513 0.364734
O O7 0.322215 0.012737 0.207635
O O8 0.596747 0.641600 0.134824
O O9 0.828218 0.550168 0.171221
O O10 0.393983 0.012653 0.405609
O O11 0.886626 0.683048 0.319475
O O12 0.552813 0.720615 0.449037
O O13 0.500000 0.500000 0.000000
O O14 0.228276 0.416978 0.056152
O O15 0.169008 0.059381 0.712959
O O16 0.500000 0.500000 0.500000
#
# Coordination Sequence:
#
# PCOD9055830 Si02
#       7
#     2   2   2   2   2   2   2
#     4  12  22  41  74 106 137 182 241 293 346 411
#     4  12  25  44  73 103 140 185 245 292 348 429
#     4  11  22  47  69  98 137 194 225 286 353 427
#     4  11  21  43  74 101 139 182 239 283 350 427
#     4  12  30  46  69 102 147 187 232 297 367 414
#     4  11  24  46  68 102 145 185 229 292 364 416
#     4  11  23  38  72 110 136 179 242 291 343 424
#
# _framework density 20.69548
#
# number of rings (size 3 to 8) (size 9 to 14) (size 15 to 20)
#    0.000    0.571    5.714    2.143   10.000    0.571 
#    0.000    0.714    0.000    0.000    0.000    0.000 
#    0.000    0.000    0.000    0.000    0.000    0.000 
#
# Total GULP energy -78266.864296 kJ/mol
# GULP energy per Si atom -5590.490307 kJ/mol
# Density = 2.064838 g / cm^3
# Si number density = 20.695480 Si / 1000 Ang^3
#
#
#
# Elastic Constant Matrix: (Units=GPa)
#
#
# Indices 1 2 3 4 5 6 
#
# 1 136.2907 25.6007 49.3435 -0.4254 -5.1972 -5.8021
# 2 25.6007 79.6058 42.9773 6.9233 -0.9475 -9.2955
# 3 49.3435 42.9773 122.9748 -1.4336 -16.1352 -0.4726
# 4 -0.4254 6.9233 -1.4336 37.2345 -2.1007 -0.0512
# 5 -5.1972 -0.9475 -16.1352 -2.1007 34.5499 -4.3501
# 6 -5.8021 -9.2955 -0.4726 -0.0512 -4.3501 42.2774
#
#
#
# Elastic Compliance Matrix: (Units=1/GPa)
#
#
# Indices 1 2 3 4 5 6 
#
# 1 0.008702 -0.001009 -0.003141 0.000164 -0.000058 0.000932
# 2 -0.001009 0.016623 -0.005717 -0.003440 -0.002169 0.003225
# 3 -0.003141 -0.005717 0.012060 0.001771 0.004980 -0.001039
# 4 0.000164 -0.003440 0.001771 0.027701 0.002387 -0.000435
# 5 -0.000058 -0.002169 0.004980 0.002387 0.031703 0.002836
# 6 0.000932 0.003225 -0.001039 -0.000435 0.002836 0.024770
#
#
# Mechanical properties :
#
#
# Convention : Reuss Voigt Hill
#
# Bulk Modulus (GPa) = 56.65384 63.85715 60.25550
# Shear Modulus (GPa) = 33.97294 37.54233 35.75764
#
# Velocity S-wave (km/s) = 4.05602 4.26377 4.16119
# Velocity P-wave (km/s) = 7.02634 7.42713 7.22951
#
# Compressibility (1/GPa) = 0.01765105
#
# Stress axis : x y z
#
# Youngs Moduli (GPa) = 114.91641 60.15876 82.91783
#
# Poissons Ratio (x) = 0.06069 0.26047
# Poissons Ratio (y) = 0.11593 0.47402
# Poissons Ratio (z) = 0.36099 0.34392
#
# Static dielectric constant tensor:
#      x y z
#    x 1.779430 0.014990 -0.012400 
#    y 0.014990 1.776290 -0.008000 
#    z -0.012400 -0.008000 1.709610 
# 
# From -- ./inp_files/158933.got.cif
#   From: 2010.05.17/outbox.cif.g08.bks.cpg/sg2_80_cif.got.tgz:158933.got - 2010.06.03 11:33:40.
