data_PCOD9055231
_publ_section_title
;
Structure prediction by ZEFSAII (Michael W. Deem and Ramdas Pophale) SiO2 
 PCOD9055231
Probable space group: P -1
;
_chemical_formula_sum "Si O2"
_cell_formula_units_Z 13
_cell_length_a 8.624852
_cell_length_b 8.066577
_cell_length_c 10.205410
_cell_angle_alpha 108.380750
_cell_angle_beta 120.648043
_cell_angle_gamma 50.712028
_cell_volume 472.745566
_symmetry_space_group_name_H-M "P -1"
_symmetry_group_IT_number 2
_symmetry_cell_setting 'triclinic'
loop_
_space_group_symop_operation_xyz
x,y,z
-x,-y,-z
loop_
_atom_site_type_symbol
_atom_site_label
_atom_site_fract_x
_atom_site_fract_y
_atom_site_fract_z
Si Si1 0.695487 0.624131 0.632928
Si Si2 0.202768 0.036876 0.262964
Si Si3 0.500000 0.000000 0.000000
Si Si4 0.641255 0.573599 0.302804
Si Si5 0.692122 0.260197 0.081615
Si Si6 0.151796 0.307009 0.799227
Si Si7 0.234141 0.952428 0.563074
O O1 0.721030 0.816422 0.716904
O O2 0.730543 0.577671 0.482397
O O3 0.448555 0.713218 0.582414
O O4 0.897119 0.413997 0.734251
O O5 0.953357 0.137546 0.133876
O O6 0.389542 0.788844 0.242571
O O7 0.214902 0.042755 0.429680
O O8 0.280409 0.252429 0.974697
O O9 0.367066 0.908596 0.989515
O O10 0.673975 0.350122 0.242260
O O11 0.793004 0.578283 0.256268
O O12 0.500000 0.500000 0.000000
O O13 0.274888 0.069160 0.728016
O O14 0.000000 0.000000 0.500000
#
# Coordination Sequence:
#
# PCOD9055231 Si02
#       7
#     2   2   1   2   2   2   2
#     4  11  21  40  76 108 134 187 243 282 365 441
#     4  11  21  41  73 107 132 186 245 286 360 436
#     4  12  28  48  64 106 146 188 242 298 346 420
#     4  11  21  41  75 106 133 186 240 292 357 421
#     4  12  25  46  72  97 143 197 240 289 353 420
#     4  12  22  43  70  96 147 187 234 295 351 420
#     4  11  23  40  66 104 148 178 225 307 363 416
#
# _framework density 27.498933999999998
#
# number of rings (size 3 to 8) (size 9 to 14) (size 15 to 20)
#    0.000    0.615    6.154    3.231    0.000    1.231 
#    0.000    6.154    0.000    0.000    0.000    0.000 
#    0.000    0.000    0.000    0.000    0.000    0.000 
#
# Total GULP energy -72550.608568 kJ/mol
# GULP energy per Si atom -5580.816044 kJ/mol
# Density = 2.743635 g / cm^3
# Si number density = 27.498934 Si / 1000 Ang^3
#
#
#
# Elastic Constant Matrix: (Units=GPa)
#
#
# Indices 1 2 3 4 5 6 
#
# 1 100.7299 22.1805 32.7980 -8.3640 10.6852 0.0152
# 2 22.1805 109.2187 21.2418 -4.6211 10.9002 -31.0699
# 3 32.7980 21.2418 47.0978 -24.6644 17.4477 -18.2047
# 4 -8.3640 -4.6211 -24.6644 79.0285 -11.6938 19.1083
# 5 10.6852 10.9002 17.4477 -11.6938 50.3061 -11.8554
# 6 0.0152 -31.0699 -18.2047 19.1083 -11.8554 45.5787
#
#
#
# Elastic Compliance Matrix: (Units=1/GPa)
#
#
# Indices 1 2 3 4 5 6 
#
# 1 0.014100 -0.002329 -0.011413 -0.000809 -0.000095 -0.005836
# 2 -0.002329 0.012325 -0.001718 -0.002150 -0.000052 0.008604
# 3 -0.011413 -0.001718 0.040539 0.007908 -0.007101 0.009862
# 4 -0.000809 -0.002150 0.007908 0.016183 0.000487 -0.004965
# 5 -0.000095 -0.000052 -0.007101 0.000487 0.023182 0.002954
# 6 -0.005836 0.008604 0.009862 -0.004965 0.002954 0.034596
#
#
# Mechanical properties :
#
#
# Convention : Reuss Voigt Hill
#
# Bulk Modulus (GPa) = 27.74306 45.49857 36.62082
# Shear Modulus (GPa) = 27.19468 47.03771 37.11620
#
# Velocity S-wave (km/s) = 3.14815 4.14034 3.67786
# Velocity P-wave (km/s) = 4.82961 6.27997 5.60193
#
# Compressibility (1/GPa) = 0.03604505
#
# Stress axis : x y z
#
# Youngs Moduli (GPa) = 70.92041 81.13697 24.66750
#
# Poissons Ratio (x) = 0.18896 0.28153
# Poissons Ratio (y) = 0.16516 0.04237
# Poissons Ratio (z) = 0.80941 0.13938
#
# Static dielectric constant tensor:
#      x y z
#    x 2.114540 0.022620 0.051510 
#    y 0.022620 2.094470 0.029210 
#    z 0.051510 0.029210 1.750160 
# 
# From -- ./inp_files/380128.got.cif
#   From: 2010.05.17/outbox.cif.g08.bks.cpg/sg2_191_cif.got.tgz:380128.got - 2010.06.03 11:33:40.
