data_PCOD9055007
_publ_section_title
;
Structure prediction by ZEFSAII (Michael W. Deem and Ramdas Pophale) SiO2 
 PCOD9055007
Probable space group: P -1
;
_chemical_formula_sum "Si O2"
_cell_formula_units_Z 12
_cell_length_a 10.104053
_cell_length_b 7.347622
_cell_length_c 14.954118
_cell_angle_alpha 51.416046
_cell_angle_beta 142.503145
_cell_angle_gamma 129.894117
_cell_volume 502.585971
_symmetry_space_group_name_H-M "P -1"
_symmetry_group_IT_number 2
_symmetry_cell_setting 'triclinic'
loop_
_space_group_symop_operation_xyz
x,y,z
-x,-y,-z
loop_
_atom_site_type_symbol
_atom_site_label
_atom_site_fract_x
_atom_site_fract_y
_atom_site_fract_z
Si Si1 0.897382 0.589918 0.330900
Si Si2 0.557820 0.092750 0.716989
Si Si3 0.284902 0.076378 0.396483
Si Si4 0.161321 0.884746 0.674882
Si Si5 0.584797 0.556866 0.920947
Si Si6 0.954319 0.574274 0.814563
O O1 0.870650 0.378444 0.307896
O O2 0.642217 0.598055 0.205369
O O3 0.000000 0.500000 0.500000
O O4 0.073918 0.846810 0.323602
O O5 0.371134 0.103576 0.538530
O O6 0.774791 0.329634 0.753951
O O7 0.417518 0.058255 0.745690
O O8 0.620460 0.840152 0.827395
O O9 0.218998 0.315516 0.254975
O O10 0.500000 0.000000 0.500000
O O11 0.061235 0.817960 0.738484
O O12 0.000000 0.000000 0.500000
O O13 0.500000 0.500000 0.000000
O O14 0.811283 0.496088 0.028745
#
# Coordination Sequence:
#
# PCOD9055007 Si02
#       6
#     2   2   2   2   2   2
#     4  11  21  43  68  97 140 175 222 288 344 406
#     4  11  23  43  71 101 139 178 235 283 340 421
#     4  12  26  42  67 104 141 186 230 285 345 409
#     4  11  21  39  71 102 129 182 233 280 340 406
#     4  11  23  44  74 104 133 184 232 287 351 406
#     4  12  24  44  70 103 140 182 237 283 340 418
#
# _framework density 23.876512000000002
#
# number of rings (size 3 to 8) (size 9 to 14) (size 15 to 20)
#    0.000    0.667    8.333    2.000    2.333    0.667 
#    0.000    0.833    0.000    0.000    0.000    0.000 
#    0.000    0.000    0.000    0.000    0.000    0.000 
#
# Total GULP energy -66803.778510 kJ/mol
# GULP energy per Si atom -5566.981543 kJ/mol
# Density = 2.382217 g / cm^3
# Si number density = 23.876512 Si / 1000 Ang^3
#
#
#
# Elastic Constant Matrix: (Units=GPa)
#
#
# Indices 1 2 3 4 5 6 
#
# 1 65.4361 27.0176 27.6954 7.4139 19.7432 3.7382
# 2 27.0176 109.8488 47.0802 14.8692 35.0466 10.1154
# 3 27.6954 47.0802 187.8339 0.3044 56.0012 0.7859
# 4 7.4139 14.8692 0.3044 39.5599 3.1795 9.8546
# 5 19.7432 35.0466 56.0012 3.1795 50.0741 -2.3172
# 6 3.7382 10.1154 0.7859 9.8546 -2.3172 27.9460
#
#
#
# Elastic Compliance Matrix: (Units=1/GPa)
#
#
# Indices 1 2 3 4 5 6 
#
# 1 0.018243 -0.002304 -0.000685 -0.001832 -0.004760 -0.001336
# 2 -0.002304 0.013123 -0.000690 -0.002889 -0.007508 -0.004026
# 3 -0.000685 -0.000690 0.008122 0.001262 -0.008459 -0.001034
# 4 -0.001832 -0.002889 0.001262 0.029029 -0.000930 -0.009058
# 5 -0.004760 -0.007508 -0.008459 -0.000930 0.036944 0.006983
# 6 -0.001336 -0.004026 -0.001034 -0.009058 0.006983 0.041222
#
#
# Mechanical properties :
#
#
# Convention : Reuss Voigt Hill
#
# Bulk Modulus (GPa) = 31.12179 62.96725 47.04452
# Shear Modulus (GPa) = 30.34929 40.93772 35.64350
#
# Velocity S-wave (km/s) = 3.56911 4.14522 3.86790
# Velocity P-wave (km/s) = 5.48156 7.02422 6.30029
#
# Compressibility (1/GPa) = 0.03213182
#
# Stress axis : x y z
#
# Youngs Moduli (GPa) = 54.81485 76.20370 123.12614
#
# Poissons Ratio (x) = 0.17555 0.08430
# Poissons Ratio (y) = 0.12628 0.08490
# Poissons Ratio (z) = 0.03753 0.05255
#
# Static dielectric constant tensor:
#      x y z
#    x 2.238220 0.010180 0.055040 
#    y 0.010180 1.860560 -0.016350 
#    z 0.055040 -0.016350 1.973730 
# 
# From -- ./inp_files/593426.got.cif
#   From: 2010.05.17/outbox.cif.g08.bks.cpg/sg2_297_cif.got.tgz:593426.got - 2010.06.03 11:33:40.
