data_PCOD9055396
_publ_section_title
;
Structure prediction by ZEFSAII (Michael W. Deem and Ramdas Pophale) SiO2 
 PCOD9055396
Probable space group: P -1
;
_chemical_formula_sum "Si O2"
_cell_formula_units_Z 16
_cell_length_a 9.406998
_cell_length_b 9.768282
_cell_length_c 21.030648
_cell_angle_alpha 55.703290
_cell_angle_beta 30.241652
_cell_angle_gamma 55.953169
_cell_volume 791.578933
_symmetry_space_group_name_H-M "P -1"
_symmetry_group_IT_number 2
_symmetry_cell_setting 'triclinic'
loop_
_space_group_symop_operation_xyz
x,y,z
-x,-y,-z
loop_
_atom_site_type_symbol
_atom_site_label
_atom_site_fract_x
_atom_site_fract_y
_atom_site_fract_z
Si Si1 0.631933 0.755028 0.190733
Si Si2 0.326272 0.435983 0.407727
Si Si3 0.356430 0.417300 0.176999
Si Si4 0.678270 0.061453 0.632029
Si Si5 0.784007 0.265440 0.945977
Si Si6 0.741570 0.428055 0.472149
Si Si7 0.625686 0.220367 0.240416
Si Si8 0.257333 0.071180 0.023722
O O1 0.511514 0.581545 0.285189
O O2 0.414965 0.912475 0.265207
O O3 0.660213 0.802343 0.094148
O O4 0.928803 0.731161 0.123491
O O5 0.293262 0.428732 0.497776
O O6 0.450526 0.281122 0.355740
O O7 0.000000 0.500000 0.500000
O O8 0.281358 0.596982 0.122146
O O9 0.561051 0.369272 0.172704
O O10 0.053347 0.387314 0.330363
O O11 0.519249 0.301661 0.088340
O O12 0.643509 0.257323 0.577054
O O13 0.488612 0.939425 0.704360
O O14 0.000000 0.000000 0.500000
O O15 0.809642 0.085892 0.950327
O O16 0.500000 0.500000 0.500000
O O17 0.957974 0.166043 0.143237
O O18 0.500000 0.000000 0.000000
#
# Coordination Sequence:
#
# PCOD9055396 Si02
#       8
#     2   2   2   2   2   2   2   2
#     4  11  23  45  71  93 140 181 226 281 343 409
#     4  11  24  44  69 102 137 178 229 279 351 407
#     4  11  22  40  75  97 134 179 237 282 337 413
#     4  11  21  41  70  98 128 180 230 273 339 409
#     4  11  24  44  71 104 129 182 238 284 334 419
#     4  11  24  42  69 100 134 182 230 280 335 413
#     4  12  23  44  69  99 143 178 225 291 348 405
#     4  12  28  43  68 103 141 181 227 292 349 400
#
# _framework density 20.212766999999999
#
# number of rings (size 3 to 8) (size 9 to 14) (size 15 to 20)
#    0.000    0.750    5.000    3.375    1.750    3.500 
#    0.000    0.625    0.000    0.000    0.000    0.000 
#    0.000    0.000    0.000    0.000    0.000    0.000 
#
# Total GULP energy -89160.667471 kJ/mol
# GULP energy per Si atom -5572.541717 kJ/mol
# Density = 2.016676 g / cm^3
# Si number density = 20.212767 Si / 1000 Ang^3
#
#
#
# Elastic Constant Matrix: (Units=GPa)
#
#
# Indices 1 2 3 4 5 6 
#
# 1 76.0903 -19.6783 16.2889 23.8211 1.1354 -11.3389
# 2 -19.6783 29.1855 7.6840 20.7966 11.1015 3.3140
# 3 16.2889 7.6840 101.2141 28.2688 6.6573 -0.0687
# 4 23.8211 20.7966 28.2688 43.8737 -0.3711 1.6012
# 5 1.1354 11.1015 6.6573 -0.3711 26.9279 6.1963
# 6 -11.3389 3.3140 -0.0687 1.6012 6.1963 41.5053
#
#
#
# Elastic Compliance Matrix: (Units=1/GPa)
#
#
# Indices 1 2 3 4 5 6 
#
# 1 -0.073379 -0.169217 -0.018191 0.133379 0.084800 -0.024371
# 2 -0.169217 -0.317177 -0.034191 0.267658 0.162831 -0.055595
# 3 -0.018191 -0.034191 0.008652 0.020817 0.014195 -0.005147
# 4 0.133379 0.267658 0.020817 -0.192590 -0.133543 0.042467
# 5 0.084800 0.162831 0.014195 -0.133543 -0.043959 0.021903
# 6 -0.024371 -0.055595 -0.005147 0.042467 0.021903 0.016958
#
#
# Mechanical properties :
#
#
# Convention : Reuss Voigt Hill
#
# Bulk Modulus (GPa) = -1.21197 23.89769 11.34286
# Shear Modulus (GPa) = -11.53848 35.94106 12.20129
#
# Velocity S-wave (km/s) = -2.39184 4.22137 2.45958
# Velocity P-wave (km/s) = 2.86859 5.96730 3.69999
#
# Compressibility (1/GPa) = -0.82510083
#
# Stress axis : x y z
#
# Youngs Moduli (GPa) = -13.62785 -3.15281 115.57960
#
# Poissons Ratio (x) = -0.53351 2.10245
# Poissons Ratio (y) = -2.30606 3.95182
# Poissons Ratio (z) = -0.24790 -0.10780
#
# Static dielectric constant tensor:
#      x y z
#    x 1.704580 -0.015350 0.053230 
#    y -0.015350 1.718170 0.008040 
#    z 0.053230 0.008040 1.720810 
# 
# From -- ./inp_files/274854.got.cif
#   From: 2010.05.17/outbox.cif.g08.bks.cpg/sg2_138_cif.got.tgz:274854.got - 2010.06.03 11:33:40.
