data_PCOD9055866
_publ_section_title
;
Structure prediction by ZEFSAII (Michael W. Deem and Ramdas Pophale) SiO2 
 PCOD9055866
Probable space group: P -1
;
_chemical_formula_sum "Si O2"
_cell_formula_units_Z 16
_cell_length_a 11.865382
_cell_length_b 11.246488
_cell_length_c 8.345221
_cell_angle_alpha 124.119293
_cell_angle_beta 139.581145
_cell_angle_gamma 66.746966
_cell_volume 596.674474
_symmetry_space_group_name_H-M "P -1"
_symmetry_group_IT_number 2
_symmetry_cell_setting 'triclinic'
loop_
_space_group_symop_operation_xyz
x,y,z
-x,-y,-z
loop_
_atom_site_type_symbol
_atom_site_label
_atom_site_fract_x
_atom_site_fract_y
_atom_site_fract_z
Si Si1 0.531842 0.804034 0.533801
Si Si2 0.968093 0.446494 0.249837
Si Si3 0.556080 0.493920 0.868623
Si Si4 0.047097 0.160565 0.233029
Si Si5 0.026103 0.652350 0.235191
Si Si6 0.289657 0.215445 0.827426
Si Si7 0.305471 0.897049 0.051073
Si Si8 0.675209 0.119198 0.312799
O O1 0.563618 0.636484 0.434091
O O2 0.413427 0.836239 0.271863
O O3 0.442838 0.833819 0.630999
O O4 0.683977 0.929365 0.781862
O O5 0.023797 0.284514 0.171318
O O6 0.000000 0.500000 0.500000
O O7 0.095503 0.569037 0.399268
O O8 0.756746 0.451397 0.011297
O O9 0.500000 0.500000 0.000000
O O10 0.563173 0.653043 0.921706
O O11 0.217088 0.197648 0.552067
O O12 0.888292 0.169559 0.193553
O O13 0.000000 0.000000 0.000000
O O14 0.152984 0.777072 0.400309
O O15 0.852112 0.722744 0.158345
O O16 0.000000 0.500000 0.000000
O O17 0.303756 0.050458 0.768715
O O18 0.366537 0.872180 0.916943
#
# Coordination Sequence:
#
# PCOD9055866 Si02
#       8
#     2   2   2   2   2   2   2   2
#     4  11  26  46  73 102 138 190 251 287 360 441
#     4  11  21  44  67 100 138 184 241 286 354 432
#     4  11  25  44  71 102 148 192 237 302 361 427
#     4  12  24  39  72 108 140 178 245 300 356 432
#     4  11  24  40  65  99 143 187 228 293 360 419
#     4  11  25  42  67 107 141 184 239 293 366 428
#     4  11  25  44  73 104 139 192 234 296 367 415
#     4  12  24  46  73 104 148 184 237 303 359 432
#
# _framework density 26.815291999999999
#
# number of rings (size 3 to 8) (size 9 to 14) (size 15 to 20)
#    0.000    0.750    5.000    3.000    7.000    0.000 
#    0.000    0.625    0.000    0.000    0.000    0.000 
#    0.000    0.000    0.000    0.000    0.000    0.000 
#
# Total GULP energy -89353.566277 kJ/mol
# GULP energy per Si atom -5584.597892 kJ/mol
# Density = 2.675426 g / cm^3
# Si number density = 26.815292 Si / 1000 Ang^3
#
#
#
# Elastic Constant Matrix: (Units=GPa)
#
#
# Indices 1 2 3 4 5 6 
#
# 1 118.2993 50.6244 45.3751 34.1704 4.1332 17.4603
# 2 50.6244 164.8570 58.2908 58.8833 0.2092 -0.8296
# 3 45.3751 58.2908 137.2550 52.1946 -18.5646 8.3140
# 4 34.1704 58.8833 52.1946 69.1484 11.1193 -6.5446
# 5 4.1332 0.2092 -18.5646 11.1193 60.9999 16.8182
# 6 17.4603 -0.8296 8.3140 -6.5446 16.8182 43.6738
#
#
#
# Elastic Compliance Matrix: (Units=1/GPa)
#
#
# Indices 1 2 3 4 5 6 
#
# 1 0.011571 -0.001723 -0.000974 -0.004244 0.001239 -0.005587
# 2 -0.001723 0.009236 -0.000509 -0.006903 0.001352 -0.000594
# 3 -0.000974 -0.000509 0.013747 -0.011477 0.008318 -0.007160
# 4 -0.004244 -0.006903 -0.011477 0.034582 -0.013368 0.014080
# 5 0.001239 0.001352 0.008318 -0.013368 0.025051 -0.013703
# 6 -0.005587 -0.000594 -0.007160 0.014080 -0.013703 0.033869
#
#
# Mechanical properties :
#
#
# Convention : Reuss Voigt Hill
#
# Bulk Modulus (GPa) = 35.53298 80.99910 58.26604
# Shear Modulus (GPa) = 34.75900 52.50582 43.63241
#
# Velocity S-wave (km/s) = 3.60424 4.42979 4.03817
# Velocity P-wave (km/s) = 5.53177 7.51239 6.59683
#
# Compressibility (1/GPa) = 0.02814287
#
# Stress axis : x y z
#
# Youngs Moduli (GPa) = 86.42350 108.27576 72.74353
#
# Poissons Ratio (x) = 0.18653 0.07083
# Poissons Ratio (y) = 0.14889 0.03702
# Poissons Ratio (z) = 0.08415 0.05510
#
# Static dielectric constant tensor:
#      x y z
#    x 2.047140 -0.144230 0.035240 
#    y -0.144230 2.242680 -0.139130 
#    z 0.035240 -0.139130 2.146320 
# 
# From -- ./inp_files/263650.got.cif
#   From: 2010.05.17/outbox.cif.g08.bks.cpg/sg2_132_cif.got.tgz:263650.got - 2010.06.03 11:33:40.
