data_PCOD9055599
_publ_section_title
;
Structure prediction by ZEFSAII (Michael W. Deem and Ramdas Pophale) SiO2 
 PCOD9055599
Probable space group: P -1
;
_chemical_formula_sum "Si O2"
_cell_formula_units_Z 16
_cell_length_a 9.286275
_cell_length_b 11.459444
_cell_length_c 7.988696
_cell_angle_alpha 83.661499
_cell_angle_beta 53.380117
_cell_angle_gamma 71.525673
_cell_volume 643.693353
_symmetry_space_group_name_H-M "P -1"
_symmetry_group_IT_number 2
_symmetry_cell_setting 'triclinic'
loop_
_space_group_symop_operation_xyz
x,y,z
-x,-y,-z
loop_
_atom_site_type_symbol
_atom_site_label
_atom_site_fract_x
_atom_site_fract_y
_atom_site_fract_z
Si Si1 0.548712 0.912882 0.319628
Si Si2 0.303777 0.151068 0.256910
Si Si3 0.331034 0.805579 0.088762
Si Si4 0.737173 0.220300 0.471811
Si Si5 0.680877 0.422340 0.996500
Si Si6 0.897790 0.921707 0.886277
Si Si7 0.918126 0.614894 0.412079
Si Si8 0.281492 0.519415 0.678747
O O1 0.468119 0.797838 0.414108
O O2 0.500000 0.000000 0.500000
O O3 0.416130 0.012985 0.264694
O O4 0.769174 0.881022 0.119433
O O5 0.143156 0.137876 0.249086
O O6 0.215625 0.258611 0.434890
O O7 0.457597 0.189206 0.035562
O O8 0.258558 0.781584 0.326791
O O9 0.194540 0.932441 0.092604
O O10 0.362215 0.705579 0.932906
O O11 0.794542 0.338319 0.350965
O O12 0.877913 0.113060 0.276065
O O13 0.720818 0.493023 0.118090
O O14 0.500000 0.500000 0.000000
O O15 0.885821 0.369164 0.781624
O O16 0.811890 0.564410 0.348382
O O17 0.000000 0.500000 0.500000
O O18 0.500000 0.500000 0.500000
#
# Coordination Sequence:
#
# PCOD9055599 Si02
#       8
#     2   2   2   2   2   2   2   2
#     4  11  26  43  66 105 144 190 230 299 364 419
#     4  11  22  44  72 101 143 182 244 295 356 438
#     4  11  21  42  71 105 140 189 235 299 361 429
#     4  12  25  44  74 101 144 187 239 298 366 433
#     4  12  27  48  74 104 144 194 246 306 367 434
#     4  11  23  44  70 106 144 183 244 289 360 441
#     4  12  26  47  75 107 144 193 246 303 368 434
#     4  12  28  49  71 107 143 190 249 305 365 437
#
# _framework density 24.856556999999999
#
# number of rings (size 3 to 8) (size 9 to 14) (size 15 to 20)
#    0.000    0.500    2.500    6.750    7.000    1.500 
#    2.250    0.000    0.000    0.000    0.000    0.000 
#    0.000    0.000    0.000    0.000    0.000    0.000 
#
# Total GULP energy -89368.867889 kJ/mol
# GULP energy per Si atom -5585.554243 kJ/mol
# Density = 2.479998 g / cm^3
# Si number density = 24.856557 Si / 1000 Ang^3
#
#
#
# Elastic Constant Matrix: (Units=GPa)
#
#
# Indices 1 2 3 4 5 6 
#
# 1 106.6822 35.7263 40.3623 10.9600 8.8222 20.1978
# 2 35.7263 89.5231 3.4111 26.6086 2.0069 15.9123
# 3 40.3623 3.4111 119.5453 24.0249 -10.0117 -2.0119
# 4 10.9600 26.6086 24.0249 36.7183 1.5815 2.7392
# 5 8.8222 2.0069 -10.0117 1.5815 38.4470 16.6538
# 6 20.1978 15.9123 -2.0119 2.7392 16.6538 41.3550
#
#
#
# Elastic Compliance Matrix: (Units=1/GPa)
#
#
# Indices 1 2 3 4 5 6 
#
# 1 0.014078 -0.005880 -0.005744 0.004241 -0.002850 -0.004026
# 2 -0.005880 0.018371 0.004634 -0.014420 0.004236 -0.004722
# 3 -0.005744 0.004634 0.012596 -0.010117 0.004571 0.000464
# 4 0.004241 -0.014420 -0.010117 0.043102 -0.005674 0.002415
# 5 -0.002850 0.004236 0.004571 -0.005674 0.033565 -0.013157
# 6 -0.004026 -0.004722 0.000464 0.002415 -0.013157 0.033125
#
#
# Mechanical properties :
#
#
# Convention : Reuss Voigt Hill
#
# Bulk Modulus (GPa) = 32.19065 52.75000 42.47033
# Shear Modulus (GPa) = 27.90605 39.05411 33.48008
#
# Velocity S-wave (km/s) = 3.35428 3.96811 3.67404
# Velocity P-wave (km/s) = 5.28964 6.50095 5.92633
#
# Compressibility (1/GPa) = 0.03106492
#
# Stress axis : x y z
#
# Youngs Moduli (GPa) = 71.03081 54.43447 79.38983
#
# Poissons Ratio (x) = 0.32010 0.45603
# Poissons Ratio (y) = 0.41769 -0.36793
# Poissons Ratio (z) = 0.40801 -0.25227
#
# Static dielectric constant tensor:
#      x y z
#    x 1.899580 -0.057610 0.025150 
#    y -0.057610 2.343940 0.215990 
#    z 0.025150 0.215990 2.042130 
# 
# From -- ./inp_files/187241.got.cif
#   From: 2010.05.17/outbox.cif.g08.bks.cpg/sg2_94_cif.got.tgz:187241.got - 2010.06.03 11:33:40.
