data_PCOD9055369
_publ_section_title
;
Structure prediction by ZEFSAII (Michael W. Deem and Ramdas Pophale) SiO2 
 PCOD9055369
Probable space group: P -1
;
_chemical_formula_sum "Si O2"
_cell_formula_units_Z 16
_cell_length_a 8.416014
_cell_length_b 14.467975
_cell_length_c 23.002811
_cell_angle_alpha 22.598281
_cell_angle_beta 131.340984
_cell_angle_gamma 129.475730
_cell_volume 804.799281
_symmetry_space_group_name_H-M "P -1"
_symmetry_group_IT_number 2
_symmetry_cell_setting 'triclinic'
loop_
_space_group_symop_operation_xyz
x,y,z
-x,-y,-z
loop_
_atom_site_type_symbol
_atom_site_label
_atom_site_fract_x
_atom_site_fract_y
_atom_site_fract_z
Si Si1 0.209249 0.481558 0.904811
Si Si2 0.201408 0.623566 0.512780
Si Si3 0.442606 0.716776 0.157652
Si Si4 0.966759 0.247844 0.880802
Si Si5 0.629315 0.816346 0.778484
Si Si6 0.435561 0.341792 0.276744
Si Si7 0.069188 0.678085 0.576217
Si Si8 0.076050 0.113100 0.391511
O O1 0.394850 0.692773 0.811351
O O2 0.162833 0.319373 0.930569
O O3 0.011766 0.631435 0.782720
O O4 0.240117 0.319342 0.062736
O O5 0.379762 0.436279 0.679023
O O6 0.083582 0.669430 0.517279
O O7 0.000000 0.500000 0.500000
O O8 0.316892 0.893014 0.368994
O O9 0.236227 0.720858 0.146100
O O10 0.416896 0.599167 0.154752
O O11 0.500000 0.000000 0.000000
O O12 0.954686 0.446692 0.712748
O O13 0.000000 0.000000 0.000000
O O14 0.660912 0.732298 0.767261
O O15 0.685580 0.319897 0.344986
O O16 0.322180 0.165343 0.401617
O O17 0.976751 0.919354 0.434609
O O18 0.000000 0.000000 0.500000
#
# Coordination Sequence:
#
# PCOD9055369 Si02
#       8
#     2   2   2   2   2   2   2   2
#     4  11  26  42  67 101 141 181 227 290 346 410
#     4  11  27  47  70  98 144 184 226 289 352 419
#     4  11  26  44  71 104 133 185 235 285 343 416
#     4  12  24  43  69 100 138 179 237 287 343 415
#     4  11  25  45  66  99 142 186 226 283 356 411
#     4  11  21  41  69  98 130 175 226 280 340 419
#     4  11  23  39  70  97 127 176 225 281 344 406
#     4  12  21  37  65  99 129 161 228 284 333 398
#
# _framework density 19.880732999999999
#
# number of rings (size 3 to 8) (size 9 to 14) (size 15 to 20)
#    0.000    0.750    5.000    1.875   10.500    0.500 
#    2.250    0.625    0.000    0.000    0.000    0.000 
#    0.000    0.000    0.000    0.000    0.000    0.000 
#
# Total GULP energy -89072.024392 kJ/mol
# GULP energy per Si atom -5567.001525 kJ/mol
# Density = 1.983548 g / cm^3
# Si number density = 19.880733 Si / 1000 Ang^3
#
#
#
# Elastic Constant Matrix: (Units=GPa)
#
#
# Indices 1 2 3 4 5 6 
#
# 1 86.3561 27.1052 50.4488 -10.6615 -7.6820 -8.1316
# 2 27.1052 124.9631 75.8111 -19.2772 5.6484 -21.1941
# 3 50.4488 75.8111 134.4801 -31.9938 -5.4758 -7.6551
# 4 -10.6615 -19.2772 -31.9938 41.0677 -6.4198 1.0592
# 5 -7.6820 5.6484 -5.4758 -6.4198 39.4909 -8.8596
# 6 -8.1316 -21.1941 -7.6551 1.0592 -8.8596 34.4931
#
#
#
# Elastic Compliance Matrix: (Units=1/GPa)
#
#
# Indices 1 2 3 4 5 6 
#
# 1 0.015353 0.000658 -0.005777 0.000157 0.002898 0.003481
# 2 0.000658 0.013658 -0.007557 0.000314 -0.001361 0.006511
# 3 -0.005777 -0.007557 0.015699 0.007694 0.002935 -0.002003
# 4 0.000157 0.000314 0.007694 0.031523 0.006786 0.002713
# 5 0.002898 -0.001361 0.002935 0.006786 0.029347 0.007827
# 6 0.003481 0.006511 -0.002003 0.002713 0.007827 0.035295
#
#
# Mechanical properties :
#
#
# Convention : Reuss Voigt Hill
#
# Bulk Modulus (GPa) = 51.65315 72.50330 62.07822
# Shear Modulus (GPa) = 28.95523 35.83928 32.39726
#
# Velocity S-wave (km/s) = 3.82048 4.25044 4.04119
# Velocity P-wave (km/s) = 6.74532 7.78696 7.28478
#
# Compressibility (1/GPa) = 0.01935990
#
# Stress axis : x y z
#
# Youngs Moduli (GPa) = 65.13237 73.21586 63.69777
#
# Poissons Ratio (x) = -0.04820 0.36799
# Poissons Ratio (y) = -0.04288 0.48134
# Poissons Ratio (z) = 0.37628 0.55326
#
# Static dielectric constant tensor:
#      x y z
#    x 1.683730 0.006370 0.022600 
#    y 0.006370 1.762730 0.002120 
#    z 0.022600 0.002120 1.705020 
# 
# From -- ./inp_files/608162.got.cif
#   From: 2010.05.17/outbox.cif.g08.bks.cpg/sg2_305_cif.got.tgz:608162.got - 2010.06.03 11:33:40.
