data_PCOD9055563
_publ_section_title
;
Structure prediction by ZEFSAII (Michael W. Deem and Ramdas Pophale) SiO2 
 PCOD9055563
Probable space group: P -1
;
_chemical_formula_sum "Si O2"
_cell_formula_units_Z 14
_cell_length_a 10.017275
_cell_length_b 9.409742
_cell_length_c 9.067182
_cell_angle_alpha 88.922203
_cell_angle_beta 78.860438
_cell_angle_gamma 44.062225
_cell_volume 574.081946
_symmetry_space_group_name_H-M "P -1"
_symmetry_group_IT_number 2
_symmetry_cell_setting 'triclinic'
loop_
_space_group_symop_operation_xyz
x,y,z
-x,-y,-z
loop_
_atom_site_type_symbol
_atom_site_label
_atom_site_fract_x
_atom_site_fract_y
_atom_site_fract_z
Si Si1 0.019904 0.075917 0.641732
Si Si2 0.398474 0.723920 0.167997
Si Si3 0.323899 0.612736 0.651231
Si Si4 0.806264 0.808404 0.279664
Si Si5 0.572309 0.970184 0.809060
Si Si6 0.864716 0.969423 0.003207
Si Si7 0.010715 0.635163 0.729789
O O1 0.199149 0.852063 0.686288
O O2 0.104489 0.171721 0.602180
O O3 0.000000 0.000000 0.500000
O O4 0.800051 0.216193 0.753268
O O5 0.583698 0.505175 0.208647
O O6 0.417209 0.868586 0.227781
O O7 0.351555 0.806176 0.006769
O O8 0.500000 0.500000 0.500000
O O9 0.180595 0.598807 0.615815
O O10 0.880200 0.592909 0.246929
O O11 0.576633 0.982329 0.279608
O O12 0.893082 0.842961 0.134293
O O13 0.792049 0.747222 0.731790
O O14 0.500000 0.000000 0.000000
O O15 0.943790 0.806822 0.858988
O O16 0.000000 0.000000 0.000000
#
# Coordination Sequence:
#
# PCOD9055563 Si02
#       7
#     2   2   2   2   2   2   2
#     4  12  26  49  71  97 143 191 249 302 335 420
#     4  11  22  41  71 100 143 177 238 285 357 413
#     4  12  24  44  74  96 133 198 240 287 355 412
#     4  12  24  43  72 110 141 190 231 289 369 423
#     4  11  22  41  69 107 148 183 221 287 366 432
#     4  11  21  42  70 107 148 184 222 286 361 432
#     4  11  24  42  70 105 147 181 234 295 349 430
#
# _framework density 24.386763999999999
#
# number of rings (size 3 to 8) (size 9 to 14) (size 15 to 20)
#    0.000    0.571   10.000    0.429    0.000    1.143 
#    0.000    5.000    0.000    0.000    0.000    0.000 
#    0.000    0.000    0.000    0.000    0.000    0.000 
#
# Total GULP energy -77970.298882 kJ/mol
# GULP energy per Si atom -5569.307063 kJ/mol
# Density = 2.433126 g / cm^3
# Si number density = 24.386764 Si / 1000 Ang^3
#
#
#
# Elastic Constant Matrix: (Units=GPa)
#
#
# Indices 1 2 3 4 5 6 
#
# 1 194.8304 41.2290 16.4999 6.2081 -4.3266 -8.1129
# 2 41.2290 124.1423 14.0143 -12.9204 -2.0244 -11.6602
# 3 16.4999 14.0143 37.4948 2.6257 -5.8492 -0.1825
# 4 6.2081 -12.9204 2.6257 19.2160 -6.5553 -0.3493
# 5 -4.3266 -2.0244 -5.8492 -6.5553 45.7715 -0.8249
# 6 -8.1129 -11.6602 -0.1825 -0.3493 -0.8249 53.0202
#
#
#
# Elastic Compliance Matrix: (Units=1/GPa)
#
#
# Indices 1 2 3 4 5 6 
#
# 1 0.005810 -0.002033 -0.001608 -0.003078 -0.000179 0.000413
# 2 -0.002033 0.010179 -0.003319 0.008354 0.001066 0.001988
# 3 -0.001608 -0.003319 0.029380 -0.004803 0.002752 -0.000864
# 4 -0.003078 0.008354 -0.004803 0.062210 0.008408 0.001890
# 5 -0.000179 0.001066 0.002752 0.008408 0.023445 0.000637
# 6 0.000413 0.001988 -0.000864 0.001890 0.000637 0.019381
#
#
# Mechanical properties :
#
#
# Convention : Reuss Voigt Hill
#
# Bulk Modulus (GPa) = 31.79615 55.55044 43.67329
# Shear Modulus (GPa) = 28.60308 42.58316 35.59312
#
# Velocity S-wave (km/s) = 3.42847 4.18324 3.82452
# Velocity P-wave (km/s) = 5.36089 6.79419 6.11965
#
# Compressibility (1/GPa) = 0.03145035
#
# Stress axis : x y z
#
# Youngs Moduli (GPa) = 172.10991 98.24615 34.03697
#
# Poissons Ratio (x) = 0.19969 0.05472
# Poissons Ratio (y) = 0.34983 0.11297
# Poissons Ratio (z) = 0.27668 0.32607
#
# Static dielectric constant tensor:
#      x y z
#    x 2.153590 -0.059630 0.093120 
#    y -0.059630 1.929080 -0.054250 
#    z 0.093120 -0.054250 2.240910 
# 
# From -- ./inp_files/379103.got.cif
#   From: 2010.05.17/outbox.cif.g08.bks.cpg/sg2_190_cif.got.tgz:379103.got - 2010.06.03 11:33:40.
