data_PCOD9055206
_publ_section_title
;
Structure prediction by ZEFSAII (Michael W. Deem and Ramdas Pophale) SiO2 
 PCOD9055206
Probable space group: P -1
;
_chemical_formula_sum "Si O2"
_cell_formula_units_Z 16
_cell_length_a 10.085926
_cell_length_b 8.692678
_cell_length_c 15.509546
_cell_angle_alpha 73.004860
_cell_angle_beta 62.956244
_cell_angle_gamma 34.971312
_cell_volume 685.523764
_symmetry_space_group_name_H-M "P -1"
_symmetry_group_IT_number 2
_symmetry_cell_setting 'triclinic'
loop_
_space_group_symop_operation_xyz
x,y,z
-x,-y,-z
loop_
_atom_site_type_symbol
_atom_site_label
_atom_site_fract_x
_atom_site_fract_y
_atom_site_fract_z
Si Si1 0.354985 0.071299 0.116879
Si Si2 0.296894 0.446334 0.631685
Si Si3 0.594773 0.358688 0.306529
Si Si4 0.069062 0.760118 0.489255
Si Si5 0.112739 0.763718 0.065558
Si Si6 0.197882 0.275194 0.818337
Si Si7 0.664724 0.016835 0.454953
Si Si8 0.552905 0.364258 0.872213
O O1 0.565363 0.923495 0.153102
O O2 0.326466 0.903430 0.155434
O O3 0.072121 0.392910 0.143770
O O4 0.500000 0.000000 0.000000
O O5 0.294514 0.587798 0.680427
O O6 0.074252 0.663009 0.594675
O O7 0.298989 0.271847 0.703418
O O8 0.530920 0.250148 0.528454
O O9 0.317387 0.578060 0.390477
O O10 0.710605 0.086739 0.345844
O O11 0.574397 0.425656 0.202133
O O12 0.000000 0.000000 0.500000
O O13 0.923791 0.768681 0.466509
O O14 0.240396 0.717513 0.122150
O O15 0.900531 0.819381 0.137953
O O16 0.340938 0.497634 0.982708
O O17 0.000000 0.000000 0.000000
O O18 0.500000 0.000000 0.500000
#
# Coordination Sequence:
#
# PCOD9055206 Si02
#       8
#     2   2   2   2   2   2   2   2
#     4  12  25  46  72 107 140 186 245 305 354 429
#     4  11  24  42  68 105 136 181 240 292 350 425
#     4  11  23  43  68 104 132 182 243 285 356 428
#     4  11  21  40  71  93 140 183 223 285 351 417
#     4  11  27  49  69 101 148 195 230 307 372 438
#     4  12  28  44  76 108 144 187 246 301 365 428
#     4  11  25  43  67 102 143 182 230 295 354 423
#     4  11  26  44  72 103 143 190 244 298 372 435
#
# _framework density 23.339817
#
# number of rings (size 3 to 8) (size 9 to 14) (size 15 to 20)
#    0.000    0.750    5.000    1.875    7.000    6.000 
#    0.000    0.000    0.000    0.000    0.000    0.000 
#    0.000    0.000    0.000    0.000    0.000    0.000 
#
# Total GULP energy -89295.596252 kJ/mol
# GULP energy per Si atom -5580.974766 kJ/mol
# Density = 2.328669 g / cm^3
# Si number density = 23.339817 Si / 1000 Ang^3
#
#
#
# Elastic Constant Matrix: (Units=GPa)
#
#
# Indices 1 2 3 4 5 6 
#
# 1 162.1116 26.1440 64.5744 -25.6451 4.1137 -6.0005
# 2 26.1440 48.9574 1.4025 -10.3574 9.5855 -0.9627
# 3 64.5744 1.4025 136.5297 -39.2951 2.7016 -4.6059
# 4 -25.6451 -10.3574 -39.2951 50.2430 -2.3464 -8.5656
# 5 4.1137 9.5855 2.7016 -2.3464 30.4331 -9.5790
# 6 -6.0005 -0.9627 -4.6059 -8.5656 -9.5790 29.8474
#
#
#
# Elastic Compliance Matrix: (Units=1/GPa)
#
#
# Indices 1 2 3 4 5 6 
#
# 1 0.008533 -0.004463 -0.003710 0.000864 0.001158 0.001619
# 2 -0.004463 0.025257 0.003494 0.005247 -0.007386 -0.000408
# 3 -0.003710 0.003494 0.011625 0.008554 0.000185 0.003675
# 4 0.000864 0.005247 0.008554 0.030223 0.003398 0.011427
# 5 0.001158 -0.007386 0.000185 0.003398 0.039588 0.013703
# 6 0.001619 -0.000408 0.003675 0.011427 0.013703 0.042060
#
#
# Mechanical properties :
#
#
# Convention : Reuss Voigt Hill
#
# Bulk Modulus (GPa) = 27.73266 59.09340 43.41303
# Shear Modulus (GPa) = 27.98561 39.13656 33.56108
#
# Velocity S-wave (km/s) = 3.46649 4.09934 3.79612
# Velocity P-wave (km/s) = 5.28488 6.91229 6.15263
#
# Compressibility (1/GPa) = 0.03605857
#
# Stress axis : x y z
#
# Youngs Moduli (GPa) = 117.18907 39.59294 86.01846
#
# Poissons Ratio (x) = 0.17669 0.31910
# Poissons Ratio (y) = 0.52296 -0.30052
# Poissons Ratio (z) = 0.43473 -0.13833
#
# Static dielectric constant tensor:
#      x y z
#    x 1.949300 -0.100060 0.118850 
#    y -0.100060 2.137190 -0.031270 
#    z 0.118850 -0.031270 1.861710 
# 
# From -- ./inp_files/39945.got.cif
#   From: 2010.05.17/outbox.cif.g08.bks.cpg/sg2_20_cif.got.tgz:39945.got - 2010.06.03 11:33:40.
