data_PCOD9055609
_publ_section_title
;
Structure prediction by ZEFSAII (Michael W. Deem and Ramdas Pophale) SiO2 
 PCOD9055609
Probable space group: P -1
;
_chemical_formula_sum "Si O2"
_cell_formula_units_Z 16
_cell_length_a 21.861536
_cell_length_b 9.365854
_cell_length_c 12.782886
_cell_angle_alpha 35.819714
_cell_angle_beta 147.660783
_cell_angle_gamma 120.395583
_cell_volume 671.998054
_symmetry_space_group_name_H-M "P -1"
_symmetry_group_IT_number 2
_symmetry_cell_setting 'triclinic'
loop_
_space_group_symop_operation_xyz
x,y,z
-x,-y,-z
loop_
_atom_site_type_symbol
_atom_site_label
_atom_site_fract_x
_atom_site_fract_y
_atom_site_fract_z
Si Si1 0.219410 0.319622 0.345106
Si Si2 0.969156 0.330015 0.473570
Si Si3 0.246140 0.558558 0.553139
Si Si4 0.617070 0.460138 0.459422
Si Si5 0.769586 0.920965 0.716369
Si Si6 0.783152 0.969788 0.141906
Si Si7 0.507179 0.756422 0.731579
Si Si8 0.092393 0.079806 0.442808
O O1 0.350125 0.336743 0.547216
O O2 0.252081 0.120348 0.409554
O O3 0.187697 0.176157 0.478389
O O4 0.065946 0.639569 0.926662
O O5 0.000000 0.500000 0.500000
O O6 0.112424 0.107164 0.755527
O O7 0.911679 0.129147 0.525752
O O8 0.865420 0.587696 0.092716
O O9 0.286438 0.583509 0.477534
O O10 0.195937 0.340071 0.613998
O O11 0.161758 0.897644 0.270861
O O12 0.369885 0.397567 0.914664
O O13 0.493250 0.482115 0.202293
O O14 0.644056 0.222465 0.731177
O O15 0.631914 0.081812 0.494120
O O16 0.830547 0.076371 0.244469
O O17 0.500000 0.000000 0.500000
#
# Coordination Sequence:
#
# PCOD9055609 Si02
#       8
#     2   2   2   2   2   2   2   2
#     4  11  23  42  66  98 142 185 223 274 341 403
#     4  12  25  39  65 104 137 176 226 279 334 406
#     4  11  25  45  68 100 132 180 232 282 338 400
#     4  11  21  42  71  97 129 182 224 269 344 405
#     4  11  25  41  66  99 140 172 226 291 329 396
#     4  12  22  42  71  97 138 184 223 267 345 409
#     4  11  24  47  73  96 130 181 230 286 347 394
#     4  11  24  42  65  98 146 187 217 269 342 414
#
# _framework density 23.809593
#
# number of rings (size 3 to 8) (size 9 to 14) (size 15 to 20)
#    0.000    0.750    5.000    4.125    1.750    0.500 
#    0.000    3.125    0.000    0.000    0.000    0.000 
#    0.000    0.000    0.000    0.000    0.000    0.000 
#
# Total GULP energy -89145.885433 kJ/mol
# GULP energy per Si atom -5571.617840 kJ/mol
# Density = 2.375540 g / cm^3
# Si number density = 23.809593 Si / 1000 Ang^3
#
#
#
# Elastic Constant Matrix: (Units=GPa)
#
#
# Indices 1 2 3 4 5 6 
#
# 1 80.8292 37.6898 -3.1373 -1.2217 -29.7493 -0.8073
# 2 37.6898 170.4836 -18.7120 -0.7426 -16.9561 1.1527
# 3 -3.1373 -18.7120 39.5430 -0.0554 -8.7346 -5.1774
# 4 -1.2217 -0.7426 -0.0554 35.2793 1.6457 -15.9986
# 5 -29.7493 -16.9561 -8.7346 1.6457 28.5104 4.2517
# 6 -0.8073 1.1527 -5.1774 -15.9986 4.2517 46.7487
#
#
#
# Elastic Compliance Matrix: (Units=1/GPa)
#
#
# Indices 1 2 3 4 5 6 
#
# 1 0.022453 -0.001852 0.006118 -0.001065 0.024484 -0.001480
# 2 -0.001852 0.007057 0.003949 -0.000133 0.003502 -0.000133
# 3 0.006118 0.003949 0.031927 0.000419 0.018186 0.002034
# 4 -0.001065 -0.000133 0.000419 0.034026 -0.004833 0.012115
# 5 0.024484 0.003502 0.018186 -0.004833 0.069394 -0.005615
# 6 -0.001480 -0.000133 0.002034 0.012115 -0.005615 0.026251
#
#
# Mechanical properties :
#
#
# Convention : Reuss Voigt Hill
#
# Bulk Modulus (GPa) = 12.84243 35.83741 24.33992
# Shear Modulus (GPa) = 24.92107 40.44202 32.68155
#
# Velocity S-wave (km/s) = 3.23876 4.12583 3.70891
# Velocity P-wave (km/s) = 4.40359 6.14662 5.34661
#
# Compressibility (1/GPa) = 0.07786690
#
# Stress axis : x y z
#
# Youngs Moduli (GPa) = 44.53687 141.70203 31.32164
#
# Poissons Ratio (x) = 0.26241 -0.19163
# Poissons Ratio (y) = 0.08247 -0.12367
# Poissons Ratio (z) = -0.27248 -0.55951
#
# Static dielectric constant tensor:
#      x y z
#    x 1.886560 0.018330 -0.058470 
#    y 0.018330 1.987650 -0.009520 
#    z -0.058470 -0.009520 2.049100 
# 
# From -- ./inp_files/457701.got.cif
#   From: 2010.05.17/outbox.cif.g08.bks.cpg/sg2_229_cif.got.tgz:457701.got - 2010.06.03 11:33:40.
