data_PCOD9055894
_publ_section_title
;
Structure prediction by ZEFSAII (Michael W. Deem and Ramdas Pophale) SiO2 
 PCOD9055894
Probable space group: P -1
;
_chemical_formula_sum "Si O2"
_cell_formula_units_Z 16
_cell_length_a 9.020210
_cell_length_b 6.668165
_cell_length_c 17.235049
_cell_angle_alpha 99.532353
_cell_angle_beta 125.946548
_cell_angle_gamma 95.365886
_cell_volume 803.689659
_symmetry_space_group_name_H-M "P -1"
_symmetry_group_IT_number 2
_symmetry_cell_setting 'triclinic'
loop_
_space_group_symop_operation_xyz
x,y,z
-x,-y,-z
loop_
_atom_site_type_symbol
_atom_site_label
_atom_site_fract_x
_atom_site_fract_y
_atom_site_fract_z
Si Si1 0.738928 0.976619 0.880196
Si Si2 0.854698 0.188597 0.661533
Si Si3 0.752592 0.618066 0.124188
Si Si4 0.677336 0.444753 0.506613
Si Si5 0.900309 0.685667 0.003172
Si Si6 0.169601 0.132931 0.506574
Si Si7 0.514499 0.993298 0.661426
Si Si8 0.592522 0.197307 0.990569
O O1 0.706426 0.112178 0.953324
O O2 0.936637 0.107782 0.916062
O O3 0.581052 0.971799 0.767667
O O4 0.770069 0.752480 0.901616
O O5 0.803854 0.375528 0.608125
O O6 0.060396 0.266527 0.766828
O O7 0.842950 0.002543 0.584571
O O8 0.695053 0.101723 0.671386
O O9 0.784496 0.641147 0.043039
O O10 0.571273 0.707287 0.091964
O O11 0.706537 0.367177 0.097454
O O12 0.500000 0.500000 0.500000
O O13 0.797715 0.628977 0.500405
O O14 0.585834 0.236027 0.416461
O O15 0.000000 0.500000 0.000000
O O16 0.360143 0.127370 0.610972
O O17 0.000000 0.000000 0.500000
O O18 0.500000 0.000000 0.000000
#
# Coordination Sequence:
#
# PCOD9055894 Si02
#       8
#     2   2   2   2   2   2   2   2
#     4  11  24  40  65  96 131 172 217 274 332 388
#     4  11  23  42  69  99 126 168 231 273 334 407
#     4  11  24  42  66  95 130 177 221 274 332 391
#     4  11  21  44  69  94 132 179 217 273 342 399
#     4  11  22  41  64  94 130 167 220 274 320 388
#     4  11  25  45  66  97 138 172 217 284 333 397
#     4  11  23  41  68 101 130 168 228 275 333 406
#     4  11  24  45  62  89 140 180 218 271 334 400
#
# _framework density 19.908183000000001
#
# number of rings (size 3 to 8) (size 9 to 14) (size 15 to 20)
#    0.000    1.000    6.250    0.750    1.750    5.000 
#    2.250    0.000    0.000    0.000    0.000    0.000 
#    0.000    0.000    0.000    0.000    0.000    0.000 
#
# Total GULP energy -89281.010926 kJ/mol
# GULP energy per Si atom -5580.063183 kJ/mol
# Density = 1.986287 g / cm^3
# Si number density = 19.908183 Si / 1000 Ang^3
#
#
#
# Elastic Constant Matrix: (Units=GPa)
#
#
# Indices 1 2 3 4 5 6 
#
# 1 58.7078 15.0154 -0.8716 -3.5054 13.6015 2.2400
# 2 15.0154 117.0253 28.4557 -13.4854 4.1399 9.8550
# 3 -0.8716 28.4557 113.7402 -12.8093 19.2954 -2.8869
# 4 -3.5054 -13.4854 -12.8093 19.8579 5.1921 6.0870
# 5 13.6015 4.1399 19.2954 5.1921 24.1715 2.2461
# 6 2.2400 9.8550 -2.8869 6.0870 2.2461 34.8531
#
#
#
# Elastic Compliance Matrix: (Units=1/GPa)
#
#
# Indices 1 2 3 4 5 6 
#
# 1 0.022712 -0.002109 0.005115 0.011149 -0.018788 -0.001176
# 2 -0.002109 0.010420 -0.001951 0.006742 -0.000103 -0.004143
# 3 0.005115 -0.001951 0.013414 0.012329 -0.015919 0.000207
# 4 0.011149 0.006742 0.012329 0.077391 -0.032685 -0.013011
# 5 -0.018788 -0.000103 -0.015919 -0.032685 0.071595 0.001012
# 6 -0.001176 -0.004143 0.000207 -0.013011 0.001012 0.032163
#
#
# Mechanical properties :
#
#
# Convention : Reuss Voigt Hill
#
# Bulk Modulus (GPa) = 20.55357 41.63024 31.09191
# Shear Modulus (GPa) = 20.67773 32.23474 26.45624
#
# Velocity S-wave (km/s) = 3.22631 4.02826 3.64938
# Velocity P-wave (km/s) = 4.92193 6.52628 5.78004
#
# Compressibility (1/GPa) = 0.04865335
#
# Stress axis : x y z
#
# Youngs Moduli (GPa) = 44.02907 95.97130 74.55053
#
# Poissons Ratio (x) = 0.20245 -0.38131
# Poissons Ratio (y) = 0.09288 0.14548
# Poissons Ratio (z) = -0.22520 0.18728
#
# Static dielectric constant tensor:
#      x y z
#    x 1.680270 0.095590 0.040490 
#    y 0.095590 1.620460 -0.048800 
#    z 0.040490 -0.048800 1.665530 
# 
# From -- ./inp_files/288902.got.cif
#   From: 2010.05.17/outbox.cif.g08.bks.cpg/sg2_145_cif.got.tgz:288902.got - 2010.06.03 11:33:40.
