data_PCOD9055056
_publ_section_title
;
Structure prediction by ZEFSAII (Michael W. Deem and Ramdas Pophale) SiO2 
 PCOD9055056
Probable space group: P -1
;
_chemical_formula_sum "Si O2"
_cell_formula_units_Z 13
_cell_length_a 10.127925
_cell_length_b 9.486479
_cell_length_c 17.009448
_cell_angle_alpha 35.149038
_cell_angle_beta 46.082747
_cell_angle_gamma 63.894254
_cell_volume 645.105305
_symmetry_space_group_name_H-M "P -1"
_symmetry_group_IT_number 2
_symmetry_cell_setting 'triclinic'
loop_
_space_group_symop_operation_xyz
x,y,z
-x,-y,-z
loop_
_atom_site_type_symbol
_atom_site_label
_atom_site_fract_x
_atom_site_fract_y
_atom_site_fract_z
Si Si1 0.372352 0.470866 0.412632
Si Si2 0.326624 0.676476 0.164900
Si Si3 0.040042 0.946252 0.232045
Si Si4 0.319551 0.980127 0.237282
Si Si5 0.336730 0.810132 0.599512
Si Si6 0.218798 0.148517 0.361822
Si Si7 0.000000 0.500000 0.000000
O O1 0.378687 0.572477 0.273899
O O2 0.350477 0.706133 0.366052
O O3 0.559699 0.386566 0.389321
O O4 0.178862 0.230796 0.607166
O O5 0.173267 0.826258 0.177939
O O6 0.245174 0.431642 0.254140
O O7 0.516451 0.863205 0.961616
O O8 0.118530 0.927064 0.297110
O O9 0.062607 0.241027 0.071634
O O10 0.328612 0.143401 0.237271
O O11 0.500000 0.000000 0.500000
O O12 0.286991 0.985075 0.473660
O O13 0.154076 0.669648 0.792476
O O14 0.000000 0.000000 0.500000
#
# Coordination Sequence:
#
# PCOD9055056 Si02
#       7
#     2   2   2   2   2   2   1
#     4  11  21  41  66  95 130 173 222 266 323 383
#     4  11  21  40  64  95 129 174 222 264 319 400
#     4  11  22  38  68  95 129 174 222 270 316 394
#     4  11  23  39  64  96 133 172 215 272 327 387
#     4  12  24  43  68  96 131 172 218 272 317 392
#     4  12  25  43  64  95 134 171 210 272 339 380
#     4  12  22  40  66 100 124 166 226 264 322 374
#
# _framework density 20.151748000000001
#
# number of rings (size 3 to 8) (size 9 to 14) (size 15 to 20)
#    0.000    0.615    3.077    8.769    0.000    0.615 
#    2.769    0.000    0.000    6.462    0.000    0.000 
#    0.000    0.000    0.000    0.000    0.000    0.000 
#
# Total GULP energy -72464.737781 kJ/mol
# GULP energy per Si atom -5574.210599 kJ/mol
# Density = 2.010588 g / cm^3
# Si number density = 20.151748 Si / 1000 Ang^3
#
#
#
# Elastic Constant Matrix: (Units=GPa)
#
#
# Indices 1 2 3 4 5 6 
#
# 1 57.6406 38.4672 3.7578 0.7313 -6.3049 -6.2250
# 2 38.4672 173.1275 28.1552 -18.0628 10.0022 -9.1770
# 3 3.7578 28.1552 61.9504 9.3777 1.8524 -6.3394
# 4 0.7313 -18.0628 9.3777 45.7991 -3.0092 2.4741
# 5 -6.3049 10.0022 1.8524 -3.0092 19.1303 -0.8695
# 6 -6.2250 -9.1770 -6.3394 2.4741 -0.8695 33.7848
#
#
#
# Elastic Compliance Matrix: (Units=1/GPa)
#
#
# Indices 1 2 3 4 5 6 
#
# 1 0.022777 -0.006040 0.001797 -0.002623 0.010230 0.003349
# 2 -0.006040 0.008474 -0.003906 0.003880 -0.005431 0.000032
# 3 0.001797 -0.003906 0.018991 -0.005629 0.000058 0.003247
# 4 -0.002623 0.003880 -0.005629 0.024776 0.001447 -0.002263
# 5 0.010230 -0.005431 0.000058 0.001447 0.058790 0.001828
# 6 0.003349 0.000032 0.003247 -0.002263 0.001828 0.031047
#
#
# Mechanical properties :
#
#
# Convention : Reuss Voigt Hill
#
# Bulk Modulus (GPa) = 29.46125 48.16431 38.81278
# Shear Modulus (GPa) = 25.97848 34.56540 30.27194
#
# Velocity S-wave (km/s) = 3.59436 4.14606 3.88003
# Velocity P-wave (km/s) = 5.64600 6.84634 6.27494
#
# Compressibility (1/GPa) = 0.03394289
#
# Stress axis : x y z
#
# Youngs Moduli (GPa) = 43.90452 118.01227 52.65654
#
# Poissons Ratio (x) = 0.71282 -0.09464
# Poissons Ratio (y) = 0.26519 0.20569
# Poissons Ratio (z) = -0.07891 0.46100
#
# Static dielectric constant tensor:
#      x y z
#    x 1.666800 0.026850 -0.026990 
#    y 0.026850 1.727470 0.032400 
#    z -0.026990 0.032400 1.693710 
# 
# From -- ./inp_files/157085.got.cif
#   From: 2010.05.17/outbox.cif.g08.bks.cpg/sg2_79_cif.got.tgz:157085.got - 2010.06.03 11:33:40.
