data_PCOD9055149
_publ_section_title
;
Structure prediction by ZEFSAII (Michael W. Deem and Ramdas Pophale) SiO2 
 PCOD9055149
Probable space group: P -1
;
_chemical_formula_sum "Si O2"
_cell_formula_units_Z 16
_cell_length_a 21.541954
_cell_length_b 23.917507
_cell_length_c 9.420064
_cell_angle_alpha 28.805329
_cell_angle_beta 29.513212
_cell_angle_gamma 20.410667
_cell_volume 780.137308
_symmetry_space_group_name_H-M "P -1"
_symmetry_group_IT_number 2
_symmetry_cell_setting 'triclinic'
loop_
_space_group_symop_operation_xyz
x,y,z
-x,-y,-z
loop_
_atom_site_type_symbol
_atom_site_label
_atom_site_fract_x
_atom_site_fract_y
_atom_site_fract_z
Si Si1 0.040780 0.745838 0.670433
Si Si2 0.702846 0.836149 0.647358
Si Si3 0.620984 0.106860 0.756522
Si Si4 0.176763 0.428376 0.230827
Si Si5 0.412300 0.853428 0.942004
Si Si6 0.440136 0.420089 0.218869
Si Si7 0.971938 0.378998 0.322735
Si Si8 0.390434 0.652709 0.257981
O O1 0.021323 0.685161 0.700787
O O2 0.205456 0.727070 0.385663
O O3 0.127430 0.594973 0.941618
O O4 0.837122 0.929028 0.707577
O O5 0.791341 0.666982 0.764286
O O6 0.851529 0.783817 0.577561
O O7 0.664922 0.965108 0.325605
O O8 0.516872 0.911805 0.923320
O O9 0.556583 0.239301 0.468537
O O10 0.589586 0.180482 0.813448
O O11 0.375573 0.282571 0.232615
O O12 0.000000 0.500000 0.500000
O O13 0.323774 0.813264 0.114996
O O14 0.225628 0.527577 0.429081
O O15 0.500000 0.500000 0.000000
O O16 0.479070 0.407378 0.002500
O O17 0.000000 0.500000 0.000000
O O18 0.500000 0.500000 0.500000
#
# Coordination Sequence:
#
# PCOD9055149 Si02
#       8
#     2   2   2   2   2   2   2   2
#     4  12  25  44  70 100 144 187 233 296 355 419
#     4  11  24  42  70 106 144 180 238 299 353 416
#     4  11  25  46  71 105 147 183 236 300 352 417
#     4  11  21  40  68  99 137 181 236 292 361 415
#     4  11  24  44  70 102 143 185 233 295 355 422
#     4  12  26  47  74 101 144 196 231 292 361 415
#     4  12  24  46  72 104 144 188 239 291 354 428
#     4  12  27  47  72 102 141 189 243 289 351 434
#
# _framework density 20.509209999999999
#
# number of rings (size 3 to 8) (size 9 to 14) (size 15 to 20)
#    0.000    0.500    5.000    4.500    3.500    4.500 
#    0.000    0.000    0.000    0.000    0.000    0.000 
#    0.000    0.000    0.000    0.000    0.000    0.000 
#
# Total GULP energy -89295.796969 kJ/mol
# GULP energy per Si atom -5580.987311 kJ/mol
# Density = 2.046253 g / cm^3
# Si number density = 20.509210 Si / 1000 Ang^3
#
#
#
# Elastic Constant Matrix: (Units=GPa)
#
#
# Indices 1 2 3 4 5 6 
#
# 1 102.1745 13.9521 30.3792 10.3370 -14.4554 -3.9973
# 2 13.9521 98.2860 30.5814 20.2833 -3.7908 -6.4440
# 3 30.3792 30.5814 86.8125 9.0919 -0.6551 4.4336
# 4 10.3370 20.2833 9.0919 43.9396 -8.3602 1.4769
# 5 -14.4554 -3.7908 -0.6551 -8.3602 39.3370 3.9017
# 6 -3.9973 -6.4440 4.4336 1.4769 3.9017 29.9584
#
#
#
# Elastic Compliance Matrix: (Units=1/GPa)
#
#
# Indices 1 2 3 4 5 6 
#
# 1 0.011719 0.000137 -0.004073 -0.001314 0.003797 0.001766
# 2 0.000137 0.012769 -0.004188 -0.005234 -0.000266 0.003677
# 3 -0.004073 -0.004188 0.014613 -0.000280 -0.001378 -0.003414
# 4 -0.001314 -0.005234 -0.000280 0.026598 0.004980 -0.003220
# 5 0.003797 -0.000266 -0.001378 0.004980 0.028150 -0.003258
# 6 0.001766 0.003677 -0.003414 -0.003220 -0.003258 0.035494
#
#
# Mechanical properties :
#
#
# Convention : Reuss Voigt Hill
#
# Bulk Modulus (GPa) = 43.75710 48.56649 46.16179
# Shear Modulus (GPa) = 32.63546 36.80435 34.71990
#
# Velocity S-wave (km/s) = 3.99339 4.24078 4.11894
# Velocity P-wave (km/s) = 6.53028 6.90729 6.72143
#
# Compressibility (1/GPa) = 0.02285343
#
# Stress axis : x y z
#
# Youngs Moduli (GPa) = 85.33311 78.31477 68.43273
#
# Poissons Ratio (x) = -0.01075 0.27874
# Poissons Ratio (y) = -0.01172 0.28658
# Poissons Ratio (z) = 0.34757 0.32797
#
# Static dielectric constant tensor:
#      x y z
#    x 1.994630 -0.081640 -0.111150 
#    y -0.081640 1.741790 -0.008190 
#    z -0.111150 -0.008190 1.766970 
# 
# From -- ./inp_files/349951.got.cif
#   From: 2010.05.17/outbox.cif.g08.bks.cpg/sg2_175_cif.got.tgz:349951.got - 2010.06.03 11:33:40.
