data_PCOD9055905
_publ_section_title
;
Structure prediction by ZEFSAII (Michael W. Deem and Ramdas Pophale) SiO2 
 PCOD9055905
Probable space group: P -1
;
_chemical_formula_sum "Si O2"
_cell_formula_units_Z 16
_cell_length_a 9.449884
_cell_length_b 9.491332
_cell_length_c 10.920940
_cell_angle_alpha 120.775642
_cell_angle_beta 116.925428
_cell_angle_gamma 91.285274
_cell_volume 707.857512
_symmetry_space_group_name_H-M "P -1"
_symmetry_group_IT_number 2
_symmetry_cell_setting 'triclinic'
loop_
_space_group_symop_operation_xyz
x,y,z
-x,-y,-z
loop_
_atom_site_type_symbol
_atom_site_label
_atom_site_fract_x
_atom_site_fract_y
_atom_site_fract_z
Si Si1 0.955514 0.762916 0.285966
Si Si2 0.571504 0.672328 0.026112
Si Si3 0.121483 0.158857 0.446129
Si Si4 0.661986 0.712498 0.829209
Si Si5 0.674178 0.191888 0.875698
Si Si6 0.433761 0.201418 0.433742
Si Si7 0.214253 0.594469 0.225472
Si Si8 0.101383 0.915268 0.910206
O O1 0.772166 0.735182 0.146709
O O2 0.926140 0.749811 0.414615
O O3 0.047824 0.634266 0.215068
O O4 0.072102 0.956891 0.378617
O O5 0.487520 0.802038 0.110809
O O6 0.500000 0.500000 0.000000
O O7 0.527766 0.636592 0.850080
O O8 0.314120 0.225766 0.506516
O O9 0.011217 0.163497 0.285370
O O10 0.599363 0.711889 0.666577
O O11 0.786998 0.600197 0.837107
O O12 0.743990 0.913768 0.988293
O O13 0.734981 0.340749 0.864125
O O14 0.627006 0.004945 0.707984
O O15 0.821712 0.206022 0.036523
O O16 0.627599 0.282382 0.580064
O O17 0.000000 0.000000 0.000000
#
# Coordination Sequence:
#
# PCOD9055905 Si02
#       8
#     2   2   2   2   2   2   2   2
#     4  11  26  41  70  99 132 178 227 279 327 399
#     4  12  26  46  64 101 140 174 219 286 337 395
#     4  11  22  43  68 100 139 167 224 286 327 386
#     4  11  25  42  70  95 140 177 221 279 343 398
#     4  11  24  40  73  96 130 184 227 268 338 400
#     4  11  24  43  71  99 135 178 222 280 333 405
#     4  12  24  44  68 102 134 184 225 272 339 409
#     4  11  21  44  70 102 131 174 225 283 328 397
#
# _framework density 22.603418000000001
#
# number of rings (size 3 to 8) (size 9 to 14) (size 15 to 20)
#    0.000    0.750    6.250    1.500    3.500    4.500 
#    0.000    0.625    0.000    0.000    0.000    0.000 
#    0.000    0.000    0.000    0.000    0.000    0.000 
#
# Total GULP energy -89567.225562 kJ/mol
# GULP energy per Si atom -5597.951598 kJ/mol
# Density = 2.255197 g / cm^3
# Si number density = 22.603418 Si / 1000 Ang^3
#
#
#
# Elastic Constant Matrix: (Units=GPa)
#
#
# Indices 1 2 3 4 5 6 
#
# 1 150.4589 31.9197 42.5180 -20.3279 -18.4954 -7.4189
# 2 31.9197 98.2521 19.8336 -26.2195 -5.1528 0.2957
# 3 42.5180 19.8336 75.1955 -23.9705 -2.0470 0.1007
# 4 -20.3279 -26.2195 -23.9705 39.1558 3.3607 0.4103
# 5 -18.4954 -5.1528 -2.0470 3.3607 37.4469 -3.8981
# 6 -7.4189 0.2957 0.1007 0.4103 -3.8981 39.6005
#
#
#
# Elastic Compliance Matrix: (Units=1/GPa)
#
#
# Indices 1 2 3 4 5 6 
#
# 1 0.008897 -0.001683 -0.004329 0.000468 0.004102 0.002089
# 2 -0.001683 0.012782 0.000040 0.007699 0.000190 -0.000472
# 3 -0.004329 0.000040 0.018679 0.009405 -0.002076 -0.001161
# 4 0.000468 0.007699 0.009405 0.036834 -0.001556 -0.000528
# 5 0.004102 0.000190 -0.002076 -0.001556 0.029163 0.003659
# 6 0.002089 -0.000472 -0.001161 -0.000528 0.003659 0.026016
#
#
# Mechanical properties :
#
#
# Convention : Reuss Voigt Hill
#
# Bulk Modulus (GPa) = 35.19248 56.93881 46.06565
# Shear Modulus (GPa) = 32.51270 38.54965 35.53117
#
# Velocity S-wave (km/s) = 3.79674 4.13422 3.96907
# Velocity P-wave (km/s) = 5.90115 6.93067 6.43653
#
# Compressibility (1/GPa) = 0.02841516
#
# Stress axis : x y z
#
# Youngs Moduli (GPa) = 112.39660 78.23239 53.53687
#
# Poissons Ratio (x) = 0.13165 0.23175
# Poissons Ratio (y) = 0.18915 -0.00214
# Poissons Ratio (z) = 0.48653 -0.00313
#
# Static dielectric constant tensor:
#      x y z
#    x 1.844280 0.033320 -0.000880 
#    y 0.033320 1.856520 0.010690 
#    z -0.000880 0.010690 1.866490 
# 
# From -- ./inp_files/380087.got.cif
#   From: 2010.05.17/outbox.cif.g08.bks.cpg/sg2_191_cif.got.tgz:380087.got - 2010.06.03 11:33:40.
