data_PCOD9055742
_publ_section_title
;
Structure prediction by ZEFSAII (Michael W. Deem and Ramdas Pophale) SiO2 
 PCOD9055742
Probable space group: P -1
;
_chemical_formula_sum "Si O2"
_cell_formula_units_Z 12
_cell_length_a 12.489941
_cell_length_b 19.194860
_cell_length_c 8.692537
_cell_angle_alpha 56.320060
_cell_angle_beta 54.592740
_cell_angle_gamma 20.788547
_cell_volume 602.251069
_symmetry_space_group_name_H-M "P -1"
_symmetry_group_IT_number 2
_symmetry_cell_setting 'triclinic'
loop_
_space_group_symop_operation_xyz
x,y,z
-x,-y,-z
loop_
_atom_site_type_symbol
_atom_site_label
_atom_site_fract_x
_atom_site_fract_y
_atom_site_fract_z
Si Si1 0.342359 0.293590 0.536588
Si Si2 0.203257 0.827007 0.665392
Si Si3 0.684971 0.448308 0.530426
Si Si4 0.659923 0.995051 0.410792
Si Si5 0.787619 0.063493 0.993725
Si Si6 0.756618 0.585847 0.189161
O O1 0.562739 0.242665 0.364769
O O2 0.325062 0.315677 0.707958
O O3 0.000000 0.500000 0.500000
O O4 0.512220 0.114692 0.545709
O O5 0.422620 0.634100 0.635958
O O6 0.000000 0.000000 0.500000
O O7 0.995104 0.907614 0.872766
O O8 0.500000 0.500000 0.500000
O O9 0.845048 0.441430 0.343094
O O10 0.971585 0.229245 0.619095
O O11 0.500000 0.000000 0.500000
O O12 0.614378 0.093067 0.200694
O O13 0.533436 0.261162 0.868429
O O14 0.000000 0.000000 0.000000
O O15 0.000000 0.500000 0.000000
#
# Coordination Sequence:
#
# PCOD9055742 Si02
#       6
#     2   2   2   2   2   2
#     4  11  22  42  69  91 130 176 214 262 322 392
#     4  11  21  43  69  95 125 174 224 259 320 395
#     4  11  23  41  66  94 133 164 207 282 329 365
#     4  12  25  43  63  99 136 165 212 278 333 368
#     4  12  23  41  71  96 126 175 225 263 310 403
#     4  11  24  44  67  95 125 178 227 254 317 403
#
# _framework density 19.925245
#
# number of rings (size 3 to 8) (size 9 to 14) (size 15 to 20)
#    0.000    0.667    5.000    6.000    0.000    0.667 
#    3.000    1.667    0.000    0.000    0.000    0.000 
#    0.000    0.000    0.000    0.000    0.000    0.000 
#
# Total GULP energy -66970.165217 kJ/mol
# GULP energy per Si atom -5580.847101 kJ/mol
# Density = 1.987989 g / cm^3
# Si number density = 19.925245 Si / 1000 Ang^3
#
#
#
# Elastic Constant Matrix: (Units=GPa)
#
#
# Indices 1 2 3 4 5 6 
#
# 1 123.3834 21.3939 10.2655 6.9450 10.6307 10.5349
# 2 21.3939 94.1415 -4.7283 -2.5263 22.5605 4.4964
# 3 10.2655 -4.7283 82.8062 16.9643 5.7708 8.9770
# 4 6.9450 -2.5263 16.9643 36.0465 -9.1367 5.0771
# 5 10.6307 22.5605 5.7708 -9.1367 28.1646 -1.7706
# 6 10.5349 4.4964 8.9770 5.0771 -1.7706 46.4627
#
#
#
# Elastic Compliance Matrix: (Units=1/GPa)
#
#
# Indices 1 2 3 4 5 6 
#
# 1 0.008888 -0.001274 -0.000326 -0.002190 -0.003085 -0.001707
# 2 -0.001274 0.013994 0.002588 -0.002866 -0.012297 -0.001721
# 3 -0.000326 0.002588 0.014787 -0.008362 -0.007844 -0.002419
# 4 -0.002190 -0.002866 -0.008362 0.036220 0.016527 -0.000938
# 5 -0.003085 -0.012297 -0.007844 0.016527 0.053718 0.003646
# 6 -0.001707 -0.001721 -0.002419 -0.000938 0.003646 0.022785
#
#
# Mechanical properties :
#
#
# Convention : Reuss Voigt Hill
#
# Bulk Modulus (GPa) = 25.22460 39.35481 32.28970
# Shear Modulus (GPa) = 30.93490 40.36141 35.64816
#
# Velocity S-wave (km/s) = 3.94451 4.50560 4.23436
# Velocity P-wave (km/s) = 5.78210 6.84553 6.33617
#
# Compressibility (1/GPa) = 0.03964384
#
# Stress axis : x y z
#
# Youngs Moduli (GPa) = 112.51534 71.45963 67.62875
#
# Poissons Ratio (x) = 0.09104 0.02204
# Poissons Ratio (y) = 0.14335 -0.17500
# Poissons Ratio (z) = 0.03666 -0.18491
#
# Static dielectric constant tensor:
#      x y z
#    x 1.704200 0.024250 0.031860 
#    y 0.024250 1.876450 0.080440 
#    z 0.031860 0.080440 1.742540 
# 
# From -- ./inp_files/145471.got.cif
#   From: 2010.05.17/outbox.cif.g08.bks.cpg/sg2_73_cif.got.tgz:145471.got - 2010.06.03 11:33:40.
