data_PCOD9055984
_publ_section_title
;
Structure prediction by ZEFSAII (Michael W. Deem and Ramdas Pophale) SiO2 
 PCOD9055984
Probable space group: P -1
;
_chemical_formula_sum "Si O2"
_cell_formula_units_Z 16
_cell_length_a 8.765188
_cell_length_b 5.901653
_cell_length_c 19.929554
_cell_angle_alpha 113.147590
_cell_angle_beta 127.586847
_cell_angle_gamma 83.615053
_cell_volume 739.391218
_symmetry_space_group_name_H-M "P -1"
_symmetry_group_IT_number 2
_symmetry_cell_setting 'triclinic'
loop_
_space_group_symop_operation_xyz
x,y,z
-x,-y,-z
loop_
_atom_site_type_symbol
_atom_site_label
_atom_site_fract_x
_atom_site_fract_y
_atom_site_fract_z
Si Si1 0.299210 0.597060 0.469246
Si Si2 0.203469 0.617317 0.103368
Si Si3 0.193349 0.897734 0.865304
Si Si4 0.365437 0.579732 0.637527
Si Si5 0.077491 0.792035 0.680625
Si Si6 0.158023 0.056661 0.489863
Si Si7 0.207821 0.224085 0.184042
Si Si8 0.541923 0.618531 0.952324
O O1 0.500000 0.500000 0.500000
O O2 0.275401 0.633459 0.547597
O O3 0.102616 0.423524 0.370040
O O4 0.290229 0.869738 0.473641
O O5 0.216304 0.427199 0.148325
O O6 0.381144 0.572904 0.098514
O O7 0.208040 0.920113 0.142186
O O8 0.000000 0.500000 0.000000
O O9 0.352140 0.715962 0.885608
O O10 0.147935 0.958926 0.783346
O O11 0.994459 0.769829 0.831997
O O12 0.289579 0.138316 0.962297
O O13 0.311729 0.282771 0.588073
O O14 0.594117 0.679803 0.711169
O O15 0.256809 0.685562 0.682485
O O16 0.975126 0.903826 0.604635
O O17 0.000000 0.000000 0.500000
O O18 0.500000 0.500000 0.000000
#
# Coordination Sequence:
#
# PCOD9055984 Si02
#       8
#     2   2   2   2   2   2   2   2
#     4  11  23  43  67  99 139 180 232 299 361 425
#     4  12  26  49  78 104 148 197 248 304 379 444
#     4  11  26  47  69 105 150 185 250 310 371 441
#     4  11  24  42  69 103 139 186 245 292 366 437
#     4  11  23  42  68 103 136 187 241 297 360 438
#     4  11  21  44  74  96 142 192 239 295 361 440
#     4  12  28  48  75 111 148 195 248 311 373 446
#     4  11  26  46  75 104 143 198 244 308 373 445
#
# _framework density 21.639424999999999
#
# number of rings (size 3 to 8) (size 9 to 14) (size 15 to 20)
#    0.000    0.750    3.750    3.375    7.000    3.000 
#    2.250    0.000    0.000    0.000    0.000    0.000 
#    0.000    0.000    0.000    0.000    0.000    0.000 
#
# Total GULP energy -89232.710326 kJ/mol
# GULP energy per Si atom -5577.044395 kJ/mol
# Density = 2.159017 g / cm^3
# Si number density = 21.639425 Si / 1000 Ang^3
#
#
#
# Elastic Constant Matrix: (Units=GPa)
#
#
# Indices 1 2 3 4 5 6 
#
# 1 120.0467 26.6721 32.0187 1.6560 9.8636 -9.5834
# 2 26.6721 87.1046 26.7864 9.0530 -2.3852 -8.6903
# 3 32.0187 26.7864 95.0780 7.4125 16.2296 -7.9064
# 4 1.6560 9.0530 7.4125 0.1513 10.3827 0.1296
# 5 9.8636 -2.3852 16.2296 10.3827 43.1223 -5.2618
# 6 -9.5834 -8.6903 -7.9064 0.1296 -5.2618 34.4558
#
#
#
# Elastic Compliance Matrix: (Units=1/GPa)
#
#
# Indices 1 2 3 4 5 6 
#
# 1 0.009334 -0.001021 -0.002160 -0.009054 0.001050 0.002037
# 2 -0.001021 0.009406 -0.003896 0.033170 -0.005743 0.000193
# 3 -0.002160 -0.003896 0.013001 0.004406 -0.005611 0.000527
# 4 -0.009054 0.033170 0.004406 -0.269498 0.069389 0.018469
# 5 0.001050 -0.005743 -0.005611 0.069389 0.007853 -0.001506
# 6 0.002037 0.000193 0.000527 0.018469 -0.001506 0.029459
#
#
# Mechanical properties :
#
#
# Convention : Reuss Voigt Hill
#
# Bulk Modulus (GPa) = 56.85797 52.57597 54.71697
# Shear Modulus (GPa) = -27.71169 29.99603 1.14217
#
# Velocity S-wave (km/s) = -3.58245 3.72718 0.72730
# Velocity P-wave (km/s) = 3.03650 6.54764 5.10352
#
# Compressibility (1/GPa) = 0.01758768
#
# Stress axis : x y z
#
# Youngs Moduli (GPa) = 107.13216 106.31909 76.91960
#
# Poissons Ratio (x) = 0.10856 0.16612
# Poissons Ratio (y) = 0.10939 0.29966
# Poissons Ratio (z) = 0.23137 0.41419
#
# Static dielectric constant tensor:
#      x y z
#    x 1.742540 0.009600 0.001790 
#    y 0.009600 1.986680 0.024390 
#    z 0.001790 0.024390 1.778560 
# 
# From -- ./inp_files/585892.got.cif
#   From: 2010.05.17/outbox.cif.g08.bks.cpg/sg2_293_cif.got.tgz:585892.got - 2010.06.03 11:33:40.
