data_PCOD9055590
_publ_section_title
;
Structure prediction by ZEFSAII (Michael W. Deem and Ramdas Pophale) SiO2 
 PCOD9055590
Probable space group: P -1
;
_chemical_formula_sum "Si O2"
_cell_formula_units_Z 14
_cell_length_a 7.970500
_cell_length_b 12.599849
_cell_length_c 8.270116
_cell_angle_alpha 77.033797
_cell_angle_beta 111.014478
_cell_angle_gamma 136.243759
_cell_volume 535.421573
_symmetry_space_group_name_H-M "P -1"
_symmetry_group_IT_number 2
_symmetry_cell_setting 'triclinic'
loop_
_space_group_symop_operation_xyz
x,y,z
-x,-y,-z
loop_
_atom_site_type_symbol
_atom_site_label
_atom_site_fract_x
_atom_site_fract_y
_atom_site_fract_z
Si Si1 0.089063 0.217018 0.777899
Si Si2 0.732768 0.173591 0.473380
Si Si3 0.304818 0.635146 0.395412
Si Si4 0.529201 0.425514 0.209220
Si Si5 0.076946 0.800626 0.940264
Si Si6 0.192293 0.059107 0.695913
Si Si7 0.794815 0.345562 0.149546
O O1 0.326527 0.398476 0.820695
O O2 0.127228 0.105652 0.812698
O O3 0.976636 0.203302 0.569228
O O4 0.894150 0.156465 0.876585
O O5 0.793908 0.299703 0.570481
O O6 0.675203 0.207017 0.276750
O O7 0.500000 0.000000 0.500000
O O8 0.391957 0.592606 0.584380
O O9 0.543940 0.778651 0.329213
O O10 0.080633 0.489169 0.262728
O O11 0.227412 0.313444 0.149412
O O12 0.636234 0.386769 0.121831
O O13 0.165393 0.713518 0.973322
O O14 0.197936 0.939048 0.809207
O O15 0.000000 0.000000 0.500000
#
# Coordination Sequence:
#
# PCOD9055590 Si02
#       7
#     2   2   2   2   2   2   2
#     4  12  25  45  67 100 146 174 225 289 347 412
#     4  11  22  41  70 101 132 179 232 285 337 399
#     4  11  21  42  71 101 130 175 240 289 324 401
#     4  11  23  44  73 103 136 180 228 285 344 404
#     4  12  27  45  67 106 141 182 225 282 354 411
#     4  12  25  44  70 100 132 184 235 281 336 409
#     4  11  23  45  73 100 135 180 239 280 337 411
#
# _framework density 26.147618999999999
#
# number of rings (size 3 to 8) (size 9 to 14) (size 15 to 20)
#    0.000    0.571    4.286    5.143    2.000    1.714 
#    2.571    1.429    0.000    0.000    0.000    0.000 
#    0.000    0.000    0.000    0.000    0.000    0.000 
#
# Total GULP energy -78394.255892 kJ/mol
# GULP energy per Si atom -5599.589707 kJ/mol
# Density = 2.608811 g / cm^3
# Si number density = 26.147619 Si / 1000 Ang^3
#
#
#
# Elastic Constant Matrix: (Units=GPa)
#
#
# Indices 1 2 3 4 5 6 
#
# 1 113.9972 41.5524 37.0007 17.3447 -9.7828 -21.8778
# 2 41.5524 146.8885 40.9683 -7.0582 5.5991 -1.4206
# 3 37.0007 40.9683 102.8060 -19.2692 5.8178 -10.5019
# 4 17.3447 -7.0582 -19.2692 39.2061 -11.3885 -12.1036
# 5 -9.7828 5.5991 5.8178 -11.3885 52.7430 6.0690
# 6 -21.8778 -1.4206 -10.5019 -12.1036 6.0690 58.0162
#
#
#
# Elastic Compliance Matrix: (Units=1/GPa)
#
#
# Indices 1 2 3 4 5 6 
#
# 1 0.013048 -0.002725 -0.004876 -0.007572 0.001353 0.002250
# 2 -0.002725 0.008252 -0.002142 0.001130 -0.000798 -0.000894
# 3 -0.004876 -0.002142 0.014444 0.009576 -0.000522 0.002776
# 4 -0.007572 0.001130 0.009576 0.037028 0.004708 0.006138
# 5 0.001353 -0.000798 -0.000522 0.004708 0.020457 -0.000761
# 6 0.002250 -0.000894 0.002776 0.006138 -0.000761 0.019926
#
#
# Mechanical properties :
#
#
# Convention : Reuss Voigt Hill
#
# Bulk Modulus (GPa) = 61.50990 66.97050 64.24020
# Shear Modulus (GPa) = 36.21590 46.27108 41.24349
#
# Velocity S-wave (km/s) = 3.72567 4.21124 3.97587
# Velocity P-wave (km/s) = 6.48711 7.02240 6.76006
#
# Compressibility (1/GPa) = 0.01625755
#
# Stress axis : x y z
#
# Youngs Moduli (GPa) = 76.64007 121.17949 69.23485
#
# Poissons Ratio (x) = 0.33018 0.33761
# Poissons Ratio (y) = 0.20882 0.14831
# Poissons Ratio (z) = 0.37372 0.25958
#
# Static dielectric constant tensor:
#      x y z
#    x 2.120640 0.017120 -0.030710 
#    y 0.017120 1.988410 0.045340 
#    z -0.030710 0.045340 2.250650 
# 
# From -- ./inp_files/154710.got.cif
#   From: 2010.05.17/outbox.cif.g08.bks.cpg/sg2_78_cif.got.tgz:154710.got - 2010.06.03 11:33:40.
