data_PCOD9055663
_publ_section_title
;
Structure prediction by ZEFSAII (Michael W. Deem and Ramdas Pophale) SiO2 
 PCOD9055663
Probable space group: P -1
;
_chemical_formula_sum "Si O2"
_cell_formula_units_Z 14
_cell_length_a 8.341930
_cell_length_b 9.074676
_cell_length_c 10.296581
_cell_angle_alpha 101.231312
_cell_angle_beta 123.455705
_cell_angle_gamma 80.585516
_cell_volume 636.348254
_symmetry_space_group_name_H-M "P -1"
_symmetry_group_IT_number 2
_symmetry_cell_setting 'triclinic'
loop_
_space_group_symop_operation_xyz
x,y,z
-x,-y,-z
loop_
_atom_site_type_symbol
_atom_site_label
_atom_site_fract_x
_atom_site_fract_y
_atom_site_fract_z
Si Si1 0.154003 0.866971 0.583332
Si Si2 0.275268 0.042323 0.882184
Si Si3 0.161837 0.266213 0.088373
Si Si4 0.776543 0.460788 0.023908
Si Si5 0.461398 0.239705 0.795214
Si Si6 0.896088 0.610767 0.372432
Si Si7 0.559516 0.941200 0.659723
O O1 0.363730 0.884444 0.622718
O O2 0.060095 0.727477 0.455350
O O3 0.182044 0.897087 0.755519
O O4 0.000000 0.000000 0.500000
O O5 0.306125 0.168807 0.808773
O O6 0.165215 0.126735 0.964569
O O7 0.500000 0.000000 0.000000
O O8 0.277158 0.189043 0.250094
O O9 0.953098 0.343645 0.039949
O O10 0.256111 0.403294 0.073985
O O11 0.839283 0.530150 0.200320
O O12 0.591776 0.362612 0.933554
O O13 0.305328 0.319643 0.642060
O O14 0.591766 0.099042 0.774402
O O15 0.000000 0.500000 0.500000
O O16 0.500000 0.000000 0.500000
#
# Coordination Sequence:
#
# PCOD9055663 Si02
#       7
#     2   2   2   2   2   2   2
#     4  11  22  44  71  97 135 174 226 283 333 398
#     4  11  21  42  75  98 125 176 233 278 330 396
#     4  11  24  46  69 100 135 185 227 275 350 403
#     4  11  27  45  68 100 143 183 225 275 344 422
#     4  11  24  46  68 102 132 179 239 279 332 411
#     4  12  27  41  70 107 139 180 225 281 345 407
#     4  11  26  44  69 103 138 174 231 292 346 393
#
# _framework density 22.000533999999998
#
# number of rings (size 3 to 8) (size 9 to 14) (size 15 to 20)
#    0.000    0.857    7.143    0.429    6.000    4.000 
#    0.000    1.429    0.000    0.000    0.000    0.000 
#    0.000    0.000    0.000    0.000    0.000    0.000 
#
# Total GULP energy -78007.990334 kJ/mol
# GULP energy per Si atom -5571.999310 kJ/mol
# Density = 2.195046 g / cm^3
# Si number density = 22.000534 Si / 1000 Ang^3
#
#
#
# Elastic Constant Matrix: (Units=GPa)
#
#
# Indices 1 2 3 4 5 6 
#
# 1 41.2708 28.3915 22.7566 7.7071 2.5330 -9.1203
# 2 28.3915 108.3643 67.8634 -6.1103 7.0368 -7.4745
# 3 22.7566 67.8634 133.4398 7.5027 8.5806 7.3900
# 4 7.7071 -6.1103 7.5027 59.1476 2.3238 12.2608
# 5 2.5330 7.0368 8.5806 2.3238 35.3823 0.2843
# 6 -9.1203 -7.4745 7.3900 12.2608 0.2843 34.9209
#
#
#
# Elastic Compliance Matrix: (Units=1/GPa)
#
#
# Indices 1 2 3 4 5 6 
#
# 1 0.034018 -0.007116 -0.002355 -0.007005 -0.000072 0.010320
# 2 -0.007116 0.015920 -0.007092 0.003109 -0.001157 0.001968
# 3 -0.002355 -0.007092 0.011873 -0.000996 -0.001200 -0.004286
# 4 -0.007005 0.003109 -0.000996 0.019960 -0.001122 -0.007952
# 5 -0.000072 -0.001157 -0.001200 -0.001122 0.028862 0.000147
# 6 0.010320 0.001968 -0.004286 -0.007952 0.000147 0.035450
#
#
# Mechanical properties :
#
#
# Convention : Reuss Voigt Hill
#
# Bulk Modulus (GPa) = 34.86333 57.89976 46.38155
# Shear Modulus (GPa) = 26.48703 36.82773 31.65738
#
# Velocity S-wave (km/s) = 3.47353 4.09583 3.79745
# Velocity P-wave (km/s) = 5.65404 6.98157 6.35258
#
# Compressibility (1/GPa) = 0.02868343
#
# Stress axis : x y z
#
# Youngs Moduli (GPa) = 29.39662 62.81256 84.22286
#
# Poissons Ratio (x) = 0.44698 0.19837
# Poissons Ratio (y) = 0.20919 0.59735
# Poissons Ratio (z) = 0.06924 0.44549
#
# Static dielectric constant tensor:
#      x y z
#    x 1.791870 -0.017780 -0.090820 
#    y -0.017780 1.975620 -0.138370 
#    z -0.090820 -0.138370 1.929340 
# 
# From -- ./inp_files/244241.got.cif
#   From: 2010.05.17/outbox.cif.g08.bks.cpg/sg2_123_cif.got.tgz:244241.got - 2010.06.03 11:33:40.
