data_PCOD9055269
_publ_section_title
;
Structure prediction by ZEFSAII (Michael W. Deem and Ramdas Pophale) SiO2 
 PCOD9055269
Probable space group: P -1
;
_chemical_formula_sum "Si O2"
_cell_formula_units_Z 16
_cell_length_a 11.162987
_cell_length_b 11.320560
_cell_length_c 16.398676
_cell_angle_alpha 32.767893
_cell_angle_beta 137.200881
_cell_angle_gamma 127.012191
_cell_volume 761.426565
_symmetry_space_group_name_H-M "P -1"
_symmetry_group_IT_number 2
_symmetry_cell_setting 'triclinic'
loop_
_space_group_symop_operation_xyz
x,y,z
-x,-y,-z
loop_
_atom_site_type_symbol
_atom_site_label
_atom_site_fract_x
_atom_site_fract_y
_atom_site_fract_z
Si Si1 0.580364 0.162350 0.880625
Si Si2 0.248552 0.114809 0.014775
Si Si3 0.818959 0.062276 0.329419
Si Si4 0.920654 0.263733 0.092378
Si Si5 0.124804 0.819134 0.438804
Si Si6 0.666807 0.396745 0.191518
Si Si7 0.854210 0.175591 0.739638
Si Si8 0.773990 0.642095 0.456554
O O1 0.422675 0.345012 0.686511
O O2 0.620812 0.011281 0.909124
O O3 0.763363 0.248870 0.956547
O O4 0.500000 0.000000 0.000000
O O5 0.266285 0.004563 0.176561
O O6 0.250714 0.374391 0.873446
O O7 0.053087 0.078801 0.903231
O O8 0.840285 0.193062 0.180011
O O9 0.728841 0.224668 0.253728
O O10 0.753291 0.825077 0.409912
O O11 0.000000 0.000000 0.500000
O O12 0.073962 0.077426 0.261231
O O13 0.000000 0.500000 0.000000
O O14 0.286313 0.745110 0.621124
O O15 0.169876 0.754818 0.406166
O O16 0.940512 0.718313 0.439501
O O17 0.500000 0.500000 0.000000
O O18 0.824001 0.395815 0.649519
#
# Coordination Sequence:
#
# PCOD9055269 Si02
#       8
#     2   2   2   2   2   2   2   2
#     4  12  23  43  71 104 133 175 242 282 336 413
#     4  11  25  43  68 102 136 177 228 288 344 405
#     4  11  21  41  65  96 131 185 228 271 340 412
#     4  11  25  42  70 100 140 180 223 287 352 409
#     4  11  22  44  69  99 131 189 232 277 346 418
#     4  12  26  42  67  98 137 179 233 283 334 415
#     4  11  23  42  70  98 136 173 224 291 351 400
#     4  11  22  40  72  95 132 178 233 283 332 417
#
# _framework density 21.013188
#
# number of rings (size 3 to 8) (size 9 to 14) (size 15 to 20)
#    0.000    0.750    7.500    1.125    3.500    1.500 
#    2.250    0.625    0.000    0.000    0.000    0.000 
#    0.000    0.000    0.000    0.000    0.000    0.000 
#
# Total GULP energy -89123.099731 kJ/mol
# GULP energy per Si atom -5570.193733 kJ/mol
# Density = 2.096536 g / cm^3
# Si number density = 21.013188 Si / 1000 Ang^3
#
#
#
# Elastic Constant Matrix: (Units=GPa)
#
#
# Indices 1 2 3 4 5 6 
#
# 1 59.7501 14.6581 24.5173 6.4566 13.3802 -29.9613
# 2 14.6581 82.4832 32.6709 -2.8174 -0.4191 -11.0828
# 3 24.5173 32.6709 130.7619 9.8016 27.1299 0.8254
# 4 6.4566 -2.8174 9.8016 50.6518 -2.3593 -1.5314
# 5 13.3802 -0.4191 27.1299 -2.3593 25.5517 3.4625
# 6 -29.9613 -11.0828 0.8254 -1.5314 3.4625 26.6635
#
#
#
# Elastic Compliance Matrix: (Units=1/GPa)
#
#
# Indices 1 2 3 4 5 6 
#
# 1 0.076095 -0.000165 -0.004069 -0.008426 -0.048694 0.091403
# 2 -0.000165 0.014980 -0.004958 0.002220 0.005034 0.005668
# 3 -0.004069 -0.004958 0.011996 -0.002728 -0.010148 -0.005843
# 4 -0.008426 0.002220 -0.002728 0.021698 0.010511 -0.008580
# 5 -0.048694 0.005034 -0.010148 0.010511 0.084964 -0.062739
# 6 0.091403 0.005668 -0.005843 -0.008580 -0.062739 0.150403
#
#
# Mechanical properties :
#
#
# Convention : Reuss Voigt Hill
#
# Bulk Modulus (GPa) = 11.80833 46.29865 29.05349
# Shear Modulus (GPa) = 12.29258 33.98332 23.13795
#
# Velocity S-wave (km/s) = 2.42129 4.02585 3.32191
# Velocity P-wave (km/s) = 3.66722 6.60991 5.34507
#
# Compressibility (1/GPa) = 0.08468598
#
# Stress axis : x y z
#
# Youngs Moduli (GPa) = 13.14153 66.75577 83.36151
#
# Poissons Ratio (x) = 0.01103 0.33918
# Poissons Ratio (y) = 0.00217 0.41333
# Poissons Ratio (z) = 0.05347 0.33099
#
# Static dielectric constant tensor:
#      x y z
#    x 1.787310 0.051380 0.013760 
#    y 0.051380 1.742040 0.118090 
#    z 0.013760 0.118090 1.821680 
# 
# From -- ./inp_files/568527.got.cif
#   From: 2010.05.17/outbox.cif.g08.bks.cpg/sg2_285_cif.got.tgz:568527.got - 2010.06.03 11:33:40.
