data_PCOD9055518
_publ_section_title
;
Structure prediction by ZEFSAII (Michael W. Deem and Ramdas Pophale) SiO2 
 PCOD9055518
Probable space group: P -1
;
_chemical_formula_sum "Si O2"
_cell_formula_units_Z 15
_cell_length_a 18.232505
_cell_length_b 9.330252
_cell_length_c 12.337413
_cell_angle_alpha 49.598008
_cell_angle_beta 152.192285
_cell_angle_gamma 143.759330
_cell_volume 562.379053
_symmetry_space_group_name_H-M "P -1"
_symmetry_group_IT_number 2
_symmetry_cell_setting 'triclinic'
loop_
_space_group_symop_operation_xyz
x,y,z
-x,-y,-z
loop_
_atom_site_type_symbol
_atom_site_label
_atom_site_fract_x
_atom_site_fract_y
_atom_site_fract_z
Si Si1 0.108189 0.941631 0.249827
Si Si2 0.872179 0.399137 0.270342
Si Si3 0.522810 0.370382 0.495866
Si Si4 0.550163 0.419077 0.910958
Si Si5 0.500000 0.500000 0.000000
Si Si6 0.105096 0.359567 0.431275
Si Si7 0.079275 0.012590 0.816447
Si Si8 0.264078 0.770369 0.266231
O O1 0.331521 0.086494 0.419883
O O2 0.083191 0.013097 0.301957
O O3 0.970685 0.651187 0.212816
O O4 0.000000 0.000000 0.000000
O O5 0.937812 0.272748 0.349004
O O6 0.000000 0.500000 0.500000
O O7 0.644220 0.301389 0.044876
O O8 0.500000 0.500000 0.500000
O O9 0.710514 0.373980 0.721515
O O10 0.500950 0.479629 0.304020
O O11 0.424500 0.271562 0.926163
O O12 0.717484 0.686376 0.071395
O O13 0.668461 0.491920 0.292693
O O14 0.136181 0.562517 0.293055
O O15 0.029185 0.132445 0.364673
O O16 0.166289 0.889195 0.042599
O O17 0.500000 0.000000 0.500000
#
# Coordination Sequence:
#
# PCOD9055518 Si02
#       8
#     2   2   2   2   1   2   2   2
#     4  11  21  42  68  93 133 175 218 275 334 396
#     4  11  23  42  66  93 128 175 222 265 332 396
#     4  12  24  39  66 101 133 172 219 280 338 388
#     4  11  24  46  65  91 137 175 218 274 335 398
#     4  12  24  46  64  92 130 178 218 264 338 394
#     4  12  25  40  69  95 127 177 224 269 324 408
#     4  11  24  42  65 100 128 170 225 273 335 391
#     4  12  22  41  64  98 137 166 211 281 336 383
#
# _framework density 26.672402000000002
#
# number of rings (size 3 to 8) (size 9 to 14) (size 15 to 20)
#    0.000    0.533    6.667    2.800    1.867    0.533 
#    0.000    0.000    0.000    4.800    0.000    0.000 
#    0.000    0.000    0.000    0.000    0.000    0.000 
#
# Total GULP energy -83737.565213 kJ/mol
# GULP energy per Si atom -5582.504348 kJ/mol
# Density = 2.661169 g / cm^3
# Si number density = 26.672402 Si / 1000 Ang^3
#
#
#
# Elastic Constant Matrix: (Units=GPa)
#
#
# Indices 1 2 3 4 5 6 
#
# 1 197.1502 25.8552 31.4732 4.2965 0.3118 -47.7992
# 2 25.8552 100.1692 31.5502 5.0873 -10.8162 -18.5115
# 3 31.4732 31.5502 102.5472 -11.3781 -3.9160 -0.6229
# 4 4.2965 5.0873 -11.3781 40.0748 -6.0586 3.1698
# 5 0.3118 -10.8162 -3.9160 -6.0586 52.9889 -6.5623
# 6 -47.7992 -18.5115 -0.6229 3.1698 -6.5623 43.0676
#
#
#
# Elastic Compliance Matrix: (Units=1/GPa)
#
#
# Indices 1 2 3 4 5 6 
#
# 1 0.007663 0.000770 -0.002760 -0.002305 0.000769 0.009083
# 2 0.000770 0.012930 -0.004408 -0.003103 0.002822 0.007007
# 3 -0.002760 -0.004408 0.012453 0.004790 -0.000052 -0.005138
# 4 -0.002305 -0.003103 0.004790 0.027727 0.002220 -0.005525
# 5 0.000769 0.002822 -0.000052 0.002220 0.020312 0.004998
# 6 0.009083 0.007007 -0.005138 -0.005525 0.004998 0.037406
#
#
# Mechanical properties :
#
#
# Convention : Reuss Voigt Hill
#
# Bulk Modulus (GPa) = 49.38373 64.18040 56.78207
# Shear Modulus (GPa) = 36.22182 47.95879 42.09031
#
# Velocity S-wave (km/s) = 3.68914 4.24496 3.97677
# Velocity P-wave (km/s) = 6.05817 6.93837 6.51316
#
# Compressibility (1/GPa) = 0.02024958
#
# Stress axis : x y z
#
# Youngs Moduli (GPa) = 130.49572 77.33899 80.29996
#
# Poissons Ratio (x) = -0.05956 0.22163
# Poissons Ratio (y) = -0.10049 0.35400
# Poissons Ratio (z) = 0.36017 0.34095
#
# Static dielectric constant tensor:
#      x y z
#    x -0.538550 -1.149300 -0.212820 
#    y -1.149300 1.723200 0.010690 
#    z -0.212820 0.010690 2.153910 
# 
# From -- ./inp_files/200731.got.cif
#   From: 2010.05.17/outbox.cif.g08.bks.cpg/sg2_101_cif.got.tgz:200731.got - 2010.06.03 11:33:40.
