data_PCOD9055136
_publ_section_title
;
Structure prediction by ZEFSAII (Michael W. Deem and Ramdas Pophale) SiO2 
 PCOD9055136
Probable space group: P -1
;
_chemical_formula_sum "Si O2"
_cell_formula_units_Z 16
_cell_length_a 9.997992
_cell_length_b 21.413482
_cell_length_c 11.245232
_cell_angle_alpha 21.408704
_cell_angle_beta 66.914831
_cell_angle_gamma 65.778340
_cell_volume 801.050123
_symmetry_space_group_name_H-M "P -1"
_symmetry_group_IT_number 2
_symmetry_cell_setting 'triclinic'
loop_
_space_group_symop_operation_xyz
x,y,z
-x,-y,-z
loop_
_atom_site_type_symbol
_atom_site_label
_atom_site_fract_x
_atom_site_fract_y
_atom_site_fract_z
Si Si1 0.351900 0.387487 0.372069
Si Si2 0.158357 0.402881 0.641830
Si Si3 0.339617 0.504543 0.599972
Si Si4 0.530561 0.901650 0.346550
Si Si5 0.641928 0.877089 0.617659
Si Si6 0.633914 0.263397 0.609553
Si Si7 0.763077 0.242960 0.352136
Si Si8 0.925336 0.880123 0.649386
O O1 0.242517 0.356783 0.571467
O O2 0.390381 0.230779 0.544272
O O3 0.505871 0.406111 0.349670
O O4 0.292298 0.561911 0.015686
O O5 0.239630 0.524107 0.483674
O O6 0.000000 0.500000 0.500000
O O7 0.142994 0.242749 0.015629
O O8 0.500000 0.500000 0.500000
O O9 0.304578 0.658335 0.433375
O O10 0.339907 0.319772 0.991715
O O11 0.610178 0.869748 0.501704
O O12 0.358822 0.869404 0.462366
O O13 0.553596 0.096280 0.959587
O O14 0.791303 0.945896 0.490286
O O15 0.500000 0.000000 0.500000
O O16 0.746913 0.223036 0.534583
O O17 0.931934 0.203978 0.324305
O O18 0.000000 0.000000 0.500000
#
# Coordination Sequence:
#
# PCOD9055136 Si02
#       8
#     2   2   2   2   2   2   2   2
#     4  11  21  40  68  93 129 164 218 257 315 381
#     4  11  24  42  63  97 125 167 210 261 322 373
#     4  11  22  40  68  91 127 165 216 262 308 380
#     4  11  24  40  68  96 129 168 215 264 314 377
#     4  11  24  43  64  96 128 167 217 259 318 378
#     4  11  23  40  67  98 126 169 215 264 315 376
#     4  11  22  42  66  95 127 170 212 263 322 377
#     4  11  26  41  65  94 132 167 207 265 321 380
#
# _framework density 19.973782
#
# number of rings (size 3 to 8) (size 9 to 14) (size 15 to 20)
#    0.000    1.000    2.500    6.000    5.250    2.000 
#    2.250    2.500    0.000    0.000    0.000    0.000 
#    0.000    0.000    0.000    0.000    0.000    0.000 
#
# Total GULP energy -89319.024721 kJ/mol
# GULP energy per Si atom -5582.439045 kJ/mol
# Density = 1.992832 g / cm^3
# Si number density = 19.973782 Si / 1000 Ang^3
#
#
#
# Elastic Constant Matrix: (Units=GPa)
#
#
# Indices 1 2 3 4 5 6 
#
# 1 143.1185 62.4533 24.5098 -8.3486 -3.6336 17.3799
# 2 62.4533 113.3085 26.4789 11.7086 -7.0826 12.6447
# 3 24.5098 26.4789 65.1538 0.9149 -8.9886 5.0717
# 4 -8.3486 11.7086 0.9149 33.0549 1.5528 -2.5530
# 5 -3.6336 -7.0826 -8.9886 1.5528 28.2549 -2.0065
# 6 17.3799 12.6447 5.0717 -2.5530 -2.0065 40.5420
#
#
#
# Elastic Compliance Matrix: (Units=1/GPa)
#
#
# Indices 1 2 3 4 5 6 
#
# 1 0.010166 -0.005499 -0.001616 0.004436 -0.000986 -0.002210
# 2 -0.005499 0.013517 -0.002924 -0.006327 0.001971 -0.001794
# 3 -0.001616 -0.002924 0.017827 -0.000118 0.004708 -0.000400
# 4 0.004436 -0.006327 -0.000118 0.033908 -0.002768 0.002085
# 5 -0.000986 0.001971 0.004708 -0.002768 0.037473 0.000899
# 6 -0.002210 -0.001794 -0.000400 0.002085 0.000899 0.026398
#
#
# Mechanical properties :
#
#
# Convention : Reuss Voigt Hill
#
# Bulk Modulus (GPa) = 46.65984 60.94053 53.80019
# Shear Modulus (GPa) = 30.02808 34.24628 32.13718
#
# Velocity S-wave (km/s) = 3.88154 4.14522 4.01555
# Velocity P-wave (km/s) = 6.59544 7.31348 6.96372
#
# Compressibility (1/GPa) = 0.02143171
#
# Stress axis : x y z
#
# Youngs Moduli (GPa) = 98.37150 73.98189 56.09504
#
# Poissons Ratio (x) = 0.40681 0.09063
# Poissons Ratio (y) = 0.54093 0.16404
# Poissons Ratio (z) = 0.15893 0.21635
#
# Static dielectric constant tensor:
#      x y z
#    x 1.702120 0.074790 -0.010180 
#    y 0.074790 1.948090 0.163130 
#    z -0.010180 0.163130 1.862500 
# 
# From -- ./inp_files/350244.got.cif
#   From: 2010.05.17/outbox.cif.g08.bks.cpg/sg2_176_cif.got.tgz:350244.got - 2010.06.03 11:33:40.
