data_PCOD9055135
_publ_section_title
;
Structure prediction by ZEFSAII (Michael W. Deem and Ramdas Pophale) SiO2 
 PCOD9055135
Probable space group: P -1
;
_chemical_formula_sum "Si O2"
_cell_formula_units_Z 14
_cell_length_a 6.799614
_cell_length_b 7.666509
_cell_length_c 13.222347
_cell_angle_alpha 58.769086
_cell_angle_beta 105.040032
_cell_angle_gamma 113.455349
_cell_volume 539.444005
_symmetry_space_group_name_H-M "P -1"
_symmetry_group_IT_number 2
_symmetry_cell_setting 'triclinic'
loop_
_space_group_symop_operation_xyz
x,y,z
-x,-y,-z
loop_
_atom_site_type_symbol
_atom_site_label
_atom_site_fract_x
_atom_site_fract_y
_atom_site_fract_z
Si Si1 0.229848 0.696206 0.208079
Si Si2 0.899870 0.359652 0.127237
Si Si3 0.613394 0.794359 0.920432
Si Si4 0.989191 0.907174 0.317801
Si Si5 0.728087 0.611931 0.547566
Si Si6 0.626357 0.772613 0.701860
Si Si7 0.328171 0.367536 0.805389
O O1 0.202316 0.588637 0.346644
O O2 0.449403 0.668465 0.196345
O O3 0.022596 0.540454 0.170869
O O4 0.273973 0.949637 0.132947
O O5 0.644058 0.267935 0.100091
O O6 0.948926 0.140610 0.233273
O O7 0.000000 0.500000 0.000000
O O8 0.670766 0.712461 0.844132
O O9 0.680425 0.697171 0.059087
O O10 0.876635 0.774269 0.439670
O O11 0.865649 0.780721 0.241688
O O12 0.247642 0.975729 0.346071
O O13 0.500000 0.500000 0.500000
O O14 0.706195 0.726497 0.615934
O O15 0.378066 0.622614 0.712674
#
# Coordination Sequence:
#
# PCOD9055135 Si02
#       7
#     2   2   2   2   2   2   2
#     4  11  22  39  63  96 120 169 215 251 305 377
#     4  12  22  38  67  96 124 169 211 251 311 381
#     4  12  24  41  62  98 138 154 201 273 322 356
#     4  12  22  41  72  89 119 175 217 250 305 378
#     4  11  21  44  70  85 122 169 225 250 295 386
#     4  11  25  40  63  99 126 164 206 265 320 359
#     4  11  21  40  68  92 126 168 212 251 305 388
#
# _framework density 25.952649000000001
#
# number of rings (size 3 to 8) (size 9 to 14) (size 15 to 20)
#    0.000    0.571    8.571    2.143    0.000    1.714 
#    0.000    3.571    0.000    0.000    0.000    0.000 
#    0.000    0.000    0.000    0.000    0.000    0.000 
#
# Total GULP energy -78125.899095 kJ/mol
# GULP energy per Si atom -5580.421364 kJ/mol
# Density = 2.589358 g / cm^3
# Si number density = 25.952649 Si / 1000 Ang^3
#
#
#
# Elastic Constant Matrix: (Units=GPa)
#
#
# Indices 1 2 3 4 5 6 
#
# 1 85.3784 50.4616 40.3858 -8.6709 -0.2955 35.7740
# 2 50.4616 277.0035 97.9961 1.4574 -6.7925 43.0472
# 3 40.3858 97.9961 201.6750 -8.0515 -26.8074 13.6690
# 4 -8.6709 1.4574 -8.0515 65.7016 8.3237 -10.0875
# 5 -0.2955 -6.7925 -26.8074 8.3237 44.5799 -1.4920
# 6 35.7740 43.0472 13.6690 -10.0875 -1.4920 56.4698
#
#
#
# Elastic Compliance Matrix: (Units=1/GPa)
#
#
# Indices 1 2 3 4 5 6 
#
# 1 0.017670 -0.000771 -0.002748 0.000768 -0.002126 -0.009860
# 2 -0.000771 0.004963 -0.002157 -0.000866 -0.000482 -0.002941
# 3 -0.002748 -0.002157 0.006953 0.000338 0.003834 0.001863
# 4 0.000768 -0.000866 0.000338 0.016190 -0.002849 0.002909
# 5 -0.002126 -0.000482 0.003834 -0.002849 0.025213 0.000944
# 6 -0.009860 -0.002941 0.001863 0.002909 0.000944 0.026291
#
#
# Mechanical properties :
#
#
# Convention : Reuss Voigt Hill
#
# Bulk Modulus (GPa) = 54.83497 104.63823 79.73660
# Shear Modulus (GPa) = 43.58861 58.36449 50.97655
#
# Velocity S-wave (km/s) = 4.10267 4.74738 4.43675
# Velocity P-wave (km/s) = 6.60434 8.39385 7.55228
#
# Compressibility (1/GPa) = 0.01823654
#
# Stress axis : x y z
#
# Youngs Moduli (GPa) = 56.59335 201.48389 143.81336
#
# Poissons Ratio (x) = 0.15529 0.39513
# Poissons Ratio (y) = 0.04362 0.31017
# Poissons Ratio (z) = 0.15549 0.43455
#
# Static dielectric constant tensor:
#      x y z
#    x 2.257940 -0.065740 0.001520 
#    y -0.065740 2.081170 0.032760 
#    z 0.001520 0.032760 2.041890 
# 
# From -- ./inp_files/169869.got.cif
#   From: 2010.05.17/outbox.cif.g08.bks.cpg/sg2_85_cif.got.tgz:169869.got - 2010.06.03 11:33:40.
