data_PCOD9055534
_publ_section_title
;
Structure prediction by ZEFSAII (Michael W. Deem and Ramdas Pophale) SiO2 
 PCOD9055534
Probable space group: P -1
;
_chemical_formula_sum "Si O2"
_cell_formula_units_Z 16
_cell_length_a 9.897534
_cell_length_b 17.840902
_cell_length_c 12.059478
_cell_angle_alpha 28.090140
_cell_angle_beta 51.297191
_cell_angle_gamma 39.639194
_cell_volume 629.208551
_symmetry_space_group_name_H-M "P -1"
_symmetry_group_IT_number 2
_symmetry_cell_setting 'triclinic'
loop_
_space_group_symop_operation_xyz
x,y,z
-x,-y,-z
loop_
_atom_site_type_symbol
_atom_site_label
_atom_site_fract_x
_atom_site_fract_y
_atom_site_fract_z
Si Si1 0.473749 0.324718 0.240370
Si Si2 0.384079 0.594045 0.321009
Si Si3 0.902994 0.987224 0.828835
Si Si4 0.035315 0.217105 0.587794
Si Si5 0.416954 0.910688 0.935004
Si Si6 0.204995 0.053981 0.302385
Si Si7 0.185659 0.520900 0.338243
Si Si8 0.084818 0.504570 0.069508
O O1 0.690264 0.111900 0.438465
O O2 0.309047 0.384986 0.347663
O O3 0.339900 0.354361 0.160149
O O4 0.500000 0.500000 0.000000
O O5 0.500000 0.500000 0.500000
O O6 0.372253 0.463619 0.406581
O O7 0.131674 0.746503 0.280051
O O8 0.471654 0.720134 0.087604
O O9 0.828639 0.023150 0.693112
O O10 0.003375 0.102817 0.658581
O O11 0.071504 0.749782 0.065995
O O12 0.714921 0.056124 0.927300
O O13 0.983844 0.422805 0.307290
O O14 0.264624 0.082736 0.701944
O O15 0.620012 0.904774 0.866299
O O16 0.996287 0.272667 0.154911
O O17 0.000000 0.500000 0.500000
O O18 0.000000 0.500000 0.000000
#
# Coordination Sequence:
#
# PCOD9055534 Si02
#       8
#     2   2   2   2   2   2   2   2
#     4  12  30  50  73 111 152 194 251 308 373 443
#     4  11  23  36  65 107 149 193 241 298 367 438
#     4  11  23  41  74 109 150 193 238 303 372 445
#     4  11  22  46  67 104 147 187 247 307 366 432
#     4  11  21  42  69 108 149 189 240 300 374 438
#     4  12  27  48  75 108 144 193 245 307 368 446
#     4  12  24  44  73 109 153 201 243 307 372 437
#     4  12  29  52  76 100 139 197 255 309 366 444
#
# _framework density 25.42877
#
# number of rings (size 3 to 8) (size 9 to 14) (size 15 to 20)
#    0.000    0.500    5.000    3.375    7.000    3.000 
#    0.000    0.000    0.000    0.000    0.000    0.000 
#    0.000    0.000    0.000    0.000    0.000    0.000 
#
# Total GULP energy -89605.731496 kJ/mol
# GULP energy per Si atom -5600.358219 kJ/mol
# Density = 2.537089 g / cm^3
# Si number density = 25.428770 Si / 1000 Ang^3
#
#
#
# Elastic Constant Matrix: (Units=GPa)
#
#
# Indices 1 2 3 4 5 6 
#
# 1 195.6982 33.8120 54.6517 -1.5082 13.2853 28.0902
# 2 33.8120 56.0515 27.4598 1.1855 6.8335 13.0203
# 3 54.6517 27.4598 138.3280 -27.3972 4.9038 3.2443
# 4 -1.5082 1.1855 -27.3972 33.4804 -1.3147 1.4368
# 5 13.2853 6.8335 4.9038 -1.3147 54.8549 0.7256
# 6 28.0902 13.0203 3.2443 1.4368 0.7256 39.4920
#
#
#
# Elastic Compliance Matrix: (Units=1/GPa)
#
#
# Indices 1 2 3 4 5 6 
#
# 1 0.006740 -0.001758 -0.002486 -0.001546 -0.001176 -0.003933
# 2 -0.001758 0.022763 -0.004489 -0.004394 -0.002039 -0.005688
# 3 -0.002486 -0.004489 0.010784 0.008799 0.000381 0.002035
# 4 -0.001546 -0.004394 0.008799 0.037175 0.001020 0.000454
# 5 -0.001176 -0.002039 0.000381 0.001020 0.018745 0.001096
# 6 -0.003933 -0.005688 0.002035 0.000454 0.001096 0.029790
#
#
# Mechanical properties :
#
#
# Convention : Reuss Voigt Hill
#
# Bulk Modulus (GPa) = 43.81934 69.10275 56.46104
# Shear Modulus (GPa) = 33.09684 43.84241 38.46962
#
# Velocity S-wave (km/s) = 3.61162 4.15676 3.89374
# Velocity P-wave (km/s) = 5.88738 7.09029 6.51665
#
# Compressibility (1/GPa) = 0.02282097
#
# Stress axis : x y z
#
# Youngs Moduli (GPa) = 148.35771 43.93035 92.72908
#
# Poissons Ratio (x) = 0.07725 0.23055
# Poissons Ratio (y) = 0.26087 0.41624
# Poissons Ratio (z) = 0.36886 0.19719
#
# Static dielectric constant tensor:
#      x y z
#    x 2.014190 -0.000700 0.010460 
#    y -0.000700 2.056070 -0.030590 
#    z 0.010460 -0.030590 2.074900 
# 
# From -- ./inp_files/402656.got.cif
#   From: 2010.05.17/outbox.cif.g08.bks.cpg/sg2_202_cif.got.tgz:402656.got - 2010.06.03 11:33:40.
