data_PCOD9055242
_publ_section_title
;
Structure prediction by ZEFSAII (Michael W. Deem and Ramdas Pophale) SiO2 
 PCOD9055242
Probable space group: P -1
;
_chemical_formula_sum "Si O2"
_cell_formula_units_Z 16
_cell_length_a 13.773924
_cell_length_b 13.757261
_cell_length_c 15.168106
_cell_angle_alpha 138.944104
_cell_angle_beta 30.092091
_cell_angle_gamma 147.829044
_cell_volume 764.779128
_symmetry_space_group_name_H-M "P -1"
_symmetry_group_IT_number 2
_symmetry_cell_setting 'triclinic'
loop_
_space_group_symop_operation_xyz
x,y,z
-x,-y,-z
loop_
_atom_site_type_symbol
_atom_site_label
_atom_site_fract_x
_atom_site_fract_y
_atom_site_fract_z
Si Si1 0.404233 0.194965 0.837855
Si Si2 0.874291 0.432852 0.343863
Si Si3 0.075689 0.829642 0.771126
Si Si4 0.089583 0.003085 0.529523
Si Si5 0.445841 0.408010 0.575426
Si Si6 0.408294 0.295019 0.192437
Si Si7 0.357379 0.819369 0.185599
Si Si8 0.769767 0.552688 0.689180
O O1 0.487599 0.146496 0.826047
O O2 0.616436 0.392989 0.771028
O O3 0.168152 0.186258 0.036469
O O4 0.307799 0.037362 0.732015
O O5 0.658196 0.390914 0.424198
O O6 0.821763 0.481642 0.513524
O O7 0.899978 0.272153 0.235922
O O8 0.117201 0.612629 0.240179
O O9 0.017912 0.718092 0.650177
O O10 0.208838 0.201461 0.614551
O O11 0.278207 0.953823 0.340012
O O12 0.000000 0.000000 0.500000
O O13 0.860494 0.844169 0.655259
O O14 0.500000 0.500000 0.500000
O O15 0.449533 0.542479 0.736294
O O16 0.387588 0.381803 0.178628
O O17 0.512343 0.183978 0.006225
#
# Coordination Sequence:
#
# PCOD9055242 Si02
#       8
#     2   2   2   2   2   2   2   2
#     4  11  24  38  63  94 138 182 220 283 322 406
#     4  11  23  40  68  94 134 185 222 284 337 401
#     4  11  22  39  59  95 135 176 232 268 334 401
#     4  12  25  49  74  97 138 175 227 293 343 405
#     4  11  23  49  72  99 137 175 230 289 345 407
#     4  11  25  45  73 105 135 185 225 284 346 406
#     4  12  23  46  71 101 143 181 230 279 348 404
#     4  11  21  41  62  94 136 179 222 270 332 393
#
# _framework density 20.921073
#
# number of rings (size 3 to 8) (size 9 to 14) (size 15 to 20)
#    0.000    0.750    6.250    2.250    0.000    3.000 
#    4.500    1.250    0.000    0.000    0.000    0.000 
#    0.000    0.000    0.000    0.000    0.000    0.000 
#
# Total GULP energy -89458.394119 kJ/mol
# GULP energy per Si atom -5591.149632 kJ/mol
# Density = 2.087346 g / cm^3
# Si number density = 20.921073 Si / 1000 Ang^3
#
#
#
# Elastic Constant Matrix: (Units=GPa)
#
#
# Indices 1 2 3 4 5 6 
#
# 1 131.7272 29.6981 34.9520 14.8990 2.6526 4.7734
# 2 29.6981 111.1932 20.6252 21.7697 10.2713 23.7154
# 3 34.9520 20.6252 89.3198 12.2799 -10.4661 2.3748
# 4 14.8990 21.7697 12.2799 13.6245 3.0405 -1.5741
# 5 2.6526 10.2713 -10.4661 3.0405 22.3626 6.7963
# 6 4.7734 23.7154 2.3748 -1.5741 6.7963 38.0792
#
#
#
# Elastic Compliance Matrix: (Units=1/GPa)
#
#
# Indices 1 2 3 4 5 6 
#
# 1 0.009218 -0.000287 -0.002646 -0.007135 -0.000945 -0.000938
# 2 -0.000287 0.017186 0.000410 -0.028855 -0.000140 -0.011861
# 3 -0.002646 0.000410 0.015398 -0.014318 0.010285 -0.003311
# 4 -0.007135 -0.028855 -0.014318 0.148529 -0.021852 0.029798
# 5 -0.000945 -0.000140 0.010285 -0.021852 0.056130 -0.011357
# 6 -0.000938 -0.011861 -0.003311 0.029798 -0.011357 0.037231
#
#
# Mechanical properties :
#
#
# Convention : Reuss Voigt Hill
#
# Bulk Modulus (GPa) = 27.20639 55.86566 41.53602
# Shear Modulus (GPa) = 16.61185 31.27759 23.94472
#
# Velocity S-wave (km/s) = 2.82090 3.87075 3.38676
# Velocity P-wave (km/s) = 4.86236 6.83652 5.93214
#
# Compressibility (1/GPa) = 0.03675608
#
# Stress axis : x y z
#
# Youngs Moduli (GPa) = 108.48137 58.18749 64.94312
#
# Poissons Ratio (x) = 0.01670 0.17182
# Poissons Ratio (y) = 0.03114 -0.02662
# Poissons Ratio (z) = 0.28701 -0.02385
#
# Static dielectric constant tensor:
#      x y z
#    x 1.745860 -0.002990 -0.021090 
#    y -0.002990 1.761110 0.062980 
#    z -0.021090 0.062980 1.799170 
# 
# From -- ./inp_files/534408.got.cif
#   From: 2010.05.17/outbox.cif.g08.bks.cpg/sg2_268_cif.got.tgz:534408.got - 2010.06.03 11:33:40.
