data_PCOD9055598
_publ_section_title
;
Structure prediction by ZEFSAII (Michael W. Deem and Ramdas Pophale) SiO2 
 PCOD9055598
Probable space group: P -1
;
_chemical_formula_sum "Si O2"
_cell_formula_units_Z 14
_cell_length_a 9.660597
_cell_length_b 11.966094
_cell_length_c 14.391289
_cell_angle_alpha 146.869967
_cell_angle_beta 118.418765
_cell_angle_gamma 46.205783
_cell_volume 633.260275
_symmetry_space_group_name_H-M "P -1"
_symmetry_group_IT_number 2
_symmetry_cell_setting 'triclinic'
loop_
_space_group_symop_operation_xyz
x,y,z
-x,-y,-z
loop_
_atom_site_type_symbol
_atom_site_label
_atom_site_fract_x
_atom_site_fract_y
_atom_site_fract_z
Si Si1 0.764853 0.384478 0.660609
Si Si2 0.716637 0.428488 0.004916
Si Si3 0.638057 0.510548 0.404735
Si Si4 0.094853 0.982654 0.717247
Si Si5 0.730797 0.698348 0.024120
Si Si6 0.921889 0.293167 0.172327
Si Si7 0.666477 0.805339 0.774804
O O1 0.573489 0.401456 0.636137
O O2 0.900449 0.140061 0.465281
O O3 0.684682 0.628558 0.738975
O O4 0.839893 0.444684 0.817107
O O5 0.500000 0.500000 0.000000
O O6 0.714162 0.623094 0.069879
O O7 0.806933 0.413097 0.122678
O O8 0.879604 0.151027 0.814633
O O9 0.749945 0.258733 0.332927
O O10 0.779479 0.446220 0.319647
O O11 0.603027 0.734841 0.613490
O O12 0.171733 0.156032 0.854887
O O13 0.503944 0.895626 0.052891
O O14 0.117536 0.273960 0.224594
O O15 0.000000 0.000000 0.000000
#
# Coordination Sequence:
#
# PCOD9055598 Si02
#       7
#     2   2   2   2   2   2   2
#     4  11  22  41  73 107 134 177 228 284 338 402
#     4  12  27  46  66  98 141 185 227 279 342 406
#     4  11  21  42  71 105 137 169 234 289 329 404
#     4  11  23  44  69 102 138 176 229 282 336 404
#     4  12  24  43  72 102 144 176 221 282 349 408
#     4  12  24  43  70  96 133 185 236 277 334 404
#     4  11  22  41  71 106 135 176 230 284 342 399
#
# _framework density 22.107814999999999
#
# number of rings (size 3 to 8) (size 9 to 14) (size 15 to 20)
#    0.000    0.571    4.286    5.571    0.000    0.571 
#    0.000    2.143    0.000    0.000    0.000    0.000 
#    0.000    0.000    0.000    0.000    0.000    0.000 
#
# Total GULP energy -78374.691501 kJ/mol
# GULP energy per Si atom -5598.192250 kJ/mol
# Density = 2.205750 g / cm^3
# Si number density = 22.107815 Si / 1000 Ang^3
#
#
#
# Elastic Constant Matrix: (Units=GPa)
#
#
# Indices 1 2 3 4 5 6 
#
# 1 132.3412 32.5082 51.5103 -12.8480 -23.0748 -14.2282
# 2 32.5082 64.4924 36.4175 -5.7041 0.8207 15.3373
# 3 51.5103 36.4175 117.1378 -12.3477 -11.1736 11.2778
# 4 -12.8480 -5.7041 -12.3477 33.0057 -4.8968 -11.4856
# 5 -23.0748 0.8207 -11.1736 -4.8968 30.2102 -6.0581
# 6 -14.2282 15.3373 11.2778 -11.4856 -6.0581 34.5486
#
#
#
# Elastic Compliance Matrix: (Units=1/GPa)
#
#
# Indices 1 2 3 4 5 6 
#
# 1 0.019883 -0.012701 -0.003367 0.015849 0.021667 0.023994
# 2 -0.012701 0.029272 -0.004337 -0.012837 -0.019079 -0.024423
# 3 -0.003367 -0.004337 0.011964 0.001827 0.001776 -0.002448
# 4 0.015849 -0.012837 0.001827 0.050721 0.028052 0.033410
# 5 0.021667 -0.019079 0.001776 0.028052 0.062824 0.037155
# 6 0.023994 -0.024423 -0.002448 0.033410 0.037155 0.068090
#
#
# Mechanical properties :
#
#
# Convention : Reuss Voigt Hill
#
# Bulk Modulus (GPa) = 49.24108 61.64927 55.44518
# Shear Modulus (GPa) = 17.22158 32.45524 24.83841
#
# Velocity S-wave (km/s) = 2.79405 3.83566 3.35552
# Velocity P-wave (km/s) = 5.72106 6.89657 6.33613
#
# Compressibility (1/GPa) = 0.02030825
#
# Stress axis : x y z
#
# Youngs Moduli (GPa) = 50.29452 34.16191 83.58530
#
# Poissons Ratio (x) = 0.43389 0.28146
# Poissons Ratio (y) = 0.63878 0.36253
# Poissons Ratio (z) = 0.16936 0.14817
#
# Static dielectric constant tensor:
#      x y z
#    x 2.073580 -0.165010 0.092850 
#    y -0.165010 1.910080 -0.041700 
#    z 0.092850 -0.041700 2.167410 
# 
# From -- ./inp_files/180270.got.cif
#   From: 2010.05.17/outbox.cif.g08.bks.cpg/sg2_91_cif.got.tgz:180270.got - 2010.06.03 11:33:40.
