data_PCOD9055782
_publ_section_title
;
Structure prediction by ZEFSAII (Michael W. Deem and Ramdas Pophale) SiO2 
 PCOD9055782
Probable space group: P -1
;
_chemical_formula_sum "Si O2"
_cell_formula_units_Z 16
_cell_length_a 8.708186
_cell_length_b 12.891708
_cell_length_c 15.671803
_cell_angle_alpha 40.637746
_cell_angle_beta 138.051934
_cell_angle_gamma 118.137580
_cell_volume 748.335730
_symmetry_space_group_name_H-M "P -1"
_symmetry_group_IT_number 2
_symmetry_cell_setting 'triclinic'
loop_
_space_group_symop_operation_xyz
x,y,z
-x,-y,-z
loop_
_atom_site_type_symbol
_atom_site_label
_atom_site_fract_x
_atom_site_fract_y
_atom_site_fract_z
Si Si1 0.389990 0.534292 0.179409
Si Si2 0.998102 0.956978 0.239010
Si Si3 0.807296 0.644547 0.372646
Si Si4 0.718162 0.579165 0.566337
Si Si5 0.870599 0.047523 0.508452
Si Si6 0.527333 0.811715 0.488601
Si Si7 0.994109 0.691763 0.016056
Si Si8 0.514373 0.380823 0.157793
O O1 0.554723 0.614706 0.258265
O O2 0.392252 0.351990 0.322833
O O3 0.126239 0.631740 0.019604
O O4 0.505053 0.505029 0.154325
O O5 0.001781 0.986035 0.325533
O O6 0.255132 0.871810 0.361943
O O7 0.841825 0.821846 0.247324
O O8 0.947451 0.129729 0.060898
O O9 0.830405 0.622531 0.497773
O O10 0.000000 0.500000 0.500000
O O11 0.500000 0.500000 0.500000
O O12 0.607118 0.744288 0.469289
O O13 0.891216 0.444815 0.780704
O O14 0.742524 0.237118 0.338339
O O15 0.666097 0.946445 0.488514
O O16 0.000000 0.000000 0.500000
O O17 0.719063 0.695508 0.891968
O O18 0.500000 0.500000 0.000000
#
# Coordination Sequence:
#
# PCOD9055782 Si02
#       8
#     2   2   2   2   2   2   2   2
#     4  11  24  45  71  98 135 188 228 280 352 419
#     4  12  24  45  69 105 141 185 231 290 351 409
#     4  12  23  44  75  99 137 188 233 277 346 426
#     4  11  23  47  70 102 135 184 236 278 347 420
#     4  12  26  43  68 104 142 185 234 293 349 411
#     4  11  21  43  71  93 135 183 232 279 344 409
#     4  11  26  44  72 101 140 177 235 287 353 402
#     4  12  27  44  68 103 143 179 234 291 349 412
#
# _framework density 21.380777999999999
#
# number of rings (size 3 to 8) (size 9 to 14) (size 15 to 20)
#    0.000    0.500    6.250    2.250    8.750    0.500 
#    0.000    2.500    0.000    0.000    0.000    0.000 
#    0.000    0.000    0.000    0.000    0.000    0.000 
#
# Total GULP energy -89358.830313 kJ/mol
# GULP energy per Si atom -5584.926895 kJ/mol
# Density = 2.133211 g / cm^3
# Si number density = 21.380778 Si / 1000 Ang^3
#
#
#
# Elastic Constant Matrix: (Units=GPa)
#
#
# Indices 1 2 3 4 5 6 
#
# 1 110.7280 24.8783 30.9001 -2.3368 -4.7091 -20.7991
# 2 24.8783 91.8733 24.9340 -4.5489 -17.5536 2.0576
# 3 30.9001 24.9340 67.2184 -16.6363 -3.4904 2.8031
# 4 -2.3368 -4.5489 -16.6363 34.8485 2.7356 -5.1557
# 5 -4.7091 -17.5536 -3.4904 2.7356 30.6171 -3.6754
# 6 -20.7991 2.0576 2.8031 -5.1557 -3.6754 49.7370
#
#
#
# Elastic Compliance Matrix: (Units=1/GPa)
#
#
# Indices 1 2 3 4 5 6 
#
# 1 0.011921 -0.001789 -0.005298 -0.001254 0.000952 0.005298
# 2 -0.001789 0.013835 -0.004145 -0.000954 0.007191 -0.000654
# 3 -0.005298 -0.004145 0.021069 0.008948 -0.001882 -0.002443
# 4 -0.001254 -0.000954 0.008948 0.033286 -0.002420 0.002282
# 5 0.000952 0.007191 -0.001882 -0.002420 0.037258 0.002709
# 6 0.005298 -0.000654 -0.002443 0.002282 0.002709 0.022923
#
#
# Mechanical properties :
#
#
# Convention : Reuss Voigt Hill
#
# Bulk Modulus (GPa) = 41.05074 47.91606 44.48340
# Shear Modulus (GPa) = 29.26086 35.64766 32.45426
#
# Velocity S-wave (km/s) = 3.70342 4.08766 3.90027
# Velocity P-wave (km/s) = 6.12606 6.68865 6.41353
#
# Compressibility (1/GPa) = 0.02436009
#
# Stress axis : x y z
#
# Youngs Moduli (GPa) = 83.88666 72.27865 47.46342
#
# Poissons Ratio (x) = 0.12931 0.25148
# Poissons Ratio (y) = 0.15007 0.19674
# Poissons Ratio (z) = 0.44446 0.29961
#
# Static dielectric constant tensor:
#      x y z
#    x 1.741820 0.047300 0.013700 
#    y 0.047300 1.765640 0.012390 
#    z 0.013700 0.012390 1.765360 
# 
# From -- ./inp_files/499939.got.cif
#   From: 2010.05.17/outbox.cif.g08.bks.cpg/sg2_250_cif.got.tgz:499939.got - 2010.06.03 11:33:40.
