data_PCOD9055395
_publ_section_title
;
Structure prediction by ZEFSAII (Michael W. Deem and Ramdas Pophale) SiO2 
 PCOD9055395
Probable space group: P -1
;
_chemical_formula_sum "Si O2"
_cell_formula_units_Z 16
_cell_length_a 19.348795
_cell_length_b 10.815618
_cell_length_c 16.909743
_cell_angle_alpha 138.481443
_cell_angle_beta 149.446525
_cell_angle_gamma 23.574925
_cell_volume 705.004358
_symmetry_space_group_name_H-M "P -1"
_symmetry_group_IT_number 2
_symmetry_cell_setting 'triclinic'
loop_
_space_group_symop_operation_xyz
x,y,z
-x,-y,-z
loop_
_atom_site_type_symbol
_atom_site_label
_atom_site_fract_x
_atom_site_fract_y
_atom_site_fract_z
Si Si1 0.828673 0.211986 0.231634
Si Si2 0.639983 0.675761 0.520740
Si Si3 0.895724 0.391088 0.982369
Si Si4 0.141711 0.139523 0.780926
Si Si5 0.643501 0.161509 0.896573
Si Si6 0.643452 0.755669 0.749785
Si Si7 0.508645 0.576471 0.757490
Si Si8 0.316174 0.846099 0.525925
O O1 0.629112 0.536280 0.240163
O O2 0.886142 0.967222 0.223095
O O3 0.712242 0.270401 0.064073
O O4 0.055470 0.074033 0.367640
O O5 0.663671 0.682518 0.642303
O O6 0.511390 0.623757 0.354786
O O7 0.906460 0.371363 0.609973
O O8 0.500000 0.000000 0.500000
O O9 0.808487 0.479955 0.846800
O O10 0.755192 0.396331 0.897039
O O11 0.844343 0.658171 0.087152
O O12 0.168564 0.059257 0.092552
O O13 0.372873 0.819550 0.812002
O O14 0.682567 0.932149 0.876733
O O15 0.390163 0.965843 0.624654
O O16 0.364739 0.786951 0.638074
O O17 0.500000 0.500000 0.500000
#
# Coordination Sequence:
#
# PCOD9055395 Si02
#       8
#     2   2   2   2   2   2   2   2
#     4  11  24  40  67  99 139 170 225 277 335 394
#     4  12  26  43  67 101 134 182 224 270 340 408
#     4  11  23  44  74  98 131 178 231 274 336 393
#     4  12  23  45  67  98 138 182 222 271 342 404
#     4  11  23  40  65 102 130 176 222 284 327 391
#     4  11  22  41  72  96 130 173 228 274 330 394
#     4  11  25  41  69 101 134 177 223 280 331 403
#     4  11  21  41  70  98 127 175 224 274 331 394
#
# _framework density 22.694896
#
# number of rings (size 3 to 8) (size 9 to 14) (size 15 to 20)
#    0.000    0.750    5.000    3.375    1.750    0.500 
#    0.000    5.000    0.000    0.000    0.000    0.000 
#    0.000    0.000    0.000    0.000    0.000    0.000 
#
# Total GULP energy -89450.785710 kJ/mol
# GULP energy per Si atom -5590.674107 kJ/mol
# Density = 2.264324 g / cm^3
# Si number density = 22.694896 Si / 1000 Ang^3
#
#
#
# Elastic Constant Matrix: (Units=GPa)
#
#
# Indices 1 2 3 4 5 6 
#
# 1 104.1278 43.6912 48.0160 -8.1584 30.5345 -13.8391
# 2 43.6912 98.1625 37.2684 -12.4790 24.9405 -13.6494
# 3 48.0160 37.2684 112.1283 -14.2991 42.6013 -12.4133
# 4 -8.1584 -12.4790 -14.2991 35.1336 -5.2414 7.1765
# 5 30.5345 24.9405 42.6013 -5.2414 58.3342 -2.9596
# 6 -13.8391 -13.6494 -12.4133 7.1765 -2.9596 25.6417
#
#
#
# Elastic Compliance Matrix: (Units=1/GPa)
#
#
# Indices 1 2 3 4 5 6 
#
# 1 0.014080 -0.003767 -0.003179 -0.000642 -0.003300 0.003854
# 2 -0.003767 0.013833 -0.001278 0.002364 -0.002607 0.003749
# 3 -0.003179 -0.001278 0.014388 0.002905 -0.007892 0.002846
# 4 -0.000642 0.002364 0.002905 0.031635 -0.000287 -0.006568
# 5 -0.003300 -0.002607 -0.007892 -0.000287 0.025521 -0.003963
# 6 0.003854 0.003749 0.002846 -0.006568 -0.003963 0.045833
#
#
# Mechanical properties :
#
#
# Convention : Reuss Voigt Hill
#
# Bulk Modulus (GPa) = 38.67853 63.59664 51.13758
# Shear Modulus (GPa) = 29.35049 36.18474 32.76762
#
# Velocity S-wave (km/s) = 3.60010 3.99733 3.80390
# Velocity P-wave (km/s) = 5.86181 7.02767 6.47105
#
# Compressibility (1/GPa) = 0.02585414
#
# Stress axis : x y z
#
# Youngs Moduli (GPa) = 71.02495 72.29002 69.50144
#
# Poissons Ratio (x) = 0.27233 0.22091
# Poissons Ratio (y) = 0.26757 0.08880
# Poissons Ratio (z) = 0.22575 0.09236
#
# Static dielectric constant tensor:
#      x y z
#    x 1.855190 -0.023520 -0.022170 
#    y -0.023520 1.868070 -0.016060 
#    z -0.022170 -0.016060 1.882630 
# 
# From -- ./inp_files/577992.got.cif
#   From: 2010.05.17/outbox.cif.g08.bks.cpg/sg2_289_cif.got.tgz:577992.got - 2010.06.03 11:33:40.
