data_PCOD9055618
_publ_section_title
;
Structure prediction by ZEFSAII (Michael W. Deem and Ramdas Pophale) SiO2 
 PCOD9055618
Probable space group: P -1
;
_chemical_formula_sum "Si O2"
_cell_formula_units_Z 14
_cell_length_a 8.536567
_cell_length_b 14.559355
_cell_length_c 13.754058
_cell_angle_alpha 142.880467
_cell_angle_beta 42.875529
_cell_angle_gamma 149.638102
_cell_volume 515.783351
_symmetry_space_group_name_H-M "P -1"
_symmetry_group_IT_number 2
_symmetry_cell_setting 'triclinic'
loop_
_space_group_symop_operation_xyz
x,y,z
-x,-y,-z
loop_
_atom_site_type_symbol
_atom_site_label
_atom_site_fract_x
_atom_site_fract_y
_atom_site_fract_z
Si Si1 0.295228 0.065260 0.363018
Si Si2 0.881521 0.815947 0.787808
Si Si3 0.212491 0.392469 0.963317
Si Si4 0.617289 0.397922 0.654556
Si Si5 0.425478 0.816840 0.180117
Si Si6 0.939626 0.310534 0.577727
Si Si7 0.590488 0.257230 0.186265
O O1 0.571101 0.268719 0.473964
O O2 0.374125 0.137181 0.277210
O O3 0.307988 0.890712 0.223019
O O4 0.000000 0.000000 0.500000
O O5 0.766764 0.624484 0.744634
O O6 0.608281 0.809495 0.877428
O O7 0.966485 0.777744 0.612772
O O8 0.201954 0.031749 0.861820
O O9 0.289225 0.295368 0.769645
O O10 0.500000 0.500000 0.000000
O O11 0.268287 0.582232 0.049275
O O12 0.867021 0.254575 0.049627
O O13 0.817141 0.395910 0.640517
O O14 0.326666 0.844209 0.353209
O O15 0.227897 0.502388 0.672161
#
# Coordination Sequence:
#
# PCOD9055618 Si02
#       7
#     2   2   2   2   2   2   2
#     4  12  27  46  75 111 144 183 251 302 347 425
#     4  12  24  41  73 110 139 185 247 297 354 422
#     4  11  26  50  73  99 150 196 235 289 368 433
#     4  12  25  45  75 101 145 190 238 292 366 421
#     4  11  25  43  74 105 143 188 239 295 356 426
#     4  11  21  42  72 102 139 185 241 291 355 416
#     4  11  25  45  72 103 146 191 235 294 361 426
#
# _framework density 27.143180999999998
#
# number of rings (size 3 to 8) (size 9 to 14) (size 15 to 20)
#    0.000    0.571    5.714    3.000    6.000    1.143 
#    0.000    1.429    0.000    0.000    0.000    0.000 
#    0.000    0.000    0.000    0.000    0.000    0.000 
#
# Total GULP energy -78594.840910 kJ/mol
# GULP energy per Si atom -5613.917208 kJ/mol
# Density = 2.708140 g / cm^3
# Si number density = 27.143181 Si / 1000 Ang^3
#
#
#
# Elastic Constant Matrix: (Units=GPa)
#
#
# Indices 1 2 3 4 5 6 
#
# 1 167.0290 51.7675 16.7982 -10.1925 -23.6825 -0.0048
# 2 51.7675 129.6175 17.4108 -34.1600 -14.0549 -2.4949
# 3 16.7982 17.4108 145.5537 -31.5165 -13.6454 3.8681
# 4 -10.1925 -34.1600 -31.5165 59.6259 7.0650 -4.0733
# 5 -23.6825 -14.0549 -13.6454 7.0650 43.4191 -0.4200
# 6 -0.0048 -2.4949 3.8681 -4.0733 -0.4200 46.1428
#
#
#
# Elastic Compliance Matrix: (Units=1/GPa)
#
#
# Indices 1 2 3 4 5 6 
#
# 1 0.007265 -0.002761 -0.000417 -0.000938 0.003089 -0.000168
# 2 -0.002761 0.010384 0.000365 0.005614 0.001066 0.001036
# 3 -0.000417 0.000365 0.007932 0.004109 0.001712 -0.000267
# 4 -0.000938 0.005614 0.004109 0.022249 -0.001005 0.001914
# 5 0.003089 0.001066 0.001712 -0.001005 0.025763 0.000060
# 6 -0.000168 0.001036 -0.000267 0.001914 0.000060 0.021920
#
#
# Mechanical properties :
#
#
# Convention : Reuss Voigt Hill
#
# Bulk Modulus (GPa) = 50.11519 68.23924 59.17722
# Shear Modulus (GPa) = 46.38528 53.58582 49.98555
#
# Velocity S-wave (km/s) = 4.13838 4.44801 4.29599
# Velocity P-wave (km/s) = 6.42949 7.18156 6.81590
#
# Compressibility (1/GPa) = 0.01995403
#
# Stress axis : x y z
#
# Youngs Moduli (GPa) = 137.63784 96.30241 126.06819
#
# Poissons Ratio (x) = 0.26591 0.05260
# Poissons Ratio (y) = 0.38004 -0.04597
# Poissons Ratio (z) = 0.05743 -0.03511
#
# Static dielectric constant tensor:
#      x y z
#    x 2.067400 0.089540 0.024750 
#    y 0.089540 2.141110 -0.014320 
#    z 0.024750 -0.014320 2.121100 
# 
# From -- ./inp_files/199316.got.cif
#   From: 2010.05.17/outbox.cif.g08.bks.cpg/sg2_100_cif.got.tgz:199316.got - 2010.06.03 11:33:40.
