data_PCOD9055480
_publ_section_title
;
Structure prediction by ZEFSAII (Michael W. Deem and Ramdas Pophale) SiO2 
 PCOD9055480
Probable space group: P -1
;
_chemical_formula_sum "Si O2"
_cell_formula_units_Z 14
_cell_length_a 10.065052
_cell_length_b 13.930815
_cell_length_c 14.713530
_cell_angle_alpha 30.428437
_cell_angle_beta 36.812918
_cell_angle_gamma 39.793246
_cell_volume 605.029248
_symmetry_space_group_name_H-M "P -1"
_symmetry_group_IT_number 2
_symmetry_cell_setting 'triclinic'
loop_
_space_group_symop_operation_xyz
x,y,z
-x,-y,-z
loop_
_atom_site_type_symbol
_atom_site_label
_atom_site_fract_x
_atom_site_fract_y
_atom_site_fract_z
Si Si1 0.474870 0.834734 0.717684
Si Si2 0.943800 0.212595 0.808032
Si Si3 0.239594 0.526107 0.651917
Si Si4 0.103789 0.701665 0.939965
Si Si5 0.067293 0.389853 0.417135
Si Si6 0.013638 0.806676 0.705904
Si Si7 0.418933 0.278127 0.056030
O O1 0.228479 0.793666 0.873578
O O2 0.671791 0.648609 0.727184
O O3 0.533343 0.864158 0.765774
O O4 0.500000 0.000000 0.500000
O O5 0.008731 0.385689 0.689929
O O6 0.054550 0.240688 0.627140
O O7 0.669862 0.277733 0.885870
O O8 0.000000 0.000000 0.000000
O O9 0.500000 0.500000 0.500000
O O10 0.174946 0.635562 0.694932
O O11 0.081849 0.641600 0.562000
O O12 0.141639 0.333065 0.871666
O O13 0.093754 0.813583 0.758979
O O14 0.272255 0.488759 0.999382
O O15 0.755721 0.779547 0.870539
O O16 0.000000 0.000000 0.500000
#
# Coordination Sequence:
#
# PCOD9055480 Si02
#       7
#     2   2   2   2   2   2   2
#     4  12  22  40  70 100 130 169 229 287 334 409
#     4  11  25  42  66  99 137 178 222 283 354 404
#     4  11  25  43  68  96 133 180 228 280 342 404
#     4  11  23  41  70  96 132 183 224 276 347 408
#     4  11  24  43  66 100 137 172 227 287 341 407
#     4  11  25  44  66 101 134 179 231 276 342 421
#     4  11  21  42  66  92 132 174 225 271 338 412
#
# _framework density 23.139378000000001
#
# number of rings (size 3 to 8) (size 9 to 14) (size 15 to 20)
#    0.000    0.857    4.286    4.714    4.000    1.143 
#    0.000    0.714    0.000    0.000    0.000    0.000 
#    0.000    0.000    0.000    0.000    0.000    0.000 
#
# Total GULP energy -78262.577019 kJ/mol
# GULP energy per Si atom -5590.184073 kJ/mol
# Density = 2.308671 g / cm^3
# Si number density = 23.139378 Si / 1000 Ang^3
#
#
#
# Elastic Constant Matrix: (Units=GPa)
#
#
# Indices 1 2 3 4 5 6 
#
# 1 81.6278 22.5036 15.9242 9.6144 16.4427 -14.9523
# 2 22.5036 64.6616 31.7294 20.3951 -10.8454 -9.9609
# 3 15.9242 31.7294 121.2013 7.2080 14.7932 -15.3946
# 4 9.6144 20.3951 7.2080 53.6607 -11.3863 -2.7799
# 5 16.4427 -10.8454 14.7932 -11.3863 51.1163 9.6416
# 6 -14.9523 -9.9609 -15.3946 -2.7799 9.6416 22.9302
#
#
#
# Elastic Compliance Matrix: (Units=1/GPa)
#
#
# Indices 1 2 3 4 5 6 
#
# 1 0.019427 -0.006800 0.003027 -0.003071 -0.012379 0.016579
# 2 -0.006800 0.023592 -0.006312 -0.005266 0.008331 -0.002565
# 3 0.003027 -0.006312 0.011841 -0.000871 -0.007895 0.010396
# 4 -0.003071 -0.005266 -0.000871 0.022330 0.005980 -0.004681
# 5 -0.012379 0.008331 -0.007895 0.005980 0.033271 -0.023019
# 6 0.016579 -0.002565 0.010396 -0.004681 -0.023019 0.069398
#
#
# Mechanical properties :
#
#
# Convention : Reuss Voigt Hill
#
# Bulk Modulus (GPa) = 28.82665 45.31168 37.06916
# Shear Modulus (GPa) = 23.63008 38.69701 31.16354
#
# Velocity S-wave (km/s) = 3.19910 4.09387 3.67383
# Velocity P-wave (km/s) = 5.11180 6.47850 5.83530
#
# Compressibility (1/GPa) = 0.03469012
#
# Stress axis : x y z
#
# Youngs Moduli (GPa) = 51.47419 42.38693 84.45027
#
# Poissons Ratio (x) = 0.28825 -0.25565
# Poissons Ratio (y) = 0.35004 0.53307
# Poissons Ratio (z) = -0.15583 0.26755
#
# Static dielectric constant tensor:
#      x y z
#    x 1.855980 0.007490 -0.000660 
#    y 0.007490 1.905480 -0.021850 
#    z -0.000660 -0.021850 1.884320 
# 
# From -- ./inp_files/185483.got.cif
#   From: 2010.05.17/outbox.cif.g08.bks.cpg/sg2_93_cif.got.tgz:185483.got - 2010.06.03 11:33:40.
