data_PCOD9055677
_publ_section_title
;
Structure prediction by ZEFSAII (Michael W. Deem and Ramdas Pophale) SiO2 
 PCOD9055677
Probable space group: P -1
;
_chemical_formula_sum "Si O2"
_cell_formula_units_Z 16
_cell_length_a 9.446342
_cell_length_b 10.527892
_cell_length_c 7.427279
_cell_angle_alpha 102.875517
_cell_angle_beta 120.802201
_cell_angle_gamma 75.405135
_cell_volume 610.056217
_symmetry_space_group_name_H-M "P -1"
_symmetry_group_IT_number 2
_symmetry_cell_setting 'triclinic'
loop_
_space_group_symop_operation_xyz
x,y,z
-x,-y,-z
loop_
_atom_site_type_symbol
_atom_site_label
_atom_site_fract_x
_atom_site_fract_y
_atom_site_fract_z
Si Si1 0.822527 0.478278 0.445034
Si Si2 0.571465 0.854902 0.688927
Si Si3 0.177623 0.982389 0.010514
Si Si4 0.594626 0.625254 0.065206
Si Si5 0.274430 0.784712 0.324376
Si Si6 0.193671 0.509253 0.147044
Si Si7 0.073160 0.825283 0.558705
Si Si8 0.666708 0.873079 0.339076
O O1 0.714293 0.591802 0.300414
O O2 0.774289 0.503562 0.626384
O O3 0.833631 0.322142 0.370825
O O4 0.000000 0.500000 0.500000
O O5 0.734620 0.887590 0.911403
O O6 0.445500 0.749159 0.540906
O O7 0.641849 0.854512 0.530684
O O8 0.428264 0.976746 0.696875
O O9 0.855081 0.082169 0.221430
O O10 0.715901 0.112883 0.799146
O O11 0.000000 0.000000 0.000000
O O12 0.562677 0.782669 0.118897
O O13 0.500000 0.500000 0.000000
O O14 0.690731 0.595403 0.931573
O O15 0.227853 0.653903 0.161711
O O16 0.132204 0.837160 0.394791
O O17 0.000000 0.500000 0.000000
O O18 0.869543 0.845147 0.433821
#
# Coordination Sequence:
#
# PCOD9055677 Si02
#       8
#     2   2   2   2   2   2   2   2
#     4  11  22  43  69  97 138 171 224 285 332 404
#     4  11  23  44  67  94 135 180 219 275 340 390
#     4  12  23  41  70  97 126 177 233 265 329 406
#     4  12  25  40  70  99 137 179 218 281 347 395
#     4  11  23  44  69  94 142 171 212 289 330 390
#     4  11  23  43  71 105 130 180 230 269 345 412
#     4  11  24  40  69 101 125 175 226 270 338 399
#     4  11  21  43  64  97 135 172 222 273 332 398
#
# _framework density 26.22709
#
# number of rings (size 3 to 8) (size 9 to 14) (size 15 to 20)
#    0.000    0.750    6.250    2.250    1.750    3.000 
#    0.000    0.000    0.000    0.000    0.000    0.000 
#    0.000    0.000    0.000    0.000    0.000    0.000 
#
# Total GULP energy -89322.905727 kJ/mol
# GULP energy per Si atom -5582.681608 kJ/mol
# Density = 2.616740 g / cm^3
# Si number density = 26.227090 Si / 1000 Ang^3
#
#
#
# Elastic Constant Matrix: (Units=GPa)
#
#
# Indices 1 2 3 4 5 6 
#
# 1 151.5769 20.0905 39.8450 22.3560 -1.9939 -14.6113
# 2 20.0905 66.6547 28.3303 21.5280 -6.7276 3.3590
# 3 39.8450 28.3303 114.6760 45.8820 7.5750 -10.7471
# 4 22.3560 21.5280 45.8820 50.4868 3.4346 -2.1925
# 5 -1.9939 -6.7276 7.5750 3.4346 58.7982 12.2428
# 6 -14.6113 3.3590 -10.7471 -2.1925 12.2428 41.6468
#
#
#
# Elastic Compliance Matrix: (Units=1/GPa)
#
#
# Indices 1 2 3 4 5 6 
#
# 1 0.007599 -0.001343 -0.001586 -0.001242 -0.000104 0.002330
# 2 -0.001343 0.018857 -0.002607 -0.005496 0.003605 -0.004014
# 3 -0.001586 -0.002607 0.015019 -0.011517 -0.002368 0.003619
# 4 -0.001242 -0.005496 -0.011517 0.033190 -0.000929 -0.000944
# 5 -0.000104 0.003605 -0.002368 -0.000929 0.019153 -0.006618
# 6 0.002330 -0.004014 0.003619 -0.000944 -0.006618 0.027982
#
#
# Mechanical properties :
#
#
# Convention : Reuss Voigt Hill
#
# Bulk Modulus (GPa) = 32.89237 56.60436 44.74836
# Shear Modulus (GPa) = 34.96356 46.49581 40.72968
#
# Velocity S-wave (km/s) = 3.65514 4.21505 3.94504
# Velocity P-wave (km/s) = 5.51198 6.73187 6.15224
#
# Compressibility (1/GPa) = 0.03040219
#
# Stress axis : x y z
#
# Youngs Moduli (GPa) = 131.60085 53.03117 66.58303
#
# Poissons Ratio (x) = 0.07121 0.10561
# Poissons Ratio (y) = 0.17672 0.17359
# Poissons Ratio (z) = 0.20874 0.13826
#
# Static dielectric constant tensor:
#      x y z
#    x 2.027870 0.047240 0.103510 
#    y 0.047240 2.296600 0.027820 
#    z 0.103510 0.027820 2.096960 
# 
# From -- ./inp_files/190372.got.cif
#   From: 2010.05.17/outbox.cif.g08.bks.cpg/sg2_96_cif.got.tgz:190372.got - 2010.06.03 11:33:40.
