data_PCOD9055997
_publ_section_title
;
Structure prediction by ZEFSAII (Michael W. Deem and Ramdas Pophale) SiO2 
 PCOD9055997
Probable space group: P -1
;
_chemical_formula_sum "Si O2"
_cell_formula_units_Z 16
_cell_length_a 8.623845
_cell_length_b 8.154550
_cell_length_c 15.050823
_cell_angle_alpha 63.896938
_cell_angle_beta 79.224214
_cell_angle_gamma 123.488785
_cell_volume 649.205292
_symmetry_space_group_name_H-M "P -1"
_symmetry_group_IT_number 2
_symmetry_cell_setting 'triclinic'
loop_
_space_group_symop_operation_xyz
x,y,z
-x,-y,-z
loop_
_atom_site_type_symbol
_atom_site_label
_atom_site_fract_x
_atom_site_fract_y
_atom_site_fract_z
Si Si1 0.497392 0.663972 0.892721
Si Si2 0.895700 0.719653 0.109927
Si Si3 0.032570 0.944456 0.355493
Si Si4 0.746031 0.063268 0.383656
Si Si5 0.656626 0.518158 0.369592
Si Si6 0.684705 0.144586 0.024202
Si Si7 0.470566 0.177436 0.717700
Si Si8 0.989585 0.603935 0.567746
O O1 0.332907 0.488198 0.871283
O O2 0.378109 0.729741 0.942272
O O3 0.746621 0.896429 0.767908
O O4 0.500000 0.500000 0.000000
O O5 0.816948 0.649701 0.235942
O O6 0.069717 0.696489 0.080254
O O7 0.000000 0.000000 0.000000
O O8 0.947554 0.083250 0.337359
O O9 0.825305 0.664706 0.399175
O O10 0.058223 0.865842 0.465776
O O11 0.541776 0.791755 0.521874
O O12 0.631794 0.016087 0.310995
O O13 0.855411 0.297627 0.385352
O O14 0.542469 0.622861 0.354778
O O15 0.666651 0.973618 0.142276
O O16 0.500000 0.000000 0.000000
O O17 0.727376 0.355588 0.677494
O O18 0.000000 0.500000 0.500000
#
# Coordination Sequence:
#
# PCOD9055997 Si02
#       8
#     2   2   2   2   2   2   2   2
#     4  12  28  46  74 108 144 199 259 311 385 450
#     4  12  25  46  75 106 148 199 252 316 375 448
#     4  11  22  45  71 107 145 190 252 304 376 459
#     4  11  24  44  77 107 147 200 246 305 382 453
#     4  11  21  44  76 108 144 196 248 309 373 454
#     4  12  27  51  74 108 151 199 257 318 379 449
#     4  11  24  46  73 108 150 190 254 311 375 453
#     4  12  25  42  69 108 151 193 245 310 377 451
#
# _framework density 24.645516000000001
#
# number of rings (size 3 to 8) (size 9 to 14) (size 15 to 20)
#    0.000    0.500    3.750    5.250    3.500    0.500 
#    4.500    0.000    0.000    0.000    0.000    0.000 
#    0.000    0.000    0.000    0.000    0.000    0.000 
#
# Total GULP energy -89555.542329 kJ/mol
# GULP energy per Si atom -5597.221396 kJ/mol
# Density = 2.458942 g / cm^3
# Si number density = 24.645516 Si / 1000 Ang^3
#
#
#
# Elastic Constant Matrix: (Units=GPa)
#
#
# Indices 1 2 3 4 5 6 
#
# 1 110.0487 34.6807 36.7496 -5.4135 -14.6816 6.1926
# 2 34.6807 128.1851 35.9930 5.5284 -4.8064 23.1860
# 3 36.7496 35.9930 133.5354 16.8117 -19.7681 6.8995
# 4 -5.4135 5.5284 16.8117 30.4572 8.1665 -1.1006
# 5 -14.6816 -4.8064 -19.7681 8.1665 58.1544 9.0734
# 6 6.1926 23.1860 6.8995 -1.1006 9.0734 43.3437
#
#
#
# Elastic Compliance Matrix: (Units=1/GPa)
#
#
# Indices 1 2 3 4 5 6 
#
# 1 0.011055 -0.002335 -0.002678 0.003543 0.001200 -0.000065
# 2 -0.002335 0.009822 -0.001413 -0.001799 0.000759 -0.004900
# 3 -0.002678 -0.001413 0.010117 -0.006886 0.003839 -0.001451
# 4 0.003543 -0.001799 -0.006886 0.039846 -0.007847 0.004206
# 5 0.001200 0.000759 0.003839 -0.007847 0.020866 -0.005756
# 6 -0.000065 -0.004900 -0.001451 0.004206 -0.005756 0.027245
#
#
# Mechanical properties :
#
#
# Convention : Reuss Voigt Hill
#
# Bulk Modulus (GPa) = 55.12005 65.17952 60.14978
# Shear Modulus (GPa) = 36.27144 44.01413 40.14279
#
# Velocity S-wave (km/s) = 3.84047 4.23056 4.04023
# Velocity P-wave (km/s) = 6.48686 7.09702 6.79879
#
# Compressibility (1/GPa) = 0.01814222
#
# Stress axis : x y z
#
# Youngs Moduli (GPa) = 90.45583 101.81187 98.84726
#
# Poissons Ratio (x) = 0.23773 0.26471
# Poissons Ratio (y) = 0.21121 0.13965
# Poissons Ratio (z) = 0.24224 0.14384
#
# Static dielectric constant tensor:
#      x y z
#    x 2.174220 0.012780 0.126650 
#    y 0.012780 2.126640 0.312120 
#    z 0.126650 0.312120 2.609320 
# 
# From -- ./inp_files/494662.got.cif
#   From: 2010.05.17/outbox.cif.g08.bks.cpg/sg2_248_cif.got.tgz:494662.got - 2010.06.03 11:33:40.
