data_PCOD9055453
_publ_section_title
;
Structure prediction by ZEFSAII (Michael W. Deem and Ramdas Pophale) SiO2 
 PCOD9055453
Probable space group: P -1
;
_chemical_formula_sum "Si O2"
_cell_formula_units_Z 14
_cell_length_a 11.541061
_cell_length_b 9.075366
_cell_length_c 17.634431
_cell_angle_alpha 131.374408
_cell_angle_beta 40.167971
_cell_angle_gamma 150.781580
_cell_volume 581.458437
_symmetry_space_group_name_H-M "P -1"
_symmetry_group_IT_number 2
_symmetry_cell_setting 'triclinic'
loop_
_space_group_symop_operation_xyz
x,y,z
-x,-y,-z
loop_
_atom_site_type_symbol
_atom_site_label
_atom_site_fract_x
_atom_site_fract_y
_atom_site_fract_z
Si Si1 0.083223 0.847601 0.153873
Si Si2 0.485080 0.262984 0.954582
Si Si3 0.727796 0.844112 0.694311
Si Si4 0.694497 0.844675 0.543829
Si Si5 0.378348 0.216345 0.656642
Si Si6 0.905192 0.343566 0.152048
Si Si7 0.628524 0.178839 0.386714
O O1 0.878288 0.866380 0.271778
O O2 0.931900 0.514335 0.125227
O O3 0.255695 0.981746 0.191096
O O4 0.267302 0.042506 0.056100
O O5 0.791717 0.484709 0.914705
O O6 0.335929 0.012172 0.874670
O O7 0.500000 0.500000 0.000000
O O8 0.614873 0.818641 0.661456
O O9 0.559569 0.531825 0.712743
O O10 0.011071 0.991076 0.571119
O O11 0.500000 0.500000 0.500000
O O12 0.666425 0.028101 0.576000
O O13 0.584717 0.297277 0.517010
O O14 0.301470 0.971155 0.664221
O O15 0.818074 0.377681 0.287173
#
# Coordination Sequence:
#
# PCOD9055453 Si02
#       7
#     2   2   2   2   2   2   2
#     4  12  27  48  77 110 151 194 265 312 384 454
#     4  12  30  55  82 111 154 200 261 324 391 452
#     4  11  23  37  72  98 145 194 245 306 377 444
#     4  11  21  42  61 102 143 194 242 301 370 453
#     4  11  25  44  68 110 150 204 236 321 380 462
#     4  12  29  50  81 115 148 209 255 324 376 466
#     4  11  24  45  69 106 160 190 259 299 397 453
#
# _framework density 24.077387000000002
#
# number of rings (size 3 to 8) (size 9 to 14) (size 15 to 20)
#    0.000    0.571    2.857    3.857   10.000    0.571 
#    0.000    0.000    0.000    0.000    0.000    0.000 
#    0.000    0.000    0.000    0.000    0.000    0.000 
#
# Total GULP energy -77970.358293 kJ/mol
# GULP energy per Si atom -5569.311307 kJ/mol
# Density = 2.402259 g / cm^3
# Si number density = 24.077387 Si / 1000 Ang^3
#
#
#
# Elastic Constant Matrix: (Units=GPa)
#
#
# Indices 1 2 3 4 5 6 
#
# 1 125.8291 40.8049 29.7943 8.1119 -14.2168 -24.0041
# 2 40.8049 88.7189 20.6925 9.5485 -5.3826 -6.2581
# 3 29.7943 20.6925 85.0954 -5.7940 10.8593 -2.4789
# 4 8.1119 9.5485 -5.7940 35.6403 -5.0707 -1.7035
# 5 -14.2168 -5.3826 10.8593 -5.0707 39.8511 1.6770
# 6 -24.0041 -6.2581 -2.4789 -1.7035 1.6770 43.4001
#
#
#
# Elastic Compliance Matrix: (Units=1/GPa)
#
#
# Indices 1 2 3 4 5 6 
#
# 1 0.011622 -0.003704 -0.003643 -0.001381 0.004233 0.005468
# 2 -0.003704 0.013907 -0.002416 -0.003174 0.000826 -0.000338
# 3 -0.003643 -0.002416 0.014440 0.003037 -0.005123 -0.001221
# 4 -0.001381 -0.003174 0.003037 0.030013 0.002068 0.000050
# 5 0.004233 0.000826 -0.005123 0.002068 0.028325 0.001154
# 6 0.005468 -0.000338 -0.001221 0.000050 0.001154 0.025904
#
#
# Mechanical properties :
#
#
# Convention : Reuss Voigt Hill
#
# Bulk Modulus (GPa) = 48.92173 53.58074 51.25124
# Shear Modulus (GPa) = 33.21130 37.66839 35.43984
#
# Velocity S-wave (km/s) = 3.71800 3.95963 3.84072
# Velocity P-wave (km/s) = 6.22848 6.57319 6.40315
#
# Compressibility (1/GPa) = 0.02044081
#
# Stress axis : x y z
#
# Youngs Moduli (GPa) = 86.04732 71.90805 69.25439
#
# Poissons Ratio (x) = 0.26637 0.25230
# Poissons Ratio (y) = 0.31874 0.16732
# Poissons Ratio (z) = 0.31348 0.17373
#
# Static dielectric constant tensor:
#      x y z
#    x 2.090190 0.093120 -0.039920 
#    y 0.093120 1.969680 0.000980 
#    z -0.039920 0.000980 1.934550 
# 
# From -- ./inp_files/566934.got.cif
#   From: 2010.05.17/outbox.cif.g08.bks.cpg/sg2_284_cif.got.tgz:566934.got - 2010.06.03 11:33:40.
