data_PCOD9055166
_publ_section_title
;
Structure prediction by ZEFSAII (Michael W. Deem and Ramdas Pophale) SiO2 
 PCOD9055166
Probable space group: P -1
;
_chemical_formula_sum "Si O2"
_cell_formula_units_Z 12
_cell_length_a 10.588160
_cell_length_b 15.268645
_cell_length_c 9.122889
_cell_angle_alpha 122.292610
_cell_angle_beta 28.194060
_cell_angle_gamma 121.910944
_cell_volume 582.850513
_symmetry_space_group_name_H-M "P -1"
_symmetry_group_IT_number 2
_symmetry_cell_setting 'triclinic'
loop_
_space_group_symop_operation_xyz
x,y,z
-x,-y,-z
loop_
_atom_site_type_symbol
_atom_site_label
_atom_site_fract_x
_atom_site_fract_y
_atom_site_fract_z
Si Si1 0.338151 0.762226 0.374499
Si Si2 0.722861 0.941305 0.796150
Si Si3 0.434370 0.710239 0.897780
Si Si4 0.866214 0.904011 0.952473
Si Si5 0.744434 0.460228 0.629338
Si Si6 0.123309 0.419365 0.700003
O O1 0.082223 0.821153 0.651785
O O2 0.283083 0.665525 0.455382
O O3 0.435870 0.715113 0.079004
O O4 0.586053 0.845313 0.251644
O O5 0.599965 0.820950 0.780710
O O6 0.779462 0.941289 0.913831
O O7 0.000000 0.000000 0.500000
O O8 0.500000 0.000000 0.000000
O O9 0.602629 0.625039 0.580996
O O10 0.118377 0.678598 0.157223
O O11 0.000000 0.000000 0.000000
O O12 0.799387 0.517496 0.471293
O O13 0.000000 0.500000 0.500000
O O14 0.500000 0.500000 0.000000
O O15 0.000000 0.500000 0.000000
#
# Coordination Sequence:
#
# PCOD9055166 Si02
#       6
#     2   2   2   2   2   2
#     4  11  21  40  69  95 127 178 222 266 331 403
#     4  11  23  43  69  94 125 176 228 267 324 412
#     4  11  22  42  68  89 129 176 222 263 333 398
#     4  11  24  43  66  98 137 166 216 289 344 377
#     4  12  22  40  68  97 129 170 230 268 315 416
#     4  12  24  42  63  98 135 171 212 279 336 382
#
# _framework density 20.588469
#
# number of rings (size 3 to 8) (size 9 to 14) (size 15 to 20)
#    0.000    0.667    3.333    7.000    0.000    0.000 
#    9.000    0.000    0.000    0.000    0.000    0.000 
#    0.000    0.000    0.000    0.000    0.000    0.000 
#
# Total GULP energy -66982.686151 kJ/mol
# GULP energy per Si atom -5581.890513 kJ/mol
# Density = 2.054161 g / cm^3
# Si number density = 20.588469 Si / 1000 Ang^3
#
#
#
# Elastic Constant Matrix: (Units=GPa)
#
#
# Indices 1 2 3 4 5 6 
#
# 1 63.4005 46.9951 47.4582 0.6857 -17.6715 -8.3729
# 2 46.9951 131.1350 41.9794 -21.4118 -11.4339 -16.5061
# 3 47.4582 41.9794 141.7249 -5.4482 -24.8364 -16.3113
# 4 0.6857 -21.4118 -5.4482 52.8895 4.0490 -5.6595
# 5 -17.6715 -11.4339 -24.8364 4.0490 38.9357 -1.8182
# 6 -8.3729 -16.5061 -16.3113 -5.6595 -1.8182 36.3311
#
#
#
# Elastic Compliance Matrix: (Units=1/GPa)
#
#
# Indices 1 2 3 4 5 6 
#
# 1 0.028652 -0.008595 -0.006046 -0.005068 0.007130 -0.000449
# 2 -0.008595 0.012124 -0.000150 0.005524 -0.000811 0.004280
# 3 -0.006046 -0.000150 0.010236 0.001157 0.003785 0.003504
# 4 -0.005068 0.005524 0.001157 0.022037 -0.001989 0.005195
# 5 0.007130 -0.000811 0.003785 -0.001989 0.031500 0.004240
# 6 -0.000449 0.004280 0.003504 0.005195 0.004240 0.031960
#
#
# Mechanical properties :
#
#
# Convention : Reuss Voigt Hill
#
# Bulk Modulus (GPa) = 46.66310 67.68064 57.17187
# Shear Modulus (GPa) = 28.86274 38.95310 33.90792
#
# Velocity S-wave (km/s) = 3.74824 4.35442 4.06265
# Velocity P-wave (km/s) = 6.43788 7.63058 7.05946
#
# Compressibility (1/GPa) = 0.02143021
#
# Stress axis : x y z
#
# Youngs Moduli (GPa) = 34.90166 82.48072 97.69644
#
# Poissons Ratio (x) = 0.70892 0.59063
# Poissons Ratio (y) = 0.29998 0.01468
# Poissons Ratio (z) = 0.21100 0.01239
#
# Static dielectric constant tensor:
#      x y z
#    x 1.688100 0.051020 0.031160 
#    y 0.051020 1.672920 -0.031330 
#    z 0.031160 -0.031330 1.678350 
# 
# From -- ./inp_files/57594.got.cif
#   From: 2010.05.17/outbox.cif.g08.bks.cpg/sg2_29_cif.got.tgz:57594.got - 2010.06.03 11:33:40.
