data_PCOD9055275
_publ_section_title
;
Structure prediction by ZEFSAII (Michael W. Deem and Ramdas Pophale) SiO2 
 PCOD9055275
Probable space group: P -1
;
_chemical_formula_sum "Si O2"
_cell_formula_units_Z 16
_cell_length_a 15.208660
_cell_length_b 8.946766
_cell_length_c 9.126774
_cell_angle_alpha 88.038674
_cell_angle_beta 100.298480
_cell_angle_gamma 37.586121
_cell_volume 712.546374
_symmetry_space_group_name_H-M "P -1"
_symmetry_group_IT_number 2
_symmetry_cell_setting 'triclinic'
loop_
_space_group_symop_operation_xyz
x,y,z
-x,-y,-z
loop_
_atom_site_type_symbol
_atom_site_label
_atom_site_fract_x
_atom_site_fract_y
_atom_site_fract_z
Si Si1 0.276529 0.603960 0.891511
Si Si2 0.926874 0.683614 0.609710
Si Si3 0.473202 0.844665 0.223448
Si Si4 0.625618 0.592967 0.564591
Si Si5 0.847102 0.107176 0.439513
Si Si6 0.995520 0.236988 0.101136
Si Si7 0.646497 0.330759 0.806004
Si Si8 0.203921 0.380021 0.214280
O O1 0.387838 0.339761 0.844167
O O2 0.211793 0.807464 0.746091
O O3 0.129450 0.721582 0.911507
O O4 0.363509 0.572673 0.045506
O O5 0.823004 0.706865 0.665549
O O6 0.000000 0.500000 0.500000
O O7 0.025643 0.619232 0.774942
O O8 0.857829 0.926737 0.509890
O O9 0.520657 0.818010 0.406497
O O10 0.421663 0.741738 0.211411
O O11 0.327070 0.147379 0.143113
O O12 0.731391 0.354744 0.496509
O O13 0.562278 0.553341 0.657167
O O14 0.725588 0.569431 0.691936
O O15 0.000000 0.000000 0.500000
O O16 0.950525 0.372814 0.928754
O O17 0.170614 0.939626 0.164723
#
# Coordination Sequence:
#
# PCOD9055275 Si02
#       8
#     2   2   2   2   2   2   2   2
#     4  11  25  42  74 105 134 190 234 290 346 413
#     4  12  26  41  69 107 141 178 226 290 355 407
#     4  11  26  45  67 100 151 182 237 285 346 422
#     4  11  23  43  72  96 136 190 235 283 344 417
#     4  11  21  41  66 100 140 174 234 292 337 409
#     4  12  25  45  73 104 144 179 231 296 349 414
#     4  12  23  46  72 106 133 184 243 289 354 406
#     4  12  26  46  70 105 144 189 230 284 361 417
#
# _framework density 22.454678999999999
#
# number of rings (size 3 to 8) (size 9 to 14) (size 15 to 20)
#    0.000    0.500    5.000    2.625    5.250    1.500 
#    0.000    0.000    0.000    0.000    0.000    0.000 
#    0.000    0.000    0.000    0.000    0.000    0.000 
#
# Total GULP energy -89454.382826 kJ/mol
# GULP energy per Si atom -5590.898927 kJ/mol
# Density = 2.240357 g / cm^3
# Si number density = 22.454679 Si / 1000 Ang^3
#
#
#
# Elastic Constant Matrix: (Units=GPa)
#
#
# Indices 1 2 3 4 5 6 
#
# 1 75.2691 8.7391 -0.7990 7.4354 -9.7870 6.7282
# 2 8.7391 66.1819 17.1887 3.5582 -8.6652 -1.4317
# 3 -0.7990 17.1887 95.5815 20.0611 -0.4369 -0.9942
# 4 7.4354 3.5582 20.0611 30.0977 9.6628 4.6727
# 5 -9.7870 -8.6652 -0.4369 9.6628 40.8592 4.4324
# 6 6.7282 -1.4317 -0.9942 4.6727 4.4324 33.4918
#
#
#
# Elastic Compliance Matrix: (Units=1/GPa)
#
#
# Indices 1 2 3 4 5 6 
#
# 1 0.014939 -0.001492 0.001584 -0.005710 0.004941 -0.002875
# 2 -0.001492 0.016515 -0.002778 -0.000872 0.003255 0.000614
# 3 0.001584 -0.002778 0.013000 -0.009551 0.002079 0.001006
# 4 -0.005710 -0.000872 -0.009551 0.045571 -0.012004 -0.003943
# 5 0.004941 0.003255 0.002079 -0.012004 0.029537 -0.003026
# 6 -0.002875 0.000614 0.001006 -0.003943 -0.003026 0.031442
#
#
# Mechanical properties :
#
#
# Convention : Reuss Voigt Hill
#
# Bulk Modulus (GPa) = 25.58728 31.92113 28.75421
# Shear Modulus (GPa) = 29.51513 35.01664 32.26588
#
# Velocity S-wave (km/s) = 3.62944 3.95325 3.79480
# Velocity P-wave (km/s) = 5.38364 5.92320 5.65985
#
# Compressibility (1/GPa) = 0.03908191
#
# Stress axis : x y z
#
# Youngs Moduli (GPa) = 66.93730 60.55170 76.92438
#
# Poissons Ratio (x) = 0.09037 -0.12188
# Poissons Ratio (y) = 0.09990 0.21370
# Poissons Ratio (z) = -0.10606 0.16821
#
# Static dielectric constant tensor:
#      x y z
#    x -73.685900 -6.651210 0.194140 
#    y -6.651210 1.260220 -0.031480 
#    z 0.194140 -0.031480 1.878830 
# 
# From -- ./inp_files/184215.got.cif
#   From: 2010.05.17/outbox.cif.g08.bks.cpg/sg2_93_cif.got.tgz:184215.got - 2010.06.03 11:33:40.
