data_PCOD9055284
_publ_section_title
;
Structure prediction by ZEFSAII (Michael W. Deem and Ramdas Pophale) SiO2 
 PCOD9055284
Probable space group: P -1
;
_chemical_formula_sum "Si O2"
_cell_formula_units_Z 10
_cell_length_a 9.549862
_cell_length_b 7.465718
_cell_length_c 13.049958
_cell_angle_alpha 81.669166
_cell_angle_beta 147.001306
_cell_angle_gamma 117.648629
_cell_volume 387.053365
_symmetry_space_group_name_H-M "P -1"
_symmetry_group_IT_number 2
_symmetry_cell_setting 'triclinic'
loop_
_space_group_symop_operation_xyz
x,y,z
-x,-y,-z
loop_
_atom_site_type_symbol
_atom_site_label
_atom_site_fract_x
_atom_site_fract_y
_atom_site_fract_z
Si Si1 0.803580 0.251231 0.122591
Si Si2 0.767036 0.153094 0.783963
Si Si3 0.305922 0.262300 0.696311
Si Si4 0.709345 0.561495 0.747441
Si Si5 0.956564 0.292498 0.663920
O O1 0.134769 0.300460 0.276794
O O2 0.916981 0.451120 0.256171
O O3 0.627510 0.284044 0.918653
O O4 0.500000 0.000000 0.000000
O O5 0.699434 0.340041 0.733561
O O6 0.928411 0.189586 0.768343
O O7 0.417435 0.892678 0.594509
O O8 0.015429 0.231794 0.022687
O O9 0.395798 0.430362 0.642452
O O10 0.204349 0.314019 0.734119
O O11 0.000000 0.000000 0.500000
#
# Coordination Sequence:
#
# PCOD9055284 Si02
#       5
#     2   2   2   2   2
#     4  11  23  39  56  84 122 150 179 237 296 328
#     4   9  16  32  57  83 108 145 195 227 270 327
#     4  12  20  36  63  87 108 147 204 230 266 337
#     4  10  17  36  57  80 114 153 185 225 279 342
#     4  10  19  32  60  87 107 146 200 233 264 336
#
# _framework density 25.836231999999999
#
# number of rings (size 3 to 8) (size 9 to 14) (size 15 to 20)
#    0.000    1.600    8.000    0.600    0.000    0.000 
#    0.000    6.000    0.000    0.000    0.000    0.000 
#    0.000    0.000    0.000    0.000    0.000    0.000 
#
# Total GULP energy -55877.297787 kJ/mol
# GULP energy per Si atom -5587.729779 kJ/mol
# Density = 2.577743 g / cm^3
# Si number density = 25.836232 Si / 1000 Ang^3
#
#
#
# Elastic Constant Matrix: (Units=GPa)
#
#
# Indices 1 2 3 4 5 6 
#
# 1 229.7010 36.7348 39.8833 16.3290 18.1186 16.6657
# 2 36.7348 75.0666 60.3592 28.4706 1.6725 7.5081
# 3 39.8833 60.3592 133.9439 48.9094 5.5770 -5.9979
# 4 16.3290 28.4706 48.9094 61.7030 4.5927 -0.9111
# 5 18.1186 1.6725 5.5770 4.5927 53.8120 20.2783
# 6 16.6657 7.5081 -5.9979 -0.9111 20.2783 25.7313
#
#
#
# Elastic Compliance Matrix: (Units=1/GPa)
#
#
# Indices 1 2 3 4 5 6 
#
# 1 0.004974 -0.001424 -0.000974 0.000117 -0.000566 -0.002583
# 2 -0.001424 0.025012 -0.010429 -0.003574 0.006336 -0.013927
# 3 -0.000974 -0.010429 0.015593 -0.006813 -0.004332 0.010482
# 4 0.000117 -0.003574 -0.006813 0.023387 -0.001844 0.001660
# 5 -0.000566 0.006336 -0.004332 -0.001844 0.028658 -0.025142
# 6 -0.002583 -0.013927 0.010482 0.001660 -0.025142 0.066915
#
#
# Mechanical properties :
#
#
# Convention : Reuss Voigt Hill
#
# Bulk Modulus (GPa) = 50.19177 79.18512 64.68844
# Shear Modulus (GPa) = 25.40194 48.36487 36.88340
#
# Velocity S-wave (km/s) = 3.13899 4.33133 3.78244
# Velocity P-wave (km/s) = 5.71023 7.46521 6.64590
#
# Compressibility (1/GPa) = 0.01992359
#
# Stress axis : x y z
#
# Youngs Moduli (GPa) = 201.03986 39.98104 64.13146
#
# Poissons Ratio (x) = 0.05695 0.06246
# Poissons Ratio (y) = 0.28637 0.66884
# Poissons Ratio (z) = 0.19581 0.41697
#
# Static dielectric constant tensor:
#      x y z
#    x 2.029930 0.027720 0.034830 
#    y 0.027720 2.131210 -0.134050 
#    z 0.034830 -0.134050 2.132480 
# 
# From -- ./inp_files/145613.got.cif
#   From: 2010.05.17/outbox.cif.g08.bks.cpg/sg2_73_cif.got.tgz:145613.got - 2010.06.03 11:33:40.
