data_PCOD9055346
_publ_section_title
;
Structure prediction by ZEFSAII (Michael W. Deem and Ramdas Pophale) SiO2 
 PCOD9055346
Probable space group: P -1
;
_chemical_formula_sum "Si O2"
_cell_formula_units_Z 16
_cell_length_a 16.837091
_cell_length_b 11.525379
_cell_length_c 9.130377
_cell_angle_alpha 80.208645
_cell_angle_beta 118.573166
_cell_angle_gamma 48.573811
_cell_volume 786.214143
_symmetry_space_group_name_H-M "P -1"
_symmetry_group_IT_number 2
_symmetry_cell_setting 'triclinic'
loop_
_space_group_symop_operation_xyz
x,y,z
-x,-y,-z
loop_
_atom_site_type_symbol
_atom_site_label
_atom_site_fract_x
_atom_site_fract_y
_atom_site_fract_z
Si Si1 0.640825 0.904524 0.751791
Si Si2 0.982970 0.144571 0.871143
Si Si3 0.444223 0.411883 0.294807
Si Si4 0.584551 0.334222 0.976810
Si Si5 0.821241 0.903679 0.735635
Si Si6 0.025557 0.099565 0.572884
Si Si7 0.580665 0.642146 0.403244
Si Si8 0.841633 0.454402 0.103379
O O1 0.772942 0.832684 0.781349
O O2 0.500000 0.000000 0.500000
O O3 0.532378 0.115061 0.714706
O O4 0.746859 0.685965 0.977654
O O5 0.789991 0.419443 0.652789
O O6 0.007771 0.104114 0.729083
O O7 0.120341 0.076462 0.084898
O O8 0.000000 0.000000 0.000000
O O9 0.389284 0.595863 0.139194
O O10 0.465017 0.390710 0.492131
O O11 0.634899 0.159914 0.454803
O O12 0.296410 0.480592 0.109563
O O13 0.468092 0.363918 0.791872
O O14 0.500000 0.500000 0.000000
O O15 0.777139 0.075542 0.245888
O O16 0.981259 0.729665 0.799019
O O17 0.892589 0.338060 0.326986
O O18 0.000000 0.000000 0.500000
#
# Coordination Sequence:
#
# PCOD9055346 Si02
#       8
#     2   2   2   2   2   2   2   2
#     4  11  22  44  70  99 137 182 235 286 329 413
#     4  12  23  42  68 101 139 176 231 285 341 418
#     4  11  21  41  68  98 137 170 226 285 344 404
#     4  12  24  42  65  96 137 179 223 285 355 415
#     4  11  22  41  70 102 127 181 234 276 347 404
#     4  12  24  40  64  97 138 178 224 289 351 407
#     4  11  23  41  67  99 131 177 235 276 343 401
#     4  12  23  43  67 102 136 179 226 288 345 404
#
# _framework density 20.350691000000001
#
# number of rings (size 3 to 8) (size 9 to 14) (size 15 to 20)
#    0.000    0.500    5.000    6.000    0.000    0.000 
#    0.000    3.125    0.000    0.000    0.000    0.000 
#    0.000    0.000    0.000    0.000    0.000    0.000 
#
# Total GULP energy -89447.273869 kJ/mol
# GULP energy per Si atom -5590.454617 kJ/mol
# Density = 2.030437 g / cm^3
# Si number density = 20.350691 Si / 1000 Ang^3
#
#
#
# Elastic Constant Matrix: (Units=GPa)
#
#
# Indices 1 2 3 4 5 6 
#
# 1 97.5840 38.4888 54.2271 3.0408 4.1102 8.7551
# 2 38.4888 99.1160 52.2159 3.7355 -10.3049 -10.8783
# 3 54.2271 52.2159 132.2681 -10.8505 -3.4332 1.4616
# 4 3.0408 3.7355 -10.8505 42.5864 -1.6457 1.4273
# 5 4.1102 -10.3049 -3.4332 -1.6457 48.7287 -5.3839
# 6 8.7551 -10.8783 1.4616 1.4273 -5.3839 37.5312
#
#
#
# Elastic Compliance Matrix: (Units=1/GPa)
#
#
# Indices 1 2 3 4 5 6 
#
# 1 0.015169 -0.004184 -0.004748 -0.001880 -0.003108 -0.004941
# 2 -0.004184 0.015222 -0.004445 -0.002227 0.003869 0.006201
# 3 -0.004748 -0.004445 0.011583 0.003717 0.000322 -0.000727
# 4 -0.001880 -0.002227 0.003717 0.024824 0.000655 -0.001202
# 5 -0.003108 0.003869 0.000322 0.000655 0.022199 0.004993
# 6 -0.004941 0.006201 -0.000727 -0.001202 0.004993 0.030385
#
#
# Mechanical properties :
#
#
# Convention : Reuss Voigt Hill
#
# Bulk Modulus (GPa) = 65.69724 68.75908 67.22816
# Shear Modulus (GPa) = 33.06729 38.03835 35.55282
#
# Velocity S-wave (km/s) = 4.03534 4.32805 4.18426
# Velocity P-wave (km/s) = 7.35287 7.67049 7.51336
#
# Compressibility (1/GPa) = 0.01522134
#
# Stress axis : x y z
#
# Youngs Moduli (GPa) = 65.92541 65.69353 86.33493
#
# Poissons Ratio (x) = 0.27485 0.40988
# Poissons Ratio (y) = 0.27582 0.38375
# Poissons Ratio (z) = 0.31298 0.29200
#
# Static dielectric constant tensor:
#      x y z
#    x 1.747150 -0.045140 0.011650 
#    y -0.045140 1.756740 -0.013080 
#    z 0.011650 -0.013080 1.720840 
# 
# From -- ./inp_files/333268.got.cif
#   From: 2010.05.17/outbox.cif.g08.bks.cpg/sg2_167_cif.got.tgz:333268.got - 2010.06.03 11:33:40.
