data_PCOD9055543
_publ_section_title
;
Structure prediction by ZEFSAII (Michael W. Deem and Ramdas Pophale) SiO2 
 PCOD9055543
Probable space group: P -1
;
_chemical_formula_sum "Si O2"
_cell_formula_units_Z 16
_cell_length_a 9.489059
_cell_length_b 7.695847
_cell_length_c 14.207082
_cell_angle_alpha 64.629242
_cell_angle_beta 124.904234
_cell_angle_gamma 127.379526
_cell_volume 670.862611
_symmetry_space_group_name_H-M "P -1"
_symmetry_group_IT_number 2
_symmetry_cell_setting 'triclinic'
loop_
_space_group_symop_operation_xyz
x,y,z
-x,-y,-z
loop_
_atom_site_type_symbol
_atom_site_label
_atom_site_fract_x
_atom_site_fract_y
_atom_site_fract_z
Si Si1 0.730660 0.429193 0.330704
Si Si2 0.464619 0.930547 0.304305
Si Si3 0.052032 0.240235 0.009738
Si Si4 0.612980 0.017321 0.942838
Si Si5 0.252174 0.320052 0.890087
Si Si6 0.927495 0.660789 0.531938
Si Si7 0.833915 0.964699 0.755744
Si Si8 0.751685 0.859652 0.537289
O O1 0.592428 0.170593 0.344274
O O2 0.650674 0.506677 0.195357
O O3 0.762502 0.546007 0.415529
O O4 0.949209 0.467103 0.379481
O O5 0.489783 0.952792 0.196390
O O6 0.249883 0.893289 0.255796
O O7 0.551039 0.791409 0.419739
O O8 0.167406 0.393229 0.930118
O O9 0.844821 0.209185 0.976055
O O10 0.190002 0.247121 0.146225
O O11 0.000000 0.000000 0.000000
O O12 0.623818 0.790351 0.997257
O O13 0.500000 0.000000 0.000000
O O14 0.068721 0.124240 0.807561
O O15 0.836487 0.697506 0.582473
O O16 0.084688 0.901396 0.496171
O O17 0.741809 0.894502 0.635036
#
# Coordination Sequence:
#
# PCOD9055543 Si02
#       8
#     2   2   2   2   2   2   2   2
#     4  10  21  34  59  79 117 145 178 231 290 332
#     4  11  21  35  54  91 113 138 189 237 273 333
#     4   8  16  33  55  76 106 145 189 222 257 331
#     4  10  20  33  57  89 113 139 191 239 266 319
#     4  10  18  36  61  77 106 160 180 221 278 336
#     4   9  20  38  50  86 110 144 189 227 275 344
#     4  10  17  36  58  81 105 148 198 220 267 339
#     4  10  20  32  63  79 108 146 190 234 271 322
#
# _framework density 23.849889000000001
#
# number of rings (size 3 to 8) (size 9 to 14) (size 15 to 20)
#    0.000    2.500    5.000    0.375    1.750    3.500 
#    0.000    0.625    2.750    1.500    0.000    0.000 
#    0.000    0.000    0.000    0.000    0.000    0.000 
#
# Total GULP energy -89275.164851 kJ/mol
# GULP energy per Si atom -5579.697803 kJ/mol
# Density = 2.379561 g / cm^3
# Si number density = 23.849889 Si / 1000 Ang^3
#
#
#
# Elastic Constant Matrix: (Units=GPa)
#
#
# Indices 1 2 3 4 5 6 
#
# 1 118.4899 7.0604 33.1841 18.6534 -21.5306 -14.1513
# 2 7.0604 20.0769 -4.6849 5.8661 3.3222 7.2057
# 3 33.1841 -4.6849 129.9758 14.1981 -12.8460 -9.3405
# 4 18.6534 5.8661 14.1981 18.1810 0.8228 1.1740
# 5 -21.5306 3.3222 -12.8460 0.8228 29.1119 8.5769
# 6 -14.1513 7.2057 -9.3405 1.1740 8.5769 24.7698
#
#
#
# Elastic Compliance Matrix: (Units=1/GPa)
#
#
# Indices 1 2 3 4 5 6 
#
# 1 0.013151 -0.005004 -0.000959 -0.011912 0.008361 0.006277
# 2 -0.005004 0.064658 0.003855 -0.017405 -0.003535 -0.018166
# 3 -0.000959 0.003855 0.009286 -0.007717 0.002805 0.001227
# 4 -0.011912 -0.017405 -0.007717 0.079666 -0.011134 -0.004574
# 5 0.008361 -0.003535 0.002805 -0.011134 0.044892 -0.008154
# 6 0.006277 -0.018166 0.001227 -0.004574 -0.008154 0.052745
#
#
# Mechanical properties :
#
#
# Convention : Reuss Voigt Hill
#
# Bulk Modulus (GPa) = 12.06611 37.74019 24.90315
# Shear Modulus (GPa) = 16.87820 29.94474 23.41147
#
# Velocity S-wave (km/s) = 2.66312 3.54722 3.13648
# Velocity P-wave (km/s) = 3.81136 5.71274 4.85602
#
# Compressibility (1/GPa) = 0.08287673
#
# Stress axis : x y z
#
# Youngs Moduli (GPa) = 76.04227 15.46611 107.68923
#
# Poissons Ratio (x) = 0.07739 0.10329
# Poissons Ratio (y) = 0.38052 -0.41509
# Poissons Ratio (z) = 0.07294 -0.05962
#
# Static dielectric constant tensor:
#      x y z
#    x 2.000460 0.061740 0.059340 
#    y 0.061740 1.953270 -0.016380 
#    z 0.059340 -0.016380 1.975220 
# 
# From -- ./inp_files/494744.got.cif
#   From: 2010.05.17/outbox.cif.g08.bks.cpg/sg2_248_cif.got.tgz:494744.got - 2010.06.03 11:33:40.
