data_PCOD9055589
_publ_section_title
;
Structure prediction by ZEFSAII (Michael W. Deem and Ramdas Pophale) SiO2 
 PCOD9055589
Probable space group: P -1
;
_chemical_formula_sum "Si O2"
_cell_formula_units_Z 16
_cell_length_a 16.330977
_cell_length_b 28.997352
_cell_length_c 19.276866
_cell_angle_alpha 17.240404
_cell_angle_beta 160.727806
_cell_angle_gamma 162.118089
_cell_volume 766.751576
_symmetry_space_group_name_H-M "P -1"
_symmetry_group_IT_number 2
_symmetry_cell_setting 'triclinic'
loop_
_space_group_symop_operation_xyz
x,y,z
-x,-y,-z
loop_
_atom_site_type_symbol
_atom_site_label
_atom_site_fract_x
_atom_site_fract_y
_atom_site_fract_z
Si Si1 0.887993 0.213237 0.799342
Si Si2 0.245911 0.060121 0.549402
Si Si3 0.521578 0.530803 0.891874
Si Si4 0.394652 0.567274 0.254768
Si Si5 0.188837 0.971804 0.382191
Si Si6 0.939253 0.836482 0.235570
Si Si7 0.987711 0.265280 0.281422
Si Si8 0.787121 0.297451 0.441580
O O1 0.593742 0.120309 0.745445
O O2 0.799849 0.258028 0.589809
O O3 0.186876 0.403158 0.783445
O O4 0.000021 0.070964 0.090236
O O5 0.312989 0.257488 0.295551
O O6 0.102868 0.894559 0.616995
O O7 0.000000 0.000000 0.500000
O O8 0.500000 0.500000 0.000000
O O9 0.724766 0.452542 0.146049
O O10 0.500000 0.500000 0.500000
O O11 0.637105 0.757041 0.145635
O O12 0.309326 0.424484 0.328683
O O13 0.158068 0.614965 0.022791
O O14 0.097698 0.827281 0.578022
O O15 0.152693 0.890926 0.393300
O O16 0.512716 0.119139 0.448074
O O17 0.943711 0.688274 0.403073
O O18 0.000000 0.000000 0.000000
#
# Coordination Sequence:
#
# PCOD9055589 Si02
#       8
#     2   2   2   2   2   2   2   2
#     4  11  22  44  74  96 139 187 232 288 361 416
#     4  12  26  46  71 104 139 182 240 300 349 416
#     4  11  24  46  70  97 133 191 239 281 356 425
#     4  11  25  45  72 100 141 187 223 283 362 426
#     4  11  21  42  71 100 139 185 229 282 350 429
#     4  12  23  40  68 109 136 176 235 290 347 412
#     4  11  24  47  71  95 142 189 229 277 357 433
#     4  11  23  39  68 101 138 176 232 293 343 416
#
# _framework density 20.867253000000002
#
# number of rings (size 3 to 8) (size 9 to 14) (size 15 to 20)
#    0.000    0.750    5.000    3.000    0.000    2.000 
#    0.000    1.250    0.000    0.000    0.000    0.000 
#    0.000    0.000    0.000    0.000    0.000    0.000 
#
# Total GULP energy -89089.719360 kJ/mol
# GULP energy per Si atom -5568.107460 kJ/mol
# Density = 2.081976 g / cm^3
# Si number density = 20.867253 Si / 1000 Ang^3
#
#
#
# Elastic Constant Matrix: (Units=GPa)
#
#
# Indices 1 2 3 4 5 6 
#
# 1 111.8165 54.7502 45.4708 3.2101 -4.3491 -0.8892
# 2 54.7502 129.9822 31.8191 -8.0669 -5.2702 -9.2674
# 3 45.4708 31.8191 105.4769 -5.0979 -1.0165 4.1597
# 4 3.2101 -8.0669 -5.0979 34.3372 2.4668 1.4289
# 5 -4.3491 -5.2702 -1.0165 2.4668 30.3078 -0.3141
# 6 -0.8892 -9.2674 4.1597 1.4289 -0.3141 34.9987
#
#
#
# Elastic Compliance Matrix: (Units=1/GPa)
#
#
# Indices 1 2 3 4 5 6 
#
# 1 0.013115 -0.004607 -0.004391 -0.003035 0.001178 -0.000230
# 2 -0.004607 0.010282 -0.001090 0.002509 0.000913 0.002641
# 3 -0.004391 -0.001090 0.011870 0.002039 -0.000607 -0.001900
# 4 -0.003035 0.002509 0.002039 0.030511 -0.002424 -0.000923
# 5 0.001178 0.000913 -0.000607 -0.002424 0.033507 0.000744
# 6 -0.000230 0.002641 -0.001900 -0.000923 0.000744 0.029536
#
#
# Mechanical properties :
#
#
# Convention : Reuss Voigt Hill
#
# Bulk Modulus (GPa) = 66.25669 67.92842 67.09255
# Shear Modulus (GPa) = 32.46193 34.27778 33.36985
#
# Velocity S-wave (km/s) = 3.94844 4.05737 4.00327
# Velocity P-wave (km/s) = 7.25309 7.38735 7.32053
#
# Compressibility (1/GPa) = 0.01509282
#
# Stress axis : x y z
#
# Youngs Moduli (GPa) = 76.24611 97.26197 84.24653
#
# Poissons Ratio (x) = 0.44805 0.36989
# Poissons Ratio (y) = 0.35123 0.09181
# Poissons Ratio (z) = 0.33477 0.10600
#
# Static dielectric constant tensor:
#      x y z
#    x 1.693110 -0.059220 -0.018750 
#    y -0.059220 1.736600 -0.090920 
#    z -0.018750 -0.090920 1.690870 
# 
# From -- ./inp_files/574530.got.cif
#   From: 2010.05.17/outbox.cif.g08.bks.cpg/sg2_288_cif.got.tgz:574530.got - 2010.06.03 11:33:40.
