data_PCOD9055124
_publ_section_title
;
Structure prediction by ZEFSAII (Michael W. Deem and Ramdas Pophale) SiO2 
 PCOD9055124
Probable space group: P -1
;
_chemical_formula_sum "Si O2"
_cell_formula_units_Z 15
_cell_length_a 8.912049
_cell_length_b 10.481379
_cell_length_c 14.835518
_cell_angle_alpha 42.998392
_cell_angle_beta 53.187869
_cell_angle_gamma 44.876537
_cell_volume 657.334654
_symmetry_space_group_name_H-M "P -1"
_symmetry_group_IT_number 2
_symmetry_cell_setting 'triclinic'
loop_
_space_group_symop_operation_xyz
x,y,z
-x,-y,-z
loop_
_atom_site_type_symbol
_atom_site_label
_atom_site_fract_x
_atom_site_fract_y
_atom_site_fract_z
Si Si1 0.057338 0.086654 0.294601
Si Si2 0.691980 0.708366 0.734618
Si Si3 0.981862 0.713829 0.090213
Si Si4 0.000000 0.500000 0.000000
Si Si5 0.069336 0.167768 0.662903
Si Si6 0.301607 0.905787 0.888514
Si Si7 0.676682 0.598889 0.610562
Si Si8 0.692970 0.148468 0.520352
O O1 0.077594 0.280569 0.146563
O O2 0.883528 0.173286 0.393697
O O3 0.955189 0.999678 0.303324
O O4 0.267694 0.887481 0.368105
O O5 0.926062 0.498689 0.770201
O O6 0.548765 0.745283 0.856856
O O7 0.574783 0.674372 0.707284
O O8 0.705423 0.923381 0.604633
O O9 0.969573 0.642660 0.030774
O O10 0.166109 0.781750 0.003355
O O11 0.764606 0.926816 0.091636
O O12 0.175868 0.289261 0.510566
O O13 0.831173 0.345502 0.686768
O O14 0.211918 0.058900 0.754627
O O15 0.520725 0.670887 0.543952
#
# Coordination Sequence:
#
# PCOD9055124 Si02
#       8
#     2   2   2   1   2   2   2   2
#     4  11  24  42  66  96 134 186 219 283 342 415
#     4  12  21  41  70 100 130 174 227 287 340 404
#     4  11  25  43  65 100 132 184 224 285 337 417
#     4  12  24  44  70  88 140 184 226 264 364 404
#     4  11  21  40  67  99 136 171 226 283 342 399
#     4  11  23  42  68  97 136 172 234 288 336 400
#     4  11  23  38  69 103 131 171 223 290 339 403
#     4  11  23  41  65  97 134 172 229 277 346 407
#
# _framework density 22.819429
#
# number of rings (size 3 to 8) (size 9 to 14) (size 15 to 20)
#    0.000    0.800    6.667    1.600    0.000    0.533 
#    0.000    2.000    0.000    0.000    0.000    0.000 
#    0.000    0.000    0.000    0.000    0.000    0.000 
#
# Total GULP energy -83532.537963 kJ/mol
# GULP energy per Si atom -5568.835864 kJ/mol
# Density = 2.276749 g / cm^3
# Si number density = 22.819429 Si / 1000 Ang^3
#
#
#
# Elastic Constant Matrix: (Units=GPa)
#
#
# Indices 1 2 3 4 5 6 
#
# 1 76.6779 38.6954 9.6340 12.3755 15.6254 15.3091
# 2 38.6954 95.3513 16.9688 2.1894 6.1823 14.7341
# 3 9.6340 16.9688 67.4241 -1.7440 16.8343 4.6790
# 4 12.3755 2.1894 -1.7440 19.1450 3.3336 5.4547
# 5 15.6254 6.1823 16.8343 3.3336 23.7043 7.4010
# 6 15.3091 14.7341 4.6790 5.4547 7.4010 35.5772
#
#
#
# Elastic Compliance Matrix: (Units=1/GPa)
#
#
# Indices 1 2 3 4 5 6 
#
# 1 0.020880 -0.007451 0.001476 -0.009977 -0.010738 -0.002330
# 2 -0.007451 0.014308 -0.003242 0.003199 0.004172 -0.003652
# 3 0.001476 -0.003242 0.019066 0.003467 -0.014360 0.000656
# 4 -0.009977 0.003199 0.003467 0.060967 -0.003379 -0.006132
# 5 -0.010738 0.004172 -0.014360 -0.003379 0.061169 -0.007425
# 6 -0.002330 -0.003652 0.000656 -0.006132 -0.007425 0.033021
#
#
# Mechanical properties :
#
#
# Convention : Reuss Voigt Hill
#
# Bulk Modulus (GPa) = 27.91620 41.11662 34.51641
# Shear Modulus (GPa) = 20.85204 27.29566 24.07385
#
# Velocity S-wave (km/s) = 3.02617 3.46230 3.25156
# Velocity P-wave (km/s) = 4.94675 5.83445 5.40884
#
# Compressibility (1/GPa) = 0.03582149
#
# Stress axis : x y z
#
# Youngs Moduli (GPa) = 47.89339 69.88868 52.44928
#
# Poissons Ratio (x) = 0.52073 -0.07744
# Poissons Ratio (y) = 0.35685 0.17004
# Poissons Ratio (z) = -0.07071 0.22658
#
# Static dielectric constant tensor:
#      x y z
#    x 1.890450 -0.020830 -0.000550 
#    y -0.020830 1.884910 0.043500 
#    z -0.000550 0.043500 1.862790 
# 
# From -- ./inp_files/446363.got.cif
#   From: 2010.05.17/outbox.cif.g08.bks.cpg/sg2_224_cif.got.tgz:446363.got - 2010.06.03 11:33:40.
