data_PCOD9055074
_publ_section_title
;
Structure prediction by ZEFSAII (Michael W. Deem and Ramdas Pophale) SiO2 
 PCOD9055074
Probable space group: P -1
;
_chemical_formula_sum "Si O2"
_cell_formula_units_Z 16
_cell_length_a 18.176643
_cell_length_b 24.093375
_cell_length_c 15.040495
_cell_angle_alpha 159.706555
_cell_angle_beta 31.859218
_cell_angle_gamma 158.146854
_cell_volume 838.826374
_symmetry_space_group_name_H-M "P -1"
_symmetry_group_IT_number 2
_symmetry_cell_setting 'triclinic'
loop_
_space_group_symop_operation_xyz
x,y,z
-x,-y,-z
loop_
_atom_site_type_symbol
_atom_site_label
_atom_site_fract_x
_atom_site_fract_y
_atom_site_fract_z
Si Si1 0.865508 0.954887 0.149735
Si Si2 0.386452 0.588673 0.850986
Si Si3 0.053924 0.769766 0.919463
Si Si4 0.407886 0.966875 0.448661
Si Si5 0.318147 0.698295 0.491821
Si Si6 0.837761 0.738823 0.241619
Si Si7 0.492532 0.563761 0.203016
Si Si8 0.801665 0.801929 0.680026
O O1 0.766559 0.047551 0.377993
O O2 0.687499 0.680527 0.933357
O O3 0.009232 0.079541 0.274986
O O4 0.000000 0.000000 0.000000
O O5 0.293489 0.433703 0.801779
O O6 0.620476 0.733362 0.818979
O O7 0.281652 0.420362 0.620570
O O8 0.354820 0.752451 0.136878
O O9 0.233816 0.795261 0.760018
O O10 0.877411 0.569762 0.733282
O O11 0.957165 0.695338 0.004178
O O12 0.129734 0.008038 0.175400
O O13 0.500000 0.000000 0.500000
O O14 0.560606 0.174633 0.533334
O O15 0.445323 0.709995 0.452666
O O16 0.691290 0.694363 0.251108
O O17 0.000000 0.000000 0.500000
O O18 0.500000 0.500000 0.000000
#
# Coordination Sequence:
#
# PCOD9055074 Si02
#       8
#     2   2   2   2   2   2   2   2
#     4  12  25  40  69  99 131 169 222 278 324 391
#     4  11  25  42  67  93 138 177 213 270 337 398
#     4  11  21  40  65  97 125 170 221 267 323 385
#     4  12  24  41  62  99 136 168 218 277 337 387
#     4  11  23  38  69  95 130 169 225 278 322 383
#     4  12  24  42  67  95 130 175 220 268 328 395
#     4  12  22  42  65  98 126 171 222 266 326 385
#     4  11  22  44  66  96 129 179 220 260 334 403
#
# _framework density 19.074269000000001
#
# number of rings (size 3 to 8) (size 9 to 14) (size 15 to 20)
#    0.000    0.500    6.250    3.000    0.000    1.500 
#    0.000    0.625    0.000    0.000    0.000    0.000 
#    0.000    0.000    0.000    0.000    0.000    0.000 
#
# Total GULP energy -89426.601193 kJ/mol
# GULP energy per Si atom -5589.162575 kJ/mol
# Density = 1.903086 g / cm^3
# Si number density = 19.074269 Si / 1000 Ang^3
#
#
#
# Elastic Constant Matrix: (Units=GPa)
#
#
# Indices 1 2 3 4 5 6 
#
# 1 91.1631 49.5622 41.0307 -10.0811 -8.7574 15.4171
# 2 49.5622 123.9222 42.1259 -15.0564 -6.1074 -3.3753
# 3 41.0307 42.1259 110.2676 -12.4728 -12.3231 12.9660
# 4 -10.0811 -15.0564 -12.4728 43.8307 1.8417 -0.9156
# 5 -8.7574 -6.1074 -12.3231 1.8417 29.1581 -0.3018
# 6 15.4171 -3.3753 12.9660 -0.9156 -0.3018 36.0294
#
#
#
# Elastic Compliance Matrix: (Units=1/GPa)
#
#
# Indices 1 2 3 4 5 6 
#
# 1 0.016843 -0.005694 -0.002937 0.000838 0.002503 -0.006641
# 2 -0.005694 0.011601 -0.002671 0.002031 -0.000490 0.004532
# 3 -0.002937 -0.002671 0.012153 0.001647 0.003557 -0.003296
# 4 0.000838 0.002031 0.001647 0.024178 -0.000155 -0.000148
# 5 0.002503 -0.000490 0.003557 -0.000155 0.036436 -0.002096
# 6 -0.006641 0.004532 -0.003296 -0.000148 -0.002096 0.032186
#
#
# Mechanical properties :
#
#
# Convention : Reuss Voigt Hill
#
# Bulk Modulus (GPa) = 55.57386 65.64339 60.60863
# Shear Modulus (GPa) = 30.86458 34.64590 32.75524
#
# Velocity S-wave (km/s) = 4.02696 4.26651 4.14846
# Velocity P-wave (km/s) = 7.12886 7.66552 7.40205
#
# Compressibility (1/GPa) = 0.01799407
#
# Stress axis : x y z
#
# Youngs Moduli (GPa) = 59.37259 86.20116 82.28151
#
# Poissons Ratio (x) = 0.49080 0.24162
# Poissons Ratio (y) = 0.33804 0.21980
# Poissons Ratio (z) = 0.17435 0.23027
#
# Static dielectric constant tensor:
#      x y z
#    x 1.663680 -0.003730 -0.009310 
#    y -0.003730 1.680840 -0.012720 
#    z -0.009310 -0.012720 1.686360 
# 
# From -- ./inp_files/201979.got.cif
#   From: 2010.05.17/outbox.cif.g08.bks.cpg/sg2_101_cif.got.tgz:201979.got - 2010.06.03 11:33:40.
