data_PCOD9055270
_publ_section_title
;
Structure prediction by ZEFSAII (Michael W. Deem and Ramdas Pophale) SiO2 
 PCOD9055270
Probable space group: P -1
;
_chemical_formula_sum "Si O2"
_cell_formula_units_Z 16
_cell_length_a 19.128000
_cell_length_b 11.141534
_cell_length_c 9.301551
_cell_angle_alpha 72.378696
_cell_angle_beta 146.010253
_cell_angle_gamma 130.683748
_cell_volume 695.735885
_symmetry_space_group_name_H-M "P -1"
_symmetry_group_IT_number 2
_symmetry_cell_setting 'triclinic'
loop_
_space_group_symop_operation_xyz
x,y,z
-x,-y,-z
loop_
_atom_site_type_symbol
_atom_site_label
_atom_site_fract_x
_atom_site_fract_y
_atom_site_fract_z
Si Si1 0.660799 0.195393 0.617852
Si Si2 0.752909 0.445857 0.929710
Si Si3 0.473164 0.512527 0.651158
Si Si4 0.899685 0.912966 0.205930
Si Si5 0.514270 0.754168 0.195131
Si Si6 0.648895 0.418803 0.327320
Si Si7 0.938958 0.195080 0.016343
Si Si8 0.913269 0.133612 0.671269
O O1 0.775362 0.358328 0.876839
O O2 0.584688 0.242836 0.362226
O O3 0.500000 0.000000 0.500000
O O4 0.789809 0.194372 0.754892
O O5 0.633337 0.469012 0.640697
O O6 0.625154 0.304032 0.896780
O O7 0.958617 0.655315 0.247218
O O8 0.400768 0.315588 0.579341
O O9 0.441003 0.536601 0.749681
O O10 0.699439 0.689059 0.949384
O O11 0.037649 0.946602 0.317465
O O12 0.860234 0.022755 0.040880
O O13 0.000000 0.000000 0.500000
O O14 0.687367 0.973275 0.362380
O O15 0.401074 0.629297 0.905506
O O16 0.872038 0.607062 0.662624
O O17 0.981842 0.174594 0.938652
#
# Coordination Sequence:
#
# PCOD9055270 Si02
#       8
#     2   2   2   2   2   2   2   2
#     4  11  24  48  73  95 132 183 238 278 335 413
#     4  11  25  44  68 104 135 182 233 280 334 416
#     4  11  21  41  65  96 144 180 223 275 338 411
#     4  12  25  41  68 108 141 176 224 283 349 405
#     4  12  24  42  67 102 143 177 219 290 351 394
#     4  11  24  43  66 100 135 176 231 286 340 399
#     4  12  24  44  73  95 134 184 231 279 334 411
#     4  12  25  42  71 102 138 177 233 274 341 410
#
# _framework density 22.997233000000001
#
# number of rings (size 3 to 8) (size 9 to 14) (size 15 to 20)
#    0.000    0.500    3.750    6.750    1.750    0.000 
#    0.000    4.375    0.000    0.000    0.000    0.000 
#    0.000    0.000    0.000    0.000    0.000    0.000 
#
# Total GULP energy -89583.898878 kJ/mol
# GULP energy per Si atom -5598.993680 kJ/mol
# Density = 2.294489 g / cm^3
# Si number density = 22.997233 Si / 1000 Ang^3
#
#
#
# Elastic Constant Matrix: (Units=GPa)
#
#
# Indices 1 2 3 4 5 6 
#
# 1 131.7454 10.3250 23.9578 -5.1068 -5.0894 5.4106
# 2 10.3250 65.7757 3.2844 16.2653 12.5459 -1.0914
# 3 23.9578 3.2844 64.6799 28.6277 -8.6466 13.4054
# 4 -5.1068 16.2653 28.6277 31.0573 6.6515 7.0894
# 5 -5.0894 12.5459 -8.6466 6.6515 31.7605 10.7572
# 6 5.4106 -1.0914 13.4054 7.0894 10.7572 30.8681
#
#
#
# Elastic Compliance Matrix: (Units=1/GPa)
#
#
# Indices 1 2 3 4 5 6 
#
# 1 0.010051 -0.003888 -0.009563 0.012963 -0.002184 0.000038
# 2 -0.003888 0.020823 0.006678 -0.017646 -0.004768 0.004232
# 3 -0.009563 0.006678 0.047723 -0.050766 0.024804 -0.015798
# 4 0.012963 -0.017646 -0.050766 0.094571 -0.026882 0.006799
# 5 -0.002184 -0.004768 0.024804 -0.026882 0.053161 -0.022910
# 6 0.000038 0.004232 -0.015798 0.006799 -0.022910 0.045822
#
#
# Mechanical properties :
#
#
# Convention : Reuss Voigt Hill
#
# Bulk Modulus (GPa) = 15.37238 37.48172 26.42705
# Shear Modulus (GPa) = 16.26647 33.71276 24.98961
#
# Velocity S-wave (km/s) = 2.66244 3.83292 3.29999
# Velocity P-wave (km/s) = 4.01876 5.99351 5.10258
#
# Compressibility (1/GPa) = 0.06505175
#
# Stress axis : x y z
#
# Youngs Moduli (GPa) = 99.49623 48.02325 20.95421
#
# Poissons Ratio (x) = 0.18673 0.20038
# Poissons Ratio (y) = 0.38688 -0.13994
# Poissons Ratio (z) = 0.95145 -0.32072
#
# Static dielectric constant tensor:
#      x y z
#    x 1.841120 0.004830 0.003650 
#    y 0.004830 1.891710 0.016900 
#    z 0.003650 0.016900 1.849070 
# 
# From -- ./inp_files/333307.got.cif
#   From: 2010.05.17/outbox.cif.g08.bks.cpg/sg2_167_cif.got.tgz:333307.got - 2010.06.03 11:33:40.
