data_PCOD9055237
_publ_section_title
;
Structure prediction by ZEFSAII (Michael W. Deem and Ramdas Pophale) SiO2 
 PCOD9055237
Probable space group: P -1
;
_chemical_formula_sum "Si O2"
_cell_formula_units_Z 14
_cell_length_a 9.520416
_cell_length_b 22.213450
_cell_length_c 8.356205
_cell_angle_alpha 43.774874
_cell_angle_beta 147.766719
_cell_angle_gamma 122.580173
_cell_volume 639.445691
_symmetry_space_group_name_H-M "P -1"
_symmetry_group_IT_number 2
_symmetry_cell_setting 'triclinic'
loop_
_space_group_symop_operation_xyz
x,y,z
-x,-y,-z
loop_
_atom_site_type_symbol
_atom_site_label
_atom_site_fract_x
_atom_site_fract_y
_atom_site_fract_z
Si Si1 0.269264 0.255169 0.859774
Si Si2 0.782259 0.942587 0.444093
Si Si3 0.125848 0.262252 0.078553
Si Si4 0.710994 0.557764 0.650437
Si Si5 0.754757 0.009416 0.625240
Si Si6 0.201418 0.803415 0.671920
Si Si7 0.418113 0.668626 0.420579
O O1 0.278823 0.351224 0.609119
O O2 0.081141 0.206995 0.657065
O O3 0.162187 0.265100 0.917227
O O4 0.578457 0.205082 0.241725
O O5 0.863628 0.840666 0.663489
O O6 0.776742 0.941145 0.633864
O O7 0.000000 0.000000 0.500000
O O8 0.500000 0.000000 0.000000
O O9 0.380580 0.287693 0.363108
O O10 0.850934 0.328126 0.740584
O O11 0.500000 0.500000 0.500000
O O12 0.611015 0.584556 0.684101
O O13 0.000000 0.500000 0.000000
O O14 0.760751 0.106922 0.375835
O O15 0.500000 0.000000 0.500000
O O16 0.000000 0.000000 0.000000
O O17 0.293220 0.726029 0.036175
#
# Coordination Sequence:
#
# PCOD9055237 Si02
#       7
#     2   2   2   2   2   2   2
#     4  11  24  41  67  93 125 167 204 258 318 369
#     4  12  25  40  60  89 128 174 214 264 314 353
#     4  12  23  42  61  94 131 164 211 259 309 373
#     4  11  23  45  70  96 123 157 203 253 312 391
#     4  12  24  38  59  89 123 166 218 271 309 346
#     4  11  21  41  61  88 122 170 220 252 300 378
#     4  11  24  41  67  91 122 166 203 249 312 382
#
# _framework density 21.893962999999999
#
# number of rings (size 3 to 8) (size 9 to 14) (size 15 to 20)
#    0.000    0.571    0.000   11.143    0.000    0.000 
#    0.000    4.286    0.000    0.000    0.000    0.000 
#    0.000    0.000    0.000    0.000    0.000    0.000 
#
# Total GULP energy -78220.265781 kJ/mol
# GULP energy per Si atom -5587.161842 kJ/mol
# Density = 2.184413 g / cm^3
# Si number density = 21.893963 Si / 1000 Ang^3
#
#
#
# Elastic Constant Matrix: (Units=GPa)
#
#
# Indices 1 2 3 4 5 6 
#
# 1 103.2997 11.2199 17.1772 12.7651 21.4136 -8.8694
# 2 11.2199 97.0581 26.5962 20.8096 5.4676 4.7488
# 3 17.1772 26.5962 94.0084 26.4144 27.3013 1.7365
# 4 12.7651 20.8096 26.4144 49.5143 0.6311 6.4405
# 5 21.4136 5.4676 27.3013 0.6311 34.4911 5.9266
# 6 -8.8694 4.7488 1.7365 6.4405 5.9266 40.0517
#
#
#
# Elastic Compliance Matrix: (Units=1/GPa)
#
#
# Indices 1 2 3 4 5 6 
#
# 1 0.012477 -0.000703 0.001991 -0.004501 -0.009981 0.004961
# 2 -0.000703 0.011783 -0.002472 -0.003328 0.000762 -0.001023
# 3 0.001991 -0.002472 0.018092 -0.009418 -0.015642 0.003779
# 4 -0.004501 -0.003328 -0.009418 0.028474 0.011365 -0.006454
# 5 -0.009981 0.000762 -0.015642 0.011365 0.049082 -0.010713
# 6 0.004961 -0.001023 0.003779 -0.006454 -0.010713 0.028647
#
#
# Mechanical properties :
#
#
# Convention : Reuss Voigt Hill
#
# Bulk Modulus (GPa) = 25.01118 44.92809 34.96963
# Shear Modulus (GPa) = 30.44101 40.76962 35.60532
#
# Velocity S-wave (km/s) = 3.73283 4.31993 4.03707
# Velocity P-wave (km/s) = 5.47971 6.74149 6.14309
#
# Compressibility (1/GPa) = 0.03998211
#
# Stress axis : x y z
#
# Youngs Moduli (GPa) = 80.14732 84.87109 55.27302
#
# Poissons Ratio (x) = 0.05969 -0.11004
# Poissons Ratio (y) = 0.05636 0.13665
# Poissons Ratio (z) = -0.15956 0.20982
#
# Static dielectric constant tensor:
#      x y z
#    x 1.855190 0.021470 -0.062550 
#    y 0.021470 1.880720 -0.194450 
#    z -0.062550 -0.194450 2.039880 
# 
# From -- ./inp_files/115930.got.cif
#   From: 2010.05.17/outbox.cif.g08.bks.cpg/sg2_58_cif.got.tgz:115930.got - 2010.06.03 11:33:40.
