data_PCOD9055625
_publ_section_title
;
Structure prediction by ZEFSAII (Michael W. Deem and Ramdas Pophale) SiO2 
 PCOD9055625
Probable space group: P -1
;
_chemical_formula_sum "Si O2"
_cell_formula_units_Z 13
_cell_length_a 11.719970
_cell_length_b 15.506474
_cell_length_c 8.091374
_cell_angle_alpha 92.665910
_cell_angle_beta 67.964037
_cell_angle_gamma 152.908150
_cell_volume 454.540930
_symmetry_space_group_name_H-M "P -1"
_symmetry_group_IT_number 2
_symmetry_cell_setting 'triclinic'
loop_
_space_group_symop_operation_xyz
x,y,z
-x,-y,-z
loop_
_atom_site_type_symbol
_atom_site_label
_atom_site_fract_x
_atom_site_fract_y
_atom_site_fract_z
Si Si1 0.146588 0.966256 0.160216
Si Si2 0.203493 0.284803 0.334862
Si Si3 0.595099 0.698908 0.235127
Si Si4 0.704996 0.452721 0.077369
Si Si5 0.527876 0.230314 0.473882
Si Si6 0.460405 0.009187 0.834286
Si Si7 0.500000 0.000000 0.500000
O O1 0.465448 0.247114 0.050435
O O2 0.047088 0.860546 0.381650
O O3 0.747857 0.735786 0.298964
O O4 0.335878 0.023628 0.940729
O O5 0.415276 0.511493 0.191725
O O6 0.478668 0.388663 0.237702
O O7 0.908317 0.052003 0.348047
O O8 0.385147 0.641910 0.421268
O O9 0.000000 0.000000 0.000000
O O10 0.723969 0.399720 0.218673
O O11 0.128222 0.762847 0.852896
O O12 0.585354 0.168109 0.466263
O O13 0.741483 0.157729 0.563255
O O14 0.500000 0.000000 0.000000
#
# Coordination Sequence:
#
# PCOD9055625 Si02
#       7
#     2   2   2   2   2   2   1
#     4  11  21  42  72 109 139 187 249 304 373 445
#     4  11  21  42  74 111 145 186 244 314 379 447
#     4  12  23  36  64 106 142 186 240 302 378 433
#     4  11  22  44  79 109 145 196 251 311 380 448
#     4  11  24  45  70 103 148 193 243 310 374 443
#     4  12  27  49  75 105 153 206 254 302 372 452
#     4  12  30  52  68 106 160 198 256 306 362 452
#
# _framework density 28.600282
#
# number of rings (size 3 to 8) (size 9 to 14) (size 15 to 20)
#    0.000    0.615    4.615    5.077    0.000    4.308 
#    0.000    5.385    0.000    0.000    0.000    0.000 
#    0.000    0.000    0.000    0.000    0.000    0.000 
#
# Total GULP energy -72515.304146 kJ/mol
# GULP energy per Si atom -5578.100319 kJ/mol
# Density = 2.853519 g / cm^3
# Si number density = 28.600282 Si / 1000 Ang^3
#
#
#
# Elastic Constant Matrix: (Units=GPa)
#
#
# Indices 1 2 3 4 5 6 
#
# 1 159.1268 47.2512 27.8483 16.9445 6.4232 -36.7821
# 2 47.2512 221.0912 62.4183 13.4511 -14.5035 -37.5771
# 3 27.8483 62.4183 79.4258 28.4394 12.2222 -23.2286
# 4 16.9445 13.4511 28.4394 72.7647 -7.9978 -7.7822
# 5 6.4232 -14.5035 12.2222 -7.9978 43.0009 4.1251
# 6 -36.7821 -37.5771 -23.2286 -7.7822 4.1251 60.9264
#
#
#
# Elastic Compliance Matrix: (Units=1/GPa)
#
#
# Indices 1 2 3 4 5 6 
#
# 1 0.007758 -0.001081 0.000196 -0.001497 -0.002246 0.004053
# 2 -0.001081 0.006829 -0.006012 0.001955 0.004421 0.001218
# 3 0.000196 -0.006012 0.023523 -0.008788 -0.010856 0.004991
# 4 -0.001497 0.001955 -0.008788 0.017780 0.006806 -0.001238
# 5 -0.002246 0.004421 -0.010856 0.006806 0.029809 -0.003918
# 6 0.004053 0.001218 0.004991 -0.001238 -0.003918 0.021621
#
#
# Mechanical properties :
#
#
# Convention : Reuss Voigt Hill
#
# Bulk Modulus (GPa) = 41.12409 81.63107 61.37758
# Shear Modulus (GPa) = 38.69364 56.81346 47.75355
#
# Velocity S-wave (km/s) = 3.68218 4.46181 4.09061
# Velocity P-wave (km/s) = 5.69983 7.42615 6.61951
#
# Compressibility (1/GPa) = 0.02431665
#
# Stress axis : x y z
#
# Youngs Moduli (GPa) = 128.90394 146.42580 42.51124
#
# Poissons Ratio (x) = 0.15827 -0.00834
# Poissons Ratio (y) = 0.13933 0.25559
# Poissons Ratio (z) = -0.02530 0.88034
#
# Static dielectric constant tensor:
#      x y z
#    x 11.342760 0.082270 2.079640 
#    y 0.082270 2.172530 -0.013900 
#    z 2.079640 -0.013900 2.969600 
# 
# From -- ./inp_files/236110.got.cif
#   From: 2010.05.17/outbox.cif.g08.bks.cpg/sg2_119_cif.got.tgz:236110.got - 2010.06.03 11:33:40.
