data_PCOD9055409
_publ_section_title
;
Structure prediction by ZEFSAII (Michael W. Deem and Ramdas Pophale) SiO2 
 PCOD9055409
Probable space group: P -1
;
_chemical_formula_sum "Si O2"
_cell_formula_units_Z 16
_cell_length_a 13.284326
_cell_length_b 11.913980
_cell_length_c 9.911477
_cell_angle_alpha 115.468246
_cell_angle_beta 84.611390
_cell_angle_gamma 147.325566
_cell_volume 638.570092
_symmetry_space_group_name_H-M "P -1"
_symmetry_group_IT_number 2
_symmetry_cell_setting 'triclinic'
loop_
_space_group_symop_operation_xyz
x,y,z
-x,-y,-z
loop_
_atom_site_type_symbol
_atom_site_label
_atom_site_fract_x
_atom_site_fract_y
_atom_site_fract_z
Si Si1 0.903455 0.028126 0.186660
Si Si2 0.969744 0.773049 0.424270
Si Si3 0.573796 0.667903 0.414936
Si Si4 0.820422 0.265877 0.627618
Si Si5 0.477471 0.287371 0.276760
Si Si6 0.546406 0.129029 0.769166
Si Si7 0.272582 0.420694 0.104889
Si Si8 0.755417 0.103988 0.110002
O O1 0.005035 0.171452 0.391639
O O2 0.741158 0.961503 0.126003
O O3 0.091011 0.231228 0.150409
O O4 0.792044 0.770410 0.071629
O O5 0.050539 0.721055 0.363034
O O6 0.711426 0.510374 0.291871
O O7 0.160193 0.061933 0.473548
O O8 0.439404 0.392304 0.305279
O O9 0.512297 0.696592 0.555030
O O10 0.503738 0.645551 0.269304
O O11 0.685823 0.163293 0.722865
O O12 0.004003 0.572393 0.733665
O O13 0.648364 0.072152 0.424200
O O14 0.295346 0.998289 0.086299
O O15 0.703315 0.422487 0.891118
O O16 0.424104 0.997251 0.859139
#
# Coordination Sequence:
#
# PCOD9055409 Si02
#       8
#     2   2   2   2   2   2   2   2
#     4  11  23  39  72 105 133 164 219 279 331 387
#     4  12  25  44  70  95 130 183 218 265 324 404
#     4  11  23  44  67  96 134 174 216 269 335 393
#     4  11  25  42  67  99 133 173 222 275 321 381
#     4  11  27  44  65  96 137 174 216 273 330 387
#     4  11  24  41  71 101 131 173 216 278 330 384
#     4  11  21  41  71 104 135 164 217 280 331 388
#     4  12  24  43  66 100 133 174 222 271 325 390
#
# _framework density 25.055978
#
# number of rings (size 3 to 8) (size 9 to 14) (size 15 to 20)
#    0.000    0.750    6.250    0.750    1.750    3.500 
#    0.000    1.250    0.000    0.000    0.000    0.000 
#    0.000    0.000    0.000    0.000    0.000    0.000 
#
# Total GULP energy -89659.234579 kJ/mol
# GULP energy per Si atom -5603.702161 kJ/mol
# Density = 2.499895 g / cm^3
# Si number density = 25.055978 Si / 1000 Ang^3
#
#
#
# Elastic Constant Matrix: (Units=GPa)
#
#
# Indices 1 2 3 4 5 6 
#
# 1 81.1565 20.5748 37.2875 -4.1406 -29.9353 8.7022
# 2 20.5748 75.0988 19.0168 6.6217 -15.0110 23.7262
# 3 37.2875 19.0168 98.6061 3.7205 -33.3911 5.6430
# 4 -4.1406 6.6217 3.7205 34.0018 0.7256 -6.8585
# 5 -29.9353 -15.0110 -33.3911 0.7256 35.6269 -2.5697
# 6 8.7022 23.7262 5.6430 -6.8585 -2.5697 37.2009
#
#
#
# Elastic Compliance Matrix: (Units=1/GPa)
#
#
# Indices 1 2 3 4 5 6 
#
# 1 0.018852 -0.001686 -0.002532 0.002298 0.012590 -0.001657
# 2 -0.001686 0.019705 -0.000150 -0.006773 0.005946 -0.012988
# 3 -0.002532 -0.000150 0.015438 -0.002485 0.012238 -0.001266
# 4 0.002298 -0.006773 -0.002485 0.033385 -0.003204 0.010093
# 5 0.012590 0.005946 0.012238 -0.003204 0.052286 -0.005573
# 6 -0.001657 -0.012988 -0.001266 0.010093 -0.005573 0.037220
#
#
# Mechanical properties :
#
#
# Convention : Reuss Voigt Hill
#
# Bulk Modulus (GPa) = 22.09565 45.40217 33.74891
# Shear Modulus (GPa) = 24.91174 33.23140 29.07157
#
# Velocity S-wave (km/s) = 3.15658 3.64577 3.40996
# Velocity P-wave (km/s) = 4.70351 5.99015 5.38539
#
# Compressibility (1/GPa) = 0.04525777
#
# Stress axis : x y z
#
# Youngs Moduli (GPa) = 53.04601 50.74868 64.77483
#
# Poissons Ratio (x) = 0.08557 0.16401
# Poissons Ratio (y) = 0.08945 0.00973
# Poissons Ratio (z) = 0.13431 0.00763
#
# Static dielectric constant tensor:
#      x y z
#    x 1.983490 0.024150 -0.001350 
#    y 0.024150 2.012240 0.026640 
#    z -0.001350 0.026640 1.914690 
# 
# From -- ./inp_files/455878.got.cif
#   From: 2010.05.17/outbox.cif.g08.bks.cpg/sg2_228_cif.got.tgz:455878.got - 2010.06.03 11:33:40.
