data_PCOD9055223
_publ_section_title
;
Structure prediction by ZEFSAII (Michael W. Deem and Ramdas Pophale) SiO2 
 PCOD9055223
Probable space group: P -1
;
_chemical_formula_sum "Si O2"
_cell_formula_units_Z 12
_cell_length_a 7.028431
_cell_length_b 7.568630
_cell_length_c 16.715476
_cell_angle_alpha 139.991747
_cell_angle_beta 110.542753
_cell_angle_gamma 63.701684
_cell_volume 512.388266
_symmetry_space_group_name_H-M "P -1"
_symmetry_group_IT_number 2
_symmetry_cell_setting 'triclinic'
loop_
_space_group_symop_operation_xyz
x,y,z
-x,-y,-z
loop_
_atom_site_type_symbol
_atom_site_label
_atom_site_fract_x
_atom_site_fract_y
_atom_site_fract_z
Si Si1 0.571782 0.261324 0.227537
Si Si2 0.537755 0.171596 0.666398
Si Si3 0.057252 0.292676 0.596284
Si Si4 0.600052 0.201553 0.869194
Si Si5 0.712104 0.518845 0.489481
Si Si6 0.036844 0.881575 0.874078
O O1 0.410201 0.563976 0.279212
O O2 0.712018 0.334060 0.345944
O O3 0.462119 0.040691 0.172119
O O4 0.268337 0.859810 0.864217
O O5 0.510272 0.232269 0.777553
O O6 0.312092 0.183967 0.599600
O O7 0.683083 0.847727 0.575799
O O8 0.912924 0.419800 0.542339
O O9 0.011454 0.562426 0.745083
O O10 0.000000 0.000000 0.500000
O O11 0.500000 0.500000 0.000000
O O12 0.854875 0.100762 0.870993
O O13 0.500000 0.500000 0.500000
O O14 0.000000 0.000000 0.000000
#
# Coordination Sequence:
#
# PCOD9055223 Si02
#       6
#     2   2   2   2   2   2
#     4  11  26  47  75 107 148 197 246 303 382 435
#     4  11  24  43  71 109 147 194 242 308 369 443
#     4  11  21  40  73 107 146 192 240 307 366 432
#     4  12  25  49  75 105 151 195 251 309 364 450
#     4  12  21  44  73 108 153 191 244 309 373 437
#     4  11  26  47  73 107 151 194 250 305 368 447
#
# _framework density 23.419740999999998
#
# number of rings (size 3 to 8) (size 9 to 14) (size 15 to 20)
#    0.000    0.667    5.000    2.500    0.000    6.000 
#    3.000    3.333    0.000    0.000    0.000    0.000 
#    0.000    0.000    0.000    0.000    0.000    0.000 
#
# Total GULP energy -67129.808289 kJ/mol
# GULP energy per Si atom -5594.150691 kJ/mol
# Density = 2.336644 g / cm^3
# Si number density = 23.419741 Si / 1000 Ang^3
#
#
#
# Elastic Constant Matrix: (Units=GPa)
#
#
# Indices 1 2 3 4 5 6 
#
# 1 58.7948 36.7994 16.5967 -12.9584 -0.6842 -1.7844
# 2 36.7994 204.1297 64.2223 5.5842 5.4787 -2.9711
# 3 16.5967 64.2223 110.1777 9.8206 -22.5234 18.1014
# 4 -12.9584 5.5842 9.8206 49.0201 14.2816 -6.0179
# 5 -0.6842 5.4787 -22.5234 14.2816 37.4670 2.2640
# 6 -1.7844 -2.9711 18.1014 -6.0179 2.2640 46.5478
#
#
#
# Elastic Compliance Matrix: (Units=1/GPa)
#
#
# Indices 1 2 3 4 5 6 
#
# 1 0.021913 -0.002642 -0.004300 0.009009 -0.005460 0.003774
# 2 -0.002642 0.007238 -0.005474 0.001423 -0.005116 0.002922
# 3 -0.004300 -0.005474 0.018883 -0.010370 0.016631 -0.010007
# 4 0.009009 0.001423 -0.010370 0.031329 -0.018789 0.009433
# 5 -0.005460 -0.005116 0.016631 -0.018789 0.045201 -0.011631
# 6 0.003774 0.002922 -0.010007 0.009433 -0.011631 0.027491
#
#
# Mechanical properties :
#
#
# Convention : Reuss Voigt Hill
#
# Bulk Modulus (GPa) = 43.10116 67.59322 55.34719
# Shear Modulus (GPa) = 27.08248 43.63924 35.36086
#
# Velocity S-wave (km/s) = 3.40427 4.32134 3.88993
# Velocity P-wave (km/s) = 5.82201 7.33641 6.62264
#
# Compressibility (1/GPa) = 0.02320123
#
# Stress axis : x y z
#
# Youngs Moduli (GPa) = 45.63597 138.15274 52.95790
#
# Poissons Ratio (x) = 0.36507 0.22771
# Poissons Ratio (y) = 0.12059 0.28989
# Poissons Ratio (z) = 0.19622 0.75625
#
# Static dielectric constant tensor:
#      x y z
#    x 2.092840 0.048690 -0.063150 
#    y 0.048690 1.869680 0.011100 
#    z -0.063150 0.011100 1.907000 
# 
# From -- ./inp_files/191716.got.cif
#   From: 2010.05.17/outbox.cif.g08.bks.cpg/sg2_96_cif.got.tgz:191716.got - 2010.06.03 11:33:40.
