data_PCOD9055475
_publ_section_title
;
Structure prediction by ZEFSAII (Michael W. Deem and Ramdas Pophale) SiO2 
 PCOD9055475
Probable space group: P -1
;
_chemical_formula_sum "Si O2"
_cell_formula_units_Z 12
_cell_length_a 5.431565
_cell_length_b 11.774553
_cell_length_c 15.281761
_cell_angle_alpha 142.335741
_cell_angle_beta 67.239536
_cell_angle_gamma 125.152174
_cell_volume 483.608652
_symmetry_space_group_name_H-M "P -1"
_symmetry_group_IT_number 2
_symmetry_cell_setting 'triclinic'
loop_
_space_group_symop_operation_xyz
x,y,z
-x,-y,-z
loop_
_atom_site_type_symbol
_atom_site_label
_atom_site_fract_x
_atom_site_fract_y
_atom_site_fract_z
Si Si1 0.656712 0.921995 0.529420
Si Si2 0.833032 0.347710 0.171089
Si Si3 0.729984 0.660798 0.497991
Si Si4 0.411810 0.052251 0.917914
Si Si5 0.936617 0.928350 0.195112
Si Si6 0.578290 0.305522 0.760468
O O1 0.567493 0.760756 0.522437
O O2 0.484432 0.792298 0.388150
O O3 0.660013 0.135926 0.690331
O O4 0.000000 0.000000 0.500000
O O5 0.830323 0.530280 0.341162
O O6 0.143728 0.460874 0.141988
O O7 0.791070 0.156793 0.123695
O O8 0.544470 0.252457 0.087465
O O9 0.500000 0.500000 0.500000
O O10 0.000639 0.860038 0.630020
O O11 0.229198 0.069209 0.870761
O O12 0.727164 0.046372 0.849113
O O13 0.719827 0.733301 0.169128
#
# Coordination Sequence:
#
# PCOD9055475 Si02
#       6
#     2   2   2   2   2   2
#     4  11  21  42  66 109 153 181 240 308 376 431
#     4  11  26  48  72 108 144 205 237 299 377 438
#     4  12  24  43  78 110 140 194 249 308 361 433
#     4  11  29  50  72 106 158 192 246 300 368 447
#     4  12  26  49  74 112 146 191 249 311 356 437
#     4  11  24  41  73 106 146 197 238 306 369 437
#
# _framework density 24.813451000000001
#
# number of rings (size 3 to 8) (size 9 to 14) (size 15 to 20)
#    0.000    0.667    5.000    2.000    2.333    6.000 
#    0.000    0.000    0.000    0.000    0.000    0.000 
#    0.000    0.000    0.000    0.000    0.000    0.000 
#
# Total GULP energy -67207.416473 kJ/mol
# GULP energy per Si atom -5600.618039 kJ/mol
# Density = 2.475697 g / cm^3
# Si number density = 24.813451 Si / 1000 Ang^3
#
#
#
# Elastic Constant Matrix: (Units=GPa)
#
#
# Indices 1 2 3 4 5 6 
#
# 1 94.2171 56.3116 39.6477 -3.6033 8.9187 -1.5836
# 2 56.3116 206.9560 33.5112 14.5645 4.5467 3.4071
# 3 39.6477 33.5112 126.2385 -2.9789 18.0014 4.9324
# 4 -3.6033 14.5645 -2.9789 42.5524 2.7503 8.3502
# 5 8.9187 4.5467 18.0014 2.7503 35.8550 -12.3598
# 6 -1.5836 3.4071 4.9324 8.3502 -12.3598 44.3735
#
#
#
# Elastic Compliance Matrix: (Units=1/GPa)
#
#
# Indices 1 2 3 4 5 6 
#
# 1 0.014329 -0.003489 -0.003317 0.002213 -0.001520 0.000308
# 2 -0.003489 0.006047 -0.000670 -0.002484 0.000677 0.000142
# 3 -0.003317 -0.000670 0.010045 0.001570 -0.005269 -0.002947
# 4 0.002213 -0.002484 0.001570 0.026218 -0.005203 -0.006288
# 5 -0.001520 0.000677 -0.005269 -0.005203 0.035100 0.011235
# 6 0.000308 0.000142 -0.002947 -0.006288 0.011235 0.027176
#
#
# Mechanical properties :
#
#
# Convention : Reuss Voigt Hill
#
# Bulk Modulus (GPa) = 64.64868 76.26141 70.45504
# Shear Modulus (GPa) = 35.96500 44.41891 40.19196
#
# Velocity S-wave (km/s) = 3.81125 4.23556 4.02900
# Velocity P-wave (km/s) = 6.74373 7.39734 7.07808
#
# Compressibility (1/GPa) = 0.01546822
#
# Stress axis : x y z
#
# Youngs Moduli (GPa) = 69.79003 165.35992 99.55394
#
# Poissons Ratio (x) = 0.57695 0.33023
# Poissons Ratio (y) = 0.24350 0.06672
# Poissons Ratio (z) = 0.23150 0.11082
#
# Static dielectric constant tensor:
#      x y z
#    x 2.580440 0.231890 0.011370 
#    y 0.231890 2.042150 -0.023060 
#    z 0.011370 -0.023060 1.991190 
# 
# From -- ./inp_files/28068.got.cif
#   From: 2010.05.17/outbox.cif.g08.bks.cpg/sg2_15_cif.got.tgz:28068.got - 2010.06.03 11:33:40.
