data_PCOD9055478
_publ_section_title
;
Structure prediction by ZEFSAII (Michael W. Deem and Ramdas Pophale) SiO2 
 PCOD9055478
Probable space group: P -1
;
_chemical_formula_sum "Si O2"
_cell_formula_units_Z 12
_cell_length_a 9.970771
_cell_length_b 9.430085
_cell_length_c 12.687316
_cell_angle_alpha 143.512028
_cell_angle_beta 76.971544
_cell_angle_gamma 117.016684
_cell_volume 609.574439
_symmetry_space_group_name_H-M "P -1"
_symmetry_group_IT_number 2
_symmetry_cell_setting 'triclinic'
loop_
_space_group_symop_operation_xyz
x,y,z
-x,-y,-z
loop_
_atom_site_type_symbol
_atom_site_label
_atom_site_fract_x
_atom_site_fract_y
_atom_site_fract_z
Si Si1 0.878026 0.663175 0.512538
Si Si2 0.136958 0.208202 0.171868
Si Si3 0.784517 0.200513 0.539485
Si Si4 0.362075 0.212660 0.494786
Si Si5 0.376381 0.912191 0.716872
Si Si6 0.551964 0.791760 0.914483
O O1 0.919038 0.769331 0.688178
O O2 0.773282 0.780639 0.547465
O O3 0.768170 0.340379 0.351230
O O4 0.037258 0.740311 0.469713
O O5 0.209793 0.508066 0.288705
O O6 0.275367 0.132264 0.109627
O O7 0.000000 0.000000 0.000000
O O8 0.686589 0.051720 0.363193
O O9 0.707582 0.029812 0.554284
O O10 0.492882 0.183271 0.385464
O O11 0.441820 0.492459 0.712979
O O12 0.440345 0.164202 0.934718
O O13 0.500000 0.000000 0.000000
#
# Coordination Sequence:
#
# PCOD9055478 Si02
#       6
#     2   2   2   2   2   2
#     4  11  21  42  66  90 128 171 208 255 312 380
#     4  11  23  42  67  93 125 167 220 255 303 387
#     4  11  24  42  64  94 133 165 204 269 321 359
#     4  12  24  43  64  97 133 160 207 271 316 365
#     4  11  22  42  68  90 125 169 219 250 311 381
#     4  12  23  39  69  96 122 168 216 255 308 381
#
# _framework density 19.685863999999999
#
# number of rings (size 3 to 8) (size 9 to 14) (size 15 to 20)
#    0.000    0.667    5.000    6.500    0.000    0.667 
#    3.000    0.833    0.000    0.000    0.000    0.000 
#    0.000    0.000    0.000    0.000    0.000    0.000 
#
# Total GULP energy -67134.387753 kJ/mol
# GULP energy per Si atom -5594.532313 kJ/mol
# Density = 1.964106 g / cm^3
# Si number density = 19.685864 Si / 1000 Ang^3
#
#
#
# Elastic Constant Matrix: (Units=GPa)
#
#
# Indices 1 2 3 4 5 6 
#
# 1 102.7776 -5.1266 0.3372 3.6234 -4.6777 12.5706
# 2 -5.1266 49.2641 4.4832 1.6410 5.8927 1.9319
# 3 0.3372 4.4832 94.3797 -5.4600 6.5984 16.2332
# 4 3.6234 1.6410 -5.4600 8.8305 -3.6810 2.8021
# 5 -4.6777 5.8927 6.5984 -3.6810 32.8633 -10.6344
# 6 12.5706 1.9319 16.2332 2.8021 -10.6344 23.7428
#
#
#
# Elastic Compliance Matrix: (Units=1/GPa)
#
#
# Indices 1 2 3 4 5 6 
#
# 1 0.010659 0.001539 0.001021 -0.002466 -0.001449 -0.006824
# 2 0.001539 0.021509 -0.000242 -0.005773 -0.005604 -0.004228
# 3 0.001021 -0.000242 0.014027 0.010238 -0.006016 -0.014014
# 4 -0.002466 -0.005773 0.010238 0.130303 0.007668 -0.017168
# 5 -0.001449 -0.005604 -0.006016 0.007668 0.040615 0.022622
# 6 -0.006824 -0.004228 -0.014014 -0.017168 0.022622 0.067815
#
#
# Mechanical properties :
#
#
# Convention : Reuss Voigt Hill
#
# Bulk Modulus (GPa) = 19.67283 27.31212 23.49247
# Shear Modulus (GPa) = 16.82171 29.53584 23.17877
#
# Velocity S-wave (km/s) = 2.92637 3.87765 3.43510
# Velocity P-wave (km/s) = 4.62960 5.82686 5.26239
#
# Compressibility (1/GPa) = 0.05083152
#
# Stress axis : x y z
#
# Youngs Moduli (GPa) = 93.81830 46.49135 71.29332
#
# Poissons Ratio (x) = -0.07156 -0.07280
# Poissons Ratio (y) = -0.14442 0.01726
# Poissons Ratio (z) = -0.09581 0.01126
#
# Static dielectric constant tensor:
#      x y z
#    x 1.697820 -0.011440 0.006090 
#    y -0.011440 1.660240 -0.008180 
#    z 0.006090 -0.008180 1.690320 
# 
# From -- ./inp_files/145011.got.cif
#   From: 2010.05.17/outbox.cif.g08.bks.cpg/sg2_73_cif.got.tgz:145011.got - 2010.06.03 11:33:40.
