data_PCOD9055151
_publ_section_title
;
Structure prediction by ZEFSAII (Michael W. Deem and Ramdas Pophale) SiO2 
 PCOD9055151
Probable space group: P -1
;
_chemical_formula_sum "Si O2"
_cell_formula_units_Z 14
_cell_length_a 5.465518
_cell_length_b 9.246364
_cell_length_c 12.306294
_cell_angle_alpha 79.433074
_cell_angle_beta 104.382969
_cell_angle_gamma 83.732702
_cell_volume 584.334669
_symmetry_space_group_name_H-M "P -1"
_symmetry_group_IT_number 2
_symmetry_cell_setting 'triclinic'
loop_
_space_group_symop_operation_xyz
x,y,z
-x,-y,-z
loop_
_atom_site_type_symbol
_atom_site_label
_atom_site_fract_x
_atom_site_fract_y
_atom_site_fract_z
Si Si1 0.391612 0.165869 0.510852
Si Si2 0.180817 0.685397 0.185503
Si Si3 0.229981 0.849575 0.760482
Si Si4 0.044225 0.848194 0.355192
Si Si5 0.027466 0.267955 0.068432
Si Si6 0.613273 0.021915 0.891804
Si Si7 0.611787 0.642916 0.716563
O O1 0.162356 0.167169 0.571992
O O2 0.290236 0.280541 0.388153
O O3 0.656903 0.210704 0.579139
O O4 0.500000 0.000000 0.500000
O O5 0.342549 0.812816 0.150387
O O6 0.352659 0.533606 0.263888
O O7 0.997833 0.761475 0.250896
O O8 0.031619 0.652254 0.063603
O O9 0.330656 0.737172 0.691795
O O10 0.208483 0.746334 0.876865
O O11 0.982751 0.972737 0.693511
O O12 0.430561 0.960384 0.793031
O O13 0.231689 0.324078 0.162561
O O14 0.129003 0.096548 0.072381
O O15 0.500000 0.000000 0.000000
#
# Coordination Sequence:
#
# PCOD9055151 Si02
#       7
#     2   2   2   2   2   2   2
#     4  12  26  50  79 107 146 200 265 305 364 457
#     4  12  25  47  71 114 152 185 246 317 381 438
#     4  11  22  44  71 104 140 196 252 293 373 451
#     4  12  26  46  81 109 144 201 254 312 370 440
#     4  11  23  45  71 104 144 198 248 291 376 464
#     4  11  21  40  69 100 144 195 243 299 360 452
#     4  11  28  45  72 108 149 197 244 315 376 436
#
# _framework density 23.958872
#
# number of rings (size 3 to 8) (size 9 to 14) (size 15 to 20)
#    0.000    0.571    4.286    3.857    2.000    1.714 
#    7.714    0.000    0.000    0.000    0.000    0.000 
#    0.000    0.000    0.000    0.000    0.000    0.000 
#
# Total GULP energy -78310.379895 kJ/mol
# GULP energy per Si atom -5593.598564 kJ/mol
# Density = 2.390434 g / cm^3
# Si number density = 23.958872 Si / 1000 Ang^3
#
#
#
# Elastic Constant Matrix: (Units=GPa)
#
#
# Indices 1 2 3 4 5 6 
#
# 1 98.3098 24.0721 47.6525 9.1680 -21.9952 -9.1807
# 2 24.0721 145.7294 47.9663 -23.3839 -18.7348 -16.5724
# 3 47.6525 47.9663 126.9831 -4.6009 -29.3945 -14.2954
# 4 9.1680 -23.3839 -4.6009 33.0094 -4.7917 -0.4998
# 5 -21.9952 -18.7348 -29.3945 -4.7917 57.1801 9.5983
# 6 -9.1807 -16.5724 -14.2954 -0.4998 9.5983 17.5182
#
#
#
# Elastic Compliance Matrix: (Units=1/GPa)
#
#
# Indices 1 2 3 4 5 6 
#
# 1 0.013528 -0.001245 -0.004173 -0.004907 0.002029 0.001255
# 2 -0.001245 0.009778 -0.001939 0.007281 0.001240 0.006544
# 3 -0.004173 -0.001939 0.011378 0.001885 0.003165 0.003583
# 4 -0.004907 0.007281 0.001885 0.037705 0.003814 0.004840
# 5 0.002029 0.001240 0.003165 0.003814 0.021800 -0.007017
# 6 0.001255 0.006544 0.003583 0.004840 -0.007017 0.070838
#
#
# Mechanical properties :
#
#
# Convention : Reuss Voigt Hill
#
# Bulk Modulus (GPa) = 50.07577 67.82267 58.94922
# Shear Modulus (GPa) = 26.82442 38.29697 32.56069
#
# Velocity S-wave (km/s) = 3.34968 4.00239 3.69049
# Velocity P-wave (km/s) = 5.99221 7.05183 6.54350
#
# Compressibility (1/GPa) = 0.01996974
#
# Stress axis : x y z
#
# Youngs Moduli (GPa) = 73.91844 102.27383 87.88998
#
# Poissons Ratio (x) = 0.12733 0.36680
# Poissons Ratio (y) = 0.09203 0.17039
# Poissons Ratio (z) = 0.30849 0.19828
#
# Static dielectric constant tensor:
#      x y z
#    x 1.990900 0.000230 0.061400 
#    y 0.000230 1.867260 0.008140 
#    z 0.061400 0.008140 2.056080 
# 
# From -- ./inp_files/131519.got.cif
#   From: 2010.05.17/outbox.cif.g08.bks.cpg/sg2_66_cif.got.tgz:131519.got - 2010.06.03 11:33:40.
