data_PCOD9055754
_publ_section_title
;
Structure prediction by ZEFSAII (Michael W. Deem and Ramdas Pophale) SiO2 
 PCOD9055754
Probable space group: P -1
;
_chemical_formula_sum "Si O2"
_cell_formula_units_Z 14
_cell_length_a 9.941151
_cell_length_b 15.376638
_cell_length_c 5.334417
_cell_angle_alpha 109.757197
_cell_angle_beta 110.594527
_cell_angle_gamma 115.087335
_cell_volume 565.765546
_symmetry_space_group_name_H-M "P -1"
_symmetry_group_IT_number 2
_symmetry_cell_setting 'triclinic'
loop_
_space_group_symop_operation_xyz
x,y,z
-x,-y,-z
loop_
_atom_site_type_symbol
_atom_site_label
_atom_site_fract_x
_atom_site_fract_y
_atom_site_fract_z
Si Si1 0.710493 0.601973 0.808770
Si Si2 0.085326 0.265349 0.450432
Si Si3 0.196891 0.560552 0.077312
Si Si4 0.871966 0.016127 0.275266
Si Si5 0.662985 0.088848 0.508115
Si Si6 0.205593 0.708520 0.855133
Si Si7 0.507428 0.190505 0.227691
O O1 0.500000 0.500000 0.500000
O O2 0.809687 0.671581 0.681069
O O3 0.760847 0.524767 0.893640
O O4 0.777074 0.691196 0.176458
O O5 0.969422 0.123654 0.246001
O O6 0.941485 0.295998 0.421355
O O7 0.363348 0.686808 0.424166
O O8 0.171900 0.591493 0.812854
O O9 0.000000 0.500000 0.000000
O O10 0.775499 0.048789 0.437392
O O11 0.000000 0.000000 0.500000
O O12 0.705351 0.888101 0.936562
O O13 0.566293 0.110760 0.257087
O O14 0.500000 0.000000 0.500000
O O15 0.793138 0.215614 0.848982
O O16 0.414437 0.777782 0.969706
#
# Coordination Sequence:
#
# PCOD9055754 Si02
#       7
#     2   2   2   2   2   2   2
#     4  12  29  51  78 108 160 208 256 323 398 479
#     4  12  26  50  77 112 152 210 259 322 400 464
#     4  11  25  44  74 111 141 197 259 322 376 463
#     4  12  27  46  75 111 157 203 261 325 393 480
#     4  11  21  43  70 104 145 202 254 313 389 458
#     4  11  22  42  77 108 148 190 262 318 386 457
#     4  11  24  43  72 108 146 198 251 322 390 456
#
# _framework density 24.745234
#
# number of rings (size 3 to 8) (size 9 to 14) (size 15 to 20)
#    0.000    0.571    4.286    3.429    4.000    2.286 
#    0.000    3.571    0.000    0.000    0.000    0.000 
#    0.000    0.000    0.000    0.000    0.000    0.000 
#
# Total GULP energy -78132.793616 kJ/mol
# GULP energy per Si atom -5580.913830 kJ/mol
# Density = 2.468891 g / cm^3
# Si number density = 24.745234 Si / 1000 Ang^3
#
#
#
# Elastic Constant Matrix: (Units=GPa)
#
#
# Indices 1 2 3 4 5 6 
#
# 1 37.0375 39.0603 13.4318 -1.3541 19.6060 7.1874
# 2 39.0603 200.7538 39.8308 -3.0233 18.8010 29.1484
# 3 13.4318 39.8308 146.9638 26.6495 23.1739 7.9152
# 4 -1.3541 -3.0233 26.6495 37.4609 0.5188 11.2963
# 5 19.6060 18.8010 23.1739 0.5188 47.2903 -2.7200
# 6 7.1874 29.1484 7.9152 11.2963 -2.7200 44.2438
#
#
#
# Elastic Compliance Matrix: (Units=1/GPa)
#
#
# Indices 1 2 3 4 5 6 
#
# 1 0.042688 -0.006154 -0.000020 0.002634 -0.015529 -0.004504
# 2 -0.006154 0.007124 -0.001699 0.002789 0.000286 -0.004084
# 3 -0.000020 -0.001699 0.009014 -0.006810 -0.003600 0.001028
# 4 0.002634 0.002789 -0.006810 0.034853 0.000183 -0.009934
# 5 -0.015529 0.000286 -0.003600 0.000183 0.029505 0.004745
# 6 -0.004504 -0.004084 0.001028 -0.009934 0.004745 0.028669
#
#
# Mechanical properties :
#
#
# Convention : Reuss Voigt Hill
#
# Bulk Modulus (GPa) = 23.21279 63.26675 43.23977
# Shear Modulus (GPa) = 27.47892 45.29449 36.38671
#
# Velocity S-wave (km/s) = 3.33599 4.28300 3.83881
# Velocity P-wave (km/s) = 4.92337 7.07683 6.09594
#
# Compressibility (1/GPa) = 0.04307971
#
# Stress axis : x y z
#
# Youngs Moduli (GPa) = 23.42601 140.37344 110.93935
#
# Poissons Ratio (x) = 0.86382 0.00221
# Poissons Ratio (y) = 0.14416 0.18851
# Poissons Ratio (z) = 0.00047 0.23852
#
# Static dielectric constant tensor:
#      x y z
#    x 1.807890 -0.054670 -0.069940 
#    y -0.054670 1.957090 0.102970 
#    z -0.069940 0.102970 2.135330 
# 
# From -- ./inp_files/27046.got.cif
#   From: 2010.05.17/outbox.cif.g08.bks.cpg/sg2_14_cif.got.tgz:27046.got - 2010.06.03 11:33:40.
