data_PCOD9055605
_publ_section_title
;
Structure prediction by ZEFSAII (Michael W. Deem and Ramdas Pophale) SiO2 
 PCOD9055605
Probable space group: P -1
;
_chemical_formula_sum "Si O2"
_cell_formula_units_Z 16
_cell_length_a 13.241313
_cell_length_b 15.167503
_cell_length_c 8.762083
_cell_angle_alpha 69.990470
_cell_angle_beta 102.541149
_cell_angle_gamma 151.160373
_cell_volume 784.240250
_symmetry_space_group_name_H-M "P -1"
_symmetry_group_IT_number 2
_symmetry_cell_setting 'triclinic'
loop_
_space_group_symop_operation_xyz
x,y,z
-x,-y,-z
loop_
_atom_site_type_symbol
_atom_site_label
_atom_site_fract_x
_atom_site_fract_y
_atom_site_fract_z
Si Si1 0.446904 0.567457 0.949397
Si Si2 0.016223 0.295155 0.814383
Si Si3 0.794021 0.988858 0.729771
Si Si4 0.459912 0.858195 0.575054
Si Si5 0.563505 0.424111 0.704181
Si Si6 0.161225 0.185180 0.551495
Si Si7 0.807717 0.461442 0.568825
Si Si8 0.054096 0.516235 0.836206
O O1 0.227593 0.416118 0.881079
O O2 0.635384 0.775993 0.811980
O O3 0.500000 0.500000 0.000000
O O4 0.436324 0.592059 0.106249
O O5 0.071428 0.384866 0.614723
O O6 0.957000 0.336973 0.873635
O O7 0.840818 0.077602 0.852671
O O8 0.015691 0.128156 0.654252
O O9 0.676443 0.972085 0.596810
O O10 0.342492 0.728265 0.462617
O O11 0.303129 0.708500 0.754715
O O12 0.500000 0.000000 0.500000
O O13 0.328854 0.254070 0.657538
O O14 0.696062 0.625678 0.603279
O O15 0.677374 0.431112 0.646135
O O16 0.000000 0.000000 0.500000
O O17 0.959368 0.519262 0.689635
O O18 0.000000 0.500000 0.000000
#
# Coordination Sequence:
#
# PCOD9055605 Si02
#       8
#     2   2   2   2   2   2   2   2
#     4  12  26  43  67  97 140 177 224 280 335 385
#     4  11  23  45  68  96 135 181 221 269 337 402
#     4  12  23  43  69  97 134 178 225 271 332 404
#     4  11  23  42  68 101 130 173 227 269 332 409
#     4  11  25  43  65  98 133 174 225 280 328 389
#     4  11  24  41  68  95 131 176 230 272 329 396
#     4  11  21  42  71  93 134 177 219 271 333 396
#     4  11  23  43  70  99 136 172 215 281 339 392
#
# _framework density 20.401910999999998
#
# number of rings (size 3 to 8) (size 9 to 14) (size 15 to 20)
#    0.000    0.750    3.750    6.000    1.750    3.000 
#    2.250    1.250    0.000    0.000    0.000    0.000 
#    0.000    0.000    0.000    0.000    0.000    0.000 
#
# Total GULP energy -89496.864790 kJ/mol
# GULP energy per Si atom -5593.554049 kJ/mol
# Density = 2.035548 g / cm^3
# Si number density = 20.401911 Si / 1000 Ang^3
#
#
#
# Elastic Constant Matrix: (Units=GPa)
#
#
# Indices 1 2 3 4 5 6 
#
# 1 130.8890 29.7920 19.1421 14.6372 2.4754 -6.0872
# 2 29.7920 99.2419 8.4792 20.3361 12.3866 -8.2177
# 3 19.1421 8.4792 54.2135 24.7992 -2.5174 1.6982
# 4 14.6372 20.3361 24.7992 23.2083 -3.0596 3.4281
# 5 2.4754 12.3866 -2.5174 -3.0596 43.2002 5.1577
# 6 -6.0872 -8.2177 1.6982 3.4281 5.1577 47.6228
#
#
#
# Elastic Compliance Matrix: (Units=1/GPa)
#
#
# Indices 1 2 3 4 5 6 
#
# 1 0.008622 -0.001912 -0.001923 -0.001897 -0.000313 0.001011
# 2 -0.001912 0.015771 0.008266 -0.022912 -0.006090 0.004491
# 3 -0.001923 0.008266 0.040653 -0.050548 -0.003924 0.003794
# 4 -0.001897 -0.022912 -0.050548 0.122079 0.013893 -0.012686
# 5 -0.000313 -0.006090 -0.003924 0.013893 0.026240 -0.004793
# 6 0.001011 0.004491 0.003794 -0.012686 -0.004793 0.023200
#
#
# Mechanical properties :
#
#
# Convention : Reuss Voigt Hill
#
# Bulk Modulus (GPa) = 13.53064 44.35230 28.94147
# Shear Modulus (GPa) = 19.81457 37.93499 28.87478
#
# Velocity S-wave (km/s) = 3.11981 4.31674 3.76613
# Velocity P-wave (km/s) = 4.42990 6.82877 5.75570
#
# Compressibility (1/GPa) = 0.07390634
#
# Stress axis : x y z
#
# Youngs Moduli (GPa) = 115.98596 63.40681 24.59832
#
# Poissons Ratio (x) = 0.12125 0.04731
# Poissons Ratio (y) = 0.22180 -0.20333
# Poissons Ratio (z) = 0.22309 -0.52411
#
# Static dielectric constant tensor:
#      x y z
#    x 1.722110 -0.024180 -0.000320 
#    y -0.024180 1.784910 0.002770 
#    z -0.000320 0.002770 1.706260 
# 
# From -- ./inp_files/272562.got.cif
#   From: 2010.05.17/outbox.cif.g08.bks.cpg/sg2_137_cif.got.tgz:272562.got - 2010.06.03 11:33:40.
