data_PCOD9055388
_publ_section_title
;
Structure prediction by ZEFSAII (Michael W. Deem and Ramdas Pophale) SiO2 
 PCOD9055388
Probable space group: P -1
;
_chemical_formula_sum "Si O2"
_cell_formula_units_Z 16
_cell_length_a 26.812321
_cell_length_b 10.158525
_cell_length_c 9.554111
_cell_angle_alpha 46.104261
_cell_angle_beta 133.507642
_cell_angle_gamma 154.030912
_cell_volume 803.459871
_symmetry_space_group_name_H-M "P -1"
_symmetry_group_IT_number 2
_symmetry_cell_setting 'triclinic'
loop_
_space_group_symop_operation_xyz
x,y,z
-x,-y,-z
loop_
_atom_site_type_symbol
_atom_site_label
_atom_site_fract_x
_atom_site_fract_y
_atom_site_fract_z
Si Si1 0.320119 0.646139 0.174878
Si Si2 0.571193 0.371762 0.109338
Si Si3 0.550992 0.699407 0.312542
Si Si4 0.688464 0.716674 0.371719
Si Si5 0.032206 0.158550 0.590528
Si Si6 0.953781 0.382799 0.338780
Si Si7 0.705027 0.387077 0.162326
Si Si8 0.920847 0.715642 0.950358
O O1 0.312703 0.474226 0.403323
O O2 0.445267 0.009467 0.157440
O O3 0.304568 0.539968 0.063738
O O4 0.213227 0.555999 0.060953
O O5 0.615804 0.544982 0.214398
O O6 0.658895 0.412702 0.180551
O O7 0.548776 0.466841 0.870836
O O8 0.500000 0.500000 0.500000
O O9 0.637650 0.755524 0.352560
O O10 0.619880 0.030275 0.245360
O O11 0.818440 0.044879 0.337688
O O12 0.162909 0.389966 0.720125
O O13 0.017016 0.344198 0.422651
O O14 0.000000 0.000000 0.500000
O O15 0.942480 0.870615 0.735930
O O16 0.963564 0.598304 0.121717
O O17 0.000000 0.500000 0.500000
O O18 0.000000 0.000000 0.000000
#
# Coordination Sequence:
#
# PCOD9055388 Si02
#       8
#     2   2   2   2   2   2   2   2
#     4  11  21  41  70  94 130 177 222 269 335 406
#     4  11  24  42  64  98 134 172 217 275 341 389
#     4  11  23  42  63  94 130 172 223 266 325 403
#     4  12  23  40  67 100 132 168 220 285 333 392
#     4  12  26  46  67 101 140 171 225 287 342 387
#     4  12  23  43  72 101 129 181 234 268 336 411
#     4  11  23  43  65  91 129 177 219 268 329 406
#     4  12  23  44  71 100 129 180 229 281 330 404
#
# _framework density 19.913875999999998
#
# number of rings (size 3 to 8) (size 9 to 14) (size 15 to 20)
#    0.000    0.500    3.750    6.750    0.000    0.500 
#    4.500    0.000    0.000    0.000    0.000    0.000 
#    0.000    0.000    0.000    0.000    0.000    0.000 
#
# Total GULP energy -89472.422572 kJ/mol
# GULP energy per Si atom -5592.026411 kJ/mol
# Density = 1.986855 g / cm^3
# Si number density = 19.913876 Si / 1000 Ang^3
#
#
#
# Elastic Constant Matrix: (Units=GPa)
#
#
# Indices 1 2 3 4 5 6 
#
# 1 67.1033 5.4306 14.3637 5.4462 -3.3758 6.7340
# 2 5.4306 70.4559 17.0054 9.2817 -6.8576 10.3769
# 3 14.3637 17.0054 100.1306 -12.2012 -4.0264 -8.5387
# 4 5.4462 9.2817 -12.2012 28.1955 -0.3052 -0.9212
# 5 -3.3758 -6.8576 -4.0264 -0.3052 41.2427 8.3763
# 6 6.7340 10.3769 -8.5387 -0.9212 8.3763 35.5078
#
#
#
# Elastic Compliance Matrix: (Units=1/GPa)
#
#
# Indices 1 2 3 4 5 6 
#
# 1 0.016615 0.001238 -0.003581 -0.005307 0.002198 -0.005030
# 2 0.001238 0.017898 -0.004738 -0.008391 0.004136 -0.007798
# 3 -0.003581 -0.004738 0.012706 0.007921 -0.000907 0.005539
# 4 -0.005307 -0.008391 0.007921 0.042887 -0.002158 0.006985
# 5 0.002198 0.004136 -0.000907 -0.002158 0.026674 -0.008192
# 6 -0.005030 -0.007798 0.005539 0.006985 -0.008192 0.034841
#
#
# Mechanical properties :
#
#
# Convention : Reuss Voigt Hill
#
# Bulk Modulus (GPa) = 30.25154 34.58769 32.41962
# Shear Modulus (GPa) = 28.28004 34.38187 31.33096
#
# Velocity S-wave (km/s) = 3.77253 4.15966 3.97082
# Velocity P-wave (km/s) = 5.84809 6.36213 6.11052
#
# Compressibility (1/GPa) = 0.03305617
#
# Stress axis : x y z
#
# Youngs Moduli (GPa) = 60.18732 55.87169 78.70036
#
# Poissons Ratio (x) = -0.06914 0.28180
# Poissons Ratio (y) = -0.07448 0.37291
# Poissons Ratio (z) = 0.21551 0.26474
#
# Static dielectric constant tensor:
#      x y z
#    x 1.687120 0.007950 0.044060 
#    y 0.007950 1.662450 0.003200 
#    z 0.044060 0.003200 1.694240 
# 
# From -- ./inp_files/225809.got.cif
#   From: 2010.05.17/outbox.cif.g08.bks.cpg/sg2_113_cif.got.tgz:225809.got - 2010.06.03 11:33:40.
