data_PCOD9055009
_publ_section_title
;
Structure prediction by ZEFSAII (Michael W. Deem and Ramdas Pophale) SiO2 
 PCOD9055009
Probable space group: P -1
;
_chemical_formula_sum "Si O2"
_cell_formula_units_Z 16
_cell_length_a 13.397488
_cell_length_b 9.905243
_cell_length_c 15.145140
_cell_angle_alpha 117.321783
_cell_angle_beta 46.793862
_cell_angle_gamma 146.463308
_cell_volume 777.608309
_symmetry_space_group_name_H-M "P -1"
_symmetry_group_IT_number 2
_symmetry_cell_setting 'triclinic'
loop_
_space_group_symop_operation_xyz
x,y,z
-x,-y,-z
loop_
_atom_site_type_symbol
_atom_site_label
_atom_site_fract_x
_atom_site_fract_y
_atom_site_fract_z
Si Si1 0.052170 0.622546 0.248628
Si Si2 0.930195 0.818130 0.699805
Si Si3 0.205686 0.793915 0.857992
Si Si4 0.656223 0.886493 0.875983
Si Si5 0.129661 0.274884 0.485532
Si Si6 0.607345 0.622407 0.374633
Si Si7 0.255117 0.540187 0.870099
Si Si8 0.385780 0.688883 0.160201
O O1 0.222570 0.680184 0.224747
O O2 0.870805 0.349448 0.230601
O O3 0.946822 0.666208 0.381137
O O4 0.196152 0.829956 0.144627
O O5 0.816120 0.881427 0.770739
O O6 0.930188 0.733906 0.580480
O O7 0.773781 0.588328 0.793414
O O8 0.187945 0.075502 0.652353
O O9 0.259604 0.704063 0.865809
O O10 0.431141 0.097380 0.812699
O O11 0.984521 0.683154 0.999149
O O12 0.462710 0.713559 0.865682
O O13 0.535031 0.779059 0.011373
O O14 0.398761 0.487201 0.398721
O O15 0.000000 0.000000 0.500000
O O16 0.500000 0.500000 0.500000
O O17 0.712666 0.562566 0.252358
#
# Coordination Sequence:
#
# PCOD9055009 Si02
#       8
#     2   2   2   2   2   2   2   2
#     4  12  24  44  73 101 132 179 234 277 331 404
#     4  12  27  45  68 102 141 178 224 279 343 399
#     4  11  23  40  67 102 138 171 222 278 345 395
#     4  12  21  46  72 100 137 180 228 281 326 406
#     4  12  24  45  72 100 129 173 233 283 326 397
#     4  12  23  42  72 100 130 178 235 280 328 393
#     4  11  21  39  71 104 129 174 232 284 323 397
#     4  12  27  44  66 102 146 179 213 281 352 399
#
# _framework density 20.57591
#
# number of rings (size 3 to 8) (size 9 to 14) (size 15 to 20)
#    0.000    0.250    6.250    4.500    0.000    2.500 
#    0.000    2.500    0.000    0.000    0.000    0.000 
#    0.000    0.000    0.000    0.000    0.000    0.000 
#
# Total GULP energy -89580.562905 kJ/mol
# GULP energy per Si atom -5598.785182 kJ/mol
# Density = 2.052908 g / cm^3
# Si number density = 20.575910 Si / 1000 Ang^3
#
#
#
# Elastic Constant Matrix: (Units=GPa)
#
#
# Indices 1 2 3 4 5 6 
#
# 1 52.1965 36.1369 16.5962 -6.8050 -12.4656 18.9519
# 2 36.1369 122.0042 31.4972 -8.7162 -12.5729 37.2305
# 3 16.5962 31.4972 84.2711 26.6392 -12.6577 14.3849
# 4 -6.8050 -8.7162 26.6392 35.1612 7.7136 0.1747
# 5 -12.4656 -12.5729 -12.6577 7.7136 22.7438 0.4058
# 6 18.9519 37.2305 14.3849 0.1747 0.4058 36.7545
#
#
#
# Elastic Compliance Matrix: (Units=1/GPa)
#
#
# Indices 1 2 3 4 5 6 
#
# 1 0.029578 -0.003243 -0.002097 0.003905 0.012129 -0.011299
# 2 -0.003243 0.014306 -0.004373 0.005869 0.001906 -0.011157
# 3 -0.002097 -0.004373 0.025451 -0.024948 0.019140 -0.004543
# 4 0.003905 0.005869 -0.024948 0.055548 -0.027372 0.001844
# 5 0.012129 0.001906 0.019140 -0.027372 0.071896 -0.016339
# 6 -0.011299 -0.011157 -0.004543 0.001844 -0.016339 0.046284
#
#
# Mechanical properties :
#
#
# Convention : Reuss Voigt Hill
#
# Bulk Modulus (GPa) = 20.03622 47.43692 33.73657
# Shear Modulus (GPa) = 17.91305 30.54802 24.23053
#
# Velocity S-wave (km/s) = 2.95377 3.85730 3.43536
# Velocity P-wave (km/s) = 4.62513 6.55309 5.67163
#
# Compressibility (1/GPa) = 0.04990961
#
# Stress axis : x y z
#
# Youngs Moduli (GPa) = 33.80860 69.89963 39.29169
#
# Poissons Ratio (x) = 0.22667 0.08239
# Poissons Ratio (y) = 0.10963 0.17183
# Poissons Ratio (z) = 0.07089 0.30568
#
# Static dielectric constant tensor:
#      x y z
#    x 1.722820 0.023630 0.005020 
#    y 0.023630 1.738150 0.017410 
#    z 0.005020 0.017410 1.744510 
# 
# From -- ./inp_files/272637.got.cif
#   From: 2010.05.17/outbox.cif.g08.bks.cpg/sg2_137_cif.got.tgz:272637.got - 2010.06.03 11:33:40.
