data_PCOD9055576
_publ_section_title
;
Structure prediction by ZEFSAII (Michael W. Deem and Ramdas Pophale) SiO2 
 PCOD9055576
Probable space group: P -1
;
_chemical_formula_sum "Si O2"
_cell_formula_units_Z 16
_cell_length_a 8.191169
_cell_length_b 20.289340
_cell_length_c 5.898522
_cell_angle_alpha 61.473363
_cell_angle_beta 98.747886
_cell_angle_gamma 61.831457
_cell_volume 662.971106
_symmetry_space_group_name_H-M "P -1"
_symmetry_group_IT_number 2
_symmetry_cell_setting 'triclinic'
loop_
_space_group_symop_operation_xyz
x,y,z
-x,-y,-z
loop_
_atom_site_type_symbol
_atom_site_label
_atom_site_fract_x
_atom_site_fract_y
_atom_site_fract_z
Si Si1 0.172931 0.657495 0.965200
Si Si2 0.716297 0.830813 0.089937
Si Si3 0.181779 0.749397 0.204348
Si Si4 0.258397 0.339854 0.795794
Si Si5 0.990195 0.083811 0.467205
Si Si6 0.122807 0.511079 0.202145
Si Si7 0.714739 0.868137 0.517345
Si Si8 0.363466 0.750797 0.638844
O O1 0.236009 0.656982 0.239748
O O2 0.218055 0.561541 0.047924
O O3 0.295675 0.686177 0.806430
O O4 0.923979 0.753723 0.746172
O O5 0.740920 0.734556 0.232686
O O6 0.609659 0.880229 0.230233
O O7 0.954634 0.799355 0.197557
O O8 0.627357 0.880766 0.736720
O O9 0.370820 0.733823 0.404766
O O10 0.125417 0.827711 0.878153
O O11 0.268058 0.412573 0.532105
O O12 0.042760 0.409850 0.777528
O O13 0.439759 0.281584 0.119297
O O14 0.829008 0.135478 0.557477
O O15 0.204197 0.068833 0.583189
O O16 0.000000 0.000000 0.500000
O O17 0.000000 0.500000 0.000000
#
# Coordination Sequence:
#
# PCOD9055576 Si02
#       8
#     2   2   2   2   2   2   2   2
#     4   9  18  35  55  76 112 157 195 238 294 363
#     4  10  17  36  58  83 110 164 201 239 286 381
#     4   9  17  34  59  79 111 156 197 228 304 362
#     4  11  24  35  57  87 115 147 209 251 296 344
#     4   9  19  34  58  91 116 147 197 247 296 361
#     4  11  23  37  56  83 114 158 200 248 299 358
#     4   9  17  32  59  84 109 159 204 228 297 362
#     4  10  21  37  57  87 113 152 196 252 301 348
#
# _framework density 24.133782
#
# number of rings (size 3 to 8) (size 9 to 14) (size 15 to 20)
#    0.000    2.750    5.000    0.750    0.000    3.000 
#    0.000    1.250    0.000    3.750    0.000    0.000 
#    0.000    0.000    0.000    0.000    0.000    0.000 
#
# Total GULP energy -89217.753323 kJ/mol
# GULP energy per Si atom -5576.109583 kJ/mol
# Density = 2.407885 g / cm^3
# Si number density = 24.133782 Si / 1000 Ang^3
#
#
#
# Elastic Constant Matrix: (Units=GPa)
#
#
# Indices 1 2 3 4 5 6 
#
# 1 35.7487 43.6949 7.5289 -8.7399 0.0352 12.5836
# 2 43.6949 151.3739 51.3257 9.0868 1.0025 45.0757
# 3 7.5289 51.3257 73.0931 27.7662 12.5794 7.0670
# 4 -8.7399 9.0868 27.7662 37.1864 11.0300 -3.3917
# 5 0.0352 1.0025 12.5794 11.0300 23.5607 2.2520
# 6 12.5836 45.0757 7.0670 -3.3917 2.2520 45.0197
#
#
#
# Elastic Compliance Matrix: (Units=1/GPa)
#
#
# Indices 1 2 3 4 5 6 
#
# 1 0.053134 -0.018463 0.001250 0.019390 -0.009553 0.005377
# 2 -0.018463 0.019709 -0.009969 -0.005464 0.008392 -0.013840
# 3 0.001250 -0.009969 0.027014 -0.014784 -0.007524 0.004654
# 4 0.019390 -0.005464 -0.014784 0.049051 -0.015520 0.006843
# 5 -0.009553 0.008392 -0.007524 -0.015520 0.054190 -0.008431
# 6 0.005377 -0.013840 0.004654 0.006843 -0.008431 0.034773
#
#
# Mechanical properties :
#
#
# Convention : Reuss Voigt Hill
#
# Bulk Modulus (GPa) = 21.98118 51.70163 36.84141
# Shear Modulus (GPa) = 16.26554 31.66446 23.96500
#
# Velocity S-wave (km/s) = 2.59892 3.62614 3.15462
# Velocity P-wave (km/s) = 4.25836 6.24510 5.34485
#
# Compressibility (1/GPa) = 0.04549347
#
# Stress axis : x y z
#
# Youngs Moduli (GPa) = 18.82030 50.73772 37.01831
#
# Poissons Ratio (x) = 0.93678 -0.04628
# Poissons Ratio (y) = 0.34748 0.36902
# Poissons Ratio (z) = -0.02353 0.50579
#
# Static dielectric constant tensor:
#      x y z
#    x 1.998210 -0.062680 -0.043040 
#    y -0.062680 1.997290 0.124140 
#    z -0.043040 0.124140 2.040690 
# 
# From -- ./inp_files/52483.got.cif
#   From: 2010.05.17/outbox.cif.g08.bks.cpg/sg2_27_cif.got.tgz:52483.got - 2010.06.03 11:33:40.
