data_PCOD9055035
_publ_section_title
;
Structure prediction by ZEFSAII (Michael W. Deem and Ramdas Pophale) SiO2 
 PCOD9055035
Probable space group: P -1
;
_chemical_formula_sum "Si O2"
_cell_formula_units_Z 16
_cell_length_a 8.938535
_cell_length_b 15.646509
_cell_length_c 18.161538
_cell_angle_alpha 148.863802
_cell_angle_beta 38.185400
_cell_angle_gamma 148.100402
_cell_volume 677.465336
_symmetry_space_group_name_H-M "P -1"
_symmetry_group_IT_number 2
_symmetry_cell_setting 'triclinic'
loop_
_space_group_symop_operation_xyz
x,y,z
-x,-y,-z
loop_
_atom_site_type_symbol
_atom_site_label
_atom_site_fract_x
_atom_site_fract_y
_atom_site_fract_z
Si Si1 0.206037 0.813051 0.418769
Si Si2 0.363098 0.492160 0.867498
Si Si3 0.993145 0.652500 0.691191
Si Si4 0.688643 0.911461 0.128715
Si Si5 0.488470 0.143373 0.450829
Si Si6 0.738977 0.575532 0.526821
Si Si7 0.746416 0.599832 0.312393
Si Si8 0.666179 0.711475 0.132940
O O1 0.023082 0.773701 0.534076
O O2 0.975599 0.668169 0.338728
O O3 0.434647 0.752728 0.285050
O O4 0.363551 0.038991 0.499236
O O5 0.185233 0.450500 0.830495
O O6 0.207846 0.330784 0.873792
O O7 0.654019 0.506141 0.732743
O O8 0.507364 0.710465 0.005449
O O9 0.163965 0.698966 0.579819
O O10 0.168559 0.581995 0.617732
O O11 0.079862 0.875856 0.841015
O O12 0.811476 0.866507 0.122396
O O13 0.457017 0.963361 0.283227
O O14 0.305961 0.223898 0.548565
O O15 0.500000 0.500000 0.500000
O O16 0.569644 0.577323 0.665244
O O17 0.500000 0.500000 0.000000
#
# Coordination Sequence:
#
# PCOD9055035 Si02
#       8
#     2   2   2   2   2   2   2   2
#     4  10  17  36  56  75 104 148 178 212 260 325
#     4  11  19  33  55  84 107 136 174 231 270 293
#     4   9  17  31  55  77 103 139 182 212 254 318
#     4   8  18  34  52  76 104 141 181 209 255 328
#     4   8  18  33  52  78 101 141 180 211 254 327
#     4   9  18  32  53  81 103 141 180 213 259 321
#     4  10  21  33  54  84 111 130 178 227 268 306
#     4   9  18  34  55  78 103 141 184 210 257 330
#
# _framework density 23.617443999999999
#
# number of rings (size 3 to 8) (size 9 to 14) (size 15 to 20)
#    0.750    2.000    1.250    0.750    0.000    2.000 
#    0.000    9.375    0.000    3.000    0.000    0.000 
#    0.000    0.000    0.000    0.000    0.000    0.000 
#
# Total GULP energy -89145.103724 kJ/mol
# GULP energy per Si atom -5571.568983 kJ/mol
# Density = 2.356369 g / cm^3
# Si number density = 23.617444 Si / 1000 Ang^3
#
#
#
# Elastic Constant Matrix: (Units=GPa)
#
#
# Indices 1 2 3 4 5 6 
#
# 1 93.1921 21.6669 23.0893 7.9229 17.4741 -16.0817
# 2 21.6669 115.7888 -6.1787 2.1768 2.8207 -13.4596
# 3 23.0893 -6.1787 57.8569 2.5720 15.3277 -7.5707
# 4 7.9229 2.1768 2.5720 18.7678 -8.3759 -3.9699
# 5 17.4741 2.8207 15.3277 -8.3759 33.6502 -2.5428
# 6 -16.0817 -13.4596 -7.5707 -3.9699 -2.5428 33.3704
#
#
#
# Elastic Compliance Matrix: (Units=1/GPa)
#
#
# Indices 1 2 3 4 5 6 
#
# 1 0.014885 -0.002145 -0.003201 -0.008250 -0.007843 0.004003
# 2 -0.002145 0.009573 0.002475 -0.000103 -0.000590 0.003332
# 3 -0.003201 0.002475 0.022068 -0.005682 -0.009782 0.003041
# 4 -0.008250 -0.000103 -0.005682 0.069538 0.024555 0.004837
# 5 -0.007843 -0.000590 -0.009782 0.024555 0.044412 0.000069
# 6 0.004003 0.003332 0.003041 0.004837 0.000069 0.034510
#
#
# Mechanical properties :
#
#
# Convention : Reuss Voigt Hill
#
# Bulk Modulus (GPa) = 24.51880 38.22142 31.37011
# Shear Modulus (GPa) = 23.32929 32.37502 27.85216
#
# Velocity S-wave (km/s) = 3.14634 3.70646 3.43783
# Velocity P-wave (km/s) = 4.85834 5.87672 5.39163
#
# Compressibility (1/GPa) = 0.04078502
#
# Stress axis : x y z
#
# Youngs Moduli (GPa) = 67.18199 104.45547 45.31510
#
# Poissons Ratio (x) = 0.22402 0.14505
# Poissons Ratio (y) = 0.14408 -0.11216
# Poissons Ratio (z) = 0.21505 -0.25854
#
# Static dielectric constant tensor:
#      x y z
#    x 1.968500 -0.029710 0.034640 
#    y -0.029710 2.018830 -0.034210 
#    z 0.034640 -0.034210 1.983110 
# 
# From -- ./inp_files/560903.got.cif
#   From: 2010.05.17/outbox.cif.g08.bks.cpg/sg2_281_cif.got.tgz:560903.got - 2010.06.03 11:33:40.
