data_PCOD9055024
_publ_section_title
;
Structure prediction by ZEFSAII (Michael W. Deem and Ramdas Pophale) SiO2 
 PCOD9055024
Probable space group: P -1
;
_chemical_formula_sum "Si O2"
_cell_formula_units_Z 14
_cell_length_a 18.111913
_cell_length_b 18.615682
_cell_length_c 12.942760
_cell_angle_alpha 160.274712
_cell_angle_beta 38.026159
_cell_angle_gamma 152.252872
_cell_volume 656.534869
_symmetry_space_group_name_H-M "P -1"
_symmetry_group_IT_number 2
_symmetry_cell_setting 'triclinic'
loop_
_space_group_symop_operation_xyz
x,y,z
-x,-y,-z
loop_
_atom_site_type_symbol
_atom_site_label
_atom_site_fract_x
_atom_site_fract_y
_atom_site_fract_z
Si Si1 0.839513 0.303227 0.609286
Si Si2 0.573182 0.855274 0.691015
Si Si3 0.587250 0.819568 0.379651
Si Si4 0.720989 0.792482 0.775043
Si Si5 0.118739 0.954732 0.270733
Si Si6 0.005105 0.144366 0.087217
Si Si7 0.681912 0.228747 0.484885
O O1 0.700370 0.241962 0.606749
O O2 0.927656 0.269150 0.380314
O O3 0.764098 0.068276 0.466016
O O4 0.982397 0.627218 0.932568
O O5 0.582360 0.833098 0.526879
O O6 0.440166 0.526269 0.438874
O O7 0.754986 0.014807 0.750871
O O8 0.500000 0.000000 0.000000
O O9 0.484468 0.888598 0.539802
O O10 0.500000 0.500000 0.000000
O O11 0.762126 0.816434 0.642370
O O12 0.706195 0.025572 0.132541
O O13 0.881165 0.903875 0.812200
O O14 0.000000 0.000000 0.500000
O O15 0.182053 0.428329 0.234282
O O16 0.000000 0.000000 0.000000
#
# Coordination Sequence:
#
# PCOD9055024 Si02
#       7
#     2   2   2   2   2   2   2
#     4  11  24  43  68 104 140 179 232 293 355 419
#     4  12  30  50  71 105 147 194 240 291 359 430
#     4  12  27  45  71 106 143 183 235 308 360 406
#     4  11  23  47  72  99 138 194 241 286 351 437
#     4  12  28  45  72 103 142 191 240 286 354 431
#     4  11  21  39  72 105 133 175 233 301 350 412
#     4  11  21  44  74 101 137 180 244 287 354 433
#
# _framework density 21.324076000000002
#
# number of rings (size 3 to 8) (size 9 to 14) (size 15 to 20)
#    0.000    0.571    2.857    6.000    8.000    1.714 
#    0.000    0.000    0.000    0.000    0.000    0.000 
#    0.000    0.000    0.000    0.000    0.000    0.000 
#
# Total GULP energy -78170.507815 kJ/mol
# GULP energy per Si atom -5583.607701 kJ/mol
# Density = 2.127554 g / cm^3
# Si number density = 21.324076 Si / 1000 Ang^3
#
#
#
# Elastic Constant Matrix: (Units=GPa)
#
#
# Indices 1 2 3 4 5 6 
#
# 1 145.8005 38.5721 38.6855 -20.0869 15.0261 -9.2707
# 2 38.5721 112.5531 27.8038 -2.9471 9.5672 -26.4970
# 3 38.6855 27.8038 63.6563 -9.8466 4.4573 -6.6981
# 4 -20.0869 -2.9471 -9.8466 32.0542 -5.8335 -3.9123
# 5 15.0261 9.5672 4.4573 -5.8335 31.2608 -1.8735
# 6 -9.2707 -26.4970 -6.6981 -3.9123 -1.8735 47.5149
#
#
#
# Elastic Compliance Matrix: (Units=1/GPa)
#
#
# Indices 1 2 3 4 5 6 
#
# 1 0.009223 -0.001734 -0.004000 0.003987 -0.002559 0.000496
# 2 -0.001734 0.011821 -0.003491 -0.000768 -0.002093 0.005616
# 3 -0.004000 -0.003491 0.020210 0.003582 0.000805 0.000449
# 4 0.003987 -0.000768 0.003582 0.036085 0.004782 0.004014
# 5 -0.002559 -0.002093 0.000805 0.004782 0.034650 0.000207
# 6 0.000496 0.005616 0.000449 0.004014 0.000207 0.024677
#
#
# Mechanical properties :
#
#
# Convention : Reuss Voigt Hill
#
# Bulk Modulus (GPa) = 43.84986 59.12588 51.48787
# Shear Modulus (GPa) = 30.72836 36.62922 33.67879
#
# Velocity S-wave (km/s) = 3.80019 4.14906 3.97845
# Velocity P-wave (km/s) = 6.31375 7.12323 6.73067
#
# Compressibility (1/GPa) = 0.02280509
#
# Stress axis : x y z
#
# Youngs Moduli (GPa) = 108.42269 84.59369 49.48126
#
# Poissons Ratio (x) = 0.14669 0.19791
# Poissons Ratio (y) = 0.18802 0.17272
# Poissons Ratio (z) = 0.43366 0.29529
#
# Static dielectric constant tensor:
#      x y z
#    x 1.871050 0.081340 -0.036690 
#    y 0.081340 1.845810 -0.130370 
#    z -0.036690 -0.130370 1.929820 
# 
# From -- ./inp_files/244867.got.cif
#   From: 2010.05.17/outbox.cif.g08.bks.cpg/sg2_123_cif.got.tgz:244867.got - 2010.06.03 11:33:40.
