data_PCOD9055241
_publ_section_title
;
Structure prediction by ZEFSAII (Michael W. Deem and Ramdas Pophale) SiO2 
 PCOD9055241
Probable space group: P -1
;
_chemical_formula_sum "Si O2"
_cell_formula_units_Z 16
_cell_length_a 19.355762
_cell_length_b 12.826875
_cell_length_c 9.381563
_cell_angle_alpha 75.694860
_cell_angle_beta 135.533721
_cell_angle_gamma 140.074070
_cell_volume 779.471854
_symmetry_space_group_name_H-M "P -1"
_symmetry_group_IT_number 2
_symmetry_cell_setting 'triclinic'
loop_
_space_group_symop_operation_xyz
x,y,z
-x,-y,-z
loop_
_atom_site_type_symbol
_atom_site_label
_atom_site_fract_x
_atom_site_fract_y
_atom_site_fract_z
Si Si1 0.590125 0.152400 0.709715
Si Si2 0.041974 0.609596 0.664308
Si Si3 0.398326 0.587084 0.392343
Si Si4 0.499158 0.379439 0.790829
Si Si5 0.261012 0.188131 0.979946
Si Si6 0.891496 0.847599 0.754860
Si Si7 0.321551 0.065091 0.874453
Si Si8 0.395972 0.856792 0.749094
O O1 0.613610 0.297218 0.653598
O O2 0.500000 0.000000 0.500000
O O3 0.422316 0.982965 0.642604
O O4 0.793155 0.293737 0.027075
O O5 0.825201 0.399404 0.485677
O O6 0.000000 0.500000 0.500000
O O7 0.120812 0.801380 0.664114
O O8 0.420150 0.576484 0.261417
O O9 0.588638 0.715873 0.709915
O O10 0.205211 0.354485 0.264095
O O11 0.662080 0.618898 0.010987
O O12 0.295611 0.254223 0.520409
O O13 0.431036 0.215472 0.844189
O O14 0.282291 0.127213 0.900118
O O15 0.043388 0.983693 0.800942
O O16 0.000000 0.000000 0.000000
O O17 0.475599 0.119685 0.133671
O O18 0.500000 0.000000 0.000000
#
# Coordination Sequence:
#
# PCOD9055241 Si02
#       8
#     2   2   2   2   2   2   2   2
#     4  11  25  42  65 103 134 166 223 279 328 383
#     4  11  24  43  68  97 133 177 223 265 326 402
#     4  11  22  39  68  91 123 176 216 261 330 390
#     4  11  23  39  65  94 124 170 222 262 322 401
#     4  11  23  43  62  92 136 163 212 276 330 382
#     4  11  21  41  62  92 126 166 217 272 316 388
#     4  11  25  40  66  99 128 172 214 275 336 379
#     4  11  22  46  68  91 138 176 219 274 322 399
#
# _framework density 20.526717999999999
#
# number of rings (size 3 to 8) (size 9 to 14) (size 15 to 20)
#    0.000    1.000    5.000    3.375    0.000    7.000 
#    0.000    0.000    0.000    0.000    0.000    0.000 
#    0.000    0.000    0.000    0.000    0.000    0.000 
#
# Total GULP energy -89288.089969 kJ/mol
# GULP energy per Si atom -5580.505623 kJ/mol
# Density = 2.048000 g / cm^3
# Si number density = 20.526718 Si / 1000 Ang^3
#
#
#
# Elastic Constant Matrix: (Units=GPa)
#
#
# Indices 1 2 3 4 5 6 
#
# 1 66.8991 6.8997 24.1387 19.2930 -3.2244 -4.5775
# 2 6.8997 158.7517 38.5184 28.8634 8.6811 -10.4150
# 3 24.1387 38.5184 67.5109 23.0177 -0.6676 0.3460
# 4 19.2930 28.8634 23.0177 36.3744 7.4486 3.5982
# 5 -3.2244 8.6811 -0.6676 7.4486 34.4542 10.9570
# 6 -4.5775 -10.4150 0.3460 3.5982 10.9570 40.1803
#
#
#
# Elastic Compliance Matrix: (Units=1/GPa)
#
#
# Indices 1 2 3 4 5 6 
#
# 1 0.019662 0.002207 -0.004924 -0.009847 0.002332 0.003100
# 2 0.002207 0.008444 -0.003796 -0.005417 -0.001931 0.003485
# 3 -0.004924 -0.003796 0.021724 -0.008629 0.003380 -0.001881
# 4 -0.009847 -0.005417 -0.008629 0.044533 -0.007997 -0.004259
# 5 0.002332 -0.001931 0.003380 -0.007997 0.034359 -0.008918
# 6 0.003100 0.003485 -0.001881 -0.004259 -0.008918 0.028974
#
#
# Mechanical properties :
#
#
# Convention : Reuss Voigt Hill
#
# Bulk Modulus (GPa) = 27.17328 48.03061 37.60194
# Shear Modulus (GPa) = 27.32388 37.10879 32.21633
#
# Velocity S-wave (km/s) = 3.65243 4.25647 3.96597
# Velocity P-wave (km/s) = 5.57259 6.89975 6.27138
#
# Compressibility (1/GPa) = 0.03680085
#
# Stress axis : x y z
#
# Youngs Moduli (GPa) = 50.86074 118.43403 46.03148
#
# Poissons Ratio (x) = -0.26133 0.22668
# Poissons Ratio (y) = -0.11223 0.17475
# Poissons Ratio (z) = 0.25046 0.44962
#
# Static dielectric constant tensor:
#      x y z
#    x 1.673970 0.007730 0.014710 
#    y 0.007730 1.780380 0.033370 
#    z 0.014710 0.033370 1.768930 
# 
# From -- ./inp_files/333298.got.cif
#   From: 2010.05.17/outbox.cif.g08.bks.cpg/sg2_167_cif.got.tgz:333298.got - 2010.06.03 11:33:40.
