data_PCOD9055976
_publ_section_title
;
Structure prediction by ZEFSAII (Michael W. Deem and Ramdas Pophale) SiO2 
 PCOD9055976
Probable space group: P -1
;
_chemical_formula_sum "Si O2"
_cell_formula_units_Z 16
_cell_length_a 11.829284
_cell_length_b 9.595528
_cell_length_c 18.550357
_cell_angle_alpha 143.634987
_cell_angle_beta 132.219882
_cell_angle_gamma 74.144014
_cell_volume 732.580212
_symmetry_space_group_name_H-M "P -1"
_symmetry_group_IT_number 2
_symmetry_cell_setting 'triclinic'
loop_
_space_group_symop_operation_xyz
x,y,z
-x,-y,-z
loop_
_atom_site_type_symbol
_atom_site_label
_atom_site_fract_x
_atom_site_fract_y
_atom_site_fract_z
Si Si1 0.022809 0.708787 0.270376
Si Si2 0.930868 0.670031 0.669847
Si Si3 0.799266 0.723165 0.493153
Si Si4 0.627515 0.140514 0.426258
Si Si5 0.614151 0.367958 0.999565
Si Si6 0.325517 0.756148 0.874378
Si Si7 0.536013 0.280225 0.589450
Si Si8 0.028018 0.179694 0.013332
O O1 0.224374 0.877615 0.470140
O O2 0.969999 0.393620 0.092801
O O3 0.842293 0.626320 0.203807
O O4 0.055783 0.924445 0.310991
O O5 0.878450 0.616920 0.541620
O O6 0.771983 0.393888 0.536137
O O7 0.143933 0.760844 0.809089
O O8 0.928341 0.936926 0.807318
O O9 0.759971 0.554778 0.331253
O O10 0.609650 0.664422 0.420314
O O11 0.530187 0.220394 0.476482
O O12 0.463146 0.853495 0.193006
O O13 0.500000 0.500000 0.000000
O O14 0.580537 0.206245 0.992655
O O15 0.500000 0.000000 0.000000
O O16 0.750492 0.581447 0.815647
O O17 0.500000 0.000000 0.500000
O O18 0.000000 0.000000 0.000000
#
# Coordination Sequence:
#
# PCOD9055976 Si02
#       8
#     2   2   2   2   2   2   2   2
#     4  11  25  48  71 111 152 186 244 313 365 438
#     4  12  26  45  74 105 147 200 242 309 366 444
#     4  12  27  44  74 108 149 198 241 309 375 435
#     4  11  24  48  73 108 145 190 250 294 374 435
#     4  12  28  44  79 106 140 198 249 304 364 447
#     4  12  27  50  70 105 152 192 249 307 369 444
#     4  11  23  45  73 107 151 189 243 311 369 436
#     4  11  21  44  74 102 145 193 238 300 374 425
#
# _framework density 21.840612
#
# number of rings (size 3 to 8) (size 9 to 14) (size 15 to 20)
#    0.000    0.500    6.250    2.625    5.250    4.000 
#    0.000    0.000    0.000    0.000    0.000    0.000 
#    0.000    0.000    0.000    0.000    0.000    0.000 
#
# Total GULP energy -89448.222993 kJ/mol
# GULP energy per Si atom -5590.513937 kJ/mol
# Density = 2.179090 g / cm^3
# Si number density = 21.840612 Si / 1000 Ang^3
#
#
#
# Elastic Constant Matrix: (Units=GPa)
#
#
# Indices 1 2 3 4 5 6 
#
# 1 84.5267 27.9735 8.7236 -3.7196 10.5745 0.0735
# 2 27.9735 71.4112 4.3921 6.2821 11.8835 -1.6679
# 3 8.7236 4.3921 51.1028 -1.3474 1.0621 -1.6368
# 4 -3.7196 6.2821 -1.3474 39.5711 13.6595 4.6658
# 5 10.5745 11.8835 1.0621 13.6595 43.2203 6.3876
# 6 0.0735 -1.6679 -1.6368 4.6658 6.3876 32.4105
#
#
#
# Elastic Compliance Matrix: (Units=1/GPa)
#
#
# Indices 1 2 3 4 5 6 
#
# 1 0.014276 -0.005271 -0.001847 0.003169 -0.002960 -0.000270
# 2 -0.005271 0.016821 -0.000495 -0.002417 -0.002819 0.001756
# 3 -0.001847 -0.000495 0.019976 0.000548 -0.000217 0.000951
# 4 0.003169 -0.002417 0.000548 0.029391 -0.009036 -0.002554
# 5 -0.002960 -0.002819 -0.000217 -0.009036 0.028147 -0.004396
# 6 -0.000270 0.001756 0.000951 -0.002554 -0.004396 0.032227
#
#
# Mechanical properties :
#
#
# Convention : Reuss Voigt Hill
#
# Bulk Modulus (GPa) = 27.89711 32.13546 30.01629
# Shear Modulus (GPa) = 29.75941 34.10382 31.93162
#
# Velocity S-wave (km/s) = 3.69531 3.95585 3.82780
# Velocity P-wave (km/s) = 5.56847 5.96746 5.77141
#
# Compressibility (1/GPa) = 0.03584601
#
# Stress axis : x y z
#
# Youngs Moduli (GPa) = 70.04934 59.44819 50.06079
#
# Poissons Ratio (x) = 0.31336 0.09249
# Poissons Ratio (y) = 0.36923 0.02477
# Poissons Ratio (z) = 0.12941 0.02942
#
# Static dielectric constant tensor:
#      x y z
#    x 1.776630 0.018810 0.001390 
#    y 0.018810 1.827260 0.000840 
#    z 0.001390 0.000840 1.771290 
# 
# From -- ./inp_files/567057.got.cif
#   From: 2010.05.17/outbox.cif.g08.bks.cpg/sg2_284_cif.got.tgz:567057.got - 2010.06.03 11:33:40.
