data_PCOD9055313
_publ_section_title
;
Structure prediction by ZEFSAII (Michael W. Deem and Ramdas Pophale) SiO2 
 PCOD9055313
Probable space group: P -1
;
_chemical_formula_sum "Si O2"
_cell_formula_units_Z 16
_cell_length_a 11.548571
_cell_length_b 8.821458
_cell_length_c 18.148886
_cell_angle_alpha 97.110690
_cell_angle_beta 154.593431
_cell_angle_gamma 71.150548
_cell_volume 683.399916
_symmetry_space_group_name_H-M "P -1"
_symmetry_group_IT_number 2
_symmetry_cell_setting 'triclinic'
loop_
_space_group_symop_operation_xyz
x,y,z
-x,-y,-z
loop_
_atom_site_type_symbol
_atom_site_label
_atom_site_fract_x
_atom_site_fract_y
_atom_site_fract_z
Si Si1 0.281463 0.570925 0.452457
Si Si2 0.770425 0.443180 0.046027
Si Si3 0.758199 0.773095 0.577917
Si Si4 0.887927 0.439894 0.862406
Si Si5 0.706727 0.182763 0.154846
Si Si6 0.775803 0.131443 0.815523
Si Si7 0.323669 0.117114 0.817794
Si Si8 0.327045 0.334794 0.697168
O O1 0.500000 0.500000 0.500000
O O2 0.195923 0.422774 0.417278
O O3 0.521059 0.568659 0.649352
O O4 0.969229 0.756063 0.289730
O O5 0.046937 0.274852 0.235798
O O6 0.936648 0.531405 0.102132
O O7 0.525025 0.608140 0.963310
O O8 0.566373 0.387689 0.875315
O O9 0.392317 0.896985 0.355099
O O10 0.952983 0.840747 0.647627
O O11 0.926329 0.247453 0.881201
O O12 0.000000 0.500000 0.000000
O O13 0.654266 0.071400 0.181170
O O14 0.619346 0.112109 0.027060
O O15 0.476538 0.244368 0.701148
O O16 0.000000 0.000000 0.000000
O O17 0.285502 0.208223 0.723097
O O18 0.000000 0.500000 0.500000
#
# Coordination Sequence:
#
# PCOD9055313 Si02
#       8
#     2   2   2   2   2   2   2   2
#     4  11  21  41  67  95 128 176 224 272 330 406
#     4  12  22  42  74  97 129 185 231 274 333 412
#     4  11  22  45  69  96 130 182 228 270 335 416
#     4  11  23  41  65  97 132 174 228 269 334 410
#     4  11  23  41  66 102 135 168 224 288 333 395
#     4  11  27  46  68  99 145 177 219 290 351 399
#     4  11  24  40  66 101 137 167 226 288 339 389
#     4  12  25  46  71 101 136 185 230 276 337 411
#
# _framework density 23.412353
#
# number of rings (size 3 to 8) (size 9 to 14) (size 15 to 20)
#    0.000    0.750    5.000    3.375    1.750    1.000 
#    2.250    2.500    0.000    0.000    0.000    0.000 
#    0.000    0.000    0.000    0.000    0.000    0.000 
#
# Total GULP energy -89295.304187 kJ/mol
# GULP energy per Si atom -5580.956512 kJ/mol
# Density = 2.335907 g / cm^3
# Si number density = 23.412353 Si / 1000 Ang^3
#
#
#
# Elastic Constant Matrix: (Units=GPa)
#
#
# Indices 1 2 3 4 5 6 
#
# 1 69.7622 43.3249 16.2092 -3.9181 -1.2148 37.3376
# 2 43.3249 105.3725 53.3587 5.9277 5.4630 34.4407
# 3 16.2092 53.3587 174.4080 19.8839 -18.6646 14.0537
# 4 -3.9181 5.9277 19.8839 50.9062 4.6946 1.3851
# 5 -1.2148 5.4630 -18.6646 4.6946 34.9039 -3.2808
# 6 37.3376 34.4407 14.0537 1.3851 -3.2808 47.2277
#
#
#
# Elastic Compliance Matrix: (Units=1/GPa)
#
#
# Indices 1 2 3 4 5 6 
#
# 1 0.027559 -0.005874 0.000293 0.003177 -0.000055 -0.017688
# 2 -0.005874 0.016740 -0.004704 0.000167 -0.005981 -0.006584
# 3 0.000293 -0.004704 0.007989 -0.003098 0.005557 0.001298
# 4 0.003177 0.000167 -0.003098 0.021588 -0.004727 -0.002673
# 5 -0.000055 -0.005981 0.005557 -0.004727 0.033683 0.005230
# 6 -0.017688 -0.006584 0.001298 -0.002673 0.005230 0.040015
#
#
# Mechanical properties :
#
#
# Convention : Reuss Voigt Hill
#
# Bulk Modulus (GPa) = 31.52815 63.92537 47.72676
# Shear Modulus (GPa) = 27.97722 42.38421 35.18072
#
# Velocity S-wave (km/s) = 3.46059 4.25942 3.88062
# Velocity P-wave (km/s) = 5.42801 7.18008 6.36463
#
# Compressibility (1/GPa) = 0.03171769
#
# Stress axis : x y z
#
# Youngs Moduli (GPa) = 36.28615 59.73644 125.17332
#
# Poissons Ratio (x) = 0.35089 -0.03669
# Poissons Ratio (y) = 0.21315 0.58884
# Poissons Ratio (z) = -0.01064 0.28101
#
# Static dielectric constant tensor:
#      x y z
#    x 2.161030 -0.003110 -0.124440 
#    y -0.003110 1.857830 -0.038570 
#    z -0.124440 -0.038570 2.227070 
# 
# From -- ./inp_files/611653.got.cif
#   From: 2010.05.17/outbox.cif.g08.bks.cpg/sg2_306_cif.got.tgz:611653.got - 2010.06.03 11:33:40.
