data_PCOD9055968
_publ_section_title
;
Structure prediction by ZEFSAII (Michael W. Deem and Ramdas Pophale) SiO2 
 PCOD9055968
Probable space group: P -1
;
_chemical_formula_sum "Si O2"
_cell_formula_units_Z 16
_cell_length_a 18.109272
_cell_length_b 28.541103
_cell_length_c 12.112130
_cell_angle_alpha 31.035527
_cell_angle_beta 158.938167
_cell_angle_gamma 159.763091
_cell_volume 769.312096
_symmetry_space_group_name_H-M "P -1"
_symmetry_group_IT_number 2
_symmetry_cell_setting 'triclinic'
loop_
_space_group_symop_operation_xyz
x,y,z
-x,-y,-z
loop_
_atom_site_type_symbol
_atom_site_label
_atom_site_fract_x
_atom_site_fract_y
_atom_site_fract_z
Si Si1 0.350609 0.248526 0.854557
Si Si2 0.230636 0.449913 0.800025
Si Si3 0.346712 0.941986 0.780772
Si Si4 0.649298 0.854577 0.329486
Si Si5 0.563884 0.184387 0.453963
Si Si6 0.697603 0.319135 0.597443
Si Si7 0.647815 0.376509 0.795850
Si Si8 0.642453 0.522290 0.819814
O O1 0.593496 0.310424 0.970518
O O2 0.462039 0.376465 0.814113
O O3 0.017701 0.158546 0.518618
O O4 0.346796 0.162466 0.106831
O O5 0.187191 0.539810 0.523702
O O6 0.904173 0.290634 0.659952
O O7 0.500000 0.500000 0.000000
O O8 0.329986 0.479459 0.006624
O O9 0.471893 0.059839 0.633160
O O10 0.438276 0.875266 0.991994
O O11 0.500000 0.000000 0.000000
O O12 0.578361 0.791071 0.480379
O O13 0.539907 0.742207 0.317681
O O14 0.000000 0.000000 0.500000
O O15 0.598684 0.263075 0.448635
O O16 0.003760 0.361270 0.966191
O O17 0.519330 0.435811 0.512790
O O18 0.000000 0.500000 0.000000
#
# Coordination Sequence:
#
# PCOD9055968 Si02
#       8
#     2   2   2   2   2   2   2   2
#     4  12  24  46  71 103 139 184 243 290 351 433
#     4  11  23  39  72 106 142 177 227 298 363 410
#     4  12  26  48  72  98 137 196 240 283 353 440
#     4  12  27  44  69 105 141 184 241 292 357 427
#     4  11  24  45  72 102 136 184 238 285 346 432
#     4  11  21  44  73  98 139 181 239 283 352 429
#     4  12  27  43  67 103 147 182 235 303 360 406
#     4  11  22  43  72 102 136 187 238 284 347 430
#
# _framework density 20.797801
#
# number of rings (size 3 to 8) (size 9 to 14) (size 15 to 20)
#    0.000    0.500    3.750    5.250    8.750    0.000 
#    0.000    0.625    0.000    0.000    0.000    0.000 
#    0.000    0.000    0.000    0.000    0.000    0.000 
#
# Total GULP energy -89524.244266 kJ/mol
# GULP energy per Si atom -5595.265267 kJ/mol
# Density = 2.075046 g / cm^3
# Si number density = 20.797801 Si / 1000 Ang^3
#
#
#
# Elastic Constant Matrix: (Units=GPa)
#
#
# Indices 1 2 3 4 5 6 
#
# 1 82.3916 25.4122 23.6831 4.2239 -2.8586 23.8868
# 2 25.4122 90.5463 18.6641 3.7055 -5.8331 37.1804
# 3 23.6831 18.6641 77.2726 -6.7801 -21.2398 19.1246
# 4 4.2239 3.7055 -6.7801 41.3428 -3.8270 0.7465
# 5 -2.8586 -5.8331 -21.2398 -3.8270 28.7320 0.5708
# 6 23.8868 37.1804 19.1246 0.7465 0.5708 36.9189
#
#
#
# Elastic Compliance Matrix: (Units=1/GPa)
#
#
# Indices 1 2 3 4 5 6 
#
# 1 0.015544 -0.000438 -0.003138 -0.002010 -0.000972 -0.007935
# 2 -0.000438 0.019591 0.002050 -0.000467 0.005796 -0.020589
# 3 -0.003138 0.002050 0.021344 0.005402 0.016830 -0.011460
# 4 -0.002010 -0.000467 0.005402 0.026017 0.007197 -0.001665
# 5 -0.000972 0.005796 0.016830 0.007197 0.049579 -0.014838
# 6 -0.007935 -0.020589 -0.011460 -0.001665 -0.014838 0.059155
#
#
# Mechanical properties :
#
#
# Convention : Reuss Voigt Hill
#
# Bulk Modulus (GPa) = 18.71689 42.85881 30.78785
# Shear Modulus (GPa) = 23.57480 33.56214 28.56847
#
# Velocity S-wave (km/s) = 3.37044 4.02149 3.71027
# Velocity P-wave (km/s) = 4.91584 6.49733 5.76111
#
# Compressibility (1/GPa) = 0.05342768
#
# Stress axis : x y z
#
# Youngs Moduli (GPa) = 64.33339 51.04380 46.85131
#
# Poissons Ratio (x) = 0.02234 0.14702
# Poissons Ratio (y) = 0.02816 -0.09605
# Poissons Ratio (z) = 0.20188 -0.10464
#
# Static dielectric constant tensor:
#      x y z
#    x 1.726390 0.015520 -0.015390 
#    y 0.015520 1.775420 -0.010730 
#    z -0.015390 -0.010730 1.760450 
# 
# From -- ./inp_files/399579.got.cif
#   From: 2010.05.17/outbox.cif.g08.bks.cpg/sg2_200_cif.got.tgz:399579.got - 2010.06.03 11:33:40.
