data_PCOD9055841
_publ_section_title
;
Structure prediction by ZEFSAII (Michael W. Deem and Ramdas Pophale) SiO2 
 PCOD9055841
Probable space group: P -1
;
_chemical_formula_sum "Si O2"
_cell_formula_units_Z 12
_cell_length_a 8.506538
_cell_length_b 9.429171
_cell_length_c 11.808689
_cell_angle_alpha 38.858953
_cell_angle_beta 57.468412
_cell_angle_gamma 77.672780
_cell_volume 461.758865
_symmetry_space_group_name_H-M "P -1"
_symmetry_group_IT_number 2
_symmetry_cell_setting 'triclinic'
loop_
_space_group_symop_operation_xyz
x,y,z
-x,-y,-z
loop_
_atom_site_type_symbol
_atom_site_label
_atom_site_fract_x
_atom_site_fract_y
_atom_site_fract_z
Si Si1 0.880002 0.654141 0.999246
Si Si2 0.570401 0.106655 0.653822
Si Si3 0.216067 0.712653 0.310055
Si Si4 0.167161 0.039526 0.508199
Si Si5 0.784911 0.853348 0.118963
Si Si6 0.454829 0.579917 0.122659
O O1 0.811065 0.641730 0.163952
O O2 0.680289 0.595552 0.038891
O O3 0.042185 0.929368 0.738518
O O4 0.000000 0.500000 0.000000
O O5 0.731550 0.217460 0.623895
O O6 0.394187 0.206550 0.682555
O O7 0.689874 0.105137 0.493661
O O8 0.461174 0.812828 0.903451
O O9 0.376389 0.615875 0.254114
O O10 0.000000 0.500000 0.500000
O O11 0.247560 0.959349 0.075371
O O12 0.304182 0.323335 0.292772
O O13 0.000000 0.000000 0.500000
O O14 0.000000 0.000000 0.000000
#
# Coordination Sequence:
#
# PCOD9055841 Si02
#       6
#     2   2   2   2   2   2
#     4  12  27  46  66  98 143 181 220 283 350 402
#     4  11  22  44  73 103 134 178 232 282 335 408
#     4  11  21  43  74  99 132 179 231 279 335 408
#     4  12  25  43  71 106 132 176 236 277 337 410
#     4  11  24  45  66  98 135 179 226 281 339 397
#     4  11  22  43  72  97 138 178 227 279 336 403
#
# _framework density 25.987590999999998
#
# number of rings (size 3 to 8) (size 9 to 14) (size 15 to 20)
#    0.000    0.667    5.000    3.500    2.333    3.333 
#    3.000    1.667    0.000    0.000    0.000    0.000 
#    0.000    0.000    0.000    0.000    0.000    0.000 
#
# Total GULP energy -67279.057148 kJ/mol
# GULP energy per Si atom -5606.588096 kJ/mol
# Density = 2.592844 g / cm^3
# Si number density = 25.987591 Si / 1000 Ang^3
#
#
#
# Elastic Constant Matrix: (Units=GPa)
#
#
# Indices 1 2 3 4 5 6 
#
# 1 90.9014 53.0291 34.6007 2.0094 -31.1011 -14.4081
# 2 53.0291 184.9865 40.5694 4.0864 -23.3763 -28.3927
# 3 34.6007 40.5694 115.9348 -0.9235 -28.1112 -0.6730
# 4 2.0094 4.0864 -0.9235 54.7515 3.1420 -21.7681
# 5 -31.1011 -23.3763 -28.1112 3.1420 51.1795 -0.1511
# 6 -14.4081 -28.3927 -0.6730 -21.7681 -0.1511 54.4792
#
#
#
# Elastic Compliance Matrix: (Units=1/GPa)
#
#
# Indices 1 2 3 4 5 6 
#
# 1 0.016527 -0.002872 -0.002068 0.000331 0.007584 0.003002
# 2 -0.002872 0.007112 -0.001444 0.000805 0.000670 0.003252
# 3 -0.002068 -0.001444 0.010703 -0.000385 0.003982 -0.001310
# 4 0.000331 0.000805 -0.000385 0.021922 -0.000961 0.009259
# 5 0.007584 0.000670 0.003982 -0.000961 0.026706 0.002094
# 6 0.003002 0.003252 -0.001310 0.009259 0.002094 0.024534
#
#
# Mechanical properties :
#
#
# Convention : Reuss Voigt Hill
#
# Bulk Modulus (GPa) = 46.35416 72.02454 59.18935
# Shear Modulus (GPa) = 39.22682 49.65694 44.44188
#
# Velocity S-wave (km/s) = 3.88937 4.37601 4.13985
# Velocity P-wave (km/s) = 6.16809 7.30121 6.75844
#
# Compressibility (1/GPa) = 0.02157304
#
# Stress axis : x y z
#
# Youngs Moduli (GPa) = 60.50677 140.60905 93.43211
#
# Poissons Ratio (x) = 0.40388 0.19326
# Poissons Ratio (y) = 0.17380 0.13488
# Poissons Ratio (z) = 0.12516 0.20299
#
# Static dielectric constant tensor:
#      x y z
#    x 1.996190 -0.046890 0.038110 
#    y -0.046890 2.077330 -0.026200 
#    z 0.038110 -0.026200 2.070410 
# 
# From -- ./inp_files/152013.got.cif
#   From: 2010.05.17/outbox.cif.g08.bks.cpg/sg2_77_cif.got.tgz:152013.got - 2010.06.03 11:33:40.
