data_PCOD9055053
_publ_section_title
;
Structure prediction by ZEFSAII (Michael W. Deem and Ramdas Pophale) SiO2 
 PCOD9055053
Probable space group: P -1
;
_chemical_formula_sum "Si O2"
_cell_formula_units_Z 14
_cell_length_a 11.722958
_cell_length_b 9.047600
_cell_length_c 14.098027
_cell_angle_alpha 82.280456
_cell_angle_beta 54.936231
_cell_angle_gamma 128.881579
_cell_volume 600.022855
_symmetry_space_group_name_H-M "P -1"
_symmetry_group_IT_number 2
_symmetry_cell_setting 'triclinic'
loop_
_space_group_symop_operation_xyz
x,y,z
-x,-y,-z
loop_
_atom_site_type_symbol
_atom_site_label
_atom_site_fract_x
_atom_site_fract_y
_atom_site_fract_z
Si Si1 0.675262 0.388824 0.436260
Si Si2 0.060418 0.991797 0.209821
Si Si3 0.267784 0.312680 0.900336
Si Si4 0.627309 0.925861 0.677594
Si Si5 0.180354 0.315754 0.473159
Si Si6 0.520800 0.171009 0.033799
Si Si7 0.153473 0.774141 0.651158
O O1 0.806546 0.663263 0.308441
O O2 0.823206 0.380478 0.323243
O O3 0.744141 0.479829 0.506852
O O4 0.349729 0.056951 0.600194
O O5 0.196196 0.231608 0.052597
O O6 0.293709 0.083363 0.117519
O O7 0.922721 0.907919 0.383353
O O8 0.000000 0.000000 0.000000
O O9 0.374568 0.577536 0.804524
O O10 0.458860 0.532794 0.266337
O O11 0.914450 0.106879 0.554308
O O12 0.711713 0.093249 0.529591
O O13 0.534824 0.916353 0.821111
O O14 0.832130 0.519242 0.834005
O O15 0.500000 0.000000 0.000000
#
# Coordination Sequence:
#
# PCOD9055053 Si02
#       7
#     2   2   2   2   2   2   2
#     4   9  21  42  60  91 124 171 193 255 329 347
#     4   9  21  42  60  87 127 159 206 253 301 364
#     4  12  25  39  63  93 125 165 212 255 300 365
#     4  11  25  39  64  97 118 168 212 242 314 370
#     4   9  22  43  60  88 123 165 205 252 315 354
#     4  11  22  41  67  98 119 162 207 254 314 365
#     4  11  21  40  64  90 133 152 207 261 302 375
#
# _framework density 23.332442
#
# number of rings (size 3 to 8) (size 9 to 14) (size 15 to 20)
#    0.857    0.857    1.429    2.143    2.000    7.429 
#    0.000    1.429    0.000    0.000    0.000    0.000 
#    0.000    0.000    0.000    0.000    0.000    0.000 
#
# Total GULP energy -78218.295297 kJ/mol
# GULP energy per Si atom -5587.021093 kJ/mol
# Density = 2.327934 g / cm^3
# Si number density = 23.332442 Si / 1000 Ang^3
#
#
#
# Elastic Constant Matrix: (Units=GPa)
#
#
# Indices 1 2 3 4 5 6 
#
# 1 19.6926 15.7381 18.0160 -0.6987 1.1977 -1.4132
# 2 15.7381 129.7909 55.2826 -4.9528 -20.1096 3.6030
# 3 18.0160 55.2826 136.5858 -10.3441 -0.9934 -2.7854
# 4 -0.6987 -4.9528 -10.3441 38.9375 10.3148 -4.1738
# 5 1.1977 -20.1096 -0.9934 10.3148 28.7876 2.1075
# 6 -1.4132 3.6030 -2.7854 -4.1738 2.1075 25.8375
#
#
#
# Elastic Compliance Matrix: (Units=1/GPa)
#
#
# Indices 1 2 3 4 5 6 
#
# 1 0.061803 -0.006563 -0.005345 0.001531 -0.008228 0.004638
# 2 -0.006563 0.011714 -0.004079 -0.002623 0.009521 -0.003632
# 3 -0.005345 -0.004079 0.009938 0.003208 -0.003592 0.002159
# 4 0.001531 -0.002623 0.003208 0.030451 -0.013193 0.006791
# 5 -0.008228 0.009521 -0.003592 -0.013193 0.046928 -0.008124
# 6 0.004638 -0.003632 0.002159 0.006791 -0.008124 0.041456
#
#
# Mechanical properties :
#
#
# Convention : Reuss Voigt Hill
#
# Bulk Modulus (GPa) = 19.42441 51.57140 35.49791
# Shear Modulus (GPa) = 19.88676 31.84802 25.86739
#
# Velocity S-wave (km/s) = 2.92262 3.69855 3.33324
# Velocity P-wave (km/s) = 4.44208 6.35531 5.48279
#
# Compressibility (1/GPa) = 0.05148160
#
# Stress axis : x y z
#
# Youngs Moduli (GPa) = 16.18051 85.37045 100.62143
#
# Poissons Ratio (x) = 0.56025 0.53783
# Poissons Ratio (y) = 0.10619 0.41043
# Poissons Ratio (z) = 0.08649 0.34822
#
# Static dielectric constant tensor:
#      x y z
#    x 1.900380 -0.004820 0.018060 
#    y -0.004820 1.906250 -0.007130 
#    z 0.018060 -0.007130 1.864870 
# 
# From -- ./inp_files/427982.got.cif
#   From: 2010.05.17/outbox.cif.g08.bks.cpg/sg2_214_cif.got.tgz:427982.got - 2010.06.03 11:33:40.
