data_PCOD9055751
_publ_section_title
;
Structure prediction by ZEFSAII (Michael W. Deem and Ramdas Pophale) SiO2 
 PCOD9055751
Probable space group: P -1
;
_chemical_formula_sum "Si O2"
_cell_formula_units_Z 16
_cell_length_a 18.619467
_cell_length_b 9.455037
_cell_length_c 14.930695
_cell_angle_alpha 140.730500
_cell_angle_beta 149.853210
_cell_angle_gamma 40.872089
_cell_volume 803.888209
_symmetry_space_group_name_H-M "P -1"
_symmetry_group_IT_number 2
_symmetry_cell_setting 'triclinic'
loop_
_space_group_symop_operation_xyz
x,y,z
-x,-y,-z
loop_
_atom_site_type_symbol
_atom_site_label
_atom_site_fract_x
_atom_site_fract_y
_atom_site_fract_z
Si Si1 0.612842 0.415744 0.161494
Si Si2 0.558566 0.724429 0.926606
Si Si3 0.136909 0.980539 0.384643
Si Si4 0.348763 0.105322 0.332077
Si Si5 0.865663 0.577875 0.276600
Si Si6 0.406925 0.547895 0.513966
Si Si7 0.180963 0.266125 0.405622
Si Si8 0.804605 0.140705 0.095473
O O1 0.524808 0.365479 0.126733
O O2 0.695422 0.608349 0.369577
O O3 0.730935 0.189233 0.137384
O O4 0.500000 0.500000 0.000000
O O5 0.509348 0.629682 0.736355
O O6 0.733048 0.644624 0.095446
O O7 0.500000 0.000000 0.000000
O O8 0.132753 0.196098 0.553012
O O9 0.182010 0.059536 0.374790
O O10 0.968180 0.963873 0.188237
O O11 0.256897 0.753017 0.436290
O O12 0.368702 0.322933 0.403583
O O13 0.220024 0.180055 0.304848
O O14 0.500000 0.000000 0.500000
O O15 0.302264 0.933694 0.127588
O O16 0.831289 0.384480 0.210806
O O17 0.022404 0.454230 0.339584
O O18 0.500000 0.500000 0.500000
#
# Coordination Sequence:
#
# PCOD9055751 Si02
#       8
#     2   2   2   2   2   2   2   2
#     4  12  21  40  70 101 129 174 235 274 323 398
#     4  12  25  42  68 101 134 179 225 280 337 394
#     4  11  22  44  68  99 138 173 221 284 342 394
#     4  12  26  45  66  99 136 178 231 279 331 407
#     4  11  21  43  70 102 135 168 229 283 338 389
#     4  12  28  46  65  97 142 180 220 277 348 402
#     4  11  22  42  71  98 131 177 224 282 332 396
#     4  11  23  40  72  98 130 180 225 275 338 402
#
# _framework density 19.903264
#
# number of rings (size 3 to 8) (size 9 to 14) (size 15 to 20)
#    0.000    0.500    6.250    3.000    1.750    3.500 
#    2.250    1.875    0.000    0.000    0.000    0.000 
#    0.000    0.000    0.000    0.000    0.000    0.000 
#
# Total GULP energy -89529.972800 kJ/mol
# GULP energy per Si atom -5595.623300 kJ/mol
# Density = 1.985796 g / cm^3
# Si number density = 19.903264 Si / 1000 Ang^3
#
#
#
# Elastic Constant Matrix: (Units=GPa)
#
#
# Indices 1 2 3 4 5 6 
#
# 1 120.9640 35.1699 26.2442 0.4669 -12.9571 -1.3487
# 2 35.1699 118.5373 31.1334 -19.9405 7.4923 6.0719
# 3 26.2442 31.1334 103.5761 -13.7231 -5.3595 0.0107
# 4 0.4669 -19.9405 -13.7231 37.7040 -5.0356 -3.7547
# 5 -12.9571 7.4923 -5.3595 -5.0356 32.8734 1.0786
# 6 -1.3487 6.0719 0.0107 -3.7547 1.0786 24.5759
#
#
#
# Elastic Compliance Matrix: (Units=1/GPa)
#
#
# Indices 1 2 3 4 5 6 
#
# 1 0.009981 -0.003135 -0.001604 -0.001731 0.004093 0.000879
# 2 -0.003135 0.010977 -0.002090 0.004434 -0.003332 -0.002060
# 3 -0.001604 -0.002090 0.011250 0.003383 0.002169 0.000845
# 4 -0.001731 0.004434 0.003383 0.030922 0.003484 0.003379
# 5 0.004093 -0.003332 0.002169 0.003484 0.033676 0.000101
# 6 0.000879 -0.002060 0.000845 0.003379 0.000101 0.041759
#
#
# Mechanical properties :
#
#
# Convention : Reuss Voigt Hill
#
# Bulk Modulus (GPa) = 53.90993 58.68580 56.29786
# Shear Modulus (GPa) = 31.56417 35.73266 33.64842
#
# Velocity S-wave (km/s) = 3.98663 4.24171 4.11615
# Velocity P-wave (km/s) = 6.95239 7.31704 7.13704
#
# Compressibility (1/GPa) = 0.01854946
#
# Stress axis : x y z
#
# Youngs Moduli (GPa) = 100.18590 91.09831 88.89033
#
# Poissons Ratio (x) = 0.28560 0.14262
# Poissons Ratio (y) = 0.31409 0.18578
# Poissons Ratio (z) = 0.16074 0.19039
#
# Static dielectric constant tensor:
#      x y z
#    x 1.675830 -0.027980 0.026870 
#    y -0.027980 1.712530 -0.005210 
#    z 0.026870 -0.005210 1.680180 
# 
# From -- ./inp_files/186832.got.cif
#   From: 2010.05.17/outbox.cif.g08.bks.cpg/sg2_94_cif.got.tgz:186832.got - 2010.06.03 11:33:40.
