data_PCOD9055828
_publ_section_title
;
Structure prediction by ZEFSAII (Michael W. Deem and Ramdas Pophale) SiO2 
 PCOD9055828
Probable space group: P -1
;
_chemical_formula_sum "Si O2"
_cell_formula_units_Z 14
_cell_length_a 8.489281
_cell_length_b 10.041177
_cell_length_c 15.050192
_cell_angle_alpha 52.125633
_cell_angle_beta 133.783515
_cell_angle_gamma 96.180923
_cell_volume 607.450672
_symmetry_space_group_name_H-M "P -1"
_symmetry_group_IT_number 2
_symmetry_cell_setting 'triclinic'
loop_
_space_group_symop_operation_xyz
x,y,z
-x,-y,-z
loop_
_atom_site_type_symbol
_atom_site_label
_atom_site_fract_x
_atom_site_fract_y
_atom_site_fract_z
Si Si1 0.295886 0.882347 0.634555
Si Si2 0.460756 0.872419 0.379405
Si Si3 0.231497 0.177511 0.774286
Si Si4 0.957505 0.964507 0.707769
Si Si5 0.253123 0.455723 0.236998
Si Si6 0.656634 0.564095 0.422125
Si Si7 0.758509 0.509873 0.994423
O O1 0.453036 0.662716 0.831509
O O2 0.447419 0.986886 0.677061
O O3 0.000000 0.000000 0.500000
O O4 0.262258 0.904384 0.505752
O O5 0.643610 0.749256 0.584870
O O6 0.525959 0.703438 0.400959
O O7 0.173545 0.994839 0.261824
O O8 0.302299 0.304255 0.687149
O O9 0.950216 0.357316 0.637495
O O10 0.140066 0.049098 0.740627
O O11 0.500000 0.000000 0.000000
O O12 0.114918 0.726441 0.848806
O O13 0.445092 0.522197 0.317285
O O14 0.253227 0.448885 0.133480
O O15 0.940331 0.573829 0.085234
#
# Coordination Sequence:
#
# PCOD9055828 Si02
#       7
#     2   2   2   2   2   2   2
#     4  12  26  46  68 101 141 184 225 286 353 407
#     4  12  23  44  73 102 136 186 226 284 350 407
#     4  11  25  46  70 101 139 188 228 279 345 413
#     4  12  24  46  71 101 139 182 231 285 347 407
#     4  11  21  43  74 100 137 180 227 287 341 400
#     4  11  25  47  69 102 146 180 226 288 346 407
#     4  11  24  44  73 104 134 178 237 286 339 408
#
# _framework density 23.047139999999999
#
# number of rings (size 3 to 8) (size 9 to 14) (size 15 to 20)
#    0.000    0.571    4.286    4.286    0.000    4.000 
#    7.714    3.571    0.000    0.000    0.000    0.000 
#    0.000    0.000    0.000    0.000    0.000    0.000 
#
# Total GULP energy -78104.255937 kJ/mol
# GULP energy per Si atom -5578.875424 kJ/mol
# Density = 2.299468 g / cm^3
# Si number density = 23.047140 Si / 1000 Ang^3
#
#
#
# Elastic Constant Matrix: (Units=GPa)
#
#
# Indices 1 2 3 4 5 6 
#
# 1 76.9802 35.4411 37.3520 -16.3934 16.8069 -3.5425
# 2 35.4411 115.6939 70.1061 2.9018 15.7506 19.9297
# 3 37.3520 70.1061 189.4135 -21.7397 21.7545 11.8320
# 4 -16.3934 2.9018 -21.7397 29.0487 4.5166 -5.8759
# 5 16.8069 15.7506 21.7545 4.5166 38.1842 -2.9407
# 6 -3.5425 19.9297 11.8320 -5.8759 -2.9407 39.4152
#
#
#
# Elastic Compliance Matrix: (Units=1/GPa)
#
#
# Indices 1 2 3 4 5 6 
#
# 1 0.021850 -0.007886 0.001014 0.016694 -0.008338 0.007513
# 2 -0.007886 0.015991 -0.005231 -0.011861 0.000569 -0.008950
# 3 0.001014 -0.005231 0.008330 0.008173 -0.003912 0.001162
# 4 0.016694 -0.011861 0.008173 0.055633 -0.012738 0.012388
# 5 -0.008338 0.000569 -0.003912 -0.012738 0.033416 0.000731
# 6 0.007513 -0.008950 0.001162 0.012388 0.000731 0.032124
#
#
# Mechanical properties :
#
#
# Convention : Reuss Voigt Hill
#
# Bulk Modulus (GPa) = 45.52524 74.20957 59.86740
# Shear Modulus (GPa) = 25.14179 37.27553 31.20866
#
# Velocity S-wave (km/s) = 3.30644 4.02600 3.68383
# Velocity P-wave (km/s) = 5.86282 7.34034 6.64279
#
# Compressibility (1/GPa) = 0.02196584
#
# Stress axis : x y z
#
# Youngs Moduli (GPa) = 45.76630 62.53572 120.04393
#
# Poissons Ratio (x) = 0.49315 -0.12176
# Poissons Ratio (y) = 0.36091 0.62797
# Poissons Ratio (z) = -0.04642 0.32713
#
# Static dielectric constant tensor:
#      x y z
#    x 1.949850 -0.059910 0.080780 
#    y -0.059910 1.876220 -0.040360 
#    z 0.080780 -0.040360 1.914180 
# 
# From -- ./inp_files/559806.got.cif
#   From: 2010.05.17/outbox.cif.g08.bks.cpg/sg2_280_cif.got.tgz:559806.got - 2010.06.03 11:33:40.
