data_PCOD9055548
_publ_section_title
;
Structure prediction by ZEFSAII (Michael W. Deem and Ramdas Pophale) SiO2 
 PCOD9055548
Probable space group: P -1
;
_chemical_formula_sum "Si O2"
_cell_formula_units_Z 14
_cell_length_a 15.488232
_cell_length_b 6.213159
_cell_length_c 12.577004
_cell_angle_alpha 47.612098
_cell_angle_beta 46.084487
_cell_angle_gamma 66.870246
_cell_volume 637.557969
_symmetry_space_group_name_H-M "P -1"
_symmetry_group_IT_number 2
_symmetry_cell_setting 'triclinic'
loop_
_space_group_symop_operation_xyz
x,y,z
-x,-y,-z
loop_
_atom_site_type_symbol
_atom_site_label
_atom_site_fract_x
_atom_site_fract_y
_atom_site_fract_z
Si Si1 0.451796 0.850602 0.333955
Si Si2 0.070448 0.271370 0.079357
Si Si3 0.092668 0.055153 0.497452
Si Si4 0.411160 0.593794 0.891801
Si Si5 0.327779 0.933694 0.214277
Si Si6 0.653529 0.453155 0.268825
Si Si7 0.807751 0.291532 0.812508
O O1 0.579342 0.721788 0.273371
O O2 0.366510 0.738988 0.543249
O O3 0.483067 0.201782 0.205008
O O4 0.398091 0.752673 0.297354
O O5 0.111011 0.945436 0.131379
O O6 0.207125 0.445433 0.916318
O O7 0.970655 0.168259 0.288112
O O8 0.000000 0.500000 0.000000
O O9 0.218394 0.986844 0.367258
O O10 0.114990 0.400351 0.390279
O O11 0.000000 0.000000 0.500000
O O12 0.407348 0.686502 0.740673
O O13 0.409646 0.244881 0.018007
O O14 0.285989 0.644248 0.038298
O O15 0.269370 0.822091 0.189256
#
# Coordination Sequence:
#
# PCOD9055548 Si02
#       7
#     2   2   2   2   2   2   2
#     4  11  24  42  69  96 135 180 223 281 334 406
#     4  12  23  44  69  96 137 179 230 279 336 409
#     4  11  23  43  71  98 138 179 223 283 338 404
#     4  11  21  42  69  97 136 175 225 282 338 397
#     4  11  23  41  70 101 133 175 233 270 338 407
#     4  11  24  45  64  96 140 174 226 280 344 396
#     4  11  23  44  72 102 140 177 225 287 342 399
#
# _framework density 21.958788999999999
#
# number of rings (size 3 to 8) (size 9 to 14) (size 15 to 20)
#    0.000    0.857    4.286    3.000    0.000    4.571 
#    0.000    5.714    0.000    0.000    0.000    0.000 
#    0.000    0.000    0.000    0.000    0.000    0.000 
#
# Total GULP energy -78039.036155 kJ/mol
# GULP energy per Si atom -5574.216868 kJ/mol
# Density = 2.190881 g / cm^3
# Si number density = 21.958789 Si / 1000 Ang^3
#
#
#
# Elastic Constant Matrix: (Units=GPa)
#
#
# Indices 1 2 3 4 5 6 
#
# 1 87.2874 43.2220 42.9780 -19.9901 14.6003 -1.9999
# 2 43.2220 60.0603 48.0692 2.7508 13.8285 13.1988
# 3 42.9780 48.0692 163.0652 1.8232 18.7432 2.4101
# 4 -19.9901 2.7508 1.8232 43.5689 1.1103 -2.8980
# 5 14.6003 13.8285 18.7432 1.1103 43.1111 -1.0767
# 6 -1.9999 13.1988 2.4101 -2.8980 -1.0767 29.6199
#
#
#
# Elastic Compliance Matrix: (Units=1/GPa)
#
#
# Indices 1 2 3 4 5 6 
#
# 1 0.026248 -0.021290 -0.000786 0.014307 -0.001771 0.012659
# 2 -0.021290 0.043280 -0.006195 -0.013579 -0.004171 -0.021700
# 3 -0.000786 -0.006195 0.008287 -0.000152 -0.001297 0.001971
# 4 0.014307 -0.013579 -0.000152 0.031072 -0.000973 0.010034
# 5 -0.001771 -0.004171 -0.001297 -0.000973 0.025790 0.002687
# 6 0.012659 -0.021700 0.001971 0.010034 0.002687 0.045204
#
#
# Mechanical properties :
#
#
# Convention : Reuss Voigt Hill
#
# Bulk Modulus (GPa) = 47.00426 64.32793 55.66609
# Shear Modulus (GPa) = 20.53258 35.00289 27.76774
#
# Velocity S-wave (km/s) = 3.06118 3.99686 3.55989
# Velocity P-wave (km/s) = 5.82637 7.11746 6.50403
#
# Compressibility (1/GPa) = 0.02127467
#
# Stress axis : x y z
#
# Youngs Moduli (GPa) = 38.09783 23.10515 120.66481
#
# Poissons Ratio (x) = 0.49191 0.09480
# Poissons Ratio (y) = 0.81110 0.74753
# Poissons Ratio (z) = 0.02993 0.14314
#
# Static dielectric constant tensor:
#      x y z
#    x 1.653450 0.033020 -0.001140 
#    y 0.033020 1.819950 -0.015210 
#    z -0.001140 -0.015210 1.781210 
# 
# From -- ./inp_files/318019.got.cif
#   From: 2010.05.17/outbox.cif.g08.bks.cpg/sg2_160_cif.got.tgz:318019.got - 2010.06.03 11:33:40.
