data_PCOD9055833
_publ_section_title
;
Structure prediction by ZEFSAII (Michael W. Deem and Ramdas Pophale) SiO2 
 PCOD9055833
Probable space group: P -1
;
_chemical_formula_sum "Si O2"
_cell_formula_units_Z 15
_cell_length_a 16.113257
_cell_length_b 13.382720
_cell_length_c 9.278151
_cell_angle_alpha 131.592656
_cell_angle_beta 56.671486
_cell_angle_gamma 153.812971
_cell_volume 653.810623
_symmetry_space_group_name_H-M "P -1"
_symmetry_group_IT_number 2
_symmetry_cell_setting 'triclinic'
loop_
_space_group_symop_operation_xyz
x,y,z
-x,-y,-z
loop_
_atom_site_type_symbol
_atom_site_label
_atom_site_fract_x
_atom_site_fract_y
_atom_site_fract_z
Si Si1 0.906908 0.265230 0.442498
Si Si2 0.142005 0.350170 0.932756
Si Si3 0.848106 0.710434 0.826355
Si Si4 0.483304 0.126055 0.072561
Si Si5 0.757921 0.970847 0.572996
Si Si6 0.748483 0.024587 0.077868
Si Si7 0.462392 0.484145 0.189049
Si Si8 0.000000 0.000000 0.500000
O O1 0.741263 0.037565 0.268720
O O2 0.000000 0.500000 0.500000
O O3 0.048824 0.303157 0.337402
O O4 0.840267 0.182717 0.592281
O O5 0.306238 0.589115 0.901093
O O6 0.239208 0.425202 0.064439
O O7 0.053978 0.120326 0.720885
O O8 0.967846 0.249242 0.041015
O O9 0.701802 0.593027 0.735739
O O10 0.000000 0.000000 0.000000
O O11 0.384571 0.118905 0.266938
O O12 0.500000 0.000000 0.000000
O O13 0.346721 0.966738 0.910720
O O14 0.634778 0.734557 0.358180
O O15 0.906152 0.044721 0.585482
O O16 0.631863 0.758140 0.892932
O O17 0.500000 0.500000 0.000000
#
# Coordination Sequence:
#
# PCOD9055833 Si02
#       8
#     2   2   2   2   2   2   2   1
#     4  11  26  46  74 108 147 198 254 306 378 455
#     4  11  25  42  74 106 145 197 237 301 375 450
#     4  11  21  43  74 106 139 192 244 306 377 436
#     4  12  30  49  69 105 154 207 251 296 376 461
#     4  12  28  45  75 115 149 197 253 319 375 453
#     4  11  24  48  74 105 151 194 245 317 372 449
#     4  12  22  44  74 114 146 179 253 319 380 429
#     4  12  24  46  74 108 150 182 250 310 384 438
#
# _framework density 22.942425
#
# number of rings (size 3 to 8) (size 9 to 14) (size 15 to 20)
#    0.000    0.533    5.333    3.200    5.600    3.733 
#    0.000    1.333    0.000    0.000    0.000    0.000 
#    0.000    0.000    0.000    0.000    0.000    0.000 
#
# Total GULP energy -83633.157996 kJ/mol
# GULP energy per Si atom -5575.543866 kJ/mol
# Density = 2.289021 g / cm^3
# Si number density = 22.942425 Si / 1000 Ang^3
#
#
#
# Elastic Constant Matrix: (Units=GPa)
#
#
# Indices 1 2 3 4 5 6 
#
# 1 179.0603 37.3975 5.2978 0.7246 1.4807 -2.2052
# 2 37.3975 121.0281 13.1343 -17.4812 -10.4759 -18.8830
# 3 5.2978 13.1343 42.4728 -10.2525 5.5012 -4.8423
# 4 0.7246 -17.4812 -10.2525 32.9700 -3.0672 3.4242
# 5 1.4807 -10.4759 5.5012 -3.0672 36.4686 2.7176
# 6 -2.2052 -18.8830 -4.8423 3.4242 2.7176 33.1040
#
#
#
# Elastic Compliance Matrix: (Units=1/GPa)
#
#
# Indices 1 2 3 4 5 6 
#
# 1 0.006066 -0.002229 -0.000379 -0.001444 -0.000899 -0.000700
# 2 -0.002229 0.010978 -0.001767 0.005129 0.003567 0.005031
# 3 -0.000379 -0.001767 0.026573 0.006691 -0.004124 0.002500
# 4 -0.001444 0.005129 0.006691 0.035506 0.003520 -0.000153
# 5 -0.000899 0.003567 -0.004124 0.003520 0.029506 -0.001415
# 6 -0.000700 0.005031 0.002500 -0.000153 -0.001415 0.033529
#
#
# Mechanical properties :
#
#
# Convention : Reuss Voigt Hill
#
# Bulk Modulus (GPa) = 28.68097 50.46893 39.57495
# Shear Modulus (GPa) = 30.76371 39.62395 35.19383
#
# Velocity S-wave (km/s) = 3.66582 4.16035 3.92089
# Velocity P-wave (km/s) = 5.51779 6.71743 6.14695
#
# Compressibility (1/GPa) = 0.03486632
#
# Stress axis : x y z
#
# Youngs Moduli (GPa) = 164.85125 91.09458 37.63272
#
# Poissons Ratio (x) = 0.20303 0.01428
# Poissons Ratio (y) = 0.36741 0.06649
# Poissons Ratio (z) = 0.06254 0.16096
#
# Static dielectric constant tensor:
#      x y z
#    x 1.840350 -0.033020 0.038910 
#    y -0.033020 1.899000 0.020440 
#    z 0.038910 0.020440 1.796310 
# 
# From -- ./inp_files/308500.got.cif
#   From: 2010.05.17/outbox.cif.g08.bks.cpg/sg2_155_cif.got.tgz:308500.got - 2010.06.03 11:33:40.
