data_PCOD9055316
_publ_section_title
;
Structure prediction by ZEFSAII (Michael W. Deem and Ramdas Pophale) SiO2 
 PCOD9055316
Probable space group: P -1
;
_chemical_formula_sum "Si O2"
_cell_formula_units_Z 14
_cell_length_a 9.227106
_cell_length_b 15.222932
_cell_length_c 12.642321
_cell_angle_alpha 46.762652
_cell_angle_beta 30.674374
_cell_angle_gamma 61.417440
_cell_volume 630.008532
_symmetry_space_group_name_H-M "P -1"
_symmetry_group_IT_number 2
_symmetry_cell_setting 'triclinic'
loop_
_space_group_symop_operation_xyz
x,y,z
-x,-y,-z
loop_
_atom_site_type_symbol
_atom_site_label
_atom_site_fract_x
_atom_site_fract_y
_atom_site_fract_z
Si Si1 0.909301 0.858092 0.712732
Si Si2 0.216710 0.345158 0.224294
Si Si3 0.401278 0.807521 0.786551
Si Si4 0.334551 0.515269 0.817459
Si Si5 0.503031 0.924769 0.401942
Si Si6 0.416797 0.689148 0.285022
Si Si7 0.712806 0.756020 0.271251
O O1 0.909616 0.764730 0.693491
O O2 0.162767 0.853778 0.640743
O O3 0.588401 0.810748 0.007999
O O4 0.000000 0.000000 0.500000
O O5 0.460965 0.298666 0.170463
O O6 0.937068 0.347961 0.467800
O O7 0.329892 0.470054 0.978708
O O8 0.549136 0.869980 0.532516
O O9 0.459692 0.927176 0.730938
O O10 0.046407 0.755234 0.041916
O O11 0.463682 0.421777 0.743796
O O12 0.545326 0.654279 0.547562
O O13 0.000000 0.500000 0.000000
O O14 0.703372 0.889707 0.214330
O O15 0.524963 0.718484 0.313119
#
# Coordination Sequence:
#
# PCOD9055316 Si02
#       7
#     2   2   2   2   2   2   2
#     4  11  21  41  67  97 133 170 227 272 317 394
#     4  11  24  43  66 103 134 171 222 282 321 391
#     4  11  26  43  64  98 144 172 218 273 337 392
#     4  11  24  42  73 100 130 166 233 283 316 393
#     4  11  23  44  66  97 135 181 218 273 326 399
#     4  11  23  41  71 101 126 176 223 271 337 387
#     4  12  23  42  71  95 131 185 221 263 341 393
#
# _framework density 22.221920999999998
#
# number of rings (size 3 to 8) (size 9 to 14) (size 15 to 20)
#    0.000    0.857    5.714    1.714    0.000    3.429 
#    5.143    1.429    0.000    0.000    0.000    0.000 
#    0.000    0.000    0.000    0.000    0.000    0.000 
#
# Total GULP energy -78359.142295 kJ/mol
# GULP energy per Si atom -5597.081592 kJ/mol
# Density = 2.217134 g / cm^3
# Si number density = 22.221921 Si / 1000 Ang^3
#
#
#
# Elastic Constant Matrix: (Units=GPa)
#
#
# Indices 1 2 3 4 5 6 
#
# 1 65.1449 33.2532 8.7021 14.4945 -2.2709 -19.6377
# 2 33.2532 94.1492 38.5124 12.6575 8.8850 -7.1818
# 3 8.7021 38.5124 95.0555 15.8579 6.0430 -22.1899
# 4 14.4945 12.6575 15.8579 42.2164 -9.3757 -9.9738
# 5 -2.2709 8.8850 6.0430 -9.3757 31.5407 -4.1592
# 6 -19.6377 -7.1818 -22.1899 -9.9738 -4.1592 33.9881
#
#
#
# Elastic Compliance Matrix: (Units=1/GPa)
#
#
# Indices 1 2 3 4 5 6 
#
# 1 0.025415 -0.010145 0.005705 -0.002983 0.004815 0.015980
# 2 -0.010145 0.017442 -0.007323 -0.002314 -0.006033 -0.008374
# 3 0.005705 -0.007323 0.016147 -0.003159 -0.000061 0.011356
# 4 -0.002983 -0.002314 -0.003159 0.030420 0.010874 0.005983
# 5 0.004815 -0.006033 -0.000061 0.010874 0.038226 0.009336
# 6 0.015980 -0.008374 0.011356 0.005983 0.009336 0.047198
#
#
# Mechanical properties :
#
#
# Convention : Reuss Voigt Hill
#
# Bulk Modulus (GPa) = 28.18623 46.14278 37.16450
# Shear Modulus (GPa) = 23.78683 33.14117 28.46400
#
# Velocity S-wave (km/s) = 3.27528 3.86602 3.58285
# Velocity P-wave (km/s) = 5.19757 6.38261 5.82033
#
# Compressibility (1/GPa) = 0.03547832
#
# Stress axis : x y z
#
# Youngs Moduli (GPa) = 39.34646 57.33341 61.93121
#
# Poissons Ratio (x) = 0.58164 -0.35334
# Poissons Ratio (y) = 0.39917 0.45354
# Poissons Ratio (z) = -0.22449 0.41987
#
# Static dielectric constant tensor:
#      x y z
#    x 1.812840 0.000270 0.006080 
#    y 0.000270 1.833480 -0.014230 
#    z 0.006080 -0.014230 1.811390 
# 
# From -- ./inp_files/27812.got.cif
#   From: 2010.05.17/outbox.cif.g08.bks.cpg/sg2_14_cif.got.tgz:27812.got - 2010.06.03 11:33:40.
