data_PCOD9055885
_publ_section_title
;
Structure prediction by ZEFSAII (Michael W. Deem and Ramdas Pophale) SiO2 
 PCOD9055885
Probable space group: P -1
;
_chemical_formula_sum "Si O2"
_cell_formula_units_Z 10
_cell_length_a 8.824791
_cell_length_b 8.462598
_cell_length_c 18.429538
_cell_angle_alpha 149.261832
_cell_angle_beta 132.609191
_cell_angle_gamma 51.745790
_cell_volume 515.194257
_symmetry_space_group_name_H-M "P -1"
_symmetry_group_IT_number 2
_symmetry_cell_setting 'triclinic'
loop_
_space_group_symop_operation_xyz
x,y,z
-x,-y,-z
loop_
_atom_site_type_symbol
_atom_site_label
_atom_site_fract_x
_atom_site_fract_y
_atom_site_fract_z
Si Si1 0.104452 0.543877 0.207701
Si Si2 0.112584 0.811587 0.658829
Si Si3 0.716805 0.811954 0.017242
Si Si4 0.455021 0.316587 0.340829
Si Si5 0.694454 0.343053 0.958766
O O1 0.191213 0.365209 0.093178
O O2 0.282004 0.503683 0.308890
O O3 0.029044 0.904337 0.311932
O O4 0.895113 0.378968 0.087568
O O5 0.333764 0.762016 0.668725
O O6 0.000000 0.500000 0.500000
O O7 0.152462 0.936587 0.802232
O O8 0.708833 0.546184 0.971033
O O9 0.500000 0.000000 0.000000
O O10 0.500000 0.500000 0.500000
O O11 0.352992 0.005743 0.207124
O O12 0.500000 0.500000 0.000000
#
# Coordination Sequence:
#
# PCOD9055885 Si02
#       5
#     2   2   2   2   2
#     4  11  24  46  70  94 132 181 220 268 330 392
#     4  11  25  44  65 100 135 170 222 270 330 395
#     4  11  22  43  73  97 126 177 225 265 324 398
#     4  12  27  43  64 100 136 173 219 275 334 381
#     4  11  21  44  68  98 132 167 225 273 320 395
#
# _framework density 19.410155
#
# number of rings (size 3 to 8) (size 9 to 14) (size 15 to 20)
#    0.000    0.800    6.000    3.000    5.600    3.200 
#    0.000    0.000    0.000    0.000    0.000    0.000 
#    0.000    0.000    0.000    0.000    0.000    0.000 
#
# Total GULP energy -55865.478136 kJ/mol
# GULP energy per Si atom -5586.547814 kJ/mol
# Density = 1.936598 g / cm^3
# Si number density = 19.410155 Si / 1000 Ang^3
#
#
#
# Elastic Constant Matrix: (Units=GPa)
#
#
# Indices 1 2 3 4 5 6 
#
# 1 77.2598 38.2787 48.5602 -14.3916 0.8393 -24.3081
# 2 38.2787 163.0829 101.1599 -12.8425 6.3992 -28.0666
# 3 48.5602 101.1599 193.2802 3.9434 6.8353 3.9567
# 4 -14.3916 -12.8425 3.9434 42.4393 11.3448 1.5447
# 5 0.8393 6.3992 6.8353 11.3448 35.3993 2.5895
# 6 -24.3081 -28.0666 3.9567 1.5447 2.5895 29.8270
#
#
#
# Elastic Compliance Matrix: (Units=1/GPa)
#
#
# Indices 1 2 3 4 5 6 
#
# 1 0.030023 0.007664 -0.012286 0.014229 -0.006710 0.033155
# 2 0.007664 0.015671 -0.010575 0.008975 -0.005488 0.022406
# 3 -0.012286 -0.010575 0.014285 -0.008946 0.003901 -0.021734
# 4 0.014229 0.008975 -0.008946 0.034617 -0.012830 0.020549
# 5 -0.006710 -0.005488 0.003901 -0.012830 0.033740 -0.013415
# 6 0.033155 0.022406 -0.021734 0.020549 -0.013415 0.084614
#
#
# Mechanical properties :
#
#
# Convention : Reuss Voigt Hill
#
# Bulk Modulus (GPa) = 33.80157 89.95786 61.87971
# Shear Modulus (GPa) = 19.74670 37.90806 28.82738
#
# Velocity S-wave (km/s) = 3.19304 4.42407 3.85797
# Velocity P-wave (km/s) = 5.57191 8.51721 7.19684
#
# Compressibility (1/GPa) = 0.02958443
#
# Stress axis : x y z
#
# Youngs Moduli (GPa) = 33.30749 63.81215 70.00403
#
# Poissons Ratio (x) = -0.48903 0.86006
# Poissons Ratio (y) = -0.25526 0.74030
# Poissons Ratio (z) = 0.40921 0.67482
#
# Static dielectric constant tensor:
#      x y z
#    x 1.679440 -0.005230 0.011340 
#    y -0.005230 1.681250 0.003170 
#    z 0.011340 0.003170 1.665000 
# 
# From -- ./inp_files/129119.got.cif
#   From: 2010.05.17/outbox.cif.g08.bks.cpg/sg2_65_cif.got.tgz:129119.got - 2010.06.03 11:33:40.
