data_PCOD9055937
_publ_section_title
;
Structure prediction by ZEFSAII (Michael W. Deem and Ramdas Pophale) SiO2 
 PCOD9055937
Probable space group: P -1
;
_chemical_formula_sum "Si O2"
_cell_formula_units_Z 16
_cell_length_a 11.992182
_cell_length_b 8.692540
_cell_length_c 14.261677
_cell_angle_alpha 50.923901
_cell_angle_beta 52.229177
_cell_angle_gamma 40.046055
_cell_volume 716.990400
_symmetry_space_group_name_H-M "P -1"
_symmetry_group_IT_number 2
_symmetry_cell_setting 'triclinic'
loop_
_space_group_symop_operation_xyz
x,y,z
-x,-y,-z
loop_
_atom_site_type_symbol
_atom_site_label
_atom_site_fract_x
_atom_site_fract_y
_atom_site_fract_z
Si Si1 0.301045 0.577385 0.284776
Si Si2 0.658344 0.706648 0.047999
Si Si3 0.881466 0.882185 0.883370
Si Si4 0.617628 0.094037 0.379741
Si Si5 0.006477 0.592807 0.316727
Si Si6 0.926373 0.275820 0.963634
Si Si7 0.738991 0.373690 0.307966
Si Si8 0.137924 0.705582 0.520399
O O1 0.496473 0.311909 0.281564
O O2 0.259108 0.642021 0.391956
O O3 0.155144 0.555560 0.323173
O O4 0.270302 0.818125 0.162402
O O5 0.649584 0.612031 0.191515
O O6 0.820924 0.721141 0.943652
O O7 0.725365 0.474255 0.033249
O O8 0.500000 0.000000 0.000000
O O9 0.054415 0.809082 0.765430
O O10 0.938545 0.802212 0.990957
O O11 0.656025 0.227887 0.388183
O O12 0.500000 0.000000 0.500000
O O13 0.812840 0.856643 0.336888
O O14 0.978283 0.383826 0.414634
O O15 0.059776 0.600005 0.181332
O O16 0.000000 0.000000 0.000000
O O17 0.748187 0.424638 0.392703
O O18 0.000000 0.000000 0.500000
#
# Coordination Sequence:
#
# PCOD9055937 Si02
#       8
#     2   2   2   2   2   2   2   2
#     4  12  25  44  71 102 143 189 240 293 362 430
#     4  11  24  45  73 109 147 183 239 305 369 436
#     4  11  21  44  72 101 142 191 227 297 370 428
#     4  12  26  46  70 101 143 195 236 299 362 417
#     4  12  24  49  69 100 149 188 239 299 360 437
#     4  11  22  43  73 102 135 193 236 289 370 429
#     4  11  23  46  69 103 146 187 243 294 355 440
#     4  12  24  40  72 100 136 196 238 291 357 425
#
# _framework density 22.315501999999999
#
# number of rings (size 3 to 8) (size 9 to 14) (size 15 to 20)
#    0.000    0.500    5.000    4.875    1.750    0.500 
#    4.500    1.250    0.000    0.000    0.000    0.000 
#    0.000    0.000    0.000    0.000    0.000    0.000 
#
# Total GULP energy -89392.631916 kJ/mol
# GULP energy per Si atom -5587.039495 kJ/mol
# Density = 2.226471 g / cm^3
# Si number density = 22.315502 Si / 1000 Ang^3
#
#
#
# Elastic Constant Matrix: (Units=GPa)
#
#
# Indices 1 2 3 4 5 6 
#
# 1 101.0344 38.2092 45.8464 5.1090 -6.8122 10.7112
# 2 38.2092 126.6395 20.1573 -23.9628 1.8668 2.1360
# 3 45.8464 20.1573 81.3821 -9.6499 3.4405 5.1345
# 4 5.1090 -23.9628 -9.6499 39.6986 7.1861 -2.6407
# 5 -6.8122 1.8668 3.4405 7.1861 45.6584 -6.4106
# 6 10.7112 2.1360 5.1345 -2.6407 -6.4106 29.8586
#
#
#
# Elastic Compliance Matrix: (Units=1/GPa)
#
#
# Indices 1 2 3 4 5 6 
#
# 1 0.017407 -0.005423 -0.009441 -0.008868 0.004353 -0.004083
# 2 -0.005423 0.010869 0.001358 0.008111 -0.002475 0.001120
# 3 -0.009441 0.001358 0.018297 0.007199 -0.003987 -0.000076
# 4 -0.008868 0.008111 0.007199 0.034475 -0.007221 0.002861
# 5 0.004353 -0.002475 -0.003987 -0.007221 0.024644 0.003954
# 6 -0.004083 0.001120 -0.000076 0.002861 0.003954 0.035991
#
#
# Mechanical properties :
#
#
# Convention : Reuss Voigt Hill
#
# Bulk Modulus (GPa) = 51.11863 57.49798 54.30830
# Shear Modulus (GPa) = 28.53668 36.69933 32.61801
#
# Velocity S-wave (km/s) = 3.57989 4.05973 3.82733
# Velocity P-wave (km/s) = 6.32807 6.91354 6.62727
#
# Compressibility (1/GPa) = 0.01956234
#
# Stress axis : x y z
#
# Youngs Moduli (GPa) = 57.44784 92.00780 54.65443
#
# Poissons Ratio (x) = 0.49891 0.51600
# Poissons Ratio (y) = 0.31151 -0.07425
# Poissons Ratio (z) = 0.54237 -0.12499
#
# Static dielectric constant tensor:
#      x y z
#    x 1.907040 0.009250 -0.129770 
#    y 0.009250 1.892520 -0.091190 
#    z -0.129770 -0.091190 1.926680 
# 
# From -- ./inp_files/515026.got.cif
#   From: 2010.05.17/outbox.cif.g08.bks.cpg/sg2_258_cif.got.tgz:515026.got - 2010.06.03 11:33:40.
