data_PCOD9055256
_publ_section_title
;
Structure prediction by ZEFSAII (Michael W. Deem and Ramdas Pophale) SiO2 
 PCOD9055256
Probable space group: P -1
;
_chemical_formula_sum "Si O2"
_cell_formula_units_Z 15
_cell_length_a 19.300462
_cell_length_b 7.153149
_cell_length_c 7.675763
_cell_angle_alpha 120.119287
_cell_angle_beta 60.359180
_cell_angle_gamma 132.530517
_cell_volume 655.111745
_symmetry_space_group_name_H-M "P -1"
_symmetry_group_IT_number 2
_symmetry_cell_setting 'triclinic'
loop_
_space_group_symop_operation_xyz
x,y,z
-x,-y,-z
loop_
_atom_site_type_symbol
_atom_site_label
_atom_site_fract_x
_atom_site_fract_y
_atom_site_fract_z
Si Si1 0.929000 0.091681 0.583693
Si Si2 0.714730 0.633273 0.123109
Si Si3 0.270216 0.444648 0.339394
Si Si4 0.349104 0.969007 0.608755
Si Si5 0.507592 0.203540 0.225914
Si Si6 0.520963 0.402943 0.757294
Si Si7 0.000000 0.500000 0.000000
Si Si8 0.920133 0.054015 0.173378
O O1 0.937655 0.159058 0.398839
O O2 0.819737 0.841353 0.632821
O O3 0.000000 0.000000 0.500000
O O4 0.953437 0.315803 0.794830
O O5 0.693048 0.856152 0.242307
O O6 0.621497 0.386753 0.219071
O O7 0.816023 0.773985 0.161323
O O8 0.721660 0.547764 0.878216
O O9 0.371435 0.517722 0.326677
O O10 0.262959 0.668060 0.543961
O O11 0.419918 0.036667 0.388616
O O12 0.433868 0.095341 0.708278
O O13 0.489054 0.421383 0.287450
O O14 0.500000 0.000000 0.000000
O O15 0.500000 0.500000 0.000000
O O16 0.929288 0.242686 0.096690
O O17 0.000000 0.000000 0.000000
#
# Coordination Sequence:
#
# PCOD9055256 Si02
#       8
#     2   2   2   2   2   2   1   2
#     4  12  28  51  78 112 153 194 254 316 384 459
#     4  11  23  45  69 103 148 191 244 304 379 446
#     4  12  24  44  70 105 143 192 247 307 370 449
#     4  11  24  41  70 100 146 196 239 300 368 433
#     4  11  22  42  64  99 145 192 240 297 354 438
#     4  11  21  41  64  98 140 185 243 293 356 431
#     4  12  26  54  82 106 150 196 246 318 392 434
#     4  12  27  53  81 113 151 198 253 321 383 457
#
# _framework density 22.896858000000002
#
# number of rings (size 3 to 8) (size 9 to 14) (size 15 to 20)
#    0.000    0.533    6.667    2.400    5.600    0.000 
#    4.800    0.000    0.000    0.000    0.000    0.000 
#    0.000    0.000    0.000    0.000    0.000    0.000 
#
# Total GULP energy -83535.274973 kJ/mol
# GULP energy per Si atom -5569.018332 kJ/mol
# Density = 2.284474 g / cm^3
# Si number density = 22.896858 Si / 1000 Ang^3
#
#
#
# Elastic Constant Matrix: (Units=GPa)
#
#
# Indices 1 2 3 4 5 6 
#
# 1 70.6199 23.1313 30.2413 -2.9304 10.5361 22.3592
# 2 23.1313 125.0698 29.6960 19.1691 7.8186 20.5303
# 3 30.2413 29.6960 119.4238 25.2017 44.7376 8.7929
# 4 -2.9304 19.1691 25.2017 50.7990 0.4596 10.7157
# 5 10.5361 7.8186 44.7376 0.4596 47.7100 -5.4127
# 6 22.3592 20.5303 8.7929 10.7157 -5.4127 39.7620
#
#
#
# Elastic Compliance Matrix: (Units=1/GPa)
#
#
# Indices 1 2 3 4 5 6 
#
# 1 0.021112 -0.001743 -0.005144 0.006932 -0.000963 -0.011834
# 2 -0.001743 0.009477 -0.000900 -0.002568 -0.000653 -0.003111
# 3 -0.005144 -0.000900 0.017219 -0.008318 -0.014808 -0.000225
# 4 0.006932 -0.002568 -0.008318 0.026638 0.005623 -0.007146
# 5 -0.000963 -0.000653 -0.014808 0.005623 0.035966 0.007534
# 6 -0.011834 -0.003111 -0.000225 -0.007146 0.007534 0.036411
#
#
# Mechanical properties :
#
#
# Convention : Reuss Voigt Hill
#
# Bulk Modulus (GPa) = 31.02226 53.47228 42.24727
# Shear Modulus (GPa) = 28.87838 43.12386 36.00112
#
# Velocity S-wave (km/s) = 3.55524 4.34452 3.96955
# Velocity P-wave (km/s) = 5.51644 6.96927 6.28498
#
# Compressibility (1/GPa) = 0.03223492
#
# Stress axis : x y z
#
# Youngs Moduli (GPa) = 47.36671 105.52382 58.07507
#
# Poissons Ratio (x) = 0.18394 0.29872
# Poissons Ratio (y) = 0.08257 0.05224
# Poissons Ratio (z) = 0.24364 0.09492
#
# Static dielectric constant tensor:
#      x y z
#    x 1.875950 -0.003180 0.027590 
#    y -0.003180 1.854250 0.031840 
#    z 0.027590 0.031840 1.822010 
# 
# From -- ./inp_files/342213.got.cif
#   From: 2010.05.17/outbox.cif.g08.bks.cpg/sg2_172_cif.got.tgz:342213.got - 2010.06.03 11:33:40.
