data_PCOD9055767
_publ_section_title
;
Structure prediction by ZEFSAII (Michael W. Deem and Ramdas Pophale) SiO2 
 PCOD9055767
Probable space group: P -1
;
_chemical_formula_sum "Si O2"
_cell_formula_units_Z 16
_cell_length_a 14.133583
_cell_length_b 11.057787
_cell_length_c 8.333276
_cell_angle_alpha 43.129079
_cell_angle_beta 127.137199
_cell_angle_gamma 102.618503
_cell_volume 648.145996
_symmetry_space_group_name_H-M "P -1"
_symmetry_group_IT_number 2
_symmetry_cell_setting 'triclinic'
loop_
_space_group_symop_operation_xyz
x,y,z
-x,-y,-z
loop_
_atom_site_type_symbol
_atom_site_label
_atom_site_fract_x
_atom_site_fract_y
_atom_site_fract_z
Si Si1 0.289744 0.052522 0.699587
Si Si2 0.279977 0.674596 0.119112
Si Si3 0.659382 0.651036 0.745655
Si Si4 0.066927 0.620732 0.540147
Si Si5 0.993649 0.706476 0.728103
Si Si6 0.751427 0.369578 0.505244
Si Si7 0.355569 0.182683 0.980841
Si Si8 0.423848 0.813952 0.596350
O O1 0.322957 0.164507 0.484048
O O2 0.133616 0.137685 0.473485
O O3 0.341059 0.112660 0.857402
O O4 0.330752 0.825702 0.951703
O O5 0.353303 0.471211 0.301655
O O6 0.283384 0.686826 0.302378
O O7 0.127644 0.722171 0.889113
O O8 0.536661 0.720410 0.668825
O O9 0.793629 0.516981 0.102907
O O10 0.108195 0.733630 0.334427
O O11 0.000000 0.500000 0.500000
O O12 0.980873 0.724450 0.504644
O O13 0.000000 0.500000 0.000000
O O14 0.654888 0.318544 0.341124
O O15 0.733312 0.591105 0.301402
O O16 0.496499 0.175764 0.176690
O O17 0.337411 0.030723 0.233606
#
# Coordination Sequence:
#
# PCOD9055767 Si02
#       8
#     2   2   2   2   2   2   2   2
#     4  12  23  45  69  98 140 177 227 282 343 402
#     4  11  24  43  68 102 135 184 222 279 345 409
#     4  11  25  44  69 101 136 180 227 281 336 405
#     4  11  23  41  73 102 131 182 225 275 347 402
#     4  11  21  43  70  97 138 174 225 283 340 404
#     4  12  23  46  71  97 143 180 224 280 343 406
#     4  11  23  44  69  95 136 181 225 284 337 397
#     4  11  26  45  68 102 135 184 233 276 342 400
#
# _framework density 24.685797000000001
#
# number of rings (size 3 to 8) (size 9 to 14) (size 15 to 20)
#    0.000    0.750    6.250    2.250    0.000    2.000 
#    6.750    0.625    0.000    0.000    0.000    0.000 
#    0.000    0.000    0.000    0.000    0.000    0.000 
#
# Total GULP energy -89572.842084 kJ/mol
# GULP energy per Si atom -5598.302630 kJ/mol
# Density = 2.462961 g / cm^3
# Si number density = 24.685797 Si / 1000 Ang^3
#
#
#
# Elastic Constant Matrix: (Units=GPa)
#
#
# Indices 1 2 3 4 5 6 
#
# 1 126.1855 33.5917 4.5535 -24.2106 -9.3959 8.8179
# 2 33.5917 108.4330 10.0637 -10.7267 0.4922 26.7949
# 3 4.5535 10.0637 42.1612 -11.4528 -9.3696 7.7342
# 4 -24.2106 -10.7267 -11.4528 38.9615 8.6144 -3.8048
# 5 -9.3959 0.4922 -9.3696 8.6144 29.7357 -0.9603
# 6 8.8179 26.7949 7.7342 -3.8048 -0.9603 38.6686
#
#
#
# Elastic Compliance Matrix: (Units=1/GPa)
#
#
# Indices 1 2 3 4 5 6 
#
# 1 0.009746 -0.002607 0.001494 0.005311 0.002051 -0.000141
# 2 -0.002607 0.012116 -0.001410 0.001015 -0.002004 -0.007469
# 3 0.001494 -0.001410 0.028110 0.006796 0.007250 -0.004137
# 4 0.005311 0.001015 0.006796 0.032462 -0.005609 -0.000219
# 5 0.002051 -0.002004 0.007250 -0.005609 0.038216 -0.000132
# 6 -0.000141 -0.007469 -0.004137 -0.000219 -0.000132 0.031871
#
#
# Mechanical properties :
#
#
# Convention : Reuss Voigt Hill
#
# Bulk Modulus (GPa) = 22.25879 41.46638 31.86259
# Shear Modulus (GPa) = 28.97828 36.71123 32.84476
#
# Velocity S-wave (km/s) = 3.42992 3.86053 3.65158
# Velocity P-wave (km/s) = 4.97214 6.05852 5.54202
#
# Compressibility (1/GPa) = 0.04492607
#
# Stress axis : x y z
#
# Youngs Moduli (GPa) = 102.60169 82.53596 35.57460
#
# Poissons Ratio (x) = 0.21517 -0.05314
# Poissons Ratio (y) = 0.26749 0.05016
# Poissons Ratio (z) = -0.15327 0.11637
#
# Static dielectric constant tensor:
#      x y z
#    x 1.946980 -0.046550 -0.006480 
#    y -0.046550 1.932910 0.015600 
#    z -0.006480 0.015600 2.027500 
# 
# From -- ./inp_files/269901.got.cif
#   From: 2010.05.17/outbox.cif.g08.bks.cpg/sg2_135_cif.got.tgz:269901.got - 2010.06.03 11:33:40.
