data_PCOD9055862
_publ_section_title
;
Structure prediction by ZEFSAII (Michael W. Deem and Ramdas Pophale) SiO2 
 PCOD9055862
Probable space group: P -1
;
_chemical_formula_sum "Si O2"
_cell_formula_units_Z 16
_cell_length_a 9.108824
_cell_length_b 27.181340
_cell_length_c 15.310497
_cell_angle_alpha 160.032650
_cell_angle_beta 47.553603
_cell_angle_gamma 141.648821
_cell_volume 767.830589
_symmetry_space_group_name_H-M "P -1"
_symmetry_group_IT_number 2
_symmetry_cell_setting 'triclinic'
loop_
_space_group_symop_operation_xyz
x,y,z
-x,-y,-z
loop_
_atom_site_type_symbol
_atom_site_label
_atom_site_fract_x
_atom_site_fract_y
_atom_site_fract_z
Si Si1 0.527017 0.390417 0.731322
Si Si2 0.386558 0.723729 0.187423
Si Si3 0.618868 0.913023 0.596226
Si Si4 0.219368 0.505503 0.374775
Si Si5 0.410202 0.132208 0.073859
Si Si6 0.867743 0.856184 0.134078
Si Si7 0.906232 0.690767 0.348055
Si Si8 0.058513 0.053311 0.945896
O O1 0.532917 0.238753 0.522241
O O2 0.743818 0.493853 0.744088
O O3 0.270366 0.304481 0.640379
O O4 0.500000 0.500000 0.000000
O O5 0.512159 0.808288 0.372787
O O6 0.616002 0.835579 0.217059
O O7 0.155585 0.728980 0.272868
O O8 0.259380 0.510518 0.883336
O O9 0.905121 0.005540 0.661634
O O10 0.575977 0.065755 0.873254
O O11 0.454108 0.697513 0.633586
O O12 0.000000 0.500000 0.500000
O O13 0.200378 0.337115 0.138143
O O14 0.314158 0.176110 0.100423
O O15 0.169141 0.972306 0.955823
O O16 0.935862 0.899452 0.077688
O O17 0.001878 0.857483 0.650054
#
# Coordination Sequence:
#
# PCOD9055862 Si02
#       8
#     2   2   2   2   2   2   2   2
#     4  12  24  45  70  99 131 177 225 267 325 401
#     4  11  24  41  65  97 132 172 220 275 329 390
#     4  12  23  40  69  97 127 175 224 263 329 396
#     4  12  25  44  66  98 140 170 212 279 335 382
#     4  11  24  45  66  92 130 173 222 264 325 402
#     4  12  24  42  65  96 132 168 220 279 331 381
#     4  11  21  44  65  92 130 177 215 269 325 389
#     4  11  24  43  68  93 127 174 220 269 323 396
#
# _framework density 20.837931000000001
#
# number of rings (size 3 to 8) (size 9 to 14) (size 15 to 20)
#    0.000    0.500    7.500    0.375    1.750    2.000 
#    2.250    0.000    0.000    0.000    0.000    0.000 
#    0.000    0.000    0.000    0.000    0.000    0.000 
#
# Total GULP energy -89277.282403 kJ/mol
# GULP energy per Si atom -5579.830150 kJ/mol
# Density = 2.079050 g / cm^3
# Si number density = 20.837931 Si / 1000 Ang^3
#
#
#
# Elastic Constant Matrix: (Units=GPa)
#
#
# Indices 1 2 3 4 5 6 
#
# 1 48.0006 33.7051 -6.8355 -1.0638 8.5222 -0.8819
# 2 33.7051 109.6844 14.5495 -5.4250 8.4938 1.2785
# 3 -6.8355 14.5495 67.6558 -1.7910 4.0282 -11.1031
# 4 -1.0638 -5.4250 -1.7910 20.7536 -5.2417 -1.0751
# 5 8.5222 8.4938 4.0282 -5.2417 26.0353 -3.8443
# 6 -0.8819 1.2785 -11.1031 -1.0751 -3.8443 37.4925
#
#
#
# Elastic Compliance Matrix: (Units=1/GPa)
#
#
# Indices 1 2 3 4 5 6 
#
# 1 0.029588 -0.009389 0.005710 -0.002292 -0.007693 0.001852
# 2 -0.009389 0.012673 -0.003886 0.002342 -0.000249 -0.001762
# 3 0.005710 -0.003886 0.017189 0.000414 -0.002421 0.005121
# 4 -0.002292 0.002342 0.000414 0.051544 0.010678 0.002562
# 5 -0.007693 -0.000249 -0.002421 0.010678 0.044115 0.003940
# 6 0.001852 -0.001762 0.005121 0.002562 0.003940 0.028770
#
#
# Mechanical properties :
#
#
# Convention : Reuss Voigt Hill
#
# Bulk Modulus (GPa) = 22.56340 34.24211 28.40276
# Shear Modulus (GPa) = 23.38822 29.11772 26.25297
#
# Velocity S-wave (km/s) = 3.35384 3.74216 3.55331
# Velocity P-wave (km/s) = 5.08421 5.92789 5.52219
#
# Compressibility (1/GPa) = 0.04431955
#
# Stress axis : x y z
#
# Youngs Moduli (GPa) = 33.79757 78.90593 58.17721
#
# Poissons Ratio (x) = 0.74083 -0.33218
# Poissons Ratio (y) = 0.31732 0.22610
# Poissons Ratio (z) = -0.19298 0.30666
#
# Static dielectric constant tensor:
#      x y z
#    x 1.753570 0.039020 0.011910 
#    y 0.039020 1.791960 -0.007680 
#    z 0.011910 -0.007680 1.790190 
# 
# From -- ./inp_files/224101.got.cif
#   From: 2010.05.17/outbox.cif.g08.bks.cpg/sg2_113_cif.got.tgz:224101.got - 2010.06.03 11:33:40.
