data_PCOD9055169
_publ_section_title
;
Structure prediction by ZEFSAII (Michael W. Deem and Ramdas Pophale) SiO2 
 PCOD9055169
Probable space group: P -1
;
_chemical_formula_sum "Si O2"
_cell_formula_units_Z 16
_cell_length_a 12.873938
_cell_length_b 9.561385
_cell_length_c 9.919251
_cell_angle_alpha 109.006186
_cell_angle_beta 145.093586
_cell_angle_gamma 70.486808
_cell_volume 655.527870
_symmetry_space_group_name_H-M "P -1"
_symmetry_group_IT_number 2
_symmetry_cell_setting 'triclinic'
loop_
_space_group_symop_operation_xyz
x,y,z
-x,-y,-z
loop_
_atom_site_type_symbol
_atom_site_label
_atom_site_fract_x
_atom_site_fract_y
_atom_site_fract_z
Si Si1 0.463933 0.749963 0.001182
Si Si2 0.078837 0.844040 0.478639
Si Si3 0.834761 0.203565 0.744402
Si Si4 0.377360 0.536018 0.083696
Si Si5 0.543305 0.980287 0.352366
Si Si6 0.222702 0.157369 0.205065
Si Si7 0.275897 0.472960 0.382835
Si Si8 0.995845 0.531414 0.345386
O O1 0.408416 0.664454 0.050254
O O2 0.549236 0.895638 0.189452
O O3 0.283051 0.797786 0.737143
O O4 0.583548 0.622143 0.003142
O O5 0.080817 0.857607 0.326038
O O6 0.966989 0.709318 0.355663
O O7 0.000000 0.000000 0.500000
O O8 0.653829 0.122193 0.538772
O O9 0.787793 0.378264 0.720264
O O10 0.008552 0.157520 0.010891
O O11 0.514462 0.534916 0.352981
O O12 0.169099 0.549962 0.910102
O O13 0.332564 0.034475 0.185305
O O14 0.650620 0.863825 0.534006
O O15 0.235317 0.324243 0.218268
O O16 0.169640 0.482620 0.418700
O O17 0.000000 0.500000 0.500000
#
# Coordination Sequence:
#
# PCOD9055169 Si02
#       8
#     2   2   2   2   2   2   2   2
#     4  11  21  43  67  98 139 167 221 278 324 400
#     4  11  24  40  62 102 142 170 212 272 335 401
#     4  11  25  45  65  99 137 173 223 273 335 390
#     4  11  21  40  69  96 133 170 220 274 320 390
#     4  11  26  44  71  98 130 182 220 273 338 389
#     4  11  25  48  69  93 134 175 234 273 318 397
#     4  11  24  45  67 102 133 171 227 278 322 397
#     4  11  22  39  67  98 128 177 221 260 333 391
#
# _framework density 24.407809
#
# number of rings (size 3 to 8) (size 9 to 14) (size 15 to 20)
#    0.000    1.000    5.000    2.250    1.750    5.000 
#    2.250    0.000    0.000    0.000    0.000    0.000 
#    0.000    0.000    0.000    0.000    0.000    0.000 
#
# Total GULP energy -89541.733704 kJ/mol
# GULP energy per Si atom -5596.358356 kJ/mol
# Density = 2.435226 g / cm^3
# Si number density = 24.407809 Si / 1000 Ang^3
#
#
#
# Elastic Constant Matrix: (Units=GPa)
#
#
# Indices 1 2 3 4 5 6 
#
# 1 68.6733 9.3557 10.5266 -0.9196 2.3112 -5.4510
# 2 9.3557 92.9976 4.1259 -0.4656 5.0944 -8.7041
# 3 10.5266 4.1259 110.0493 -2.7922 20.7282 0.8695
# 4 -0.9196 -0.4656 -2.7922 25.8358 -6.4740 -1.4794
# 5 2.3112 5.0944 20.7282 -6.4740 32.5462 11.4003
# 6 -5.4510 -8.7041 0.8695 -1.4794 11.4003 24.2300
#
#
#
# Elastic Compliance Matrix: (Units=1/GPa)
#
#
# Indices 1 2 3 4 5 6 
#
# 1 0.015237 -0.001045 -0.001168 0.000250 -0.001453 0.003793
# 2 -0.001045 0.011611 0.000384 -0.000487 -0.004128 0.005835
# 3 -0.001168 0.000384 0.010654 -0.000712 -0.008036 0.003230
# 4 0.000250 -0.000487 -0.000712 0.040855 0.009336 -0.001991
# 5 -0.001453 -0.004128 -0.008036 0.009336 0.046436 -0.022800
# 6 0.003793 0.005835 0.003230 -0.001991 -0.022800 0.054711
#
#
# Mechanical properties :
#
#
# Convention : Reuss Voigt Hill
#
# Bulk Modulus (GPa) = 29.54847 35.52631 32.53739
# Shear Modulus (GPa) = 25.71450 33.03652 29.37551
#
# Velocity S-wave (km/s) = 3.24934 3.68302 3.47296
# Velocity P-wave (km/s) = 5.11958 5.71603 5.42601
#
# Compressibility (1/GPa) = 0.03384270
#
# Stress axis : x y z
#
# Youngs Moduli (GPa) = 65.63185 86.12609 93.86028
#
# Poissons Ratio (x) = 0.09001 0.10964
# Poissons Ratio (y) = 0.06859 -0.03602
# Poissons Ratio (z) = 0.07667 -0.03305
#
# Static dielectric constant tensor:
#      x y z
#    x 1.876990 -0.014290 -0.453520 
#    y -0.014290 1.911240 -0.204140 
#    z -0.453520 -0.204140 -1.672380 
# 
# From -- ./inp_files/447945.got.cif
#   From: 2010.05.17/outbox.cif.g08.bks.cpg/sg2_224_cif.got.tgz:447945.got - 2010.06.03 11:33:40.
