data_PCOD9055515
_publ_section_title
;
Structure prediction by ZEFSAII (Michael W. Deem and Ramdas Pophale) SiO2 
 PCOD9055515
Probable space group: P -1
;
_chemical_formula_sum "Si O2"
_cell_formula_units_Z 11
_cell_length_a 7.698017
_cell_length_b 5.295589
_cell_length_c 11.071701
_cell_angle_alpha 111.506589
_cell_angle_beta 89.332162
_cell_angle_gamma 61.582012
_cell_volume 359.637556
_symmetry_space_group_name_H-M "P -1"
_symmetry_group_IT_number 2
_symmetry_cell_setting 'triclinic'
loop_
_space_group_symop_operation_xyz
x,y,z
-x,-y,-z
loop_
_atom_site_type_symbol
_atom_site_label
_atom_site_fract_x
_atom_site_fract_y
_atom_site_fract_z
Si Si1 0.716595 0.952151 0.960481
Si Si2 0.423559 0.360039 0.372768
Si Si3 0.630545 0.194827 0.743004
Si Si4 0.867972 0.640030 0.241164
Si Si5 0.000000 0.500000 0.000000
Si Si6 0.914342 0.224305 0.395903
O O1 0.889309 0.565587 0.857445
O O2 0.684537 0.149717 0.875319
O O3 0.866867 0.906161 0.059131
O O4 0.500000 0.000000 0.000000
O O5 0.500000 0.500000 0.500000
O O6 0.461213 0.471125 0.263628
O O7 0.185350 0.562184 0.447422
O O8 0.487029 0.994588 0.315118
O O9 0.844899 0.983473 0.637474
O O10 0.857137 0.458374 0.323959
O O11 0.802335 0.557993 0.101307
O O12 0.841519 0.973678 0.333059
#
# Coordination Sequence:
#
# PCOD9055515 Si02
#       6
#     2   2   2   2   1   2
#     4   9  20  41  67  95 133 175 220 278 330 396
#     4  12  26  42  65 100 133 175 222 281 335 398
#     4  11  23  44  65  97 133 174 228 267 339 404
#     4   9  21  39  64 100 127 170 225 264 333 399
#     4   8  20  40  62  96 134 166 226 262 340 386
#     4  11  21  42  68  91 131 176 217 268 330 403
#
# _framework density 30.586352000000002
#
# number of rings (size 3 to 8) (size 9 to 14) (size 15 to 20)
#    1.091    0.727    0.000    4.909    0.000    3.636 
#    0.000    8.182    0.000    0.000    0.000    0.000 
#    0.000    0.000    0.000    0.000    0.000    0.000 
#
# Total GULP energy -61358.867935 kJ/mol
# GULP energy per Si atom -5578.078903 kJ/mol
# Density = 3.051674 g / cm^3
# Si number density = 30.586352 Si / 1000 Ang^3
#
#
#
# Elastic Constant Matrix: (Units=GPa)
#
#
# Indices 1 2 3 4 5 6 
#
# 1 120.3609 29.2928 13.3568 -4.2650 22.1162 9.1424
# 2 29.2928 217.0605 84.3958 -42.8439 5.6764 35.3553
# 3 13.3568 84.3958 150.5177 -20.6605 -10.9345 20.3386
# 4 -4.2650 -42.8439 -20.6605 89.6828 1.5471 -10.4723
# 5 22.1162 5.6764 -10.9345 1.5471 53.8124 3.4983
# 6 9.1424 35.3553 20.3386 -10.4723 3.4983 64.0851
#
#
#
# Elastic Compliance Matrix: (Units=1/GPa)
#
#
# Indices 1 2 3 4 5 6 
#
# 1 0.009319 -0.000883 -0.000559 -0.000097 -0.003817 -0.000473
# 2 -0.000883 0.006788 -0.003193 0.002225 -0.000924 -0.002191
# 3 -0.000559 -0.003193 0.008845 0.000322 0.002423 -0.001045
# 4 -0.000097 0.002225 0.000322 0.012378 -0.000533 0.000736
# 5 -0.003817 -0.000924 0.002423 -0.000533 0.020818 -0.000938
# 6 -0.000473 -0.002191 -0.001045 0.000736 -0.000938 0.017384
#
#
# Mechanical properties :
#
#
# Convention : Reuss Voigt Hill
#
# Bulk Modulus (GPa) = 63.76353 82.44776 73.10564
# Shear Modulus (GPa) = 55.53760 65.57564 60.55662
#
# Velocity S-wave (km/s) = 4.26580 4.63531 4.45439
# Velocity P-wave (km/s) = 6.71975 7.46072 7.09991
#
# Compressibility (1/GPa) = 0.01568295
#
# Stress axis : x y z
#
# Youngs Moduli (GPa) = 107.30774 147.31776 113.05546
#
# Poissons Ratio (x) = 0.13003 0.06317
# Poissons Ratio (y) = 0.09471 0.36102
# Poissons Ratio (z) = 0.05996 0.47043
#
# Static dielectric constant tensor:
#      x y z
#    x 2.742950 -0.078870 -0.220160 
#    y -0.078870 2.772300 -0.064010 
#    z -0.220160 -0.064010 2.457170 
# 
# From -- ./inp_files/372186.got.cif
#   From: 2010.05.17/outbox.cif.g08.bks.cpg/sg2_187_cif.got.tgz:372186.got - 2010.06.03 11:33:40.
