data_PCOD9055179
_publ_section_title
;
Structure prediction by ZEFSAII (Michael W. Deem and Ramdas Pophale) SiO2 
 PCOD9055179
Probable space group: P -1
;
_chemical_formula_sum "Si O2"
_cell_formula_units_Z 15
_cell_length_a 8.986133
_cell_length_b 6.505715
_cell_length_c 18.452591
_cell_angle_alpha 120.913661
_cell_angle_beta 133.829911
_cell_angle_gamma 79.178136
_cell_volume 642.590803
_symmetry_space_group_name_H-M "P -1"
_symmetry_group_IT_number 2
_symmetry_cell_setting 'triclinic'
loop_
_space_group_symop_operation_xyz
x,y,z
-x,-y,-z
loop_
_atom_site_type_symbol
_atom_site_label
_atom_site_fract_x
_atom_site_fract_y
_atom_site_fract_z
Si Si1 0.931560 0.028876 0.813876
Si Si2 0.000000 0.000000 0.000000
Si Si3 0.443360 0.714406 0.601457
Si Si4 0.175055 0.527882 0.933965
Si Si5 0.087794 0.252687 0.377165
Si Si6 0.550724 0.297726 0.080293
Si Si7 0.817740 0.959751 0.491361
Si Si8 0.307100 0.583889 0.687672
O O1 0.964617 0.300681 0.839007
O O2 0.690746 0.852339 0.704727
O O3 0.020215 0.874488 0.755152
O O4 0.021888 0.042852 0.927150
O O5 0.129527 0.776132 0.995934
O O6 0.331918 0.425991 0.491473
O O7 0.391027 0.748969 0.675257
O O8 0.318982 0.850529 0.530891
O O9 0.252800 0.576618 0.885459
O O10 0.361415 0.422566 0.014952
O O11 0.082731 0.041960 0.396536
O O12 0.940660 0.421150 0.387069
O O13 0.585816 0.343382 0.186028
O O14 0.500000 0.000000 0.000000
O O15 0.671021 0.684258 0.375362
O O16 0.000000 0.000000 0.500000
#
# Coordination Sequence:
#
# PCOD9055179 Si02
#       8
#     2   1   2   2   2   2   2   2
#     4  12  29  46  75 105 150 197 242 306 374 446
#     4  12  28  52  72 102 158 198 248 302 382 444
#     4  11  25  44  71 108 147 193 241 294 373 444
#     4  11  27  49  74 109 146 198 257 308 373 448
#     4  11  23  45  69 110 143 191 243 297 367 439
#     4  11  26  47  78 112 143 192 259 316 368 438
#     4  11  21  40  70 102 142 185 241 300 355 433
#     4  11  23  40  74 103 143 187 242 303 365 436
#
# _framework density 23.343005000000002
#
# number of rings (size 3 to 8) (size 9 to 14) (size 15 to 20)
#    0.000    0.800    2.667    4.000    7.467    4.800 
#    0.000    0.000    0.000    0.000    0.000    0.000 
#    0.000    0.000    0.000    0.000    0.000    0.000 
#
# Total GULP energy -83531.151041 kJ/mol
# GULP energy per Si atom -5568.743403 kJ/mol
# Density = 2.328988 g / cm^3
# Si number density = 23.343005 Si / 1000 Ang^3
#
#
#
# Elastic Constant Matrix: (Units=GPa)
#
#
# Indices 1 2 3 4 5 6 
#
# 1 84.0874 41.0985 42.1028 3.8771 -16.3777 10.5461
# 2 41.0985 135.4498 40.1924 -9.4777 -17.8157 7.5662
# 3 42.1028 40.1924 88.3770 -9.2555 -35.0276 22.7546
# 4 3.8771 -9.4777 -9.2555 27.3682 9.0937 -7.5917
# 5 -16.3777 -17.8157 -35.0276 9.0937 47.3347 1.3328
# 6 10.5461 7.5662 22.7546 -7.5917 1.3328 39.3051
#
#
#
# Elastic Compliance Matrix: (Units=1/GPa)
#
#
# Indices 1 2 3 4 5 6 
#
# 1 0.017745 -0.003651 -0.006609 -0.006869 0.001240 -0.001601
# 2 -0.003651 0.009397 -0.002709 0.003386 -0.000421 0.001407
# 3 -0.006609 -0.002709 0.025254 -0.000295 0.015802 -0.012918
# 4 -0.006869 0.003386 -0.000295 0.044862 -0.010232 0.010374
# 5 0.001240 -0.000421 0.015802 -0.010232 0.035410 -0.012577
# 6 -0.001601 0.001407 -0.012918 0.010374 -0.012577 0.035509
#
#
# Mechanical properties :
#
#
# Convention : Reuss Voigt Hill
#
# Bulk Modulus (GPa) = 37.79618 61.63352 49.71485
# Shear Modulus (GPa) = 24.63835 35.10297 29.87066
#
# Velocity S-wave (km/s) = 3.25236 3.88208 3.58109
# Velocity P-wave (km/s) = 5.50732 6.82311 6.20022
#
# Compressibility (1/GPa) = 0.02645770
#
# Stress axis : x y z
#
# Youngs Moduli (GPa) = 56.35326 106.41179 39.59794
#
# Poissons Ratio (x) = 0.38855 0.26171
# Poissons Ratio (y) = 0.20576 0.10727
# Poissons Ratio (z) = 0.37245 0.28826
#
# Static dielectric constant tensor:
#      x y z
#    x 1.976980 0.044800 0.053270 
#    y 0.044800 1.861280 0.019680 
#    z 0.053270 0.019680 1.897950 
# 
# From -- ./inp_files/46723.got.cif
#   From: 2010.05.17/outbox.cif.g08.bks.cpg/sg2_24_cif.got.tgz:46723.got - 2010.06.03 11:33:40.
