data_PCOD9055575
_publ_section_title
;
Structure prediction by ZEFSAII (Michael W. Deem and Ramdas Pophale) SiO2 
 PCOD9055575
Probable space group: P -1
;
_chemical_formula_sum "Si O2"
_cell_formula_units_Z 16
_cell_length_a 19.039061
_cell_length_b 20.873332
_cell_length_c 9.050671
_cell_angle_alpha 150.385344
_cell_angle_beta 29.355483
_cell_angle_gamma 153.607761
_cell_volume 716.052542
_symmetry_space_group_name_H-M "P -1"
_symmetry_group_IT_number 2
_symmetry_cell_setting 'triclinic'
loop_
_space_group_symop_operation_xyz
x,y,z
-x,-y,-z
loop_
_atom_site_type_symbol
_atom_site_label
_atom_site_fract_x
_atom_site_fract_y
_atom_site_fract_z
Si Si1 0.887703 0.351364 0.114037
Si Si2 0.765027 0.488803 0.839869
Si Si3 0.837050 0.291152 0.774982
Si Si4 0.582089 0.284260 0.039981
Si Si5 0.020019 0.114392 0.061949
Si Si6 0.015673 0.217093 0.824361
Si Si7 0.593498 0.611120 0.195886
Si Si8 0.224696 0.087010 0.165780
O O1 0.791326 0.372413 0.466456
O O2 0.043996 0.526252 0.126953
O O3 0.770037 0.277142 0.036339
O O4 0.963729 0.257435 0.849113
O O5 0.705190 0.428896 0.994973
O O6 0.639938 0.516835 0.031948
O O7 0.950126 0.657724 0.861589
O O8 0.958926 0.228793 0.439573
O O9 0.681591 0.213841 0.787918
O O10 0.515184 0.340306 0.410720
O O11 0.425419 0.163965 0.977528
O O12 0.220760 0.228981 0.870785
O O13 0.000000 0.000000 0.000000
O O14 0.882523 0.004141 0.965841
O O15 0.192056 0.224048 0.513847
O O16 0.870715 0.040695 0.785220
O O17 0.500000 0.500000 0.000000
#
# Coordination Sequence:
#
# PCOD9055575 Si02
#       8
#     2   2   2   2   2   2   2   2
#     4  11  23  42  73 102 138 191 235 297 355 422
#     4  12  23  43  72 106 141 185 244 291 354 415
#     4  11  25  46  69 106 144 183 241 294 358 424
#     4  12  27  43  72 111 144 184 238 303 352 412
#     4  12  27  49  74 101 144 199 234 283 367 439
#     4  11  21  42  70  97 136 191 236 284 351 423
#     4  12  26  46  72 108 150 182 239 301 352 423
#     4  11  24  44  68 100 148 186 236 289 347 430
#
# _framework density 22.344729000000001
#
# number of rings (size 3 to 8) (size 9 to 14) (size 15 to 20)
#    0.000    0.500    5.000    3.000    5.250    0.500 
#    0.000    1.250    0.000    0.000    0.000    0.000 
#    0.000    0.000    0.000    0.000    0.000    0.000 
#
# Total GULP energy -89437.719627 kJ/mol
# GULP energy per Si atom -5589.857477 kJ/mol
# Density = 2.229387 g / cm^3
# Si number density = 22.344729 Si / 1000 Ang^3
#
#
#
# Elastic Constant Matrix: (Units=GPa)
#
#
# Indices 1 2 3 4 5 6 
#
# 1 188.8714 54.6202 41.7773 7.3870 -14.5872 -13.9281
# 2 54.6202 60.1704 30.2834 2.5469 -4.4709 -5.2952
# 3 41.7773 30.2834 66.0578 -8.4770 0.3429 -24.4460
# 4 7.3870 2.5469 -8.4770 25.0688 -1.4817 -1.1718
# 5 -14.5872 -4.4709 0.3429 -1.4817 45.0264 10.0422
# 6 -13.9281 -5.2952 -24.4460 -1.1718 10.0422 38.7466
#
#
#
# Elastic Compliance Matrix: (Units=1/GPa)
#
#
# Indices 1 2 3 4 5 6 
#
# 1 0.007702 -0.005283 -0.002949 -0.002631 0.001998 -0.000412
# 2 -0.005283 0.027568 -0.012585 -0.005675 0.002470 -0.006884
# 3 -0.002949 -0.012585 0.031631 0.013370 -0.006291 0.019211
# 4 -0.002631 -0.005675 0.013370 0.046052 -0.001921 0.008604
# 5 0.001998 0.002470 -0.006291 -0.001921 0.025206 -0.009504
# 6 -0.000412 -0.006884 0.019211 0.008604 -0.009504 0.039564
#
#
# Mechanical properties :
#
#
# Convention : Reuss Voigt Hill
#
# Bulk Modulus (GPa) = 39.58110 63.16240 51.37175
# Shear Modulus (GPa) = 21.95112 34.32961 28.14037
#
# Velocity S-wave (km/s) = 3.13770 3.92390 3.55262
# Velocity P-wave (km/s) = 5.55691 6.98984 6.31416
#
# Compressibility (1/GPa) = 0.02526458
#
# Stress axis : x y z
#
# Youngs Moduli (GPa) = 129.84091 36.27444 31.61491
#
# Poissons Ratio (x) = 0.19166 0.09323
# Poissons Ratio (y) = 0.68601 0.39788
# Poissons Ratio (z) = 0.38290 0.45652
#
# Static dielectric constant tensor:
#      x y z
#    x 1.825320 0.032940 0.029510 
#    y 0.032940 1.822790 -0.003170 
#    z 0.029510 -0.003170 1.916220 
# 
# From -- ./inp_files/338227.got.cif
#   From: 2010.05.17/outbox.cif.g08.bks.cpg/sg2_170_cif.got.tgz:338227.got - 2010.06.03 11:33:40.
