data_PCOD9055265
_publ_section_title
;
Structure prediction by ZEFSAII (Michael W. Deem and Ramdas Pophale) SiO2 
 PCOD9055265
Probable space group: P -1
;
_chemical_formula_sum "Si O2"
_cell_formula_units_Z 12
_cell_length_a 8.846047
_cell_length_b 18.255122
_cell_length_c 12.652107
_cell_angle_alpha 28.465204
_cell_angle_beta 38.845124
_cell_angle_gamma 40.357544
_cell_volume 590.000632
_symmetry_space_group_name_H-M "P -1"
_symmetry_group_IT_number 2
_symmetry_cell_setting 'triclinic'
loop_
_space_group_symop_operation_xyz
x,y,z
-x,-y,-z
loop_
_atom_site_type_symbol
_atom_site_label
_atom_site_fract_x
_atom_site_fract_y
_atom_site_fract_z
Si Si1 0.466219 0.392780 0.939726
Si Si2 0.211463 0.403871 0.424461
Si Si3 0.308378 0.152363 0.859856
Si Si4 0.142862 0.930560 0.901301
Si Si5 0.891640 0.740427 0.554071
Si Si6 0.434195 0.623982 0.470860
O O1 0.615400 0.475802 0.836439
O O2 0.396879 0.526171 0.718665
O O3 0.648823 0.234440 0.990466
O O4 0.242170 0.342891 0.181390
O O5 0.354205 0.237687 0.615763
O O6 0.103254 0.353609 0.439596
O O7 0.000000 0.500000 0.500000
O O8 0.343745 0.290392 0.744282
O O9 0.050726 0.110754 0.025649
O O10 0.500000 0.000000 0.000000
O O11 0.248650 0.075172 0.620168
O O12 0.000000 0.000000 0.000000
O O13 0.169346 0.740819 0.437760
O O14 0.500000 0.500000 0.500000
#
# Coordination Sequence:
#
# PCOD9055265 Si02
#       6
#     2   2   2   2   2   2
#     4  11  25  40  62  95 128 163 210 267 320 364
#     4  11  21  41  65  90 120 166 219 256 303 382
#     4  11  22  38  63  93 118 156 219 260 297 364
#     4  12  22  42  66  89 125 168 217 257 306 386
#     4  12  23  41  63  93 131 166 202 269 324 363
#     4  11  24  40  67  92 124 168 212 258 306 382
#
# _framework density 20.338958999999999
#
# number of rings (size 3 to 8) (size 9 to 14) (size 15 to 20)
#    0.000    0.667    5.000    4.500    0.000    0.000 
#    0.000    0.000    0.000    3.000    0.000    0.000 
#    0.000    0.000    0.000    0.000    0.000    0.000 
#
# Total GULP energy -66915.462375 kJ/mol
# GULP energy per Si atom -5576.288531 kJ/mol
# Density = 2.029267 g / cm^3
# Si number density = 20.338959 Si / 1000 Ang^3
#
#
#
# Elastic Constant Matrix: (Units=GPa)
#
#
# Indices 1 2 3 4 5 6 
#
# 1 101.5038 29.2641 9.0642 -4.9679 -8.5593 20.2522
# 2 29.2641 65.5232 17.1482 -13.3383 6.7951 8.8470
# 3 9.0642 17.1482 83.8076 -14.9674 -7.6673 17.3477
# 4 -4.9679 -13.3383 -14.9674 35.0292 -3.6031 0.5003
# 5 -8.5593 6.7951 -7.6673 -3.6031 41.1602 -12.8965
# 6 20.2522 8.8470 17.3477 0.5003 -12.8965 32.7188
#
#
#
# Elastic Compliance Matrix: (Units=1/GPa)
#
#
# Indices 1 2 3 4 5 6 
#
# 1 0.012704 -0.005193 0.001306 0.000657 0.001775 -0.006462
# 2 -0.005193 0.020326 -0.002460 0.005440 -0.005419 -0.003196
# 3 0.001306 -0.002460 0.015080 0.005968 0.001632 -0.007587
# 4 0.000657 0.005440 0.005968 0.033513 0.001761 -0.004860
# 5 0.001775 -0.005419 0.001632 0.001761 0.029495 0.011100
# 6 -0.006462 -0.003196 -0.007587 -0.004860 0.011100 0.043899
#
#
# Mechanical properties :
#
#
# Convention : Reuss Voigt Hill
#
# Bulk Modulus (GPa) = 28.23668 40.19862 34.21765
# Shear Modulus (GPa) = 27.85259 34.80550 31.32905
#
# Velocity S-wave (km/s) = 3.70458 4.14124 3.92898
# Velocity P-wave (km/s) = 5.67554 6.53251 6.11905
#
# Compressibility (1/GPa) = 0.03541493
#
# Stress axis : x y z
#
# Youngs Moduli (GPa) = 78.71766 49.19789 66.31423
#
# Poissons Ratio (x) = 0.25550 -0.08661
# Poissons Ratio (y) = 0.40881 0.16312
# Poissons Ratio (z) = -0.10280 0.12102
#
# Static dielectric constant tensor:
#      x y z
#    x 1.780750 -0.032910 0.005700 
#    y -0.032910 1.725320 -0.015590 
#    z 0.005700 -0.015590 1.747910 
# 
# From -- ./inp_files/145013.got.cif
#   From: 2010.05.17/outbox.cif.g08.bks.cpg/sg2_73_cif.got.tgz:145013.got - 2010.06.03 11:33:40.
