data_PCOD9055486
_publ_section_title
;
Structure prediction by ZEFSAII (Michael W. Deem and Ramdas Pophale) SiO2 
 PCOD9055486
Probable space group: P -1
;
_chemical_formula_sum "Si O2"
_cell_formula_units_Z 16
_cell_length_a 12.421900
_cell_length_b 8.340184
_cell_length_c 17.945831
_cell_angle_alpha 122.679815
_cell_angle_beta 36.292374
_cell_angle_gamma 97.389504
_cell_volume 730.118302
_symmetry_space_group_name_H-M "P -1"
_symmetry_group_IT_number 2
_symmetry_cell_setting 'triclinic'
loop_
_space_group_symop_operation_xyz
x,y,z
-x,-y,-z
loop_
_atom_site_type_symbol
_atom_site_label
_atom_site_fract_x
_atom_site_fract_y
_atom_site_fract_z
Si Si1 0.716666 0.852626 0.684211
Si Si2 0.607769 0.337952 0.825506
Si Si3 0.294034 0.322929 0.880468
Si Si4 0.857330 0.384039 0.205047
Si Si5 0.232509 0.076377 0.036178
Si Si6 0.892991 0.221824 0.990374
Si Si7 0.562937 0.070856 0.406728
Si Si8 0.816675 0.598701 0.725226
O O1 0.748447 0.756814 0.727897
O O2 0.909331 0.607307 0.473823
O O3 0.749890 0.057963 0.703588
O O4 0.458239 0.964660 0.832546
O O5 0.420243 0.366272 0.882717
O O6 0.722526 0.443698 0.745732
O O7 0.500000 0.500000 0.000000
O O8 0.220972 0.506428 0.899987
O O9 0.454442 0.058262 0.687242
O O10 0.052651 0.399637 0.066055
O O11 0.836476 0.241341 0.115111
O O12 0.616870 0.639455 0.422094
O O13 0.991669 0.235172 0.166623
O O14 0.254086 0.224553 0.122374
O O15 0.232293 0.859776 0.008628
O O16 0.165457 0.051315 0.777920
O O17 0.500000 0.000000 0.500000
#
# Coordination Sequence:
#
# PCOD9055486 Si02
#       8
#     2   2   2   2   2   2   2   2
#     4  11  25  47  68  96 141 172 226 288 330 402
#     4  12  24  45  74 101 136 184 225 282 343 402
#     4  11  22  41  67  97 128 170 223 267 334 399
#     4  11  22  42  64  95 130 170 214 273 331 394
#     4  12  25  43  67  93 133 175 220 274 339 400
#     4  11  24  39  66  97 130 173 220 269 335 402
#     4  11  21  42  66  96 134 168 219 280 324 400
#     4  11  26  47  68 101 136 178 228 281 339 404
#
# _framework density 21.914256000000002
#
# number of rings (size 3 to 8) (size 9 to 14) (size 15 to 20)
#    0.000    0.750    5.000    2.625    3.500    1.500 
#    6.750    0.000    0.000    0.000    0.000    0.000 
#    0.000    0.000    0.000    0.000    0.000    0.000 
#
# Total GULP energy -89308.571984 kJ/mol
# GULP energy per Si atom -5581.785749 kJ/mol
# Density = 2.186438 g / cm^3
# Si number density = 21.914256 Si / 1000 Ang^3
#
#
#
# Elastic Constant Matrix: (Units=GPa)
#
#
# Indices 1 2 3 4 5 6 
#
# 1 81.0373 20.5925 31.8342 2.4696 4.3485 16.9250
# 2 20.5925 101.8621 12.2478 17.7147 3.6202 7.0197
# 3 31.8342 12.2478 142.6730 22.7446 -1.0806 10.3705
# 4 2.4696 17.7147 22.7446 26.2693 -5.2533 -5.4572
# 5 4.3485 3.6202 -1.0806 -5.2533 22.4728 4.3998
# 6 16.9250 7.0197 10.3705 -5.4572 4.3998 39.3104
#
#
#
# Elastic Compliance Matrix: (Units=1/GPa)
#
#
# Indices 1 2 3 4 5 6 
#
# 1 0.015272 -0.002635 -0.003117 0.001762 -0.001311 -0.004891
# 2 -0.002635 0.012284 0.001344 -0.010384 -0.003346 -0.002480
# 3 -0.003117 0.001344 0.009253 -0.009322 -0.000851 -0.002538
# 4 0.001762 -0.010384 -0.009322 0.057556 0.012348 0.010163
# 5 -0.001311 -0.003346 -0.000851 0.012348 0.048594 -0.002338
# 6 -0.004891 -0.002480 -0.002538 0.010163 -0.002338 0.030330
#
#
# Mechanical properties :
#
#
# Convention : Reuss Voigt Hill
#
# Bulk Modulus (GPa) = 35.72282 50.54681 43.13482
# Shear Modulus (GPa) = 26.11819 35.00369 30.56094
#
# Velocity S-wave (km/s) = 3.45604 4.00096 3.73844
# Velocity P-wave (km/s) = 5.67998 6.66779 6.19361
#
# Compressibility (1/GPa) = 0.02799331
#
# Stress axis : x y z
#
# Youngs Moduli (GPa) = 65.47827 81.40601 108.06998
#
# Poissons Ratio (x) = 0.21453 0.33681
# Poissons Ratio (y) = 0.17256 -0.14523
# Poissons Ratio (z) = 0.20407 -0.10940
#
# Static dielectric constant tensor:
#      x y z
#    x 1.807370 -0.044690 -0.029810 
#    y -0.044690 1.892900 0.022370 
#    z -0.029810 0.022370 1.762450 
# 
# From -- ./inp_files/306188.got.cif
#   From: 2010.05.17/outbox.cif.g08.bks.cpg/sg2_154_cif.got.tgz:306188.got - 2010.06.03 11:33:40.
