data_PCOD9055408
_publ_section_title
;
Structure prediction by ZEFSAII (Michael W. Deem and Ramdas Pophale) SiO2 
 PCOD9055408
Probable space group: P -1
;
_chemical_formula_sum "Si O2"
_cell_formula_units_Z 16
_cell_length_a 9.198416
_cell_length_b 16.105227
_cell_length_c 12.326075
_cell_angle_alpha 25.323166
_cell_angle_beta 92.696998
_cell_angle_gamma 107.106054
_cell_volume 630.532017
_symmetry_space_group_name_H-M "P -1"
_symmetry_group_IT_number 2
_symmetry_cell_setting 'triclinic'
loop_
_space_group_symop_operation_xyz
x,y,z
-x,-y,-z
loop_
_atom_site_type_symbol
_atom_site_label
_atom_site_fract_x
_atom_site_fract_y
_atom_site_fract_z
Si Si1 0.805268 0.584144 0.852854
Si Si2 0.868022 0.645699 0.029405
Si Si3 0.731925 0.107065 0.315062
Si Si4 0.774846 0.990912 0.671703
Si Si5 0.682499 0.781863 0.442692
Si Si6 0.498769 0.004862 0.773863
Si Si7 0.027084 0.333905 0.770247
Si Si8 0.661680 0.515518 0.543381
O O1 0.776361 0.540176 0.033754
O O2 0.698774 0.673507 0.683399
O O3 0.018627 0.783245 0.603516
O O4 0.766193 0.350645 0.070300
O O5 0.076965 0.841131 0.769315
O O6 0.784379 0.768252 0.939155
O O7 0.899054 0.533567 0.266838
O O8 0.665741 0.944976 0.610795
O O9 0.603849 0.020599 0.310921
O O10 0.681576 0.040301 0.704253
O O11 0.688498 0.627208 0.531157
O O12 0.511347 0.792710 0.409001
O O13 0.853108 0.061440 0.105319
O O14 0.387338 0.750506 0.131857
O O15 0.167690 0.322123 0.718664
O O16 0.000000 0.500000 0.500000
O O17 0.500000 0.500000 0.500000
#
# Coordination Sequence:
#
# PCOD9055408 Si02
#       8
#     2   2   2   2   2   2   2   2
#     4  11  23  43  72 111 139 185 240 295 356 434
#     4  11  21  41  71 102 140 184 235 289 350 422
#     4  11  21  43  68 106 147 180 237 291 353 441
#     4  11  22  39  68 104 145 185 224 292 363 421
#     4  12  25  50  77 100 146 192 239 298 362 425
#     4  12  24  47  68 104 147 186 234 297 359 425
#     4  12  24  48  77 101 141 196 244 291 347 426
#     4  12  28  50  70 105 143 186 247 299 356 421
#
# _framework density 25.375398000000001
#
# number of rings (size 3 to 8) (size 9 to 14) (size 15 to 20)
#    0.000    0.500    5.000    5.250    0.000    0.500 
#    9.000    1.250    0.000    0.000    0.000    0.000 
#    0.000    0.000    0.000    0.000    0.000    0.000 
#
# Total GULP energy -89594.538263 kJ/mol
# GULP energy per Si atom -5599.658641 kJ/mol
# Density = 2.531764 g / cm^3
# Si number density = 25.375398 Si / 1000 Ang^3
#
#
#
# Elastic Constant Matrix: (Units=GPa)
#
#
# Indices 1 2 3 4 5 6 
#
# 1 122.1929 14.6101 31.2274 -1.0042 3.3444 -24.9715
# 2 14.6101 98.8544 30.9360 9.8945 -2.8140 -7.3627
# 3 31.2274 30.9360 104.9142 7.7349 19.2631 3.1269
# 4 -1.0042 9.8945 7.7349 38.3758 -7.5503 2.0936
# 5 3.3444 -2.8140 19.2631 -7.5503 28.8982 0.9755
# 6 -24.9715 -7.3627 3.1269 2.0936 0.9755 45.8015
#
#
#
# Elastic Compliance Matrix: (Units=1/GPa)
#
#
# Indices 1 2 3 4 5 6 
#
# 1 0.010228 -0.000051 -0.003482 0.000901 0.001174 0.005740
# 2 -0.000051 0.011804 -0.004012 -0.001702 0.003313 0.002151
# 3 -0.003482 -0.004012 0.013985 -0.003707 -0.010174 -0.003112
# 4 0.000901 -0.001702 -0.003707 0.029271 0.009885 -0.001078
# 5 0.001174 0.003313 -0.010174 0.009885 0.044139 0.000475
# 6 0.005740 0.002151 -0.003112 -0.001078 0.000475 0.025560
#
#
# Mechanical properties :
#
#
# Convention : Reuss Voigt Hill
#
# Bulk Modulus (GPa) = 47.78797 53.27872 50.53335
# Shear Modulus (GPa) = 31.83609 39.22764 35.53187
#
# Velocity S-wave (km/s) = 3.54588 3.93605 3.74605
# Velocity P-wave (km/s) = 5.96973 6.45743 6.21836
#
# Compressibility (1/GPa) = 0.02092577
#
# Stress axis : x y z
#
# Youngs Moduli (GPa) = 97.76985 84.71802 71.50395
#
# Poissons Ratio (x) = 0.00433 0.24900
# Poissons Ratio (y) = 0.00499 0.28689
# Poissons Ratio (z) = 0.34047 0.33991
#
# Static dielectric constant tensor:
#      x y z
#    x 2.118130 -0.011890 -0.031710 
#    y -0.011890 2.018340 -0.032290 
#    z -0.031710 -0.032290 2.028070 
# 
# From -- ./inp_files/398176.got.cif
#   From: 2010.05.17/outbox.cif.g08.bks.cpg/sg2_200_cif.got.tgz:398176.got - 2010.06.03 11:33:40.
