data_PCOD9055747
_publ_section_title
;
Structure prediction by ZEFSAII (Michael W. Deem and Ramdas Pophale) SiO2 
 PCOD9055747
Probable space group: P -1
;
_chemical_formula_sum "Si O2"
_cell_formula_units_Z 14
_cell_length_a 12.531856
_cell_length_b 8.009429
_cell_length_c 19.445832
_cell_angle_alpha 135.337515
_cell_angle_beta 147.570070
_cell_angle_gamma 64.660055
_cell_volume 654.355190
_symmetry_space_group_name_H-M "P -1"
_symmetry_group_IT_number 2
_symmetry_cell_setting 'triclinic'
loop_
_space_group_symop_operation_xyz
x,y,z
-x,-y,-z
loop_
_atom_site_type_symbol
_atom_site_label
_atom_site_fract_x
_atom_site_fract_y
_atom_site_fract_z
Si Si1 0.412893 0.876475 0.708901
Si Si2 0.018766 0.527849 0.208389
Si Si3 0.932328 0.587985 0.418561
Si Si4 0.686029 0.756509 0.716366
Si Si5 0.360906 0.648766 0.937956
Si Si6 0.202922 0.657033 0.104672
Si Si7 0.325874 0.103632 0.592006
O O1 0.574188 0.768001 0.731772
O O2 0.154683 0.674896 0.519571
O O3 0.410715 0.071557 0.704198
O O4 0.501794 0.042005 0.875473
O O5 0.107462 0.308716 0.183812
O O6 0.861293 0.461925 0.169006
O O7 0.222044 0.819479 0.414786
O O8 0.878169 0.506237 0.058000
O O9 0.721472 0.405578 0.201600
O O10 0.870121 0.818733 0.477094
O O11 0.000000 0.500000 0.500000
O O12 0.500000 0.500000 0.500000
O O13 0.753470 0.036310 0.795454
O O14 0.500000 0.500000 0.000000
O O15 0.451020 0.691722 0.266566
O O16 0.000000 0.500000 0.000000
#
# Coordination Sequence:
#
# PCOD9055747 Si02
#       7
#     2   2   2   2   2   2   2
#     4  11  22  41  71  97 130 186 234 280 337 427
#     4  12  22  42  72  98 131 187 234 281 339 425
#     4  12  26  44  66 104 142 175 227 302 358 396
#     4  11  21  43  70 100 135 177 239 279 336 426
#     4  12  22  41  74  97 129 185 239 279 338 426
#     4  11  25  43  65 104 141 176 226 296 355 399
#     4  11  22  45  69  98 134 183 240 272 345 429
#
# _framework density 21.395109000000001
#
# number of rings (size 3 to 8) (size 9 to 14) (size 15 to 20)
#    0.000    0.571    8.571    1.714    0.000    2.286 
#    5.143    0.000    0.000    0.000    0.000    0.000 
#    0.000    0.000    0.000    0.000    0.000    0.000 
#
# Total GULP energy -78133.567141 kJ/mol
# GULP energy per Si atom -5580.969081 kJ/mol
# Density = 2.134641 g / cm^3
# Si number density = 21.395109 Si / 1000 Ang^3
#
#
#
# Elastic Constant Matrix: (Units=GPa)
#
#
# Indices 1 2 3 4 5 6 
#
# 1 85.3031 41.3517 30.0001 -5.7790 3.8394 -13.1520
# 2 41.3517 62.9829 13.6164 -15.4769 -5.6987 -24.0923
# 3 30.0001 13.6164 116.1095 -2.7646 -16.6694 2.3091
# 4 -5.7790 -15.4769 -2.7646 28.1320 -9.7981 1.3771
# 5 3.8394 -5.6987 -16.6694 -9.7981 54.3566 -7.0241
# 6 -13.1520 -24.0923 2.3091 1.3771 -7.0241 36.2491
#
#
#
# Elastic Compliance Matrix: (Units=1/GPa)
#
#
# Indices 1 2 3 4 5 6 
#
# 1 0.020326 -0.016358 -0.004331 -0.007248 -0.006324 -0.004171
# 2 -0.016358 0.042517 0.001243 0.023629 0.013346 0.023933
# 3 -0.004331 0.001243 0.010207 0.002179 0.003865 -0.000729
# 4 -0.007248 0.023629 0.002179 0.051739 0.014771 0.013833
# 5 -0.006324 0.013346 0.003865 0.014771 0.025474 0.010704
# 6 -0.004171 0.023933 -0.000729 0.013833 0.010704 0.043575
#
#
# Mechanical properties :
#
#
# Convention : Reuss Voigt Hill
#
# Bulk Modulus (GPa) = 29.27500 48.25912 38.76706
# Shear Modulus (GPa) = 20.48201 35.70936 28.09569
#
# Velocity S-wave (km/s) = 3.09742 4.08982 3.62772
# Velocity P-wave (km/s) = 5.14828 6.70129 5.97545
#
# Compressibility (1/GPa) = 0.03415884
#
# Stress axis : x y z
#
# Youngs Moduli (GPa) = 49.19741 23.51992 97.97097
#
# Poissons Ratio (x) = 0.38474 0.42432
# Poissons Ratio (y) = 0.80476 -0.12179
# Poissons Ratio (z) = 0.21308 -0.02924
#
# Static dielectric constant tensor:
#      x y z
#    x 1.860720 -0.055350 0.047770 
#    y -0.055350 1.848780 -0.061340 
#    z 0.047770 -0.061340 1.889840 
# 
# From -- ./inp_files/396846.got.cif
#   From: 2010.05.17/outbox.cif.g08.bks.cpg/sg2_199_cif.got.tgz:396846.got - 2010.06.03 11:33:40.
