data_PCOD9055087
_publ_section_title
;
Structure prediction by ZEFSAII (Michael W. Deem and Ramdas Pophale) SiO2 
 PCOD9055087
Probable space group: P -1
;
_chemical_formula_sum "Si O2"
_cell_formula_units_Z 16
_cell_length_a 10.210599
_cell_length_b 13.013557
_cell_length_c 14.381556
_cell_angle_alpha 51.979779
_cell_angle_beta 73.945457
_cell_angle_gamma 117.501847
_cell_volume 796.167777
_symmetry_space_group_name_H-M "P -1"
_symmetry_group_IT_number 2
_symmetry_cell_setting 'triclinic'
loop_
_space_group_symop_operation_xyz
x,y,z
-x,-y,-z
loop_
_atom_site_type_symbol
_atom_site_label
_atom_site_fract_x
_atom_site_fract_y
_atom_site_fract_z
Si Si1 0.651653 0.215216 0.072764
Si Si2 0.791179 0.944090 0.058976
Si Si3 0.905243 0.559939 0.211955
Si Si4 0.526445 0.817065 0.343441
Si Si5 0.260258 0.544644 0.913286
Si Si6 0.609135 0.757550 0.990614
Si Si7 0.275333 0.240298 0.349655
Si Si8 0.065949 0.948491 0.727789
O O1 0.724177 0.312026 0.110111
O O2 0.537937 0.979882 0.227590
O O3 0.475692 0.184533 0.082297
O O4 0.901176 0.403927 0.857158
O O5 0.549136 0.750080 0.282241
O O6 0.693836 0.863205 0.018512
O O7 0.000000 0.000000 0.000000
O O8 0.935275 0.190338 0.922447
O O9 0.692692 0.374708 0.433055
O O10 0.806333 0.499094 0.158947
O O11 0.774911 0.967637 0.262337
O O12 0.527151 0.688589 0.784147
O O13 0.067640 0.292633 0.141716
O O14 0.385270 0.473413 0.196581
O O15 0.843693 0.869413 0.838350
O O16 0.000000 0.000000 0.500000
O O17 0.252445 0.164182 0.499783
#
# Coordination Sequence:
#
# PCOD9055087 Si02
#       8
#     2   2   2   2   2   2   2   2
#     4  11  25  42  63  94 135 173 212 258 328 381
#     4  11  22  44  69  94 125 168 216 267 321 375
#     4  11  24  41  63  97 130 169 214 263 317 380
#     4  11  24  41  65  98 127 166 218 263 315 381
#     4  11  21  41  65  94 131 172 214 262 316 384
#     4  11  25  44  67  96 131 170 214 266 324 381
#     4  11  23  39  64  98 132 166 215 268 320 376
#     4  11  21  40  66  95 127 165 216 267 316 372
#
# _framework density 20.096266
#
# number of rings (size 3 to 8) (size 9 to 14) (size 15 to 20)
#    0.000    1.000    5.000    2.625    0.000    9.000 
#    0.000    1.250    0.000    0.000    0.000    0.000 
#    0.000    0.000    0.000    0.000    0.000    0.000 
#
# Total GULP energy -89294.208336 kJ/mol
# GULP energy per Si atom -5580.888021 kJ/mol
# Density = 2.005053 g / cm^3
# Si number density = 20.096266 Si / 1000 Ang^3
#
#
#
# Elastic Constant Matrix: (Units=GPa)
#
#
# Indices 1 2 3 4 5 6 
#
# 1 100.2956 22.9253 37.5984 -0.3921 3.9789 -0.2271
# 2 22.9253 101.9233 19.0757 10.0884 -1.3491 -5.9611
# 3 37.5984 19.0757 84.6471 12.8325 -2.1004 -10.0163
# 4 -0.3921 10.0884 12.8325 24.8818 3.9468 -5.2766
# 5 3.9789 -1.3491 -2.1004 3.9468 27.4510 1.6195
# 6 -0.2271 -5.9611 -10.0163 -5.2766 1.6195 30.9524
#
#
#
# Elastic Compliance Matrix: (Units=1/GPa)
#
#
# Indices 1 2 3 4 5 6 
#
# 1 0.012942 -0.002328 -0.006149 0.004498 -0.003024 -0.001418
# 2 -0.002328 0.010946 -0.000643 -0.004123 0.001354 0.001109
# 3 -0.006149 -0.000643 0.016408 -0.008017 0.003055 0.003614
# 4 0.004498 -0.004123 -0.008017 0.048602 -0.008774 0.005389
# 5 -0.003024 0.001354 0.003055 -0.008774 0.038563 -0.002286
# 6 -0.001418 0.001109 0.003614 0.005389 -0.002286 0.034719
#
#
# Mechanical properties :
#
#
# Convention : Reuss Voigt Hill
#
# Bulk Modulus (GPa) = 45.33633 49.56275 47.44954
# Shear Modulus (GPa) = 26.62794 30.47481 28.55138
#
# Velocity S-wave (km/s) = 3.64403 3.89838 3.77335
# Velocity P-wave (km/s) = 6.34932 6.70666 6.53043
#
# Compressibility (1/GPa) = 0.02205737
#
# Stress axis : x y z
#
# Youngs Moduli (GPa) = 77.26750 91.35596 60.94405
#
# Poissons Ratio (x) = 0.21272 0.37472
# Poissons Ratio (y) = 0.17991 0.03917
# Poissons Ratio (z) = 0.47509 0.05871
#
# Static dielectric constant tensor:
#      x y z
#    x 1.718930 0.029600 0.001050 
#    y 0.029600 1.748050 0.033150 
#    z 0.001050 0.033150 1.745150 
# 
# From -- ./inp_files/500033.got.cif
#   From: 2010.05.17/outbox.cif.g08.bks.cpg/sg2_251_cif.got.tgz:500033.got - 2010.06.03 11:33:40.
