data_PCOD9055493
_publ_section_title
;
Structure prediction by ZEFSAII (Michael W. Deem and Ramdas Pophale) SiO2 
 PCOD9055493
Probable space group: P -1
;
_chemical_formula_sum "Si O2"
_cell_formula_units_Z 14
_cell_length_a 5.395933
_cell_length_b 24.507511
_cell_length_c 14.028176
_cell_angle_alpha 21.362443
_cell_angle_beta 58.345469
_cell_angle_gamma 58.182895
_cell_volume 570.773143
_symmetry_space_group_name_H-M "P -1"
_symmetry_group_IT_number 2
_symmetry_cell_setting 'triclinic'
loop_
_space_group_symop_operation_xyz
x,y,z
-x,-y,-z
loop_
_atom_site_type_symbol
_atom_site_label
_atom_site_fract_x
_atom_site_fract_y
_atom_site_fract_z
Si Si1 0.315125 0.924686 0.448308
Si Si2 0.218595 0.893755 0.997593
Si Si3 0.305170 0.865840 0.239964
Si Si4 0.725795 0.452699 0.692513
Si Si5 0.751179 0.107120 0.271772
Si Si6 0.057831 0.596936 0.550242
Si Si7 0.568070 0.660342 0.686417
O O1 0.202452 0.870825 0.659311
O O2 0.471602 0.786775 0.580001
O O3 0.024636 0.012791 0.316774
O O4 0.528282 0.055029 0.201753
O O5 0.347851 0.836257 0.167943
O O6 0.051834 0.751697 0.238330
O O7 0.012979 0.047297 0.813676
O O8 0.392208 0.728987 0.516693
O O9 0.500000 0.000000 0.000000
O O10 0.397686 0.527366 0.607315
O O11 0.000000 0.500000 0.500000
O O12 0.842133 0.493521 0.708198
O O13 0.700129 0.276450 0.971322
O O14 0.500000 0.000000 0.500000
O O15 0.902448 0.639477 0.614391
O O16 0.500000 0.500000 0.000000
#
# Coordination Sequence:
#
# PCOD9055493 Si02
#       7
#     2   2   2   2   2   2   2
#     4  11  26  47  73 110 148 205 268 320 401 470
#     4  11  23  41  75 108 149 206 257 321 389 469
#     4  11  21  42  67 108 155 200 257 306 384 492
#     4  12  29  51  81 113 158 210 263 330 398 466
#     4  11  29  49  76 104 152 209 273 324 380 490
#     4  12  27  48  79 120 159 198 265 332 398 482
#     4  12  26  45  78 116 163 202 251 335 416 470
#
# _framework density 24.528136
#
# number of rings (size 3 to 8) (size 9 to 14) (size 15 to 20)
#    0.000    0.571    2.857    3.857   10.000    0.000 
#    0.000    4.286    0.000    0.000    0.000    0.000 
#    0.000    0.000    0.000    0.000    0.000    0.000 
#
# Total GULP energy -78257.977667 kJ/mol
# GULP energy per Si atom -5589.855548 kJ/mol
# Density = 2.447231 g / cm^3
# Si number density = 24.528136 Si / 1000 Ang^3
#
#
#
# Elastic Constant Matrix: (Units=GPa)
#
#
# Indices 1 2 3 4 5 6 
#
# 1 88.8259 30.6789 36.3395 -16.4006 -0.0843 -17.3567
# 2 30.6789 144.2026 66.4690 -8.3943 -1.7428 -16.7068
# 3 36.3395 66.4690 208.5047 -18.5618 -2.0818 -23.6573
# 4 -16.4006 -8.3943 -18.5618 49.5231 6.9304 -1.4154
# 5 -0.0843 -1.7428 -2.0818 6.9304 45.6436 2.1745
# 6 -17.3567 -16.7068 -23.6573 -1.4154 2.1745 51.0427
#
#
#
# Elastic Compliance Matrix: (Units=1/GPa)
#
#
# Indices 1 2 3 4 5 6 
#
# 1 0.013799 -0.001786 -0.001051 0.004106 -0.000894 0.003773
# 2 -0.001786 0.008491 -0.002267 0.000007 0.000163 0.001114
# 3 -0.001051 -0.002267 0.006042 0.001602 -0.000140 0.001751
# 4 0.004106 0.000007 0.001602 0.022729 -0.003509 0.002921
# 5 -0.000894 0.000163 -0.000140 -0.003509 0.022505 -0.001371
# 6 0.003773 0.001114 0.001751 0.002921 -0.001371 0.022190
#
#
# Mechanical properties :
#
#
# Convention : Reuss Voigt Hill
#
# Bulk Modulus (GPa) = 55.17432 78.72311 66.94872
# Shear Modulus (GPa) = 44.64072 49.77828 47.20950
#
# Velocity S-wave (km/s) = 4.27075 4.50981 4.39191
# Velocity P-wave (km/s) = 6.84560 7.69952 7.28508
#
# Compressibility (1/GPa) = 0.01812437
#
# Stress axis : x y z
#
# Youngs Moduli (GPa) = 72.46749 117.77092 165.51401
#
# Poissons Ratio (x) = 0.21034 0.17395
# Poissons Ratio (y) = 0.12943 0.37520
# Poissons Ratio (z) = 0.07616 0.26697
#
# Static dielectric constant tensor:
#      x y z
#    x 2.167280 0.077630 -0.094700 
#    y 0.077630 2.020690 -0.042410 
#    z -0.094700 -0.042410 2.087080 
# 
# From -- ./inp_files/486209.got.cif
#   From: 2010.05.17/outbox.cif.g08.bks.cpg/sg2_244_cif.got.tgz:486209.got - 2010.06.03 11:33:40.
