data_PCOD9055164
_publ_section_title
;
Structure prediction by ZEFSAII (Michael W. Deem and Ramdas Pophale) SiO2 
 PCOD9055164
Probable space group: P -1
;
_chemical_formula_sum "Si O2"
_cell_formula_units_Z 12
_cell_length_a 12.772356
_cell_length_b 15.311454
_cell_length_c 15.033071
_cell_angle_alpha 18.713195
_cell_angle_beta 142.642204
_cell_angle_gamma 138.672914
_cell_volume 572.308172
_symmetry_space_group_name_H-M "P -1"
_symmetry_group_IT_number 2
_symmetry_cell_setting 'triclinic'
loop_
_space_group_symop_operation_xyz
x,y,z
-x,-y,-z
loop_
_atom_site_type_symbol
_atom_site_label
_atom_site_fract_x
_atom_site_fract_y
_atom_site_fract_z
Si Si1 0.816241 0.360243 0.522281
Si Si2 0.825891 0.398925 0.023476
Si Si3 0.720664 0.949984 0.498541
Si Si4 0.494954 0.729262 0.199757
Si Si5 0.628376 0.237802 0.337329
Si Si6 0.341734 0.107333 0.024130
O O1 0.761948 0.250651 0.495657
O O2 0.000000 0.500000 0.500000
O O3 0.792455 0.121791 0.810430
O O4 0.689479 0.612323 0.215562
O O5 0.673463 0.347653 0.898444
O O6 0.765422 0.631552 0.829287
O O7 0.847966 0.111852 0.363977
O O8 0.000000 0.500000 0.000000
O O9 0.719774 0.125914 0.418149
O O10 0.527319 0.982708 0.296863
O O11 0.500000 0.500000 0.500000
O O12 0.643165 0.791050 0.165836
O O13 0.500000 0.000000 0.000000
O O14 0.500000 0.000000 0.500000
O O15 0.500000 0.500000 0.000000
#
# Coordination Sequence:
#
# PCOD9055164 Si02
#       6
#     2   2   2   2   2   2
#     4  12  24  42  63  98 136 168 207 274 326 370
#     4  11  24  43  66  94 133 160 210 277 331 368
#     4  11  21  40  69  93 123 174 216 256 317 390
#     4  11  23  43  69  93 122 170 222 263 315 395
#     4  12  22  40  68  96 126 167 225 260 303 403
#     4  11  22  42  68  91 128 175 217 255 326 392
#
# _framework density 20.967725000000002
#
# number of rings (size 3 to 8) (size 9 to 14) (size 15 to 20)
#    0.000    0.667    3.333    7.000    0.000    0.000 
#    9.000    0.000    0.000    0.000    0.000    0.000 
#    0.000    0.000    0.000    0.000    0.000    0.000 
#
# Total GULP energy -66917.365147 kJ/mol
# GULP energy per Si atom -5576.447096 kJ/mol
# Density = 2.092000 g / cm^3
# Si number density = 20.967725 Si / 1000 Ang^3
#
#
#
# Elastic Constant Matrix: (Units=GPa)
#
#
# Indices 1 2 3 4 5 6 
#
# 1 124.5259 61.3941 30.9468 -11.5560 -26.3131 -5.7944
# 2 61.3941 123.1672 33.6630 -27.1835 -20.3651 -2.4358
# 3 30.9468 33.6630 114.0896 -37.4433 -18.0849 -5.9628
# 4 -11.5560 -27.1835 -37.4433 32.0179 0.9804 -1.4608
# 5 -26.3131 -20.3651 -18.0849 0.9804 50.7405 -15.6309
# 6 -5.7944 -2.4358 -5.9628 -1.4608 -15.6309 37.1460
#
#
#
# Elastic Compliance Matrix: (Units=1/GPa)
#
#
# Indices 1 2 3 4 5 6 
#
# 1 0.011838 -0.005050 -0.001331 -0.001568 0.004653 0.003198
# 2 -0.005050 0.013461 0.002185 0.012156 0.004150 0.002670
# 3 -0.001331 0.002185 0.017185 0.021542 0.008027 0.006919
# 4 -0.001568 0.012156 0.021542 0.066317 0.014363 0.012662
# 5 0.004653 0.004150 0.008027 0.014363 0.031307 0.016025
# 6 0.003198 0.002670 0.006919 0.012662 0.016025 0.035947
#
#
# Mechanical properties :
#
#
# Convention : Reuss Voigt Hill
#
# Bulk Modulus (GPa) = 29.33279 68.19894 48.76587
# Shear Modulus (GPa) = 25.53482 39.69946 32.61714
#
# Velocity S-wave (km/s) = 3.49351 4.35600 3.94837
# Velocity P-wave (km/s) = 5.50388 7.60894 6.64035
#
# Compressibility (1/GPa) = 0.03409154
#
# Stress axis : x y z
#
# Youngs Moduli (GPa) = 84.47656 74.28808 58.18915
#
# Poissons Ratio (x) = 0.37518 0.07743
# Poissons Ratio (y) = 0.42664 -0.12714
# Poissons Ratio (z) = 0.11242 -0.16231
#
# Static dielectric constant tensor:
#      x y z
#    x 1.824360 -0.016240 -0.030700 
#    y -0.016240 1.715510 0.025600 
#    z -0.030700 0.025600 1.758680 
# 
# From -- ./inp_files/89071.got.cif
#   From: 2010.05.17/outbox.cif.g08.bks.cpg/sg2_45_cif.got.tgz:89071.got - 2010.06.03 11:33:40.
