data_PCOD9055016
_publ_section_title
;
Structure prediction by ZEFSAII (Michael W. Deem and Ramdas Pophale) SiO2 
 PCOD9055016
Probable space group: P -1
;
_chemical_formula_sum "Si O2"
_cell_formula_units_Z 16
_cell_length_a 11.794412
_cell_length_b 13.688198
_cell_length_c 8.282189
_cell_angle_alpha 138.818877
_cell_angle_beta 53.709583
_cell_angle_gamma 120.763581
_cell_volume 704.120667
_symmetry_space_group_name_H-M "P -1"
_symmetry_group_IT_number 2
_symmetry_cell_setting 'triclinic'
loop_
_space_group_symop_operation_xyz
x,y,z
-x,-y,-z
loop_
_atom_site_type_symbol
_atom_site_label
_atom_site_fract_x
_atom_site_fract_y
_atom_site_fract_z
Si Si1 0.052923 0.478315 0.245371
Si Si2 0.069087 0.820314 0.559643
Si Si3 0.840010 0.257476 0.942891
Si Si4 0.627718 0.046323 0.068851
Si Si5 0.476942 0.416274 0.085569
Si Si6 0.240402 0.229990 0.242413
Si Si7 0.382339 0.863638 0.474370
Si Si8 0.283956 0.467120 0.784588
O O1 0.048726 0.642987 0.385815
O O2 0.000000 0.500000 0.500000
O O3 0.202881 0.443509 0.997886
O O4 0.944627 0.354986 0.096276
O O5 0.086826 0.832336 0.367980
O O6 0.219878 0.882887 0.589905
O O7 0.913535 0.854293 0.784075
O O8 0.747937 0.133493 0.968555
O O9 0.755207 0.380878 0.079101
O O10 0.601576 0.156991 0.373910
O O11 0.500000 0.000000 0.000000
O O12 0.668637 0.899531 0.941268
O O13 0.573370 0.281146 0.829476
O O14 0.500000 0.500000 0.000000
O O15 0.321231 0.338165 0.172024
O O16 0.550070 0.520863 0.296300
O O17 0.233840 0.335285 0.536922
O O18 0.500000 0.000000 0.500000
#
# Coordination Sequence:
#
# PCOD9055016 Si02
#       8
#     2   2   2   2   2   2   2   2
#     4  11  21  39  71 108 141 183 237 295 367 420
#     4  11  23  45  76 101 144 186 245 306 356 427
#     4  11  21  43  72 102 139 189 235 289 369 427
#     4  12  28  46  71 102 146 201 240 289 370 444
#     4  12  28  45  71 111 144 186 245 305 363 428
#     4  12  26  48  70 111 144 188 245 302 365 424
#     4  12  25  51  72 102 145 199 241 293 370 439
#     4  11  23  45  72 102 142 188 237 300 359 429
#
# _framework density 22.723376999999999
#
# number of rings (size 3 to 8) (size 9 to 14) (size 15 to 20)
#    0.000    0.500    6.250    3.375    5.250    1.000 
#    0.000    0.000    0.000    0.000    0.000    0.000 
#    0.000    0.000    0.000    0.000    0.000    0.000 
#
# Total GULP energy -89328.638927 kJ/mol
# GULP energy per Si atom -5583.039933 kJ/mol
# Density = 2.267166 g / cm^3
# Si number density = 22.723377 Si / 1000 Ang^3
#
#
#
# Elastic Constant Matrix: (Units=GPa)
#
#
# Indices 1 2 3 4 5 6 
#
# 1 121.2284 52.0168 20.3128 -8.4642 16.9621 41.7176
# 2 52.0168 166.1569 16.6296 -32.3508 13.7917 19.4557
# 3 20.3128 16.6296 73.2905 -19.3898 14.6803 5.3567
# 4 -8.4642 -32.3508 -19.3898 44.2173 -8.8468 3.5541
# 5 16.9621 13.7917 14.6803 -8.8468 35.5357 0.5666
# 6 41.7176 19.4557 5.3567 3.5541 0.5666 37.3797
#
#
#
# Elastic Compliance Matrix: (Units=1/GPa)
#
#
# Indices 1 2 3 4 5 6 
#
# 1 0.015978 -0.002274 -0.001301 0.001009 -0.005693 -0.016472
# 2 -0.002274 0.008144 0.000669 0.005832 -0.000863 -0.002338
# 3 -0.001301 0.000669 0.016750 0.006766 -0.004844 -0.001866
# 4 0.001009 0.005832 0.006766 0.031166 0.002348 -0.008130
# 5 -0.005693 -0.000863 -0.004844 0.002348 0.033671 0.006763
# 6 -0.016472 -0.002338 -0.001866 -0.008130 0.006763 0.047291
#
#
# Mechanical properties :
#
#
# Convention : Reuss Voigt Hill
#
# Bulk Modulus (GPa) = 28.52305 59.84382 44.18343
# Shear Modulus (GPa) = 29.32569 41.54097 35.43333
#
# Velocity S-wave (km/s) = 3.59632 4.28029 3.95312
# Velocity P-wave (km/s) = 5.46116 7.12887 6.35000
#
# Compressibility (1/GPa) = 0.03505936
#
# Stress axis : x y z
#
# Youngs Moduli (GPa) = 62.58597 122.78580 59.70180
#
# Poissons Ratio (x) = 0.27923 0.07769
# Poissons Ratio (y) = 0.14233 -0.03994
# Poissons Ratio (z) = 0.08144 -0.08213
#
# Static dielectric constant tensor:
#      x y z
#    x 1.863660 0.059170 -0.026440 
#    y 0.059170 1.850320 -0.071920 
#    z -0.026440 -0.071920 1.959280 
# 
# From -- ./inp_files/274567.got.cif
#   From: 2010.05.17/outbox.cif.g08.bks.cpg/sg2_138_cif.got.tgz:274567.got - 2010.06.03 11:33:40.
