data_PCOD9055507
_publ_section_title
;
Structure prediction by ZEFSAII (Michael W. Deem and Ramdas Pophale) SiO2 
 PCOD9055507
Probable space group: P -1
;
_chemical_formula_sum "Si O2"
_cell_formula_units_Z 16
_cell_length_a 9.372656
_cell_length_b 14.342770
_cell_length_c 8.445608
_cell_angle_alpha 124.637582
_cell_angle_beta 106.594792
_cell_angle_gamma 111.941395
_cell_volume 656.576273
_symmetry_space_group_name_H-M "P -1"
_symmetry_group_IT_number 2
_symmetry_cell_setting 'triclinic'
loop_
_space_group_symop_operation_xyz
x,y,z
-x,-y,-z
loop_
_atom_site_type_symbol
_atom_site_label
_atom_site_fract_x
_atom_site_fract_y
_atom_site_fract_z
Si Si1 0.739120 0.357677 0.678284
Si Si2 0.147048 0.126613 0.533932
Si Si3 0.709314 0.580714 0.058139
Si Si4 0.387309 0.349550 0.224130
Si Si5 0.038951 0.887265 0.026123
Si Si6 0.608557 0.938027 0.935408
Si Si7 0.493307 0.770999 0.047527
Si Si8 0.119555 0.688033 0.020835
O O1 0.548547 0.218230 0.376273
O O2 0.923695 0.503071 0.770169
O O3 0.716188 0.452619 0.886685
O O4 0.808656 0.291359 0.752995
O O5 0.134916 0.257065 0.640561
O O6 0.367413 0.199531 0.737974
O O7 0.116650 0.040563 0.283588
O O8 0.000000 0.000000 0.500000
O O9 0.500000 0.500000 0.000000
O O10 0.716160 0.647654 0.957376
O O11 0.500000 0.500000 0.500000
O O12 0.560973 0.363542 0.209903
O O13 0.203413 0.216602 0.151041
O O14 0.179182 0.940256 0.969677
O O15 0.077605 0.794334 0.055506
O O16 0.633759 0.902577 0.086450
O O17 0.500000 0.000000 0.000000
O O18 0.303595 0.740687 0.020339
#
# Coordination Sequence:
#
# PCOD9055507 Si02
#       8
#     2   2   2   2   2   2   2   2
#     4  11  24  44  69 103 138 181 230 284 340 418
#     4  11  22  44  72 100 136 175 228 290 340 400
#     4  11  21  42  68 100 130 173 226 285 336 399
#     4  11  24  44  67  95 137 181 224 277 345 408
#     4  12  24  47  71 101 140 182 227 291 344 403
#     4  12  27  44  65 103 143 183 229 281 347 409
#     4  11  24  43  68  99 136 179 230 278 344 406
#     4  11  24  44  73  99 135 182 232 281 346 404
#
# _framework density 24.368835000000001
#
# number of rings (size 3 to 8) (size 9 to 14) (size 15 to 20)
#    0.000    0.750    5.000    3.750    1.750    3.000 
#    2.250    0.000    0.000    0.000    0.000    0.000 
#    0.000    0.000    0.000    0.000    0.000    0.000 
#
# Total GULP energy -89267.046855 kJ/mol
# GULP energy per Si atom -5579.190428 kJ/mol
# Density = 2.431337 g / cm^3
# Si number density = 24.368835 Si / 1000 Ang^3
#
#
#
# Elastic Constant Matrix: (Units=GPa)
#
#
# Indices 1 2 3 4 5 6 
#
# 1 148.8940 32.0173 42.6835 6.0489 -15.4607 31.8962
# 2 32.0173 130.0639 14.8356 5.9035 6.5281 18.0872
# 3 42.6835 14.8356 123.8442 15.7748 -10.4380 10.7032
# 4 6.0489 5.9035 15.7748 23.1541 -4.0912 -0.6412
# 5 -15.4607 6.5281 -10.4380 -4.0912 36.0372 4.9628
# 6 31.8962 18.0872 10.7032 -0.6412 4.9628 58.6536
#
#
#
# Elastic Compliance Matrix: (Units=1/GPa)
#
#
# Indices 1 2 3 4 5 6 
#
# 1 0.009057 -0.001582 -0.002225 0.000165 0.004150 -0.004381
# 2 -0.001582 0.008533 -0.000281 -0.002024 -0.002323 -0.001545
# 3 -0.002225 -0.000281 0.009786 -0.005791 0.001365 -0.000668
# 4 0.000165 -0.002024 -0.005791 0.048364 0.004005 0.001781
# 5 0.004150 -0.002323 0.001365 0.004005 0.031407 -0.004403
# 6 -0.004381 -0.001545 -0.000668 0.001781 -0.004403 0.020422
#
#
# Mechanical properties :
#
#
# Convention : Reuss Voigt Hill
#
# Bulk Modulus (GPa) = 52.08508 64.65278 58.36893
# Shear Modulus (GPa) = 35.17532 44.45338 39.81435
#
# Velocity S-wave (km/s) = 3.80340 4.27569 4.04644
# Velocity P-wave (km/s) = 6.38027 7.13890 6.77022
#
# Compressibility (1/GPa) = 0.01919936
#
# Stress axis : x y z
#
# Youngs Moduli (GPa) = 110.41468 117.18540 102.19147
#
# Poissons Ratio (x) = 0.18542 0.22733
# Poissons Ratio (y) = 0.17471 0.02875
# Poissons Ratio (z) = 0.24562 0.03297
#
# Static dielectric constant tensor:
#      x y z
#    x 2.038710 -0.151620 -0.022140 
#    y -0.151620 2.118930 0.089760 
#    z -0.022140 0.089760 1.915360 
# 
# From -- ./inp_files/209056.got.cif
#   From: 2010.05.17/outbox.cif.g08.bks.cpg/sg2_105_cif.got.tgz:209056.got - 2010.06.03 11:33:40.
