data_PCOD9055360
_publ_section_title
;
Structure prediction by ZEFSAII (Michael W. Deem and Ramdas Pophale) SiO2 
 PCOD9055360
Probable space group: P -1
;
_chemical_formula_sum "Si O2"
_cell_formula_units_Z 16
_cell_length_a 19.664374
_cell_length_b 25.127960
_cell_length_c 8.566850
_cell_angle_alpha 141.297824
_cell_angle_beta 150.207304
_cell_angle_gamma 21.255253
_cell_volume 752.956706
_symmetry_space_group_name_H-M "P -1"
_symmetry_group_IT_number 2
_symmetry_cell_setting 'triclinic'
loop_
_space_group_symop_operation_xyz
x,y,z
-x,-y,-z
loop_
_atom_site_type_symbol
_atom_site_label
_atom_site_fract_x
_atom_site_fract_y
_atom_site_fract_z
Si Si1 0.608660 0.245359 0.673144
Si Si2 0.403185 0.562150 0.280598
Si Si3 0.370121 0.973557 0.362617
Si Si4 0.865252 0.436687 0.447922
Si Si5 0.660928 0.038172 0.379717
Si Si6 0.851665 0.301305 0.373840
Si Si7 0.894375 0.126485 0.685618
Si Si8 0.622936 0.830099 0.213889
O O1 0.328009 0.397868 0.495173
O O2 0.712366 0.112985 0.671166
O O3 0.691191 0.189869 0.534139
O O4 0.721969 0.279960 0.013906
O O5 0.500000 0.500000 0.500000
O O6 0.641135 0.452367 0.399454
O O7 0.229113 0.731209 0.317972
O O8 0.261950 0.550969 0.915681
O O9 0.465279 0.922538 0.615778
O O10 0.506528 0.867831 0.237853
O O11 0.329589 0.092276 0.508588
O O12 0.118820 0.052451 0.054332
O O13 0.904252 0.342763 0.439443
O O14 0.118406 0.344566 0.690888
O O15 0.519001 0.106996 0.089690
O O16 0.897734 0.859203 0.424596
O O17 0.000000 0.000000 0.500000
#
# Coordination Sequence:
#
# PCOD9055360 Si02
#       8
#     2   2   2   2   2   2   2   2
#     4  11  22  40  67  94 133 165 211 273 337 379
#     4  11  23  37  62 101 128 163 216 266 326 389
#     4  11  24  42  64  94 137 165 223 275 309 396
#     4  11  21  46  66  88 131 181 208 265 321 392
#     4  12  24  40  67 105 121 177 221 266 331 386
#     4  11  21  41  69  90 133 168 216 269 325 387
#     4  12  23  40  64  99 136 166 206 276 346 382
#     4  11  24  43  68  90 132 181 224 257 322 390
#
# _framework density 21.249561
#
# number of rings (size 3 to 8) (size 9 to 14) (size 15 to 20)
#    0.000    0.750    6.250    2.250    3.500    1.500 
#    0.000    0.625    0.000    0.000    0.000    0.000 
#    0.000    0.000    0.000    0.000    0.000    0.000 
#
# Total GULP energy -89260.420967 kJ/mol
# GULP energy per Si atom -5578.776310 kJ/mol
# Density = 2.120120 g / cm^3
# Si number density = 21.249561 Si / 1000 Ang^3
#
#
#
# Elastic Constant Matrix: (Units=GPa)
#
#
# Indices 1 2 3 4 5 6 
#
# 1 21.2784 22.3086 30.8062 -8.2234 -22.1830 -21.3967
# 2 22.3086 127.8515 45.7882 -7.3932 -13.1693 -21.5581
# 3 30.8062 45.7882 57.2244 -20.1491 -17.7941 -16.8039
# 4 -8.2234 -7.3932 -20.1491 36.2538 5.0180 6.9050
# 5 -22.1830 -13.1693 -17.7941 5.0180 25.9519 5.1273
# 6 -21.3967 -21.5581 -16.8039 6.9050 5.1273 41.5627
#
#
#
# Elastic Compliance Matrix: (Units=1/GPa)
#
#
# Indices 1 2 3 4 5 6 
#
# 1 -0.128921 -0.007605 0.041858 0.012060 -0.078662 -0.045690
# 2 -0.007605 0.011103 -0.007508 -0.002871 -0.005451 -0.000042
# 3 0.041858 -0.007508 0.024156 0.011678 0.042270 0.020266
# 4 0.012060 -0.002871 0.011678 0.034399 0.009708 0.002528
# 5 -0.078662 -0.005451 0.042270 0.009708 0.001163 -0.027990
# 6 -0.045690 -0.000042 0.020266 0.002528 -0.027990 0.011743
#
#
# Mechanical properties :
#
#
# Convention : Reuss Voigt Hill
#
# Bulk Modulus (GPa) = -24.89236 44.90671 10.00718
# Shear Modulus (GPa) = -44.15514 27.91712 -8.11901
#
# Velocity S-wave (km/s) = -4.56338 3.62853 -1.95681
# Velocity P-wave (km/s) = 6.28535 6.22366 0.62118
#
# Compressibility (1/GPa) = -0.04017297
#
# Stress axis : x y z
#
# Youngs Moduli (GPa) = -7.75669 90.06638 41.39767
#
# Poissons Ratio (x) = 0.68494 -1.73282
# Poissons Ratio (y) = -0.05899 0.31083
# Poissons Ratio (z) = 0.32468 0.67625
#
# Static dielectric constant tensor:
#      x y z
#    x 1.852790 -0.075550 -0.010970 
#    y -0.075550 1.794250 0.034540 
#    z -0.010970 0.034540 1.831100 
# 
# From -- ./inp_files/298120.got.cif
#   From: 2010.05.17/outbox.cif.g08.bks.cpg/sg2_150_cif.got.tgz:298120.got - 2010.06.03 11:33:40.
