data_PCOD9055434
_publ_section_title
;
Structure prediction by ZEFSAII (Michael W. Deem and Ramdas Pophale) SiO2 
 PCOD9055434
Probable space group: P -1
;
_chemical_formula_sum "Si O2"
_cell_formula_units_Z 15
_cell_length_a 17.493467
_cell_length_b 8.091533
_cell_length_c 9.151231
_cell_angle_alpha 132.181315
_cell_angle_beta 57.168567
_cell_angle_gamma 144.335578
_cell_volume 559.630066
_symmetry_space_group_name_H-M "P -1"
_symmetry_group_IT_number 2
_symmetry_cell_setting 'triclinic'
loop_
_space_group_symop_operation_xyz
x,y,z
-x,-y,-z
loop_
_atom_site_type_symbol
_atom_site_label
_atom_site_fract_x
_atom_site_fract_y
_atom_site_fract_z
Si Si1 0.625437 0.255384 0.277729
Si Si2 0.471911 0.294466 0.772656
Si Si3 0.000000 0.000000 0.000000
Si Si4 0.760049 0.734336 0.640402
Si Si5 0.356557 0.038946 0.463083
Si Si6 0.011013 0.612952 0.888348
Si Si7 0.923452 0.658121 0.569666
Si Si8 0.736819 0.177765 0.874403
O O1 0.739103 0.622905 0.427631
O O2 0.633683 0.066505 0.272175
O O3 0.480564 0.093860 0.348630
O O4 0.648313 0.192028 0.059147
O O5 0.612374 0.429649 0.672942
O O6 0.411201 0.290727 0.685760
O O7 0.500000 0.500000 0.000000
O O8 0.104054 0.982748 0.966432
O O9 0.004068 0.863405 0.752181
O O10 0.878579 0.801595 0.617594
O O11 0.771544 0.015195 0.828767
O O12 0.217527 0.692482 0.445158
O O13 0.329653 0.047735 0.329761
O O14 0.881693 0.542474 0.927508
O O15 0.018050 0.419816 0.652241
O O16 0.000000 0.500000 0.000000
#
# Coordination Sequence:
#
# PCOD9055434 Si02
#       8
#     2   2   1   2   2   2   2   2
#     4  11  22  44  71 104 145 186 242 296 363 458
#     4  11  21  41  73 104 140 191 240 292 368 452
#     4  12  28  50  82 108 146 208 252 310 386 432
#     4  11  23  43  75 101 143 195 237 297 379 435
#     4  11  24  45  70 104 149 183 238 310 357 440
#     4  12  29  51  77 110 152 198 260 318 368 447
#     4  12  25  51  74 108 147 195 255 309 367 447
#     4  12  26  45  68 109 147 187 243 305 373 434
#
# _framework density 26.803422000000001
#
# number of rings (size 3 to 8) (size 9 to 14) (size 15 to 20)
#    0.000    0.533    5.333    3.200    0.000    6.400 
#    2.400    0.000    0.000    0.000    0.000    0.000 
#    0.000    0.000    0.000    0.000    0.000    0.000 
#
# Total GULP energy -83532.118915 kJ/mol
# GULP energy per Si atom -5568.807928 kJ/mol
# Density = 2.674242 g / cm^3
# Si number density = 26.803422 Si / 1000 Ang^3
#
#
#
# Elastic Constant Matrix: (Units=GPa)
#
#
# Indices 1 2 3 4 5 6 
#
# 1 107.5969 20.5414 75.5308 -2.1313 25.6857 -1.3913
# 2 20.5414 65.9134 42.1380 -9.0740 10.6724 7.2129
# 3 75.5308 42.1380 247.0720 2.3849 15.8652 -2.1286
# 4 -2.1313 -9.0740 2.3849 40.1622 6.6910 -3.8914
# 5 25.6857 10.6724 15.8652 6.6910 44.1925 6.6000
# 6 -1.3913 7.2129 -2.1286 -3.8914 6.6000 29.0470
#
#
#
# Elastic Compliance Matrix: (Units=1/GPa)
#
#
# Indices 1 2 3 4 5 6 
#
# 1 0.013787 -0.000784 -0.003616 0.002221 -0.007240 0.002533
# 2 -0.000784 0.018762 -0.002828 0.004556 -0.003218 -0.003562
# 3 -0.003616 -0.002828 0.005596 -0.001254 0.000880 0.000571
# 4 0.002221 0.004556 -0.001254 0.027643 -0.006741 0.004118
# 5 -0.007240 -0.003218 0.000880 -0.006741 0.029373 -0.007060
# 6 0.002533 -0.003562 0.000571 0.004118 -0.007060 0.037631
#
#
# Mechanical properties :
#
#
# Convention : Reuss Voigt Hill
#
# Bulk Modulus (GPa) = 42.21492 77.44475 59.82984
# Shear Modulus (GPa) = 32.22839 41.50514 36.86677
#
# Velocity S-wave (km/s) = 3.47132 3.93937 3.71273
# Velocity P-wave (km/s) = 5.64365 7.04612 6.38352
#
# Compressibility (1/GPa) = 0.02368830
#
# Stress axis : x y z
#
# Youngs Moduli (GPa) = 72.53232 53.29960 178.71309
#
# Poissons Ratio (x) = 0.04180 0.64617
# Poissons Ratio (y) = 0.05688 0.50543
# Poissons Ratio (z) = 0.26225 0.15074
#
# Static dielectric constant tensor:
#      x y z
#    x 2.114710 0.635080 0.227570 
#    y 0.635080 -2.076150 -1.008000 
#    z 0.227570 -1.008000 1.975810 
# 
# From -- ./inp_files/328004.got.cif
#   From: 2010.05.17/outbox.cif.g08.bks.cpg/sg2_165_cif.got.tgz:328004.got - 2010.06.03 11:33:40.
