data_PCOD9055144
_publ_section_title
;
Structure prediction by ZEFSAII (Michael W. Deem and Ramdas Pophale) SiO2 
 PCOD9055144
Probable space group: P -1
;
_chemical_formula_sum "Si O2"
_cell_formula_units_Z 16
_cell_length_a 20.065267
_cell_length_b 17.422103
_cell_length_c 9.093572
_cell_angle_alpha 147.087009
_cell_angle_beta 28.494472
_cell_angle_gamma 151.450965
_cell_volume 692.303019
_symmetry_space_group_name_H-M "P -1"
_symmetry_group_IT_number 2
_symmetry_cell_setting 'triclinic'
loop_
_space_group_symop_operation_xyz
x,y,z
-x,-y,-z
loop_
_atom_site_type_symbol
_atom_site_label
_atom_site_fract_x
_atom_site_fract_y
_atom_site_fract_z
Si Si1 0.123303 0.275912 0.703975
Si Si2 0.611124 0.436162 0.747433
Si Si3 0.507366 0.599463 0.790247
Si Si4 0.211901 0.598924 0.925235
Si Si5 0.233454 0.921010 0.317761
Si Si6 0.538805 0.156353 0.914997
Si Si7 0.018784 0.009370 0.705010
Si Si8 0.335970 0.054936 0.651536
O O1 0.313117 0.342715 0.397679
O O2 0.100962 0.429673 0.963891
O O3 0.995073 0.118060 0.599250
O O4 0.107507 0.196764 0.768079
O O5 0.743197 0.460059 0.407568
O O6 0.491795 0.235941 0.676431
O O7 0.500000 0.500000 0.000000
O O8 0.638500 0.499010 0.964458
O O9 0.500000 0.500000 0.500000
O O10 0.502635 0.753826 0.983580
O O11 0.154873 0.724289 0.187667
O O12 0.366964 0.715866 0.924301
O O13 0.106990 0.976795 0.613856
O O14 0.335159 0.018611 0.422254
O O15 0.369010 0.994010 0.042859
O O16 0.653388 0.092249 0.531248
O O17 0.833545 0.957108 0.012202
#
# Coordination Sequence:
#
# PCOD9055144 Si02
#       8
#     2   2   2   2   2   2   2   2
#     4  11  23  41  64  84 135 172 213 260 324 379
#     4  12  21  36  64  96 129 160 208 274 320 366
#     4  12  23  39  66  98 125 169 217 267 321 381
#     4  11  21  43  66  97 127 165 216 276 323 369
#     4  11  22  39  70  94 128 172 215 263 325 382
#     4  11  21  40  68  98 127 167 213 275 322 371
#     4  11  24  42  61  93 129 183 212 254 318 397
#     4  11  22  41  63  97 131 162 217 268 318 381
#
# _framework density 23.111266000000001
#
# number of rings (size 3 to 8) (size 9 to 14) (size 15 to 20)
#    0.000    0.750    7.500    1.125    0.000    1.000 
#    4.500    2.500    0.000    0.000    0.000    0.000 
#    0.000    0.000    0.000    0.000    0.000    0.000 
#
# Total GULP energy -89329.237405 kJ/mol
# GULP energy per Si atom -5583.077338 kJ/mol
# Density = 2.305866 g / cm^3
# Si number density = 23.111266 Si / 1000 Ang^3
#
#
#
# Elastic Constant Matrix: (Units=GPa)
#
#
# Indices 1 2 3 4 5 6 
#
# 1 84.6783 29.4261 27.7986 16.0232 -7.9909 -30.2510
# 2 29.4261 76.4449 10.5465 21.1331 -7.2885 -28.6604
# 3 27.7986 10.5465 65.4640 17.0201 -2.2794 -12.8388
# 4 16.0232 21.1331 17.0201 25.5427 -0.4486 -11.9435
# 5 -7.9909 -7.2885 -2.2794 -0.4486 35.6614 11.2309
# 6 -30.2510 -28.6604 -12.8388 -11.9435 11.2309 41.1491
#
#
#
# Elastic Compliance Matrix: (Units=1/GPa)
#
#
# Indices 1 2 3 4 5 6 
#
# 1 0.017951 -0.002131 -0.004943 -0.001704 0.000221 0.009615
# 2 -0.002131 0.020955 0.002960 -0.013338 0.000713 0.009886
# 3 -0.004943 0.002960 0.020344 -0.012385 0.000296 0.001100
# 4 -0.001704 -0.013338 -0.012385 0.061645 -0.004619 0.004746
# 5 0.000221 0.000713 0.000296 -0.004619 0.031052 -0.009064
# 6 0.009615 0.009886 0.001100 0.004746 -0.009064 0.042451
#
#
# Mechanical properties :
#
#
# Convention : Reuss Voigt Hill
#
# Bulk Modulus (GPa) = 19.59896 40.23663 29.91780
# Shear Modulus (GPa) = 22.76534 31.05835 26.91185
#
# Velocity S-wave (km/s) = 3.14193 3.66985 3.41610
# Velocity P-wave (km/s) = 4.65413 5.95019 5.34162
#
# Compressibility (1/GPa) = 0.05102311
#
# Stress axis : x y z
#
# Youngs Moduli (GPa) = 55.70728 47.72153 49.15560
#
# Poissons Ratio (x) = 0.10168 0.24297
# Poissons Ratio (y) = 0.11870 -0.14552
# Poissons Ratio (z) = 0.27535 -0.14127
#
# Static dielectric constant tensor:
#      x y z
#    x 1.891630 -0.007000 0.024950 
#    y -0.007000 1.890590 0.015920 
#    z 0.024950 0.015920 1.904670 
# 
# From -- ./inp_files/348982.got.cif
#   From: 2010.05.17/outbox.cif.g08.bks.cpg/sg2_175_cif.got.tgz:348982.got - 2010.06.03 11:33:40.
