data_PCOD9055090
_publ_section_title
;
Structure prediction by ZEFSAII (Michael W. Deem and Ramdas Pophale) SiO2 
 PCOD9055090
Probable space group: P -1
;
_chemical_formula_sum "Si O2"
_cell_formula_units_Z 16
_cell_length_a 14.456322
_cell_length_b 14.707178
_cell_length_c 14.264520
_cell_angle_alpha 30.884264
_cell_angle_beta 29.127440
_cell_angle_gamma 50.823626
_cell_volume 667.978528
_symmetry_space_group_name_H-M "P -1"
_symmetry_group_IT_number 2
_symmetry_cell_setting 'triclinic'
loop_
_space_group_symop_operation_xyz
x,y,z
-x,-y,-z
loop_
_atom_site_type_symbol
_atom_site_label
_atom_site_fract_x
_atom_site_fract_y
_atom_site_fract_z
Si Si1 0.097379 0.623237 0.592724
Si Si2 0.956677 0.966654 0.240443
Si Si3 0.632496 0.941100 0.109211
Si Si4 0.758273 0.001457 0.576371
Si Si5 0.531663 0.701788 0.216086
Si Si6 0.951503 0.316722 0.835255
Si Si7 0.736375 0.534603 0.731746
Si Si8 0.103584 0.362694 0.060340
O O1 0.280140 0.597732 0.510362
O O2 0.964963 0.427375 0.822984
O O3 0.956166 0.672726 0.746345
O O4 0.225093 0.819086 0.243424
O O5 0.900727 0.749573 0.441816
O O6 0.816528 0.933896 0.487663
O O7 0.208276 0.100995 0.928587
O O8 0.898351 0.091370 0.105762
O O9 0.401248 0.901764 0.386994
O O10 0.592365 0.846089 0.124863
O O11 0.978076 0.163144 0.287026
O O12 0.640578 0.839730 0.905494
O O13 0.645027 0.560843 0.243030
O O14 0.185506 0.430890 0.475884
O O15 0.787078 0.360175 0.879913
O O16 0.500000 0.500000 0.000000
O O17 0.000000 0.500000 0.000000
#
# Coordination Sequence:
#
# PCOD9055090 Si02
#       8
#     2   2   2   2   2   2   2   2
#     4  11  22  40  63  93 135 177 225 274 323 394
#     4  12  25  44  73 102 139 175 221 287 340 398
#     4  11  21  40  66  95 137 185 225 272 327 388
#     4  11  22  38  62  95 130 180 232 266 325 393
#     4  11  22  38  63  90 136 191 227 262 322 386
#     4  11  27  48  71 105 135 171 227 282 345 409
#     4  11  28  50  77 100 130 172 223 285 354 415
#     4  12  23  34  54  90 135 176 225 274 315 385
#
# _framework density 23.952867000000001
#
# number of rings (size 3 to 8) (size 9 to 14) (size 15 to 20)
#    0.000    0.750    5.000    3.000    3.500    3.000 
#    0.000    0.000    0.000    0.000    0.000    0.000 
#    0.000    0.000    0.000    0.000    0.000    0.000 
#
# Total GULP energy -89565.396717 kJ/mol
# GULP energy per Si atom -5597.837295 kJ/mol
# Density = 2.389835 g / cm^3
# Si number density = 23.952867 Si / 1000 Ang^3
#
#
#
# Elastic Constant Matrix: (Units=GPa)
#
#
# Indices 1 2 3 4 5 6 
#
# 1 74.0572 24.2438 16.2446 0.0831 9.8809 -15.9809
# 2 24.2438 101.2633 12.6361 20.8279 5.2801 -10.5668
# 3 16.2446 12.6361 52.7386 16.6876 7.9370 -4.9417
# 4 0.0831 20.8279 16.6876 45.5187 -11.0305 -5.3121
# 5 9.8809 5.2801 7.9370 -11.0305 26.3752 -3.4287
# 6 -15.9809 -10.5668 -4.9417 -5.3121 -3.4287 42.6516
#
#
#
# Elastic Compliance Matrix: (Units=1/GPa)
#
#
# Indices 1 2 3 4 5 6 
#
# 1 0.017108 -0.003548 -0.004668 0.003381 -0.002199 0.005234
# 2 -0.003548 0.012319 0.001057 -0.006985 -0.004294 0.000630
# 3 -0.004668 0.001057 0.025932 -0.012970 -0.011827 -0.001049
# 4 0.003381 -0.006985 -0.012970 0.035025 0.019195 0.003939
# 5 -0.002199 -0.004294 -0.011827 0.019195 0.051611 0.003281
# 6 0.005234 0.000630 -0.001049 0.003939 0.003281 0.026196
#
#
# Mechanical properties :
#
#
# Convention : Reuss Voigt Hill
#
# Bulk Modulus (GPa) = 24.36633 37.14535 30.75584
# Shear Modulus (GPa) = 25.48562 34.57141 30.02852
#
# Velocity S-wave (km/s) = 3.26543 3.80321 3.54453
# Velocity P-wave (km/s) = 4.94085 5.90146 5.44239
#
# Compressibility (1/GPa) = 0.04104024
#
# Stress axis : x y z
#
# Youngs Moduli (GPa) = 58.45331 81.17485 38.56270
#
# Poissons Ratio (x) = 0.28800 0.18001
# Poissons Ratio (y) = 0.20739 -0.04075
# Poissons Ratio (z) = 0.27285 -0.08577
#
# Static dielectric constant tensor:
#      x y z
#    x 1.989650 -0.059890 0.057190 
#    y -0.059890 1.906890 -0.006040 
#    z 0.057190 -0.006040 1.919440 
# 
# From -- ./inp_files/313536.got.cif
#   From: 2010.05.17/outbox.cif.g08.bks.cpg/sg2_157_cif.got.tgz:313536.got - 2010.06.03 11:33:40.
