data_PCOD9055349
_publ_section_title
;
Structure prediction by ZEFSAII (Michael W. Deem and Ramdas Pophale) SiO2 
 PCOD9055349
Probable space group: P -1
;
_chemical_formula_sum "Si O2"
_cell_formula_units_Z 16
_cell_length_a 9.219115
_cell_length_b 23.561344
_cell_length_c 15.301979
_cell_angle_alpha 31.777105
_cell_angle_beta 126.821771
_cell_angle_gamma 150.256168
_cell_volume 735.767692
_symmetry_space_group_name_H-M "P -1"
_symmetry_group_IT_number 2
_symmetry_cell_setting 'triclinic'
loop_
_space_group_symop_operation_xyz
x,y,z
-x,-y,-z
loop_
_atom_site_type_symbol
_atom_site_label
_atom_site_fract_x
_atom_site_fract_y
_atom_site_fract_z
Si Si1 0.333354 0.033185 0.909016
Si Si2 0.265714 0.635523 0.020714
Si Si3 0.698605 0.303943 0.366266
Si Si4 0.847062 0.660630 0.468713
Si Si5 0.315773 0.081708 0.027050
Si Si6 0.556339 0.552272 0.233173
Si Si7 0.392569 0.064786 0.401188
Si Si8 0.614487 0.751812 0.501687
O O1 0.396281 0.157088 0.694837
O O2 0.482734 0.154820 0.895767
O O3 0.500000 0.000000 0.000000
O O4 0.922532 0.791907 0.079432
O O5 0.509518 0.789833 0.989283
O O6 0.365361 0.747264 0.823817
O O7 0.332867 0.544525 0.137761
O O8 0.897904 0.476669 0.140122
O O9 0.457885 0.113068 0.464944
O O10 0.505211 0.259791 0.433817
O O11 0.005680 0.384496 0.409955
O O12 0.500000 0.500000 0.500000
O O13 0.703332 0.627521 0.552305
O O14 0.156095 0.885295 0.248326
O O15 0.000000 0.000000 0.000000
O O16 0.610602 0.471668 0.302237
O O17 0.500000 0.000000 0.500000
O O18 0.006435 0.908079 0.446631
#
# Coordination Sequence:
#
# PCOD9055349 Si02
#       8
#     2   2   2   2   2   2   2   2
#     4  12  26  43  67 102 150 186 229 285 357 424
#     4  11  23  45  71 101 138 181 236 293 344 419
#     4  11  26  44  69 104 136 183 238 289 350 416
#     4  11  21  41  68  99 138 182 239 288 343 419
#     4  12  20  39  65 100 133 184 229 284 342 413
#     4  11  23  44  67 101 140 189 231 282 355 417
#     4  12  24  49  77 101 135 187 238 296 352 415
#     4  12  27  47  70 104 148 184 232 298 351 413
#
# _framework density 21.745995000000001
#
# number of rings (size 3 to 8) (size 9 to 14) (size 15 to 20)
#    0.000    0.500    3.750    6.000    1.750    0.500 
#    0.000    1.250    0.000    0.000    0.000    0.000 
#    0.000    0.000    0.000    0.000    0.000    0.000 
#
# Total GULP energy -89181.776044 kJ/mol
# GULP energy per Si atom -5573.861003 kJ/mol
# Density = 2.169650 g / cm^3
# Si number density = 21.745995 Si / 1000 Ang^3
#
#
#
# Elastic Constant Matrix: (Units=GPa)
#
#
# Indices 1 2 3 4 5 6 
#
# 1 170.8654 48.2754 50.2642 21.7955 -1.5660 -19.2888
# 2 48.2754 90.0189 30.6615 14.8132 1.0522 -9.3646
# 3 50.2642 30.6615 112.5347 15.8116 -1.4314 -13.2912
# 4 21.7955 14.8132 15.8116 29.7680 1.4619 -4.8304
# 5 -1.5660 1.0522 -1.4314 1.4619 34.7268 -1.7432
# 6 -19.2888 -9.3646 -13.2912 -4.8304 -1.7432 41.6714
#
#
#
# Elastic Compliance Matrix: (Units=1/GPa)
#
#
# Indices 1 2 3 4 5 6 
#
# 1 0.007875 -0.002822 -0.002087 -0.002952 0.000581 0.002027
# 2 -0.002822 0.013980 -0.001942 -0.003713 -0.000436 0.000767
# 3 -0.002087 -0.001942 0.010999 -0.003092 0.000637 0.001774
# 4 -0.002952 -0.003713 -0.003092 0.039545 -0.001746 0.001324
# 5 0.000581 -0.000436 0.000637 -0.001746 0.029005 0.001385
# 6 0.002027 0.000767 0.001774 0.001324 0.001385 0.025885
#
#
# Mechanical properties :
#
#
# Convention : Reuss Voigt Hill
#
# Bulk Modulus (GPa) = 52.21277 70.20236 61.20757
# Shear Modulus (GPa) = 33.92729 37.51442 35.72085
#
# Velocity S-wave (km/s) = 3.95417 4.15796 4.05735
# Velocity P-wave (km/s) = 6.70147 7.44342 7.08217
#
# Compressibility (1/GPa) = 0.01915240
#
# Stress axis : x y z
#
# Youngs Moduli (GPa) = 126.99118 71.53311 90.91547
#
# Poissons Ratio (x) = 0.20189 0.18970
# Poissons Ratio (y) = 0.35841 0.17652
# Poissons Ratio (z) = 0.26498 0.13889
#
# Static dielectric constant tensor:
#      x y z
#    x 1.973190 -0.193630 -0.224580 
#    y -0.193630 2.073320 0.237670 
#    z -0.224580 0.237670 2.236930 
# 
# From -- ./inp_files/508729.got.cif
#   From: 2010.05.17/outbox.cif.g08.bks.cpg/sg2_255_cif.got.tgz:508729.got - 2010.06.03 11:33:40.
