data_PCOD9055630
_publ_section_title
;
Structure prediction by ZEFSAII (Michael W. Deem and Ramdas Pophale) SiO2 
 PCOD9055630
Probable space group: P -1
;
_chemical_formula_sum "Si O2"
_cell_formula_units_Z 14
_cell_length_a 8.453426
_cell_length_b 18.022994
_cell_length_c 11.850395
_cell_angle_alpha 36.955367
_cell_angle_beta 45.096768
_cell_angle_gamma 72.860570
_cell_volume 595.400639
_symmetry_space_group_name_H-M "P -1"
_symmetry_group_IT_number 2
_symmetry_cell_setting 'triclinic'
loop_
_space_group_symop_operation_xyz
x,y,z
-x,-y,-z
loop_
_atom_site_type_symbol
_atom_site_label
_atom_site_fract_x
_atom_site_fract_y
_atom_site_fract_z
Si Si1 0.850104 0.035992 0.275556
Si Si2 0.252244 0.531639 0.749790
Si Si3 0.119106 0.824083 0.673024
Si Si4 0.140930 0.280308 0.652203
Si Si5 0.030910 0.393293 0.357729
Si Si6 0.171779 0.916840 0.287682
Si Si7 0.526125 0.765409 0.611779
O O1 0.846136 0.085948 0.341492
O O2 0.110932 0.031408 0.134709
O O3 0.898631 0.160628 0.009343
O O4 0.589011 0.857853 0.584072
O O5 0.552900 0.613375 0.563543
O O6 0.232653 0.617767 0.547816
O O7 0.000000 0.500000 0.000000
O O8 0.150060 0.363028 0.961388
O O9 0.109125 0.897477 0.475601
O O10 0.383073 0.819356 0.540123
O O11 0.049947 0.361622 0.518049
O O12 0.195942 0.189532 0.645622
O O13 0.016725 0.260968 0.454208
O O14 0.310760 0.575697 0.970675
O O15 0.500000 0.000000 0.000000
#
# Coordination Sequence:
#
# PCOD9055630 Si02
#       7
#     2   2   2   2   2   2   2
#     4  12  27  40  64 104 140 174 218 284 350 396
#     4  11  21  42  72  97 129 179 231 277 333 404
#     4  11  24  44  66  96 141 176 217 282 352 399
#     4  12  23  42  70 102 130 176 234 282 327 399
#     4  11  23  41  72 100 125 173 237 279 326 391
#     4  12  24  42  71  99 131 176 232 281 333 401
#     4  11  22  43  68  95 130 181 229 268 334 409
#
# _framework density 23.513582
#
# number of rings (size 3 to 8) (size 9 to 14) (size 15 to 20)
#    0.000    0.571    5.714    3.429    4.000    0.571 
#    0.000    2.857    0.000    0.000    0.000    0.000 
#    0.000    0.000    0.000    0.000    0.000    0.000 
#
# Total GULP energy -78227.905438 kJ/mol
# GULP energy per Si atom -5587.707531 kJ/mol
# Density = 2.346006 g / cm^3
# Si number density = 23.513582 Si / 1000 Ang^3
#
#
#
# Elastic Constant Matrix: (Units=GPa)
#
#
# Indices 1 2 3 4 5 6 
#
# 1 152.6647 26.8954 33.8995 -1.4967 20.4403 19.2765
# 2 26.8954 85.6313 35.2415 -15.1219 -11.8392 35.9608
# 3 33.8995 35.2415 68.0361 -14.5090 5.2524 19.6085
# 4 -1.4967 -15.1219 -14.5090 21.0463 7.6313 -9.8936
# 5 20.4403 -11.8392 5.2524 7.6313 39.2158 -0.0978
# 6 19.2765 35.9608 19.6085 -9.8936 -0.0978 45.4747
#
#
#
# Elastic Compliance Matrix: (Units=1/GPa)
#
#
# Indices 1 2 3 4 5 6 
#
# 1 0.008179 -0.001732 -0.002881 -0.001763 -0.004060 -0.001247
# 2 -0.001732 0.022160 -0.007029 0.001706 0.008169 -0.013370
# 3 -0.002881 -0.007029 0.023083 0.012701 -0.006185 -0.000423
# 4 -0.001763 0.001706 0.012701 0.065995 -0.013089 0.008252
# 5 -0.004060 0.008169 -0.006185 -0.013089 0.033446 -0.004848
# 6 -0.001247 -0.013370 -0.000423 0.008252 -0.004848 0.035059
#
#
# Mechanical properties :
#
#
# Convention : Reuss Voigt Hill
#
# Bulk Modulus (GPa) = 33.18133 55.37831 44.27982
# Shear Modulus (GPa) = 22.59857 35.16707 28.88282
#
# Velocity S-wave (km/s) = 3.10350 3.87150 3.50858
# Velocity P-wave (km/s) = 5.19466 6.60208 5.94020
#
# Compressibility (1/GPa) = 0.03013743
#
# Stress axis : x y z
#
# Youngs Moduli (GPa) = 122.26375 45.12562 43.32275
#
# Poissons Ratio (x) = 0.07816 0.12482
# Poissons Ratio (y) = 0.21177 0.30452
# Poissons Ratio (z) = 0.35226 0.31719
#
# Static dielectric constant tensor:
#      x y z
#    x 1.989320 0.009240 -0.050180 
#    y 0.009240 1.868450 -0.004380 
#    z -0.050180 -0.004380 1.899190 
# 
# From -- ./inp_files/176537.got.cif
#   From: 2010.05.17/outbox.cif.g08.bks.cpg/sg2_89_cif.got.tgz:176537.got - 2010.06.03 11:33:40.
