data_PCOD9055162
_publ_section_title
;
Structure prediction by ZEFSAII (Michael W. Deem and Ramdas Pophale) SiO2 
 PCOD9055162
Probable space group: P -1
;
_chemical_formula_sum "Si O2"
_cell_formula_units_Z 15
_cell_length_a 16.832591
_cell_length_b 8.611572
_cell_length_c 15.407966
_cell_angle_alpha 134.371891
_cell_angle_beta 32.117897
_cell_angle_gamma 146.176510
_cell_volume 660.907840
_symmetry_space_group_name_H-M "P -1"
_symmetry_group_IT_number 2
_symmetry_cell_setting 'triclinic'
loop_
_space_group_symop_operation_xyz
x,y,z
-x,-y,-z
loop_
_atom_site_type_symbol
_atom_site_label
_atom_site_fract_x
_atom_site_fract_y
_atom_site_fract_z
Si Si1 0.150727 0.726414 0.081068
Si Si2 0.500000 0.500000 0.500000
Si Si3 0.519591 0.267927 0.919024
Si Si4 0.558151 0.323581 0.646881
Si Si5 0.090733 0.145672 0.381578
Si Si6 0.280453 0.684885 0.689163
Si Si7 0.426562 0.656418 0.893278
Si Si8 0.727961 0.053993 0.622301
O O1 0.940210 0.453451 0.143011
O O2 0.246012 0.635056 0.021406
O O3 0.111902 0.933232 0.233313
O O4 0.332467 0.954340 0.941684
O O5 0.338313 0.531922 0.632741
O O6 0.628172 0.815749 0.548849
O O7 0.696486 0.281999 0.729403
O O8 0.500000 0.500000 0.000000
O O9 0.536944 0.283406 0.014728
O O10 0.681197 0.357734 0.463336
O O11 0.415167 0.389630 0.777851
O O12 0.708100 0.560197 0.667592
O O13 0.430586 0.018143 0.684838
O O14 0.943050 0.169844 0.480809
O O15 0.000000 0.000000 0.500000
O O16 0.609464 0.893026 0.758362
#
# Coordination Sequence:
#
# PCOD9055162 Si02
#       8
#     2   1   2   2   2   2   2   2
#     4  11  21  40  69  91 128 174 226 259 338 401
#     4  12  22  44  66  92 146 170 220 270 344 392
#     4  11  25  42  65 104 137 168 220 289 332 386
#     4  11  23  40  68  97 133 167 229 279 323 396
#     4  12  17  37  70 101 118 168 227 274 316 395
#     4  11  25  42  64  99 134 179 217 279 331 398
#     4  11  21  41  69  97 130 176 220 274 333 399
#     4  11  23  40  71  99 133 181 217 270 340 400
#
# _framework density 22.696055000000001
#
# number of rings (size 3 to 8) (size 9 to 14) (size 15 to 20)
#    0.000    0.800    6.667    2.400    1.867    0.533 
#    2.400    4.000    0.000    0.000    0.000    0.000 
#    0.000    0.000    0.000    0.000    0.000    0.000 
#
# Total GULP energy -83541.439146 kJ/mol
# GULP energy per Si atom -5569.429276 kJ/mol
# Density = 2.264440 g / cm^3
# Si number density = 22.696055 Si / 1000 Ang^3
#
#
#
# Elastic Constant Matrix: (Units=GPa)
#
#
# Indices 1 2 3 4 5 6 
#
# 1 90.1081 38.4684 45.6745 -10.8090 -42.6374 -4.2102
# 2 38.4684 119.6295 41.6194 3.7458 -25.4364 2.7384
# 3 45.6745 41.6194 124.3387 5.2624 -43.3953 -5.3515
# 4 -10.8090 3.7458 5.2624 40.4523 -0.3783 -15.0363
# 5 -42.6374 -25.4364 -43.3953 -0.3783 52.9304 4.4090
# 6 -4.2102 2.7384 -5.3515 -15.0363 4.4090 36.5376
#
#
#
# Elastic Compliance Matrix: (Units=1/GPa)
#
#
# Indices 1 2 3 4 5 6 
#
# 1 0.021097 -0.003574 -0.002071 0.007858 0.013300 0.004024
# 2 -0.003574 0.010490 -0.001926 -0.002661 0.000786 -0.002670
# 3 -0.002071 -0.001926 0.012072 -0.001868 0.007287 0.000026
# 4 0.007858 -0.002661 -0.001868 0.032497 0.002595 0.013892
# 5 0.013300 0.000786 0.007287 0.002595 0.036039 -0.000740
# 6 0.004024 -0.002670 0.000026 0.013892 -0.000740 0.033843
#
#
# Mechanical properties :
#
#
# Convention : Reuss Voigt Hill
#
# Bulk Modulus (GPa) = 35.06724 65.06677 50.06701
# Shear Modulus (GPa) = 29.29343 39.87165 34.58254
#
# Velocity S-wave (km/s) = 3.59651 4.19593 3.90773
# Velocity P-wave (km/s) = 5.72109 7.22533 6.51676
#
# Compressibility (1/GPa) = 0.02851664
#
# Stress axis : x y z
#
# Youngs Moduli (GPa) = 47.39943 95.32736 82.83836
#
# Poissons Ratio (x) = 0.34068 0.17157
# Poissons Ratio (y) = 0.16939 0.15958
# Poissons Ratio (z) = 0.09817 0.18364
#
# Static dielectric constant tensor:
#      x y z
#    x 1.909240 -0.011090 0.021450 
#    y -0.011090 1.857030 0.000460 
#    z 0.021450 0.000460 1.926380 
# 
# From -- ./inp_files/575471.got.cif
#   From: 2010.05.17/outbox.cif.g08.bks.cpg/sg2_288_cif.got.tgz:575471.got - 2010.06.03 11:33:40.
