data_PCOD9055851
_publ_section_title
;
Structure prediction by ZEFSAII (Michael W. Deem and Ramdas Pophale) SiO2 
 PCOD9055851
Probable space group: P -1
;
_chemical_formula_sum "Si O2"
_cell_formula_units_Z 15
_cell_length_a 8.562828
_cell_length_b 11.682080
_cell_length_c 9.170300
_cell_angle_alpha 50.333529
_cell_angle_beta 97.329097
_cell_angle_gamma 70.633982
_cell_volume 589.026308
_symmetry_space_group_name_H-M "P -1"
_symmetry_group_IT_number 2
_symmetry_cell_setting 'triclinic'
loop_
_space_group_symop_operation_xyz
x,y,z
-x,-y,-z
loop_
_atom_site_type_symbol
_atom_site_label
_atom_site_fract_x
_atom_site_fract_y
_atom_site_fract_z
Si Si1 0.286094 0.660365 0.324381
Si Si2 0.500000 0.500000 0.000000
Si Si3 0.490945 0.160031 0.449942
Si Si4 0.642902 0.882647 0.239605
Si Si5 0.082942 0.289147 0.839059
Si Si6 0.138507 0.956229 0.299193
Si Si7 0.814672 0.540347 0.034320
Si Si8 0.720529 0.161757 0.109013
O O1 0.500000 0.500000 0.500000
O O2 0.184291 0.787440 0.346937
O O3 0.141500 0.610827 0.285033
O O4 0.285298 0.792980 0.099087
O O5 0.268177 0.580874 0.851538
O O6 0.579114 0.348259 0.010993
O O7 0.432713 0.190445 0.587996
O O8 0.698919 0.114169 0.507646
O O9 0.351769 0.331047 0.203033
O O10 0.500000 0.000000 0.500000
O O11 0.826119 0.745324 0.282186
O O12 0.667794 0.017614 0.228936
O O13 0.500000 0.000000 0.000000
O O14 0.161864 0.378605 0.879707
O O15 0.143966 0.102378 0.077402
O O16 0.935668 0.064064 0.256187
O O17 0.000000 0.500000 0.000000
#
# Coordination Sequence:
#
# PCOD9055851 Si02
#       8
#     2   1   2   2   2   2   2   2
#     4  11  23  41  73 112 150 192 251 321 391 448
#     4  12  28  48  76 102 158 206 246 302 392 466
#     4  12  25  44  74 109 141 195 257 306 380 460
#     4  12  21  44  77 107 141 188 258 320 361 447
#     4  11  21  46  76 105 145 204 256 315 382 450
#     4  11  21  43  76 104 147 191 255 314 381 446
#     4  12  28  53  75 109 162 207 246 318 397 459
#     4  11  23  46  69 105 146 196 245 310 379 447
#
# _framework density 25.465755999999999
#
# number of rings (size 3 to 8) (size 9 to 14) (size 15 to 20)
#    0.000    0.533    5.333    4.000    3.733    0.000 
#    4.800    2.000    0.000    0.000    0.000    0.000 
#    0.000    0.000    0.000    0.000    0.000    0.000 
#
# Total GULP energy -83719.222608 kJ/mol
# GULP energy per Si atom -5581.281507 kJ/mol
# Density = 2.540779 g / cm^3
# Si number density = 25.465756 Si / 1000 Ang^3
#
#
#
# Elastic Constant Matrix: (Units=GPa)
#
#
# Indices 1 2 3 4 5 6 
#
# 1 126.6458 34.9265 39.2338 6.3700 33.9375 -6.5969
# 2 34.9265 141.6658 2.9757 18.3105 8.3634 -7.2129
# 3 39.2338 2.9757 97.4407 6.6863 23.3023 -9.7891
# 4 6.3700 18.3105 6.6863 31.8718 -5.7241 6.9544
# 5 33.9375 8.3634 23.3023 -5.7241 52.1081 -0.8855
# 6 -6.5969 -7.2129 -9.7891 6.9544 -0.8855 53.2996
#
#
#
# Elastic Compliance Matrix: (Units=1/GPa)
#
#
# Indices 1 2 3 4 5 6 
#
# 1 0.010990 -0.002072 -0.002814 -0.001592 -0.005730 0.000676
# 2 -0.002072 0.008388 0.001406 -0.005306 -0.001177 0.001809
# 3 -0.002814 0.001406 0.013047 -0.004417 -0.004666 0.002737
# 4 -0.001592 -0.005306 -0.004417 0.038548 0.007986 -0.006623
# 5 -0.005730 -0.001177 -0.004666 0.007986 0.026036 -0.002335
# 6 0.000676 0.001809 0.002737 -0.006623 -0.002335 0.020418
#
#
# Mechanical properties :
#
#
# Convention : Reuss Voigt Hill
#
# Bulk Modulus (GPa) = 39.27282 57.78046 48.52664
# Shear Modulus (GPa) = 37.62906 46.69699 42.16303
#
# Velocity S-wave (km/s) = 3.84817 4.28684 4.07341
# Velocity P-wave (km/s) = 5.93295 6.87324 6.42033
#
# Compressibility (1/GPa) = 0.02546291
#
# Stress axis : x y z
#
# Youngs Moduli (GPa) = 90.99124 119.22392 76.64737
#
# Poissons Ratio (x) = 0.24702 0.21571
# Poissons Ratio (y) = 0.18853 -0.10773
# Poissons Ratio (z) = 0.25608 -0.16757
#
# Static dielectric constant tensor:
#      x y z
#    x 0.033930 1.612800 0.855450 
#    y 1.612800 0.888220 -0.774430 
#    z 0.855450 -0.774430 1.684730 
# 
# From -- ./inp_files/175289.got.cif
#   From: 2010.05.17/outbox.cif.g08.bks.cpg/sg2_88_cif.got.tgz:175289.got - 2010.06.03 11:33:40.
