data_PCOD9055895
_publ_section_title
;
Structure prediction by ZEFSAII (Michael W. Deem and Ramdas Pophale) SiO2 
 PCOD9055895
Probable space group: P -1
;
_chemical_formula_sum "Si O2"
_cell_formula_units_Z 16
_cell_length_a 25.776668
_cell_length_b 15.893805
_cell_length_c 19.384589
_cell_angle_alpha 29.458138
_cell_angle_beta 160.616753
_cell_angle_gamma 161.885203
_cell_volume 793.374379
_symmetry_space_group_name_H-M "P -1"
_symmetry_group_IT_number 2
_symmetry_cell_setting 'triclinic'
loop_
_space_group_symop_operation_xyz
x,y,z
-x,-y,-z
loop_
_atom_site_type_symbol
_atom_site_label
_atom_site_fract_x
_atom_site_fract_y
_atom_site_fract_z
Si Si1 0.516090 0.199765 0.914327
Si Si2 0.779657 0.735938 0.214714
Si Si3 0.948127 0.796364 0.529596
Si Si4 0.305711 0.627559 0.366711
Si Si5 0.159526 0.837204 0.982219
Si Si6 0.617754 0.213858 0.188343
Si Si7 0.214163 0.203610 0.183861
Si Si8 0.049600 0.817717 0.369796
O O1 0.676246 0.508464 0.871925
O O2 0.221765 0.996788 0.696910
O O3 0.619142 0.256962 0.079424
O O4 0.500000 0.000000 0.000000
O O5 0.965996 0.784401 0.366640
O O6 0.771679 0.678961 0.325884
O O7 0.500000 0.500000 0.000000
O O8 0.875403 0.012087 0.134231
O O9 0.831566 0.551837 0.607534
O O10 0.000000 0.000000 0.500000
O O11 0.313492 0.840286 0.222876
O O12 0.553007 0.722992 0.598402
O O13 0.117888 0.444356 0.195836
O O14 0.343746 0.009498 0.023815
O O15 0.818654 0.509136 0.267653
O O16 0.705936 0.094319 0.392038
O O17 0.098181 0.026041 0.235589
O O18 0.000000 0.000000 0.000000
#
# Coordination Sequence:
#
# PCOD9055895 Si02
#       8
#     2   2   2   2   2   2   2   2
#     4  12  25  43  70 104 136 179 235 292 341 414
#     4  12  25  42  68 103 135 180 230 288 347 408
#     4  12  23  45  72  97 135 188 235 278 344 424
#     4  11  24  42  74  99 131 185 238 281 342 424
#     4  11  22  44  70 102 133 178 235 285 345 415
#     4  11  21  44  69  96 134 192 227 276 352 426
#     4  12  25  44  69 103 142 186 234 284 357 423
#     4  11  25  42  68 100 145 179 228 291 355 419
#
# _framework density 20.167024000000001
#
# number of rings (size 3 to 8) (size 9 to 14) (size 15 to 20)
#    0.000    0.500    7.500    0.750    1.750    1.000 
#    2.250    2.500    0.000    0.000    0.000    0.000 
#    0.000    0.000    0.000    0.000    0.000    0.000 
#
# Total GULP energy -89277.071340 kJ/mol
# GULP energy per Si atom -5579.816959 kJ/mol
# Density = 2.012112 g / cm^3
# Si number density = 20.167024 Si / 1000 Ang^3
#
#
#
# Elastic Constant Matrix: (Units=GPa)
#
#
# Indices 1 2 3 4 5 6 
#
# 1 94.2987 30.6802 29.0930 -11.2632 -9.4493 -9.5495
# 2 30.6802 62.7251 28.1103 -22.5520 2.0716 4.0800
# 3 29.0930 28.1103 103.5189 1.1914 -4.8506 -10.2014
# 4 -11.2632 -22.5520 1.1914 41.0426 10.3354 -2.9523
# 5 -9.4493 2.0716 -4.8506 10.3354 37.1867 -6.4927
# 6 -9.5495 4.0800 -10.2014 -2.9523 -6.4927 31.4299
#
#
#
# Elastic Compliance Matrix: (Units=1/GPa)
#
#
# Indices 1 2 3 4 5 6 
#
# 1 0.014393 -0.007418 -0.001189 -0.000980 0.005224 0.005937
# 2 -0.007418 0.029984 -0.007674 0.016720 -0.010828 -0.009303
# 3 -0.001189 -0.007674 0.012851 -0.005619 0.004264 0.005159
# 4 -0.000980 0.016720 -0.005619 0.036377 -0.012632 -0.003485
# 5 0.005224 -0.010828 0.004264 -0.012632 0.034698 0.010358
# 6 0.005937 -0.009303 0.005159 -0.003485 0.010358 0.038315
#
#
# Mechanical properties :
#
#
# Convention : Reuss Voigt Hill
#
# Bulk Modulus (GPa) = 40.54280 48.47887 44.51084
# Shear Modulus (GPa) = 24.10778 33.44245 28.77511
#
# Velocity S-wave (km/s) = 3.46122 4.07661 3.78145
# Velocity P-wave (km/s) = 6.01003 6.80068 6.41754
#
# Compressibility (1/GPa) = 0.02466529
#
# Stress axis : x y z
#
# Youngs Moduli (GPa) = 69.47995 33.35095 77.81457
#
# Poissons Ratio (x) = 0.24739 0.09256
# Poissons Ratio (y) = 0.51539 0.59715
# Poissons Ratio (z) = 0.08265 0.25593
#
# Static dielectric constant tensor:
#      x y z
#    x 1.694430 -0.041070 0.024170 
#    y -0.041070 1.862300 -0.093740 
#    z 0.024170 -0.093740 1.804770 
# 
# From -- ./inp_files/500915.got.cif
#   From: 2010.05.17/outbox.cif.g08.bks.cpg/sg2_251_cif.got.tgz:500915.got - 2010.06.03 11:33:40.
