data_PCOD9055884
_publ_section_title
;
Structure prediction by ZEFSAII (Michael W. Deem and Ramdas Pophale) SiO2 
 PCOD9055884
Probable space group: P -1
;
_chemical_formula_sum "Si O2"
_cell_formula_units_Z 16
_cell_length_a 8.457107
_cell_length_b 8.505111
_cell_length_c 15.027552
_cell_angle_alpha 108.858617
_cell_angle_beta 78.795986
_cell_angle_gamma 52.947976
_cell_volume 699.698056
_symmetry_space_group_name_H-M "P -1"
_symmetry_group_IT_number 2
_symmetry_cell_setting 'triclinic'
loop_
_space_group_symop_operation_xyz
x,y,z
-x,-y,-z
loop_
_atom_site_type_symbol
_atom_site_label
_atom_site_fract_x
_atom_site_fract_y
_atom_site_fract_z
Si Si1 0.701728 0.401656 0.339445
Si Si2 0.765228 0.355144 0.933858
Si Si3 0.592080 0.887382 0.208516
Si Si4 0.898249 0.730539 0.607914
Si Si5 0.815842 0.381561 0.128195
Si Si6 0.267217 0.230269 0.022313
Si Si7 0.332203 0.965729 0.485334
Si Si8 0.150056 0.036815 0.696106
O O1 0.754747 0.334557 0.216573
O O2 0.494322 0.684957 0.416474
O O3 0.909294 0.330182 0.361469
O O4 0.669858 0.245379 0.357657
O O5 0.761312 0.551663 0.942589
O O6 0.924260 0.160857 0.802867
O O7 0.500000 0.500000 0.000000
O O8 0.853895 0.261052 0.008051
O O9 0.625492 0.665836 0.180135
O O10 0.731114 0.884745 0.266365
O O11 0.327327 0.139043 0.283668
O O12 0.716637 0.838275 0.094069
O O13 0.000000 0.500000 0.500000
O O14 0.786638 0.922897 0.576437
O O15 0.050265 0.308980 0.107406
O O16 0.500000 0.000000 0.000000
O O17 0.500000 0.000000 0.500000
O O18 0.132912 0.082713 0.602018
#
# Coordination Sequence:
#
# PCOD9055884 Si02
#       8
#     2   2   2   2   2   2   2   2
#     4  12  27  43  73 108 141 182 235 291 366 418
#     4  11  26  44  68 106 144 186 234 294 356 413
#     4  11  21  44  68  96 139 186 232 289 344 415
#     4  12  25  43  75 105 132 184 245 285 353 433
#     4  11  22  46  72  97 145 192 234 289 347 424
#     4  11  23  40  69 103 134 187 249 281 343 431
#     4  12  24  48  75  99 139 185 234 298 349 418
#     4  12  25  44  71 100 147 182 228 293 363 415
#
# _framework density 22.867007000000001
#
# number of rings (size 3 to 8) (size 9 to 14) (size 15 to 20)
#    0.000    0.500    6.250    1.875    5.250    3.000 
#    0.000    1.250    0.000    0.000    0.000    0.000 
#    0.000    0.000    0.000    0.000    0.000    0.000 
#
# Total GULP energy -89439.576213 kJ/mol
# GULP energy per Si atom -5589.973513 kJ/mol
# Density = 2.281496 g / cm^3
# Si number density = 22.867007 Si / 1000 Ang^3
#
#
#
# Elastic Constant Matrix: (Units=GPa)
#
#
# Indices 1 2 3 4 5 6 
#
# 1 29.1879 -1.0938 10.8624 -0.4348 -7.4960 -12.6497
# 2 -1.0938 85.0012 32.2978 -4.0440 -0.8535 -14.3483
# 3 10.8624 32.2978 106.0731 3.8845 -9.3298 6.0950
# 4 -0.4348 -4.0440 3.8845 46.6860 -1.2462 -5.0841
# 5 -7.4960 -0.8535 -9.3298 -1.2462 23.6070 -0.4109
# 6 -12.6497 -14.3483 6.0950 -5.0841 -0.4109 31.3549
#
#
#
# Elastic Compliance Matrix: (Units=1/GPa)
#
#
# Indices 1 2 3 4 5 6 
#
# 1 0.054569 0.009498 -0.009057 0.005666 0.014899 0.029236
# 2 0.009498 0.017005 -0.006949 0.003653 0.001314 0.013574
# 3 -0.009057 -0.006949 0.013299 -0.002817 0.001809 -0.009852
# 4 0.005666 0.003653 -0.002817 0.022981 0.002175 0.008260
# 5 0.014899 0.001314 0.001809 0.002175 0.048094 0.007243
# 6 0.029236 0.013574 -0.009852 0.008260 0.007243 0.053249
#
#
# Mechanical properties :
#
#
# Convention : Reuss Voigt Hill
#
# Bulk Modulus (GPa) = 13.91643 33.82167 23.86905
# Shear Modulus (GPa) = 20.31152 32.20930 26.26041
#
# Velocity S-wave (km/s) = 2.98358 3.75714 3.39248
# Velocity P-wave (km/s) = 4.23887 5.80036 5.07997
#
# Compressibility (1/GPa) = 0.07185750
#
# Stress axis : x y z
#
# Youngs Moduli (GPa) = 18.32547 58.80508 75.19302
#
# Poissons Ratio (x) = -0.55852 0.68103
# Poissons Ratio (y) = -0.17405 0.52250
# Poissons Ratio (z) = 0.16597 0.40862
#
# Static dielectric constant tensor:
#      x y z
#    x 1.877320 0.001370 0.028800 
#    y 0.001370 1.829020 0.001420 
#    z 0.028800 0.001420 1.946140 
# 
# From -- ./inp_files/208065.got.cif
#   From: 2010.05.17/outbox.cif.g08.bks.cpg/sg2_105_cif.got.tgz:208065.got - 2010.06.03 11:33:40.
