data_PCOD9055687
_publ_section_title
;
Structure prediction by ZEFSAII (Michael W. Deem and Ramdas Pophale) SiO2 
 PCOD9055687
Probable space group: P -1
;
_chemical_formula_sum "Si O2"
_cell_formula_units_Z 12
_cell_length_a 16.588076
_cell_length_b 8.445822
_cell_length_c 9.337646
_cell_angle_alpha 114.709078
_cell_angle_beta 34.942692
_cell_angle_gamma 133.135683
_cell_volume 514.038302
_symmetry_space_group_name_H-M "P -1"
_symmetry_group_IT_number 2
_symmetry_cell_setting 'triclinic'
loop_
_space_group_symop_operation_xyz
x,y,z
-x,-y,-z
loop_
_atom_site_type_symbol
_atom_site_label
_atom_site_fract_x
_atom_site_fract_y
_atom_site_fract_z
Si Si1 0.501553 0.691452 0.145613
Si Si2 0.466517 0.781373 0.532840
Si Si3 0.816537 0.374455 0.570283
Si Si4 0.926154 0.110659 0.727952
Si Si5 0.164088 0.469090 0.090660
Si Si6 0.849681 0.930546 0.073260
O O1 0.435941 0.630703 0.383248
O O2 0.373807 0.730602 0.268250
O O3 0.500000 0.500000 0.000000
O O4 0.708880 0.934751 0.942247
O O5 0.655893 0.870162 0.369060
O O6 0.500000 0.000000 0.500000
O O7 0.289189 0.628890 0.836107
O O8 0.791436 0.380404 0.777884
O O9 0.958267 0.637256 0.406508
O O10 0.940151 0.304996 0.331949
O O11 0.000000 0.000000 0.500000
O O12 0.942575 0.111384 0.875820
O O13 0.209036 0.305055 0.995536
O O14 0.000000 0.000000 0.000000
#
# Coordination Sequence:
#
# PCOD9055687 Si02
#       6
#     2   2   2   2   2   2
#     4  11  23  41  73  99 130 186 232 276 347 412
#     4  11  26  48  70 101 141 180 234 288 343 420
#     4  11  24  44  69 100 139 183 231 286 346 414
#     4  11  21  43  65  97 137 174 233 279 337 416
#     4  11  24  44  66 101 140 176 229 290 342 411
#     4  11  25  41  67 101 138 176 224 287 347 404
#
# _framework density 23.344563000000001
#
# number of rings (size 3 to 8) (size 9 to 14) (size 15 to 20)
#    0.000    1.000    3.333    3.500    4.667    2.000 
#    0.000    2.500    0.000    0.000    0.000    0.000 
#    0.000    0.000    0.000    0.000    0.000    0.000 
#
# Total GULP energy -67148.697515 kJ/mol
# GULP energy per Si atom -5595.724793 kJ/mol
# Density = 2.329143 g / cm^3
# Si number density = 23.344563 Si / 1000 Ang^3
#
#
#
# Elastic Constant Matrix: (Units=GPa)
#
#
# Indices 1 2 3 4 5 6 
#
# 1 163.4229 6.8224 73.2008 1.4604 -27.3533 16.5411
# 2 6.8224 55.5978 19.1410 12.2121 6.1277 -12.2130
# 3 73.2008 19.1410 172.4675 9.8309 -4.4269 7.9641
# 4 1.4604 12.2121 9.8309 30.9791 -10.6980 -3.7236
# 5 -27.3533 6.1277 -4.4269 -10.6980 61.2430 1.5340
# 6 16.5411 -12.2130 7.9641 -3.7236 1.5340 36.2274
#
#
#
# Elastic Compliance Matrix: (Units=1/GPa)
#
#
# Indices 1 2 3 4 5 6 
#
# 1 0.008810 -0.001762 -0.003393 0.002412 0.004383 -0.003808
# 2 -0.001762 0.023244 -0.001818 -0.009255 -0.005069 0.008304
# 3 -0.003393 -0.001818 0.007567 -0.002017 -0.001117 -0.000887
# 4 0.002412 -0.009255 -0.002017 0.039467 0.008754 -0.000092
# 5 0.004383 -0.005069 -0.001117 0.008754 0.020327 -0.003425
# 6 -0.003808 0.008304 -0.000887 -0.000092 -0.003425 0.032472
#
#
# Mechanical properties :
#
#
# Convention : Reuss Voigt Hill
#
# Bulk Modulus (GPa) = 38.94758 65.53518 52.24138
# Shear Modulus (GPa) = 32.38528 45.17815 38.78171
#
# Velocity S-wave (km/s) = 3.72865 4.40395 4.08029
# Velocity P-wave (km/s) = 5.93777 7.34804 6.68022
#
# Compressibility (1/GPa) = 0.02567553
#
# Stress axis : x y z
#
# Youngs Moduli (GPa) = 113.51008 43.02181 132.14963
#
# Poissons Ratio (x) = 0.07582 0.44834
# Poissons Ratio (y) = 0.20005 0.24020
# Poissons Ratio (z) = 0.38510 0.07820
#
# Static dielectric constant tensor:
#      x y z
#    x 2.041010 -0.105860 -0.009460 
#    y -0.105860 2.062420 0.019260 
#    z -0.009460 0.019260 1.925770 
# 
# From -- ./inp_files/290566.got.cif
#   From: 2010.05.17/outbox.cif.g08.bks.cpg/sg2_146_cif.got.tgz:290566.got - 2010.06.03 11:33:40.
