data_PCOD9055636
_publ_section_title
;
Structure prediction by ZEFSAII (Michael W. Deem and Ramdas Pophale) SiO2 
 PCOD9055636
Probable space group: P -1
;
_chemical_formula_sum "Si O2"
_cell_formula_units_Z 15
_cell_length_a 12.645172
_cell_length_b 11.499735
_cell_length_c 12.699975
_cell_angle_alpha 81.420237
_cell_angle_beta 68.415193
_cell_angle_gamma 143.480827
_cell_volume 607.841678
_symmetry_space_group_name_H-M "P -1"
_symmetry_group_IT_number 2
_symmetry_cell_setting 'triclinic'
loop_
_space_group_symop_operation_xyz
x,y,z
-x,-y,-z
loop_
_atom_site_type_symbol
_atom_site_label
_atom_site_fract_x
_atom_site_fract_y
_atom_site_fract_z
Si Si1 0.689037 0.771913 0.670476
Si Si2 0.860107 0.404782 0.454358
Si Si3 0.956573 0.260956 0.832240
Si Si4 0.236400 0.275803 0.715062
Si Si5 0.075695 0.258940 0.161490
Si Si6 0.500000 0.500000 0.000000
Si Si7 0.819065 0.200284 0.113007
Si Si8 0.669162 0.975149 0.522376
O O1 0.411160 0.452377 0.739388
O O2 0.631214 0.694894 0.822752
O O3 0.725737 0.944908 0.604817
O O4 0.000000 0.000000 0.500000
O O5 0.083472 0.709310 0.266662
O O6 0.840192 0.264144 0.416316
O O7 0.000000 0.500000 0.500000
O O8 0.504199 0.104751 0.657490
O O9 0.054242 0.221859 0.778924
O O10 0.298887 0.643214 0.693786
O O11 0.745575 0.083468 0.036565
O O12 0.500000 0.500000 0.500000
O O13 0.971123 0.919029 0.844112
O O14 0.050288 0.328938 0.069096
O O15 0.787851 0.011446 0.377202
O O16 0.371536 0.511909 0.091223
O O17 0.000000 0.500000 0.000000
#
# Coordination Sequence:
#
# PCOD9055636 Si02
#       8
#     2   2   2   2   2   1   2   2
#     4  11  23  42  66 101 140 186 227 289 362 417
#     4  12  27  46  71 107 139 182 244 304 354 418
#     4  11  23  45  71  99 137 188 234 289 355 432
#     4  11  21  42  73 100 140 186 236 288 356 429
#     4  12  24  45  72 106 139 189 240 290 361 428
#     4  12  26  42  64 104 146 180 232 294 352 422
#     4  12  25  46  77  99 138 197 242 283 356 434
#     4  11  21  45  71  93 140 188 231 287 354 430
#
# _framework density 24.677475000000001
#
# number of rings (size 3 to 8) (size 9 to 14) (size 15 to 20)
#    0.000    0.533    6.667    2.800    0.000    5.867 
#    2.400    0.000    0.000    0.000    0.000    0.000 
#    0.000    0.000    0.000    0.000    0.000    0.000 
#
# Total GULP energy -83681.298200 kJ/mol
# GULP energy per Si atom -5578.753213 kJ/mol
# Density = 2.462131 g / cm^3
# Si number density = 24.677475 Si / 1000 Ang^3
#
#
#
# Elastic Constant Matrix: (Units=GPa)
#
#
# Indices 1 2 3 4 5 6 
#
# 1 158.6383 21.9710 19.7164 34.2342 33.2952 2.0718
# 2 21.9710 58.2589 -3.8759 16.5373 2.3711 -14.2598
# 3 19.7164 -3.8759 104.2379 30.2400 13.7390 -7.8491
# 4 34.2342 16.5373 30.2400 31.2279 9.4344 -6.9801
# 5 33.2952 2.3711 13.7390 9.4344 41.1711 11.0536
# 6 2.0718 -14.2598 -7.8491 -6.9801 11.0536 45.4985
#
#
#
# Elastic Compliance Matrix: (Units=1/GPa)
#
#
# Indices 1 2 3 4 5 6 
#
# 1 0.009639 -0.000346 0.001992 -0.010621 -0.005899 -0.000400
# 2 -0.000346 0.024144 0.006506 -0.016946 -0.001110 0.006375
# 3 0.001992 0.006506 0.015678 -0.019177 -0.003512 0.002564
# 4 -0.010621 -0.016946 -0.019177 0.072420 -0.001529 0.003346
# 5 -0.005899 -0.001110 -0.003512 -0.001529 0.033048 -0.008949
# 6 -0.000400 0.006375 0.002564 0.003346 -0.008949 0.027125
#
#
# Mechanical properties :
#
#
# Convention : Reuss Voigt Hill
#
# Bulk Modulus (GPa) = 15.20546 44.08424 29.64485
# Shear Modulus (GPa) = 26.64242 42.46776 34.55509
#
# Velocity S-wave (km/s) = 3.28933 4.15289 3.74608
# Velocity P-wave (km/s) = 4.53887 6.39517 5.54525
#
# Compressibility (1/GPa) = 0.06576585
#
# Stress axis : x y z
#
# Youngs Moduli (GPa) = 103.74353 41.41847 63.78447
#
# Poissons Ratio (x) = 0.01432 -0.12709
# Poissons Ratio (y) = 0.03586 -0.41496
# Poissons Ratio (z) = -0.20670 -0.26946
#
# Static dielectric constant tensor:
#      x y z
#    x 1.951680 -0.089950 -0.032740 
#    y -0.089950 1.845600 -0.011630 
#    z -0.032740 -0.011630 2.157900 
# 
# From -- ./inp_files/425776.got.cif
#   From: 2010.05.17/outbox.cif.g08.bks.cpg/sg2_213_cif.got.tgz:425776.got - 2010.06.03 11:33:40.
