data_PCOD9055398
_publ_section_title
;
Structure prediction by ZEFSAII (Michael W. Deem and Ramdas Pophale) SiO2 
 PCOD9055398
Probable space group: P -1
;
_chemical_formula_sum "Si O2"
_cell_formula_units_Z 16
_cell_length_a 16.474515
_cell_length_b 10.989770
_cell_length_c 8.995623
_cell_angle_alpha 75.352510
_cell_angle_beta 102.165561
_cell_angle_gamma 37.361118
_cell_volume 681.680304
_symmetry_space_group_name_H-M "P -1"
_symmetry_group_IT_number 2
_symmetry_cell_setting 'triclinic'
loop_
_space_group_symop_operation_xyz
x,y,z
-x,-y,-z
loop_
_atom_site_type_symbol
_atom_site_label
_atom_site_fract_x
_atom_site_fract_y
_atom_site_fract_z
Si Si1 0.949577 0.227987 0.239406
Si Si2 0.152964 0.975859 0.980477
Si Si3 0.199446 0.703860 0.303531
Si Si4 0.460378 0.187213 0.006760
Si Si5 0.235670 0.249999 0.531361
Si Si6 0.083323 0.183936 0.584975
Si Si7 0.838995 0.616200 0.881906
Si Si8 0.595954 0.135345 0.798807
O O1 0.942634 0.027003 0.726274
O O2 0.070787 0.114159 0.458321
O O3 0.748262 0.478214 0.159054
O O4 0.905755 0.399376 0.053964
O O5 0.239563 0.733749 0.163506
O O6 0.251823 0.956979 0.115793
O O7 0.185404 0.972090 0.823594
O O8 0.930085 0.238538 0.813090
O O9 0.394082 0.428866 0.552441
O O10 0.550160 0.047466 0.245833
O O11 0.569290 0.137117 0.960289
O O12 0.500000 0.000000 0.000000
O O13 0.161044 0.211261 0.548816
O O14 0.207306 0.324375 0.327802
O O15 0.118129 0.501669 0.517624
O O16 0.673248 0.906325 0.819602
O O17 0.000000 0.500000 0.000000
#
# Coordination Sequence:
#
# PCOD9055398 Si02
#       8
#     2   2   2   2   2   2   2   2
#     4  12  25  46  72 105 148 184 239 305 362 429
#     4  11  25  47  74 101 145 196 244 292 362 435
#     4  11  28  49  73 105 147 195 242 297 367 434
#     4  12  24  45  69 109 147 186 235 303 369 427
#     4  11  23  38  69 109 139 183 234 296 369 428
#     4  11  21  41  70  99 143 185 233 296 362 428
#     4  12  24  43  76 111 141 186 245 303 363 431
#     4  12  25  50  77 103 150 195 239 302 366 430
#
# _framework density 23.471413999999999
#
# number of rings (size 3 to 8) (size 9 to 14) (size 15 to 20)
#    0.000    0.500    5.000    3.375    0.000    4.500 
#    2.250    1.250    0.000    0.000    0.000    0.000 
#    0.000    0.000    0.000    0.000    0.000    0.000 
#
# Total GULP energy -89408.354982 kJ/mol
# GULP energy per Si atom -5588.022186 kJ/mol
# Density = 2.341799 g / cm^3
# Si number density = 23.471414 Si / 1000 Ang^3
#
#
#
# Elastic Constant Matrix: (Units=GPa)
#
#
# Indices 1 2 3 4 5 6 
#
# 1 116.8964 29.6277 43.4356 -2.7150 -2.5574 -12.2003
# 2 29.6277 109.2266 37.0162 -2.3488 1.5125 8.9124
# 3 43.4356 37.0162 169.1564 16.8127 5.8041 5.9580
# 4 -2.7150 -2.3488 16.8127 35.8398 -10.2678 -3.9607
# 5 -2.5574 1.5125 5.8041 -10.2678 38.8791 9.3873
# 6 -12.2003 8.9124 5.9580 -3.9607 9.3873 23.0964
#
#
#
# Elastic Compliance Matrix: (Units=1/GPa)
#
#
# Indices 1 2 3 4 5 6 
#
# 1 0.011227 -0.002674 -0.002882 0.002954 0.000078 0.008181
# 2 -0.002674 0.010895 -0.001649 0.001033 0.001253 -0.005523
# 3 -0.002882 -0.001649 0.007652 -0.004761 -0.001815 -0.002939
# 4 0.002954 0.001033 -0.004761 0.033393 0.008565 0.004635
# 5 0.000078 0.001253 -0.001815 0.008565 0.030880 -0.011056
# 6 0.008181 -0.005523 -0.002939 0.004635 -0.011056 0.055796
#
#
# Mechanical properties :
#
#
# Convention : Reuss Voigt Hill
#
# Bulk Modulus (GPa) = 65.08575 68.38203 66.73389
# Shear Modulus (GPa) = 29.52077 38.57639 34.04858
#
# Velocity S-wave (km/s) = 3.55030 4.05847 3.81286
# Velocity P-wave (km/s) = 6.67804 7.15255 6.91936
#
# Compressibility (1/GPa) = 0.01536435
#
# Stress axis : x y z
#
# Youngs Moduli (GPa) = 89.06850 91.78689 130.69290
#
# Poissons Ratio (x) = 0.24541 0.37668
# Poissons Ratio (y) = 0.23814 0.21548
# Poissons Ratio (z) = 0.25671 0.15133
#
# Static dielectric constant tensor:
#      x y z
#    x 1.911340 -0.030780 0.014460 
#    y -0.030780 1.884350 -0.014890 
#    z 0.014460 -0.014890 1.873730 
# 
# From -- ./inp_files/335225.got.cif
#   From: 2010.05.17/outbox.cif.g08.bks.cpg/sg2_168_cif.got.tgz:335225.got - 2010.06.03 11:33:40.
