data_PCOD9055914
_publ_section_title
;
Structure prediction by ZEFSAII (Michael W. Deem and Ramdas Pophale) SiO2 
 PCOD9055914
Probable space group: P -1
;
_chemical_formula_sum "Si O2"
_cell_formula_units_Z 16
_cell_length_a 14.267635
_cell_length_b 9.681252
_cell_length_c 11.115678
_cell_angle_alpha 100.110701
_cell_angle_beta 31.479459
_cell_angle_gamma 108.068442
_cell_volume 749.896309
_symmetry_space_group_name_H-M "P -1"
_symmetry_group_IT_number 2
_symmetry_cell_setting 'triclinic'
loop_
_space_group_symop_operation_xyz
x,y,z
-x,-y,-z
loop_
_atom_site_type_symbol
_atom_site_label
_atom_site_fract_x
_atom_site_fract_y
_atom_site_fract_z
Si Si1 0.900943 0.679789 0.712754
Si Si2 0.079008 0.624514 0.260725
Si Si3 0.544619 0.675448 0.988446
Si Si4 0.387501 0.329164 0.574057
Si Si5 0.505874 0.810475 0.807042
Si Si6 0.388575 0.833230 0.567126
Si Si7 0.004081 0.654937 0.076543
Si Si8 0.709687 0.154324 0.596990
O O1 0.878925 0.531766 0.791979
O O2 0.712783 0.723357 0.907991
O O3 0.956662 0.642674 0.511312
O O4 0.074214 0.809118 0.595537
O O5 0.981344 0.632310 0.241474
O O6 0.280065 0.752356 0.062573
O O7 0.593460 0.750795 0.816329
O O8 0.500000 0.500000 0.000000
O O9 0.370497 0.726672 0.231697
O O10 0.500000 0.500000 0.500000
O O11 0.452068 0.264535 0.372330
O O12 0.457715 0.250560 0.594335
O O13 0.166344 0.302939 0.792929
O O14 0.588669 0.987191 0.735971
O O15 0.307727 0.821079 0.520714
O O16 0.500000 0.000000 0.500000
O O17 0.209692 0.767520 0.840117
O O18 0.000000 0.500000 0.000000
#
# Coordination Sequence:
#
# PCOD9055914 Si02
#       8
#     2   2   2   2   2   2   2   2
#     4  11  24  42  70 105 137 181 236 286 349 423
#     4  11  21  44  71 100 143 183 228 291 353 415
#     4  12  25  44  73 104 136 186 236 286 347 423
#     4  12  26  45  76 106 136 190 244 288 351 433
#     4  12  24  49  71 101 146 183 230 292 359 417
#     4  12  26  49  70 104 145 186 233 297 360 417
#     4  12  24  44  73 104 140 185 236 295 353 421
#     4  12  27  46  69 102 147 181 229 298 355 416
#
# _framework density 21.336283000000002
#
# number of rings (size 3 to 8) (size 9 to 14) (size 15 to 20)
#    0.000    0.250    6.250    2.625    1.750    3.000 
#    4.500    0.000    0.000    0.000    0.000    0.000 
#    0.000    0.000    0.000    0.000    0.000    0.000 
#
# Total GULP energy -89554.985033 kJ/mol
# GULP energy per Si atom -5597.186565 kJ/mol
# Density = 2.128772 g / cm^3
# Si number density = 21.336283 Si / 1000 Ang^3
#
#
#
# Elastic Constant Matrix: (Units=GPa)
#
#
# Indices 1 2 3 4 5 6 
#
# 1 127.8368 25.2928 37.6450 -6.5589 -12.6303 -2.7084
# 2 25.2928 105.1892 14.4823 -19.2873 -2.1025 -3.4603
# 3 37.6450 14.4823 62.3241 -12.4613 -18.4057 -5.6208
# 4 -6.5589 -19.2873 -12.4613 32.2181 1.6634 -0.9447
# 5 -12.6303 -2.1025 -18.4057 1.6634 51.4357 1.7380
# 6 -2.7084 -3.4603 -5.6208 -0.9447 1.7380 35.8082
#
#
#
# Elastic Compliance Matrix: (Units=1/GPa)
#
#
# Indices 1 2 3 4 5 6 
#
# 1 0.009822 -0.001826 -0.005705 -0.001329 0.000352 -0.000381
# 2 -0.001826 0.011156 -0.000232 0.006265 -0.000315 0.001084
# 3 -0.005705 -0.000232 0.023249 0.007443 0.006564 0.003073
# 4 -0.001329 0.006265 0.007443 0.037406 0.001296 0.002597
# 5 0.000352 -0.000315 0.006564 0.001296 0.021822 0.000002
# 6 -0.000381 0.001084 0.003073 0.002597 0.000002 0.028553
#
#
# Mechanical properties :
#
#
# Convention : Reuss Voigt Hill
#
# Bulk Modulus (GPa) = 34.84096 50.02112 42.43104
# Shear Modulus (GPa) = 31.82672 38.42107 35.12389
#
# Velocity S-wave (km/s) = 3.86641 4.24811 4.06175
# Velocity P-wave (km/s) = 6.02470 6.89616 6.47511
#
# Compressibility (1/GPa) = 0.02870185
#
# Stress axis : x y z
#
# Youngs Moduli (GPa) = 101.81169 89.64038 43.01287
#
# Poissons Ratio (x) = 0.16364 0.24538
# Poissons Ratio (y) = 0.18586 0.00998
# Poissons Ratio (z) = 0.58081 0.02081
#
# Static dielectric constant tensor:
#      x y z
#    x 1.793310 0.010050 0.015100 
#    y 0.010050 1.734010 0.009680 
#    z 0.015100 0.009680 1.780230 
# 
# From -- ./inp_files/186361.got.cif
#   From: 2010.05.17/outbox.cif.g08.bks.cpg/sg2_94_cif.got.tgz:186361.got - 2010.06.03 11:33:40.
