data_PCOD9055564
_publ_section_title
;
Structure prediction by ZEFSAII (Michael W. Deem and Ramdas Pophale) SiO2 
 PCOD9055564
Probable space group: P -1
;
_chemical_formula_sum "Si O2"
_cell_formula_units_Z 14
_cell_length_a 14.356660
_cell_length_b 9.393546
_cell_length_c 8.750552
_cell_angle_alpha 134.143545
_cell_angle_beta 124.990904
_cell_angle_gamma 42.018244
_cell_volume 562.975064
_symmetry_space_group_name_H-M "P -1"
_symmetry_group_IT_number 2
_symmetry_cell_setting 'triclinic'
loop_
_space_group_symop_operation_xyz
x,y,z
-x,-y,-z
loop_
_atom_site_type_symbol
_atom_site_label
_atom_site_fract_x
_atom_site_fract_y
_atom_site_fract_z
Si Si1 0.944907 0.869266 0.448905
Si Si2 0.630622 0.627447 0.741472
Si Si3 0.663638 0.363881 0.094030
Si Si4 0.644977 0.799997 0.566228
Si Si5 0.068106 0.361232 0.302246
Si Si6 0.338016 0.829975 0.742487
Si Si7 0.856931 0.252814 0.905470
O O1 0.046758 0.578010 0.336363
O O2 0.798053 0.943319 0.297334
O O3 0.914212 0.003238 0.682750
O O4 0.000000 0.000000 0.500000
O O5 0.632551 0.783471 0.723804
O O6 0.484353 0.786409 0.813355
O O7 0.640452 0.406760 0.495694
O O8 0.759049 0.482060 0.870747
O O9 0.685633 0.551133 0.339739
O O10 0.694251 0.174889 0.114739
O O11 0.500000 0.500000 0.000000
O O12 0.758860 0.283475 0.974626
O O13 0.766700 0.829848 0.664822
O O14 0.500000 0.000000 0.500000
O O15 0.000000 0.500000 0.500000
O O16 0.984188 0.260376 0.084588
#
# Coordination Sequence:
#
# PCOD9055564 Si02
#       7
#     2   2   2   2   2   2   2
#     4  11  26  47  74 105 148 203 251 301 382 443
#     4   9  19  39  69 100 135 190 243 292 362 432
#     4  11  21  42  70 109 146 186 255 301 364 451
#     4  11  26  47  69 101 148 192 240 311 376 431
#     4  12  27  49  72 111 158 187 249 317 369 451
#     4   9  19  38  67  99 141 184 241 306 350 433
#     4  11  24  46  79 108 150 200 247 306 378 441
#
# _framework density 24.867887
#
# number of rings (size 3 to 8) (size 9 to 14) (size 15 to 20)
#    0.000    1.429    2.857    2.571    4.000    2.857 
#    7.714    1.429    0.000    0.000    0.000    0.000 
#    0.000    0.000    0.000    0.000    0.000    0.000 
#
# Total GULP energy -78516.437997 kJ/mol
# GULP energy per Si atom -5608.317000 kJ/mol
# Density = 2.481129 g / cm^3
# Si number density = 24.867887 Si / 1000 Ang^3
#
#
#
# Elastic Constant Matrix: (Units=GPa)
#
#
# Indices 1 2 3 4 5 6 
#
# 1 170.4750 59.5061 66.3972 -16.2399 -6.4242 -17.4528
# 2 59.5061 118.8279 36.8073 -24.6878 11.0590 -15.6122
# 3 66.3972 36.8073 120.3054 -15.9047 -6.4273 -0.0073
# 4 -16.2399 -24.6878 -15.9047 40.1702 -1.1207 10.4424
# 5 -6.4242 11.0590 -6.4273 -1.1207 53.8953 -8.4202
# 6 -17.4528 -15.6122 -0.0073 10.4424 -8.4202 50.1278
#
#
#
# Elastic Compliance Matrix: (Units=1/GPa)
#
#
# Indices 1 2 3 4 5 6 
#
# 1 0.008704 -0.003101 -0.003835 -0.000494 0.001586 0.002433
# 2 -0.003101 0.011855 -0.001381 0.005126 -0.002690 0.001093
# 3 -0.003835 -0.001381 0.011248 0.002641 0.000884 -0.002166
# 4 -0.000494 0.005126 0.002641 0.030169 -0.000953 -0.005020
# 5 0.001586 -0.002690 0.000884 -0.000953 0.019890 0.003254
# 6 0.002433 0.001093 -0.002166 -0.005020 0.003254 0.022729
#
#
# Mechanical properties :
#
#
# Convention : Reuss Voigt Hill
#
# Bulk Modulus (GPa) = 65.91472 81.66992 73.79232
# Shear Modulus (GPa) = 39.59193 45.29852 42.44522
#
# Velocity S-wave (km/s) = 3.99443 4.27261 4.13586
# Velocity P-wave (km/s) = 6.91646 7.56658 7.24881
#
# Compressibility (1/GPa) = 0.01517112
#
# Stress axis : x y z
#
# Youngs Moduli (GPa) = 114.88663 84.34930 88.90507
#
# Poissons Ratio (x) = 0.26160 0.34099
# Poissons Ratio (y) = 0.35631 0.12282
# Poissons Ratio (z) = 0.44064 0.11652
#
# Static dielectric constant tensor:
#      x y z
#    x 1.967620 0.023440 0.014830 
#    y 0.023440 2.023070 0.008420 
#    z 0.014830 0.008420 1.948950 
# 
# From -- ./inp_files/293263.got.cif
#   From: 2010.05.17/outbox.cif.g08.bks.cpg/sg2_147_cif.got.tgz:293263.got - 2010.06.03 11:33:40.
