data_PCOD9055184
_publ_section_title
;
Structure prediction by ZEFSAII (Michael W. Deem and Ramdas Pophale) SiO2 
 PCOD9055184
Probable space group: P -1
;
_chemical_formula_sum "Si O2"
_cell_formula_units_Z 16
_cell_length_a 5.423655
_cell_length_b 12.652181
_cell_length_c 10.762827
_cell_angle_alpha 110.177610
_cell_angle_beta 97.241603
_cell_angle_gamma 72.234688
_cell_volume 659.993805
_symmetry_space_group_name_H-M "P -1"
_symmetry_group_IT_number 2
_symmetry_cell_setting 'triclinic'
loop_
_space_group_symop_operation_xyz
x,y,z
-x,-y,-z
loop_
_atom_site_type_symbol
_atom_site_label
_atom_site_fract_x
_atom_site_fract_y
_atom_site_fract_z
Si Si1 0.951967 0.809251 0.725174
Si Si2 0.492670 0.039465 0.804525
Si Si3 0.236948 0.600509 0.001872
Si Si4 0.862221 0.597322 0.755016
Si Si5 0.600419 0.218759 0.059573
Si Si6 0.496846 0.799132 0.360740
Si Si7 0.078673 0.650839 0.281115
Si Si8 0.176877 0.930763 0.592518
O O1 0.163418 0.819612 0.845794
O O2 0.062146 0.836038 0.611969
O O3 0.910990 0.680505 0.682421
O O4 0.695516 0.912659 0.781150
O O5 0.564828 0.107582 0.717833
O O6 0.223556 0.017021 0.737053
O O7 0.489695 0.117701 0.956707
O O8 0.066124 0.614516 0.120162
O O9 0.500000 0.500000 0.000000
O O10 0.303578 0.721278 0.027393
O O11 0.100580 0.577600 0.858311
O O12 0.618187 0.679745 0.845947
O O13 0.831686 0.468570 0.681033
O O14 0.295331 0.720868 0.322390
O O15 0.446353 0.869113 0.515867
O O16 0.792467 0.724516 0.331704
O O17 0.000000 0.000000 0.500000
#
# Coordination Sequence:
#
# PCOD9055184 Si02
#       8
#     2   2   2   2   2   2   2   2
#     4  11  27  46  73 107 157 199 256 308 395 464
#     4  12  25  46  77 110 151 196 251 327 387 460
#     4  11  21  40  70 110 155 201 248 307 381 466
#     4  11  25  43  71 106 158 201 243 313 388 468
#     4  11  24  44  73 114 156 195 243 309 400 469
#     4  12  27  45  79 115 149 196 266 324 380 444
#     4  12  25  45  74 115 153 199 256 316 382 459
#     4  12  27  51  77 107 151 202 268 326 381 446
#
# _framework density 24.242649
#
# number of rings (size 3 to 8) (size 9 to 14) (size 15 to 20)
#    0.000    0.500    3.750    4.125    3.500    4.000 
#    0.000    1.250    0.000    0.000    0.000    0.000 
#    0.000    0.000    0.000    0.000    0.000    0.000 
#
# Total GULP energy -89679.275233 kJ/mol
# GULP energy per Si atom -5604.954702 kJ/mol
# Density = 2.418747 g / cm^3
# Si number density = 24.242649 Si / 1000 Ang^3
#
#
#
# Elastic Constant Matrix: (Units=GPa)
#
#
# Indices 1 2 3 4 5 6 
#
# 1 123.6919 69.4922 26.8774 -5.9464 -5.3776 -1.5447
# 2 69.4922 183.5223 40.0570 -21.7140 -0.2947 20.0374
# 3 26.8774 40.0570 54.1129 -8.9425 -9.1818 -3.9862
# 4 -5.9464 -21.7140 -8.9425 29.8822 4.0159 -5.7561
# 5 -5.3776 -0.2947 -9.1818 4.0159 46.1139 -4.6806
# 6 -1.5447 20.0374 -3.9862 -5.7561 -4.6806 61.2137
#
#
#
# Elastic Compliance Matrix: (Units=1/GPa)
#
#
# Indices 1 2 3 4 5 6 
#
# 1 0.010771 -0.003835 -0.002454 -0.001255 0.000987 0.001325
# 2 -0.003835 0.008644 -0.004397 0.003882 -0.001909 -0.002993
# 3 -0.002454 -0.004397 0.024636 0.003777 0.004637 0.003691
# 4 -0.001255 0.003882 0.003777 0.037942 -0.002438 0.002325
# 5 0.000987 -0.001909 0.004637 -0.002438 0.023177 0.002495
# 6 0.001325 -0.002993 0.003691 0.002325 0.002495 0.017999
#
#
# Mechanical properties :
#
#
# Convention : Reuss Voigt Hill
#
# Bulk Modulus (GPa) = 44.08997 70.46448 57.27722
# Shear Modulus (GPa) = 32.87311 42.43532 37.65421
#
# Velocity S-wave (km/s) = 3.68639 4.18837 3.94537
# Velocity P-wave (km/s) = 6.02874 7.24702 6.66577
#
# Compressibility (1/GPa) = 0.02268090
#
# Stress axis : x y z
#
# Youngs Moduli (GPa) = 92.84002 115.69161 40.59048
#
# Poissons Ratio (x) = 0.44362 0.09960
# Poissons Ratio (y) = 0.35600 0.17847
# Poissons Ratio (z) = 0.22781 0.50868
#
# Static dielectric constant tensor:
#      x y z
#    x 1.956950 0.045440 0.026220 
#    y 0.045440 1.952130 0.028810 
#    z 0.026220 0.028810 1.942070 
# 
# From -- ./inp_files/365052.got.cif
#   From: 2010.05.17/outbox.cif.g08.bks.cpg/sg2_183_cif.got.tgz:365052.got - 2010.06.03 11:33:40.
