data_PCOD9055965
_publ_section_title
;
Structure prediction by ZEFSAII (Michael W. Deem and Ramdas Pophale) SiO2 
 PCOD9055965
Probable space group: P -1
;
_chemical_formula_sum "Si O2"
_cell_formula_units_Z 16
_cell_length_a 10.010814
_cell_length_b 9.112252
_cell_length_c 11.846831
_cell_angle_alpha 123.796092
_cell_angle_beta 118.117830
_cell_angle_gamma 76.821156
_cell_volume 791.219182
_symmetry_space_group_name_H-M "P -1"
_symmetry_group_IT_number 2
_symmetry_cell_setting 'triclinic'
loop_
_space_group_symop_operation_xyz
x,y,z
-x,-y,-z
loop_
_atom_site_type_symbol
_atom_site_label
_atom_site_fract_x
_atom_site_fract_y
_atom_site_fract_z
Si Si1 0.164484 0.091767 0.643295
Si Si2 0.345263 0.911706 0.846275
Si Si3 0.356355 0.925925 0.477939
Si Si4 0.375003 0.626822 0.551829
Si Si5 0.068357 0.395967 0.377978
Si Si6 0.122968 0.709108 0.147001
Si Si7 0.085775 0.477759 0.844542
Si Si8 0.957032 0.027672 0.126103
O O1 0.144862 0.292355 0.753366
O O2 0.251323 0.003901 0.745590
O O3 0.271459 0.079069 0.572760
O O4 0.000000 0.000000 0.500000
O O5 0.390094 0.730138 0.722896
O O6 0.214380 0.915976 0.892334
O O7 0.500000 0.000000 0.000000
O O8 0.372275 0.779525 0.520309
O O9 0.249518 0.833870 0.304242
O O10 0.500000 0.000000 0.500000
O O11 0.500000 0.500000 0.500000
O O12 0.223775 0.500951 0.451713
O O13 0.000000 0.500000 0.500000
O O14 0.958296 0.419676 0.238755
O O15 0.064423 0.183186 0.294125
O O16 0.061873 0.572836 0.159460
O O17 0.183331 0.602396 0.019680
O O18 0.990071 0.837569 0.112796
O O19 0.000000 0.000000 0.000000
#
# Coordination Sequence:
#
# PCOD9055965 Si02
#       8
#     2   2   2   2   2   2   2   2
#     4  11  21  44  73  97 130 183 237 278 338 417
#     4  11  25  44  66 102 144 183 221 289 363 414
#     4  11  25  43  66  98 135 178 227 282 349 414
#     4  11  26  45  64  99 137 184 229 286 349 416
#     4  12  25  43  69 101 137 175 245 292 338 416
#     4  11  23  41  69  98 133 173 232 282 344 411
#     4  11  22  41  70  99 128 173 231 288 334 402
#     4  12  25  42  67 103 137 180 230 293 351 417
#
# _framework density 20.221958000000001
#
# number of rings (size 3 to 8) (size 9 to 14) (size 15 to 20)
#    0.000    0.750    6.250    0.750    5.250    2.000 
#    0.000    0.625    0.000    0.000    0.000    0.000 
#    0.000    0.000    0.000    0.000    0.000    0.000 
#
# Total GULP energy -89209.283709 kJ/mol
# GULP energy per Si atom -5575.580232 kJ/mol
# Density = 2.017593 g / cm^3
# Si number density = 20.221958 Si / 1000 Ang^3
#
#
#
# Elastic Constant Matrix: (Units=GPa)
#
#
# Indices 1 2 3 4 5 6 
#
# 1 166.6320 25.8370 70.2094 6.2206 -22.0796 5.1116
# 2 25.8370 68.8914 29.7131 11.1920 -8.3893 -5.2754
# 3 70.2094 29.7131 145.6235 11.4263 -31.0685 -9.6295
# 4 6.2206 11.1920 11.4263 33.1771 -11.4074 -9.0811
# 5 -22.0796 -8.3893 -31.0685 -11.4074 34.8756 12.1890
# 6 5.1116 -5.2754 -9.6295 -9.0811 12.1890 31.6952
#
#
#
# Elastic Compliance Matrix: (Units=1/GPa)
#
#
# Indices 1 2 3 4 5 6 
#
# 1 0.008124 -0.001609 -0.003141 0.000223 0.003343 -0.003754
# 2 -0.001609 0.016891 -0.002462 -0.004542 -0.001145 0.001462
# 3 -0.003141 -0.002462 0.010276 0.000306 0.006375 0.000855
# 4 0.000223 -0.004542 0.000306 0.036338 0.009026 0.006241
# 5 0.003343 -0.001145 0.006375 0.009026 0.043693 -0.013010
# 6 -0.003754 0.001462 0.000855 0.006241 -0.013010 0.039450
#
#
# Mechanical properties :
#
#
# Convention : Reuss Voigt Hill
#
# Bulk Modulus (GPa) = 47.92074 70.29620 59.10847
# Shear Modulus (GPa) = 28.38450 36.97540 32.67995
#
# Velocity S-wave (km/s) = 3.75059 4.28071 4.02439
# Velocity P-wave (km/s) = 6.51957 7.69873 7.13355
#
# Compressibility (1/GPa) = 0.02086779
#
# Stress axis : x y z
#
# Youngs Moduli (GPa) = 123.09292 59.20222 97.30997
#
# Poissons Ratio (x) = 0.09524 0.30566
# Poissons Ratio (y) = 0.19802 0.23960
# Poissons Ratio (z) = 0.38664 0.14577
#
# Static dielectric constant tensor:
#      x y z
#    x 1.717850 0.174800 0.080140 
#    y 0.174800 0.967350 -0.297440 
#    z 0.080140 -0.297440 1.633470 
# 
# From -- ./inp_files/333799.got.cif
#   From: 2010.05.17/outbox.cif.g08.bks.cpg/sg2_167_cif.got.tgz:333799.got - 2010.06.03 11:33:40.
