data_PCOD9055403
_publ_section_title
;
Structure prediction by ZEFSAII (Michael W. Deem and Ramdas Pophale) SiO2 
 PCOD9055403
Probable space group: P -1
;
_chemical_formula_sum "Si O2"
_cell_formula_units_Z 16
_cell_length_a 9.070970
_cell_length_b 16.786048
_cell_length_c 11.384537
_cell_angle_alpha 128.671156
_cell_angle_beta 73.769800
_cell_angle_gamma 63.207635
_cell_volume 716.444379
_symmetry_space_group_name_H-M "P -1"
_symmetry_group_IT_number 2
_symmetry_cell_setting 'triclinic'
loop_
_space_group_symop_operation_xyz
x,y,z
-x,-y,-z
loop_
_atom_site_type_symbol
_atom_site_label
_atom_site_fract_x
_atom_site_fract_y
_atom_site_fract_z
Si Si1 0.443181 0.473659 0.741663
Si Si2 0.401574 0.060846 0.439695
Si Si3 0.851261 0.480771 0.968860
Si Si4 0.358678 0.153795 0.270233
Si Si5 0.712328 0.530307 0.788767
Si Si6 0.054096 0.278995 0.105489
Si Si7 0.371456 0.358036 0.331975
Si Si8 0.861311 0.186903 0.185823
O O1 0.501407 0.552079 0.854815
O O2 0.168596 0.615589 0.852403
O O3 0.710454 0.301735 0.444667
O O4 0.399732 0.413189 0.794504
O O5 0.409594 0.127235 0.376945
O O6 0.069180 0.263786 0.719208
O O7 0.500000 0.000000 0.500000
O O8 0.650028 0.853458 0.137222
O O9 0.738386 0.562755 0.940300
O O10 0.000000 0.500000 0.000000
O O11 0.426880 0.226546 0.270907
O O12 0.025462 0.319885 0.493204
O O13 0.500000 0.000000 0.000000
O O14 0.625158 0.653648 0.818082
O O15 0.919132 0.436789 0.366520
O O16 0.045257 0.177361 0.086947
O O17 0.605158 0.311946 0.268302
O O18 0.000000 0.000000 0.000000
#
# Coordination Sequence:
#
# PCOD9055403 Si02
#       8
#     2   2   2   2   2   2   2   2
#     4  11  22  44  69  94 138 182 228 283 349 422
#     4  11  24  42  67  96 135 181 226 288 342 421
#     4  11  27  44  68 100 134 187 237 283 355 421
#     4  11  26  41  66 101 141 180 236 292 349 408
#     4  11  23  43  67  97 135 185 231 284 353 416
#     4  11  21  41  71 100 135 176 237 279 358 409
#     4  11  22  42  67 103 135 184 228 293 345 417
#     4  11  23  37  71 102 137 177 230 288 352 415
#
# _framework density 22.332507
#
# number of rings (size 3 to 8) (size 9 to 14) (size 15 to 20)
#    0.000    1.000    3.750    3.000   10.500    1.000 
#    0.000    0.000    0.000    1.500    0.000    0.000 
#    0.000    0.000    0.000    0.000    0.000    0.000 
#
# Total GULP energy -89068.735126 kJ/mol
# GULP energy per Si atom -5566.795945 kJ/mol
# Density = 2.228168 g / cm^3
# Si number density = 22.332507 Si / 1000 Ang^3
#
#
#
# Elastic Constant Matrix: (Units=GPa)
#
#
# Indices 1 2 3 4 5 6 
#
# 1 93.0841 34.9099 -1.3203 -19.3957 12.6337 1.6394
# 2 34.9099 174.5817 17.1716 -33.8287 23.7568 -16.5188
# 3 -1.3203 17.1716 67.3651 -17.4075 2.9029 6.4928
# 4 -19.3957 -33.8287 -17.4075 38.8878 0.8232 6.1356
# 5 12.6337 23.7568 2.9029 0.8232 31.1985 -3.0216
# 6 1.6394 -16.5188 6.4928 6.1356 -3.0216 32.5327
#
#
#
# Elastic Compliance Matrix: (Units=1/GPa)
#
#
# Indices 1 2 3 4 5 6 
#
# 1 0.013720 -0.001109 0.003262 0.008081 -0.005611 -0.003951
# 2 -0.001109 0.008191 -0.000570 0.006015 -0.005635 0.002671
# 3 0.003262 -0.000570 0.018550 0.010530 -0.003517 -0.006468
# 4 0.008081 0.006015 0.010530 0.041216 -0.010716 -0.008223
# 5 -0.005611 -0.005635 -0.003517 -0.010716 0.039596 0.003822
# 6 -0.003951 0.002671 -0.006468 -0.008223 0.003822 0.035490
#
#
# Mechanical properties :
#
#
# Convention : Reuss Voigt Hill
#
# Bulk Modulus (GPa) = 22.92138 48.50592 35.71365
# Shear Modulus (GPa) = 29.73751 39.47510 34.60630
#
# Velocity S-wave (km/s) = 3.65304 4.20885 3.94076
# Velocity P-wave (km/s) = 5.29895 6.73693 6.06074
#
# Compressibility (1/GPa) = 0.04362738
#
# Stress axis : x y z
#
# Youngs Moduli (GPa) = 72.88649 122.08810 53.90942
#
# Poissons Ratio (x) = 0.13537 -0.17586
# Poissons Ratio (y) = 0.08082 0.03072
# Poissons Ratio (z) = -0.23777 0.06958
#
# Static dielectric constant tensor:
#      x y z
#    x 1.864800 -0.060280 -0.029850 
#    y -0.060280 1.912820 0.074240 
#    z -0.029850 0.074240 1.876950 
# 
# From -- ./inp_files/399578.got.cif
#   From: 2010.05.17/outbox.cif.g08.bks.cpg/sg2_200_cif.got.tgz:399578.got - 2010.06.03 11:33:40.
