data_PCOD9055064
_publ_section_title
;
Structure prediction by ZEFSAII (Michael W. Deem and Ramdas Pophale) SiO2 
 PCOD9055064
Probable space group: P -1
;
_chemical_formula_sum "Si O2"
_cell_formula_units_Z 16
_cell_length_a 15.316712
_cell_length_b 15.281429
_cell_length_c 12.410284
_cell_angle_alpha 122.960738
_cell_angle_beta 36.580238
_cell_angle_gamma 149.298100
_cell_volume 774.809131
_symmetry_space_group_name_H-M "P -1"
_symmetry_group_IT_number 2
_symmetry_cell_setting 'triclinic'
loop_
_space_group_symop_operation_xyz
x,y,z
-x,-y,-z
loop_
_atom_site_type_symbol
_atom_site_label
_atom_site_fract_x
_atom_site_fract_y
_atom_site_fract_z
Si Si1 0.613041 0.748537 0.553794
Si Si2 0.406401 0.555431 0.861929
Si Si3 0.792640 0.112728 0.127592
Si Si4 0.786117 0.954877 0.824067
Si Si5 0.375110 0.035849 0.415715
Si Si6 0.784076 0.123305 0.760028
Si Si7 0.371840 0.527970 0.436610
Si Si8 0.746490 0.921768 0.229750
O O1 0.491185 0.637258 0.711244
O O2 0.491470 0.785356 0.659440
O O3 0.547540 0.632183 0.442362
O O4 0.941915 0.951307 0.372149
O O5 0.573714 0.551462 0.723710
O O6 0.517891 0.719824 0.931750
O O7 0.086283 0.333203 0.025192
O O8 0.591062 0.087584 0.288840
O O9 0.692161 0.971192 0.222790
O O10 0.802133 0.051262 0.966421
O O11 0.806612 0.028854 0.740027
O O12 0.199480 0.981515 0.648986
O O13 0.220483 0.887593 0.371772
O O14 0.058736 0.352667 0.665321
O O15 0.500000 0.000000 0.000000
O O16 0.491466 0.692775 0.356612
O O17 0.000000 0.000000 0.000000
#
# Coordination Sequence:
#
# PCOD9055064 Si02
#       8
#     2   2   2   2   2   2   2   2
#     4  11  21  40  65 101 141 179 233 288 347 432
#     4  12  22  38  71 102 136 187 230 281 361 412
#     4  12  25  46  68 101 144 186 234 293 343 409
#     4  12  23  41  70 103 143 181 230 289 353 428
#     4  11  25  43  69  99 145 183 223 298 357 401
#     4  12  24  43  67 107 152 175 223 298 362 427
#     4  11  23  41  71 101 136 192 236 285 353 410
#     4  11  24  50  72  95 135 190 253 289 329 416
#
# _framework density 20.650247
#
# number of rings (size 3 to 8) (size 9 to 14) (size 15 to 20)
#    0.000    0.500    6.250    3.375    0.000    2.500 
#    2.250    1.875    0.000    0.000    0.000    0.000 
#    0.000    0.000    0.000    0.000    0.000    0.000 
#
# Total GULP energy -89377.495208 kJ/mol
# GULP energy per Si atom -5586.093450 kJ/mol
# Density = 2.060325 g / cm^3
# Si number density = 20.650247 Si / 1000 Ang^3
#
#
#
# Elastic Constant Matrix: (Units=GPa)
#
#
# Indices 1 2 3 4 5 6 
#
# 1 128.1428 34.5720 52.0718 -6.8995 -7.0171 -16.8455
# 2 34.5720 111.4100 48.1648 -15.5214 -8.6184 1.6452
# 3 52.0718 48.1648 86.9515 2.1830 -6.3019 0.8103
# 4 -6.8995 -15.5214 2.1830 32.5135 0.7203 3.6057
# 5 -7.0171 -8.6184 -6.3019 0.7203 29.0993 0.1583
# 6 -16.8455 1.6452 0.8103 3.6057 0.1583 36.7277
#
#
#
# Elastic Compliance Matrix: (Units=1/GPa)
#
#
# Indices 1 2 3 4 5 6 
#
# 1 0.011484 -0.000365 -0.006695 0.002108 0.001131 0.005220
# 2 -0.000365 0.013330 -0.007170 0.006863 0.002144 -0.001289
# 3 -0.006695 -0.007170 0.019704 -0.005892 0.000689 -0.002609
# 4 0.002108 0.006863 -0.005892 0.035162 0.000409 -0.002664
# 5 0.001131 0.002144 0.000689 0.000409 0.035411 0.000215
# 6 0.005220 -0.001289 -0.002609 -0.002664 0.000215 0.029997
#
#
# Mechanical properties :
#
#
# Convention : Reuss Voigt Hill
#
# Bulk Modulus (GPa) = 62.27437 66.23573 64.25505
# Shear Modulus (GPa) = 27.94837 32.44780 30.19809
#
# Velocity S-wave (km/s) = 3.68287 3.96827 3.82823
# Velocity P-wave (km/s) = 6.95032 7.28978 7.12207
#
# Compressibility (1/GPa) = 0.01605797
#
# Stress axis : x y z
#
# Youngs Moduli (GPa) = 87.07412 75.01896 50.75176
#
# Poissons Ratio (x) = 0.02741 0.33977
# Poissons Ratio (y) = 0.03181 0.36389
# Poissons Ratio (z) = 0.58295 0.53788
#
# Static dielectric constant tensor:
#      x y z
#    x 1.733320 0.025840 0.000520 
#    y 0.025840 1.825980 0.046920 
#    z 0.000520 0.046920 1.732500 
# 
# From -- ./inp_files/455803.got.cif
#   From: 2010.05.17/outbox.cif.g08.bks.cpg/sg2_228_cif.got.tgz:455803.got - 2010.06.03 11:33:40.
