data_PCOD9055708
_publ_section_title
;
Structure prediction by ZEFSAII (Michael W. Deem and Ramdas Pophale) SiO2 
 PCOD9055708
Probable space group: P -1
;
_chemical_formula_sum "Si O2"
_cell_formula_units_Z 14
_cell_length_a 12.376629
_cell_length_b 9.623508
_cell_length_c 9.128601
_cell_angle_alpha 73.598648
_cell_angle_beta 55.015138
_cell_angle_gamma 48.150817
_cell_volume 654.568945
_symmetry_space_group_name_H-M "P -1"
_symmetry_group_IT_number 2
_symmetry_cell_setting 'triclinic'
loop_
_space_group_symop_operation_xyz
x,y,z
-x,-y,-z
loop_
_atom_site_type_symbol
_atom_site_label
_atom_site_fract_x
_atom_site_fract_y
_atom_site_fract_z
Si Si1 0.910286 0.664077 0.899756
Si Si2 0.569710 0.035502 0.202529
Si Si3 0.588529 0.153294 0.672990
Si Si4 0.092597 0.050143 0.308038
Si Si5 0.868398 0.206781 0.896243
Si Si6 0.670367 0.625381 0.937349
Si Si7 0.253114 0.895538 0.720691
O O1 0.006347 0.734705 0.731992
O O2 0.830958 0.615599 0.852911
O O3 0.000000 0.500000 0.000000
O O4 0.747754 0.856107 0.045973
O O5 0.458032 0.208240 0.124868
O O6 0.620041 0.095972 0.284008
O O7 0.466262 0.959200 0.325698
O O8 0.659753 0.201946 0.472468
O O9 0.743078 0.015144 0.707080
O O10 0.433097 0.320103 0.844915
O O11 0.144668 0.919410 0.165048
O O12 0.000000 0.000000 0.500000
O O13 0.745575 0.422818 0.880646
O O14 0.806809 0.197591 0.106646
O O15 0.070214 0.105721 0.772598
#
# Coordination Sequence:
#
# PCOD9055708 Si02
#       7
#     2   2   2   2   2   2   2
#     4  11  22  42  73  99 132 184 231 270 337 410
#     4  11  21  43  67  96 136 179 223 279 343 396
#     4  11  22  41  68  97 131 178 228 281 331 396
#     4  12  23  45  71 100 137 176 227 284 337 400
#     4  11  25  42  68 100 136 184 219 278 349 402
#     4  11  23  42  71  99 132 179 228 273 342 406
#     4  11  23  41  66  95 141 175 223 277 338 395
#
# _framework density 21.388121999999999
#
# number of rings (size 3 to 8) (size 9 to 14) (size 15 to 20)
#    0.000    0.857    5.714    2.143    2.000    2.857 
#    0.000    8.571    0.000    0.000    0.000    0.000 
#    0.000    0.000    0.000    0.000    0.000    0.000 
#
# Total GULP energy -78196.669022 kJ/mol
# GULP energy per Si atom -5585.476359 kJ/mol
# Density = 2.133944 g / cm^3
# Si number density = 21.388122 Si / 1000 Ang^3
#
#
#
# Elastic Constant Matrix: (Units=GPa)
#
#
# Indices 1 2 3 4 5 6 
#
# 1 115.0154 31.0462 14.8691 -5.5886 6.7045 -7.2420
# 2 31.0462 122.4681 20.6231 -11.1159 -6.3050 -6.8866
# 3 14.8691 20.6231 92.7192 -21.9542 -4.0639 5.3862
# 4 -5.5886 -11.1159 -21.9542 18.5058 3.0380 2.4011
# 5 6.7045 -6.3050 -4.0639 3.0380 29.9960 -3.3334
# 6 -7.2420 -6.8866 5.3862 2.4011 -3.3334 24.9771
#
#
#
# Elastic Compliance Matrix: (Units=1/GPa)
#
#
# Indices 1 2 3 4 5 6 
#
# 1 0.009762 -0.002258 -0.001231 0.000289 -0.002620 0.002096
# 2 -0.002258 0.009432 -0.001025 0.003112 0.002275 0.002171
# 3 -0.001231 -0.001025 0.015997 0.018817 -0.000339 -0.005944
# 4 0.000289 0.003112 0.018817 0.080884 -0.006358 -0.011740
# 5 -0.002620 0.002275 -0.000339 -0.006358 0.035588 0.005301
# 6 0.002096 0.002171 -0.005944 -0.011740 0.005301 0.044361
#
#
# Mechanical properties :
#
#
# Convention : Reuss Voigt Hill
#
# Bulk Modulus (GPa) = 38.22498 51.47552 44.85025
# Shear Modulus (GPa) = 23.38919 32.27339 27.83129
#
# Velocity S-wave (km/s) = 3.31049 3.88872 3.61120
# Velocity P-wave (km/s) = 5.70292 6.65451 6.19701
#
# Compressibility (1/GPa) = 0.02616090
#
# Stress axis : x y z
#
# Youngs Moduli (GPa) = 102.43863 106.01999 62.51327
#
# Poissons Ratio (x) = 0.23941 0.07698
# Poissons Ratio (y) = 0.23132 0.06410
# Poissons Ratio (z) = 0.12614 0.10871
#
# Static dielectric constant tensor:
#      x y z
#    x 1.793840 0.005390 -0.045020 
#    y 0.005390 1.759160 -0.048240 
#    z -0.045020 -0.048240 1.829040 
# 
# From -- ./inp_files/184885.got.cif
#   From: 2010.05.17/outbox.cif.g08.bks.cpg/sg2_93_cif.got.tgz:184885.got - 2010.06.03 11:33:40.
