data_PCOD9055051
_publ_section_title
;
Structure prediction by ZEFSAII (Michael W. Deem and Ramdas Pophale) SiO2 
 PCOD9055051
Probable space group: P -1
;
_chemical_formula_sum "Si O2"
_cell_formula_units_Z 16
_cell_length_a 14.457303
_cell_length_b 15.262998
_cell_length_c 15.541053
_cell_angle_alpha 26.686481
_cell_angle_beta 151.874472
_cell_angle_gamma 146.745380
_cell_volume 706.904944
_symmetry_space_group_name_H-M "P -1"
_symmetry_group_IT_number 2
_symmetry_cell_setting 'triclinic'
loop_
_space_group_symop_operation_xyz
x,y,z
-x,-y,-z
loop_
_atom_site_type_symbol
_atom_site_label
_atom_site_fract_x
_atom_site_fract_y
_atom_site_fract_z
Si Si1 0.278640 0.523801 0.930088
Si Si2 0.445531 0.626760 0.159539
Si Si3 0.498802 0.082697 0.747677
Si Si4 0.294086 0.086680 0.270736
Si Si5 0.894978 0.673821 0.527852
Si Si6 0.050559 0.092901 0.365588
Si Si7 0.469976 0.055237 0.289154
Si Si8 0.219613 0.611141 0.162274
O O1 0.447085 0.706077 0.868226
O O2 0.064068 0.584199 0.697820
O O3 0.330379 0.514727 0.081499
O O4 0.281401 0.313182 0.073602
O O5 0.676698 0.611052 0.360870
O O6 0.352255 0.575289 0.221878
O O7 0.445844 0.860766 0.939882
O O8 0.289431 0.144729 0.508353
O O9 0.640883 0.232904 0.795463
O O10 0.589651 0.058131 0.750177
O O11 0.253555 0.031407 0.185582
O O12 0.500000 0.000000 0.500000
O O13 0.310978 0.005944 0.452026
O O14 0.870799 0.580244 0.686069
O O15 0.957144 0.912354 0.381739
O O16 0.000000 0.000000 0.500000
O O17 0.950197 0.278479 0.105967
#
# Coordination Sequence:
#
# PCOD9055051 Si02
#       8
#     2   2   2   2   2   2   2   2
#     4  11  21  40  64  89 127 159 205 259 313 367
#     4  11  23  42  59  91 129 172 208 252 310 364
#     4  11  21  41  67  86 127 172 205 257 313 364
#     4   8  20  36  66  95 114 154 211 251 320 380
#     4  12  26  37  61  97 123 167 217 254 306 370
#     4  12  23  42  62  87 127 170 215 257 307 360
#     4   8  19  37  64  94 112 163 203 252 312 381
#     4  12  26  40  62  91 133 172 212 260 298 364
#
# _framework density 22.633877999999999
#
# number of rings (size 3 to 8) (size 9 to 14) (size 15 to 20)
#    0.750    0.500    5.000    1.875    3.500    2.000 
#    0.000    0.000    0.000   11.250    0.000    0.000 
#    0.000    0.000    0.000    0.000    0.000    0.000 
#
# Total GULP energy -89072.273034 kJ/mol
# GULP energy per Si atom -5567.017065 kJ/mol
# Density = 2.258236 g / cm^3
# Si number density = 22.633878 Si / 1000 Ang^3
#
#
#
# Elastic Constant Matrix: (Units=GPa)
#
#
# Indices 1 2 3 4 5 6 
#
# 1 72.0833 30.2863 11.5717 4.9323 7.5356 -18.7347
# 2 30.2863 61.3949 16.4938 -0.2851 18.5702 -18.4061
# 3 11.5717 16.4938 95.9647 -2.7921 20.4037 2.8687
# 4 4.9323 -0.2851 -2.7921 39.4073 4.1580 3.5241
# 5 7.5356 18.5702 20.4037 4.1580 36.4652 -4.3065
# 6 -18.7347 -18.4061 2.8687 3.5241 -4.3065 26.5216
#
#
#
# Elastic Compliance Matrix: (Units=1/GPa)
#
#
# Indices 1 2 3 4 5 6 
#
# 1 0.019783 -0.006765 -0.002113 -0.003835 0.002201 0.010376
# 2 -0.006765 0.026847 -0.002073 0.000814 -0.009744 0.012387
# 3 -0.002113 -0.002073 0.012657 0.002342 -0.006526 -0.005671
# 4 -0.003835 0.000814 0.002342 0.027144 -0.004830 -0.006788
# 5 0.002201 -0.009744 -0.006526 -0.004830 0.036375 0.002047
# 6 0.010376 0.012387 -0.005671 -0.006788 0.002047 0.055479
#
#
# Mechanical properties :
#
#
# Convention : Reuss Voigt Hill
#
# Bulk Modulus (GPa) = 26.74854 38.46075 32.60465
# Shear Modulus (GPa) = 23.51307 31.88491 27.69899
#
# Velocity S-wave (km/s) = 3.22661 3.75737 3.50206
# Velocity P-wave (km/s) = 5.07197 5.98776 5.54879
#
# Compressibility (1/GPa) = 0.03738521
#
# Stress axis : x y z
#
# Youngs Moduli (GPa) = 50.54823 37.24857 79.00836
#
# Poissons Ratio (x) = 0.25197 0.16692
# Poissons Ratio (y) = 0.34194 0.16382
# Poissons Ratio (z) = 0.10679 0.07723
#
# Static dielectric constant tensor:
#      x y z
#    x 1.708270 0.086040 0.088490 
#    y 0.086040 1.696170 -0.012470 
#    z 0.088490 -0.012470 1.767000 
# 
# From -- ./inp_files/337817.got.cif
#   From: 2010.05.17/outbox.cif.g08.bks.cpg/sg2_169_cif.got.tgz:337817.got - 2010.06.03 11:33:40.
