data_PCOD9055422
_publ_section_title
;
Structure prediction by ZEFSAII (Michael W. Deem and Ramdas Pophale) SiO2 
 PCOD9055422
Probable space group: P -1
;
_chemical_formula_sum "Si O2"
_cell_formula_units_Z 16
_cell_length_a 12.619016
_cell_length_b 11.887335
_cell_length_c 9.383436
_cell_angle_alpha 91.472188
_cell_angle_beta 120.938341
_cell_angle_gamma 42.526459
_cell_volume 647.142138
_symmetry_space_group_name_H-M "P -1"
_symmetry_group_IT_number 2
_symmetry_cell_setting 'triclinic'
loop_
_space_group_symop_operation_xyz
x,y,z
-x,-y,-z
loop_
_atom_site_type_symbol
_atom_site_label
_atom_site_fract_x
_atom_site_fract_y
_atom_site_fract_z
Si Si1 0.800962 0.643649 0.988498
Si Si2 0.906563 0.317588 0.144096
Si Si3 0.202241 0.131226 0.858595
Si Si4 0.855089 0.310019 0.424234
Si Si5 0.664382 0.289768 0.517812
Si Si6 0.522523 0.770455 0.275353
Si Si7 0.992079 0.878622 0.061073
Si Si8 0.557446 0.114107 0.473067
O O1 0.818377 0.720784 0.129244
O O2 0.796100 0.523153 0.046151
O O3 0.574743 0.843040 0.744837
O O4 0.000000 0.500000 0.000000
O O5 0.844023 0.307904 0.248006
O O6 0.182292 0.125881 0.332422
O O7 0.863929 0.270041 0.979296
O O8 0.556711 0.096366 0.912968
O O9 0.015214 0.225477 0.845473
O O10 0.114712 0.139119 0.654569
O O11 0.742590 0.290581 0.426436
O O12 0.714125 0.531496 0.371301
O O13 0.500000 0.500000 0.500000
O O14 0.567886 0.238909 0.443357
O O15 0.897557 0.110126 0.767977
O O16 0.567243 0.800033 0.456123
O O17 0.278638 0.895124 0.143384
#
# Coordination Sequence:
#
# PCOD9055422 Si02
#       8
#     2   2   2   2   2   2   2   2
#     4  12  22  42  68  95 132 167 222 269 308 387
#     4  11  25  41  64 104 132 164 213 271 331 372
#     4   9  21  40  66  89 127 170 214 258 311 383
#     4  11  23  43  65  98 135 166 210 271 327 377
#     4  11  21  41  72  92 126 174 219 260 312 398
#     4   9  19  39  65  95 120 171 217 252 316 387
#     4   8  19  42  61  94 119 164 216 255 311 375
#     4  11  24  41  66  99 126 170 222 263 318 378
#
# _framework density 24.724091000000001
#
# number of rings (size 3 to 8) (size 9 to 14) (size 15 to 20)
#    0.750    1.000    2.500    1.500    0.000    7.000 
#    2.250    3.750    0.000    0.000    0.000    0.000 
#    0.000    0.000    0.000    0.000    0.000    0.000 
#
# Total GULP energy -89455.530300 kJ/mol
# GULP energy per Si atom -5590.970644 kJ/mol
# Density = 2.466782 g / cm^3
# Si number density = 24.724091 Si / 1000 Ang^3
#
#
#
# Elastic Constant Matrix: (Units=GPa)
#
#
# Indices 1 2 3 4 5 6 
#
# 1 87.5231 22.8532 20.6566 18.6095 -21.0914 6.5117
# 2 22.8532 43.1254 2.4883 -8.3485 -11.5422 10.7407
# 3 20.6566 2.4883 82.4689 -0.9740 -14.4504 -2.1658
# 4 18.6095 -8.3485 -0.9740 30.3484 -6.4712 -11.0757
# 5 -21.0914 -11.5422 -14.4504 -6.4712 32.4232 2.6123
# 6 6.5117 10.7407 -2.1658 -11.0757 2.6123 38.1125
#
#
#
# Elastic Compliance Matrix: (Units=1/GPa)
#
#
# Indices 1 2 3 4 5 6 
#
# 1 0.020524 -0.011268 -0.004372 -0.016998 0.004468 -0.005826
# 2 -0.011268 0.036342 0.003809 0.018102 0.011209 -0.003608
# 3 -0.004372 0.003809 0.014269 0.006133 0.005946 0.001859
# 4 -0.016998 0.018102 0.006133 0.055250 0.008047 0.013656
# 5 0.004468 0.011209 0.005946 0.008047 0.042329 -0.004147
# 6 -0.005826 -0.003608 0.001859 0.013656 -0.004147 0.032609
#
#
# Mechanical properties :
#
#
# Convention : Reuss Voigt Hill
#
# Bulk Modulus (GPa) = 21.06413 33.90150 27.48282
# Shear Modulus (GPa) = 20.76341 31.31812 26.04076
#
# Velocity S-wave (km/s) = 2.90108 3.56294 3.24891
# Velocity P-wave (km/s) = 4.44521 5.53785 5.02134
#
# Compressibility (1/GPa) = 0.04747406
#
# Stress axis : x y z
#
# Youngs Moduli (GPa) = 48.72375 27.51614 70.08240
#
# Poissons Ratio (x) = 0.31004 0.30637
# Poissons Ratio (y) = 0.54901 -0.26693
# Poissons Ratio (z) = 0.21300 -0.10480
#
# Static dielectric constant tensor:
#      x y z
#    x 1.991710 -0.012390 -0.026770 
#    y -0.012390 1.928740 -0.023770 
#    z -0.026770 -0.023770 1.995900 
# 
# From -- ./inp_files/262548.got.cif
#   From: 2010.05.17/outbox.cif.g08.bks.cpg/sg2_132_cif.got.tgz:262548.got - 2010.06.03 11:33:40.
