data_PCOD9055940
_publ_section_title
;
Structure prediction by ZEFSAII (Michael W. Deem and Ramdas Pophale) SiO2 
 PCOD9055940
Probable space group: P -1
;
_chemical_formula_sum "Si O2"
_cell_formula_units_Z 16
_cell_length_a 10.981697
_cell_length_b 9.678675
_cell_length_c 9.391890
_cell_angle_alpha 124.683828
_cell_angle_beta 111.074417
_cell_angle_gamma 58.023139
_cell_volume 693.877467
_symmetry_space_group_name_H-M "P -1"
_symmetry_group_IT_number 2
_symmetry_cell_setting 'triclinic'
loop_
_space_group_symop_operation_xyz
x,y,z
-x,-y,-z
loop_
_atom_site_type_symbol
_atom_site_label
_atom_site_fract_x
_atom_site_fract_y
_atom_site_fract_z
Si Si1 0.026142 0.224554 0.532809
Si Si2 0.115270 0.645005 0.739527
Si Si3 0.305954 0.244093 0.635778
Si Si4 0.178863 0.791702 0.323409
Si Si5 0.011991 0.660355 0.005167
Si Si6 0.771475 0.058436 0.103614
Si Si7 0.592218 0.964060 0.732407
Si Si8 0.572008 0.279468 0.412298
O O1 0.167520 0.243080 0.657247
O O2 0.961724 0.343449 0.435788
O O3 0.900309 0.268117 0.618742
O O4 0.083701 0.008891 0.389358
O O5 0.261332 0.456979 0.701899
O O6 0.147674 0.825766 0.862386
O O7 0.015124 0.641905 0.825899
O O8 0.321767 0.127187 0.429027
O O9 0.449720 0.142239 0.726675
O O10 0.332592 0.765360 0.429693
O O11 0.160604 0.677410 0.116690
O O12 0.881895 0.860632 0.096485
O O13 0.000000 0.500000 0.000000
O O14 0.676014 0.182785 0.266093
O O15 0.678296 0.018579 0.919205
O O16 0.539459 0.812622 0.680041
O O17 0.500000 0.500000 0.500000
#
# Coordination Sequence:
#
# PCOD9055940 Si02
#       8
#     2   2   2   2   2   2   2   2
#     4  11  21  44  72 102 137 189 233 308 351 425
#     4  12  25  44  76 106 146 186 243 303 367 428
#     4  11  25  44  69 103 142 189 244 290 365 433
#     4  11  23  43  74 101 145 183 241 297 365 419
#     4  12  28  43  74 113 150 186 239 305 374 422
#     4  12  26  48  72 105 148 187 246 304 359 430
#     4  11  27  44  70 102 149 193 240 298 362 429
#     4  12  26  47  74 103 145 197 245 289 365 439
#
# _framework density 23.058827000000001
#
# number of rings (size 3 to 8) (size 9 to 14) (size 15 to 20)
#    0.000    0.500    3.750    4.125    5.250    1.500 
#    0.000    0.000    0.000    0.000    0.000    0.000 
#    0.000    0.000    0.000    0.000    0.000    0.000 
#
# Total GULP energy -89597.803393 kJ/mol
# GULP energy per Si atom -5599.862712 kJ/mol
# Density = 2.300634 g / cm^3
# Si number density = 23.058827 Si / 1000 Ang^3
#
#
#
# Elastic Constant Matrix: (Units=GPa)
#
#
# Indices 1 2 3 4 5 6 
#
# 1 73.7698 35.4996 21.1392 1.9584 -0.6702 11.0501
# 2 35.4996 178.5344 52.0426 9.8855 -3.7768 3.4372
# 3 21.1392 52.0426 100.0728 -5.1849 17.8072 -6.4043
# 4 1.9584 9.8855 -5.1849 31.8564 -4.2850 -6.1788
# 5 -0.6702 -3.7768 17.8072 -4.2850 46.8463 -7.1565
# 6 11.0501 3.4372 -6.4043 -6.1788 -7.1565 35.6481
#
#
#
# Elastic Compliance Matrix: (Units=1/GPa)
#
#
# Indices 1 2 3 4 5 6 
#
# 1 0.016312 -0.002228 -0.002757 -0.001845 0.000071 -0.005642
# 2 -0.002228 0.007368 -0.003850 -0.002720 0.001646 -0.000852
# 3 -0.002757 -0.003850 0.013828 0.003631 -0.004757 0.003384
# 4 -0.001845 -0.002720 0.003631 0.034886 0.002802 0.008096
# 5 0.000071 0.001646 -0.004757 0.002802 0.024203 0.004309
# 6 -0.005642 -0.000852 0.003384 0.008096 0.004309 0.032760
#
#
# Mechanical properties :
#
#
# Convention : Reuss Voigt Hill
#
# Bulk Modulus (GPa) = 50.40098 63.30443 56.85270
# Shear Modulus (GPa) = 32.54375 39.11654 35.83014
#
# Velocity S-wave (km/s) = 3.76085 4.12318 3.94618
# Velocity P-wave (km/s) = 6.38464 7.08382 6.74330
#
# Compressibility (1/GPa) = 0.01984088
#
# Stress axis : x y z
#
# Youngs Moduli (GPa) = 61.30294 135.71967 72.31585
#
# Poissons Ratio (x) = 0.30234 0.19935
# Poissons Ratio (y) = 0.13657 0.27839
# Poissons Ratio (z) = 0.16899 0.52247
#
# Static dielectric constant tensor:
#      x y z
#    x 1.874960 0.012890 -0.014750 
#    y 0.012890 1.855110 0.016530 
#    z -0.014750 0.016530 1.887840 
# 
# From -- ./inp_files/245476.got.cif
#   From: 2010.05.17/outbox.cif.g08.bks.cpg/sg2_123_cif.got.tgz:245476.got - 2010.06.03 11:33:40.
