data_PCOD9055536
_publ_section_title
;
Structure prediction by ZEFSAII (Michael W. Deem and Ramdas Pophale) SiO2 
 PCOD9055536
Probable space group: P -1
;
_chemical_formula_sum "Si O2"
_cell_formula_units_Z 14
_cell_length_a 17.968420
_cell_length_b 22.477654
_cell_length_c 7.851157
_cell_angle_alpha 29.029592
_cell_angle_beta 39.788750
_cell_angle_gamma 21.075690
_cell_volume 532.470846
_symmetry_space_group_name_H-M "P -1"
_symmetry_group_IT_number 2
_symmetry_cell_setting 'triclinic'
loop_
_space_group_symop_operation_xyz
x,y,z
-x,-y,-z
loop_
_atom_site_type_symbol
_atom_site_label
_atom_site_fract_x
_atom_site_fract_y
_atom_site_fract_z
Si Si1 0.627018 0.161083 0.981757
Si Si2 0.374051 0.491599 0.290048
Si Si3 0.825674 0.893435 0.810498
Si Si4 0.989501 0.017973 0.266170
Si Si5 0.115700 0.286801 0.481218
Si Si6 0.677353 0.683092 0.382160
Si Si7 0.218917 0.416923 0.183605
O O1 0.515961 0.283193 0.686966
O O2 0.775346 0.146993 0.793412
O O3 0.422559 0.325763 0.048430
O O4 0.762777 0.913366 0.357993
O O5 0.323233 0.462847 0.281219
O O6 0.500000 0.500000 0.000000
O O7 0.157553 0.734941 0.142601
O O8 0.578531 0.069526 0.788927
O O9 0.891962 0.790336 0.140548
O O10 0.878032 0.992490 0.462327
O O11 0.991924 0.686284 0.903867
O O12 0.000000 0.000000 0.500000
O O13 0.241366 0.294867 0.305513
O O14 0.863119 0.551903 0.243460
O O15 0.765034 0.653932 0.478918
#
# Coordination Sequence:
#
# PCOD9055536 Si02
#       7
#     2   2   2   2   2   2   2
#     4  12  25  43  65  98 133 167 212 271 324 375
#     4  12  21  39  69  96 121 168 218 260 312 389
#     4  11  22  41  67 100 123 165 222 265 317 388
#     4  12  20  39  70  96 125 164 218 265 316 388
#     4  11  22  44  69  90 127 179 222 255 310 389
#     4  11  21  42  69  92 125 168 221 261 313 375
#     4  11  28  42  61  97 138 169 210 268 328 372
#
# _framework density 26.29252
#
# number of rings (size 3 to 8) (size 9 to 14) (size 15 to 20)
#    0.000    0.571    7.143    3.000    0.000    4.000 
#    0.000    2.143    0.000    0.000    0.000    0.000 
#    0.000    0.000    0.000    0.000    0.000    0.000 
#
# Total GULP energy -78254.772100 kJ/mol
# GULP energy per Si atom -5589.626579 kJ/mol
# Density = 2.623268 g / cm^3
# Si number density = 26.292520 Si / 1000 Ang^3
#
#
#
# Elastic Constant Matrix: (Units=GPa)
#
#
# Indices 1 2 3 4 5 6 
#
# 1 83.0234 6.2205 35.1584 -6.2603 -0.2468 -19.2787
# 2 6.2205 164.9871 15.9054 -18.8733 -1.4701 -34.1773
# 3 35.1584 15.9054 70.8775 -28.0456 -9.6255 1.2902
# 4 -6.2603 -18.8733 -28.0456 38.9686 -6.8129 4.0518
# 5 -0.2468 -1.4701 -9.6255 -6.8129 36.8236 5.3793
# 6 -19.2787 -34.1773 1.2902 4.0518 5.3793 40.6793
#
#
#
# Elastic Compliance Matrix: (Units=1/GPa)
#
#
# Indices 1 2 3 4 5 6 
#
# 1 0.021738 0.002705 -0.016919 -0.010415 -0.008323 0.015249
# 2 0.002705 0.008070 -0.003121 0.000975 -0.001502 0.008262
# 3 -0.016919 -0.003121 0.036223 0.026461 0.016553 -0.016614
# 4 -0.010415 0.000975 0.026461 0.047813 0.017490 -0.012031
# 5 -0.008323 -0.001502 0.016553 0.017490 0.036398 -0.012287
# 6 0.015249 0.008262 -0.016614 -0.012031 -0.012287 0.042101
#
#
# Mechanical properties :
#
#
# Convention : Reuss Voigt Hill
#
# Bulk Modulus (GPa) = 31.88867 48.16184 40.02526
# Shear Modulus (GPa) = 21.05554 40.73455 30.89504
#
# Velocity S-wave (km/s) = 2.83294 3.94036 3.43162
# Velocity P-wave (km/s) = 4.78074 6.24975 5.56394
#
# Compressibility (1/GPa) = 0.03135910
#
# Stress axis : x y z
#
# Youngs Moduli (GPa) = 46.00280 123.92116 27.60694
#
# Poissons Ratio (x) = -0.33518 0.46708
# Poissons Ratio (y) = -0.12443 0.08617
# Poissons Ratio (z) = 0.77832 0.38679
#
# Static dielectric constant tensor:
#      x y z
#    x 2.037490 0.013250 0.058370 
#    y 0.013250 2.173070 -0.060020 
#    z 0.058370 -0.060020 2.111230 
# 
# From -- ./inp_files/218424.got.cif
#   From: 2010.05.17/outbox.cif.g08.bks.cpg/sg2_110_cif.got.tgz:218424.got - 2010.06.03 11:33:40.
