data_PCOD9055043
_publ_section_title
;
Structure prediction by ZEFSAII (Michael W. Deem and Ramdas Pophale) SiO2 
 PCOD9055043
Probable space group: P -1
;
_chemical_formula_sum "Si O2"
_cell_formula_units_Z 14
_cell_length_a 5.517357
_cell_length_b 31.585150
_cell_length_c 9.141459
_cell_angle_alpha 28.013585
_cell_angle_beta 58.712580
_cell_angle_gamma 62.826755
_cell_volume 639.406683
_symmetry_space_group_name_H-M "P -1"
_symmetry_group_IT_number 2
_symmetry_cell_setting 'triclinic'
loop_
_space_group_symop_operation_xyz
x,y,z
-x,-y,-z
loop_
_atom_site_type_symbol
_atom_site_label
_atom_site_fract_x
_atom_site_fract_y
_atom_site_fract_z
Si Si1 0.328722 0.349609 0.855524
Si Si2 0.980892 0.899229 0.750995
Si Si3 0.566952 0.176791 0.796504
Si Si4 0.666619 0.352720 0.049885
Si Si5 0.182587 0.012439 0.761171
Si Si6 0.653574 0.498251 0.114918
Si Si7 0.504663 0.814817 0.868512
O O1 0.529367 0.410673 0.503854
O O2 0.494683 0.347579 0.965430
O O3 0.319768 0.250335 0.088544
O O4 0.000080 0.383296 0.851058
O O5 0.174602 0.810906 0.951833
O O6 0.947685 0.924243 0.514527
O O7 0.000000 0.000000 0.500000
O O8 0.729746 0.861669 0.048245
O O9 0.678369 0.255683 0.421317
O O10 0.487363 0.204897 0.901215
O O11 0.751339 0.085855 0.023168
O O12 0.475045 0.418017 0.009858
O O13 0.451542 0.078003 0.507194
O O14 0.000000 0.000000 0.000000
O O15 0.500000 0.500000 0.000000
O O16 0.000000 0.500000 0.000000
#
# Coordination Sequence:
#
# PCOD9055043 Si02
#       7
#     2   2   2   2   2   2   2
#     4  12  28  47  73 108 147 182 230 295 354 412
#     4  11  21  40  63  89 129 186 237 296 341 411
#     4  11  24  40  65  95 136 183 239 287 349 423
#     4  12  28  48  73 109 147 181 230 295 355 411
#     4  11  23  39  59  93 134 178 237 294 352 403
#     4  12  26  50  82 109 140 187 232 280 350 431
#     4  11  24  41  65  93 135 185 239 284 351 418
#
# _framework density 21.895299999999999
#
# number of rings (size 3 to 8) (size 9 to 14) (size 15 to 20)
#    0.000    0.571    2.857    5.143   10.000    1.714 
#    0.000    0.000    0.000    0.000    0.000    0.000 
#    0.000    0.000    0.000    0.000    0.000    0.000 
#
# Total GULP energy -77936.041777 kJ/mol
# GULP energy per Si atom -5566.860127 kJ/mol
# Density = 2.184546 g / cm^3
# Si number density = 21.895300 Si / 1000 Ang^3
#
#
#
# Elastic Constant Matrix: (Units=GPa)
#
#
# Indices 1 2 3 4 5 6 
#
# 1 113.7544 63.5338 27.4589 14.0106 4.9859 -7.4729
# 2 63.5338 122.1370 29.8079 1.3170 -2.6542 2.1135
# 3 27.4589 29.8079 108.3415 14.8814 7.8121 4.7642
# 4 14.0106 1.3170 14.8814 36.7579 -3.9806 4.3889
# 5 4.9859 -2.6542 7.8121 -3.9806 24.0757 11.7486
# 6 -7.4729 2.1135 4.7642 4.3889 11.7486 42.2197
#
#
#
# Elastic Compliance Matrix: (Units=1/GPa)
#
#
# Indices 1 2 3 4 5 6 
#
# 1 0.014812 -0.007814 -0.000371 -0.006772 -0.007825 0.005936
# 2 -0.007814 0.013042 -0.002563 0.004761 0.006675 -0.004099
# 3 -0.000371 -0.002563 0.011019 -0.004843 -0.004919 0.000692
# 4 -0.006772 0.004761 -0.004843 0.033949 0.013039 -0.008048
# 5 -0.007825 0.006675 -0.004919 0.013039 0.056553 -0.018257
# 6 0.005936 -0.004099 0.000692 -0.008048 -0.018257 0.030781
#
#
# Mechanical properties :
#
#
# Convention : Reuss Voigt Hill
#
# Bulk Modulus (GPa) = 57.54649 65.09268 61.31959
# Shear Modulus (GPa) = 26.67471 35.50614 31.09043
#
# Velocity S-wave (km/s) = 3.49418 4.03132 3.77232
# Velocity P-wave (km/s) = 6.52830 7.17372 6.85861
#
# Compressibility (1/GPa) = 0.01737725
#
# Stress axis : x y z
#
# Youngs Moduli (GPa) = 67.51483 76.67302 90.75469
#
# Poissons Ratio (x) = 0.59912 0.03365
# Poissons Ratio (y) = 0.52756 0.23260
# Poissons Ratio (z) = 0.02503 0.19651
#
# Static dielectric constant tensor:
#      x y z
#    x 1.949320 -0.124000 -0.011750 
#    y -0.124000 1.987660 -0.102680 
#    z -0.011750 -0.102680 1.823790 
# 
# From -- ./inp_files/143311.got.cif
#   From: 2010.05.17/outbox.cif.g08.bks.cpg/sg2_72_cif.got.tgz:143311.got - 2010.06.03 11:33:40.
