data_PCOD9055416
_publ_section_title
;
Structure prediction by ZEFSAII (Michael W. Deem and Ramdas Pophale) SiO2 
 PCOD9055416
Probable space group: P -1
;
_chemical_formula_sum "Si O2"
_cell_formula_units_Z 16
_cell_length_a 9.191297
_cell_length_b 5.684999
_cell_length_c 17.044062
_cell_angle_alpha 63.522681
_cell_angle_beta 63.129397
_cell_angle_gamma 77.034298
_cell_volume 710.817943
_symmetry_space_group_name_H-M "P -1"
_symmetry_group_IT_number 2
_symmetry_cell_setting 'triclinic'
loop_
_space_group_symop_operation_xyz
x,y,z
-x,-y,-z
loop_
_atom_site_type_symbol
_atom_site_label
_atom_site_fract_x
_atom_site_fract_y
_atom_site_fract_z
Si Si1 0.379849 0.446230 0.609186
Si Si2 0.813124 0.065911 0.021879
Si Si3 0.665495 0.587542 0.983161
Si Si4 0.945427 0.655458 0.369737
Si Si5 0.482249 0.834738 0.669420
Si Si6 0.855541 0.815097 0.535558
Si Si7 0.200983 0.925196 0.166524
Si Si8 0.544440 0.691912 0.158161
O O1 0.500000 0.500000 0.500000
O O2 0.194482 0.495623 0.619195
O O3 0.423289 0.655657 0.635732
O O4 0.404103 0.125844 0.663157
O O5 0.693498 0.865459 0.127248
O O6 0.770809 0.348731 0.025764
O O7 0.799021 0.120180 0.921426
O O8 0.000000 0.000000 0.000000
O O9 0.772724 0.765298 0.876334
O O10 0.500000 0.500000 0.000000
O O11 0.592705 0.746558 0.049318
O O12 0.857843 0.800117 0.442932
O O13 0.084297 0.466753 0.402753
O O14 0.037423 0.837197 0.259697
O O15 0.675208 0.881369 0.601442
O O16 0.455879 0.614856 0.775531
O O17 0.000000 0.000000 0.500000
O O18 0.358481 0.797575 0.192114
#
# Coordination Sequence:
#
# PCOD9055416 Si02
#       8
#     2   2   2   2   2   2   2   2
#     4  12  27  50  74 105 151 197 239 303 372 440
#     4  11  25  42  68 100 140 176 233 296 355 419
#     4  11  21  41  71  94 135 190 228 288 358 435
#     4  11  26  43  70 103 144 183 247 299 363 436
#     4  12  28  46  77 107 147 197 243 298 375 431
#     4  11  25  45  70 106 139 191 240 307 353 434
#     4  11  23  43  67 102 134 184 239 288 362 429
#     4  11  24  43  68 103 137 180 242 289 355 437
#
# _framework density 22.509281000000001
#
# number of rings (size 3 to 8) (size 9 to 14) (size 15 to 20)
#    0.000    0.750    5.000    1.875    7.000    5.000 
#    0.000    0.000    0.000    0.000    0.000    0.000 
#    0.000    0.000    0.000    0.000    0.000    0.000 
#
# Total GULP energy -89168.979575 kJ/mol
# GULP energy per Si atom -5573.061223 kJ/mol
# Density = 2.245805 g / cm^3
# Si number density = 22.509281 Si / 1000 Ang^3
#
#
#
# Elastic Constant Matrix: (Units=GPa)
#
#
# Indices 1 2 3 4 5 6 
#
# 1 103.6072 17.2549 26.3829 2.3134 -21.2413 -1.3778
# 2 17.2549 64.5879 14.2459 -19.4275 2.6418 -3.7926
# 3 26.3829 14.2459 131.2725 -16.5816 -21.2095 10.0013
# 4 2.3134 -19.4275 -16.5816 33.4009 1.0894 -3.1722
# 5 -21.2413 2.6418 -21.2095 1.0894 32.3801 -2.1499
# 6 -1.3778 -3.7926 10.0013 -3.1722 -2.1499 37.8249
#
#
#
# Elastic Compliance Matrix: (Units=1/GPa)
#
#
# Indices 1 2 3 4 5 6 
#
# 1 0.012492 -0.004688 -0.001323 -0.004467 0.007888 0.000408
# 2 -0.004688 0.021133 -0.000884 0.012638 -0.005609 0.002923
# 3 -0.001323 -0.000884 0.009457 0.003913 0.005133 -0.002017
# 4 -0.004467 0.012638 0.003913 0.039936 -0.002524 0.003276
# 5 0.007888 -0.005609 0.005133 -0.002524 0.039991 0.000429
# 6 0.000408 0.002923 -0.002017 0.003276 0.000429 0.027578
#
#
# Mechanical properties :
#
#
# Convention : Reuss Voigt Hill
#
# Bulk Modulus (GPa) = 34.13834 46.13721 40.13778
# Shear Modulus (GPa) = 28.71271 36.82677 32.76974
#
# Velocity S-wave (km/s) = 3.57542 4.04922 3.81968
# Velocity P-wave (km/s) = 5.67839 6.51177 6.10930
#
# Compressibility (1/GPa) = 0.02929258
#
# Stress axis : x y z
#
# Youngs Moduli (GPa) = 80.05302 47.32026 105.74331
#
# Poissons Ratio (x) = 0.22182 0.13987
# Poissons Ratio (y) = 0.37527 0.09346
# Poissons Ratio (z) = 0.10589 0.04182
#
# Static dielectric constant tensor:
#      x y z
#    x 1.617510 -0.103790 -0.008990 
#    y -0.103790 1.822970 -0.057740 
#    z -0.008990 -0.057740 1.963440 
# 
# From -- ./inp_files/48268.got.cif
#   From: 2010.05.17/outbox.cif.g08.bks.cpg/sg2_25_cif.got.tgz:48268.got - 2010.06.03 11:33:40.
