data_PCOD9055582
_publ_section_title
;
Structure prediction by ZEFSAII (Michael W. Deem and Ramdas Pophale) SiO2 
 PCOD9055582
Probable space group: P -1
;
_chemical_formula_sum "Si O2"
_cell_formula_units_Z 14
_cell_length_a 11.957284
_cell_length_b 8.087190
_cell_length_c 17.958841
_cell_angle_alpha 146.936870
_cell_angle_beta 38.763274
_cell_angle_gamma 142.929777
_cell_volume 537.568652
_symmetry_space_group_name_H-M "P -1"
_symmetry_group_IT_number 2
_symmetry_cell_setting 'triclinic'
loop_
_space_group_symop_operation_xyz
x,y,z
-x,-y,-z
loop_
_atom_site_type_symbol
_atom_site_label
_atom_site_fract_x
_atom_site_fract_y
_atom_site_fract_z
Si Si1 0.591285 0.400901 0.088170
Si Si2 0.205764 0.812761 0.518719
Si Si3 0.720130 0.455618 0.275541
Si Si4 0.271327 0.520917 0.225386
Si Si5 0.381152 0.417739 0.352452
Si Si6 0.031732 0.794086 0.038087
Si Si7 0.942835 0.208655 0.669132
O O1 0.469390 0.469502 0.111145
O O2 0.529485 0.499123 0.236973
O O3 0.822440 0.632785 0.043240
O O4 0.500000 0.000000 0.000000
O O5 0.293349 0.775542 0.378284
O O6 0.307494 0.710107 0.496288
O O7 0.000000 0.500000 0.500000
O O8 0.200486 0.168301 0.658101
O O9 0.490029 0.367256 0.350337
O O10 0.848053 0.522321 0.308838
O O11 0.784696 0.198306 0.102629
O O12 0.199421 0.644646 0.236986
O O13 0.096670 0.144006 0.178498
O O14 0.192708 0.066512 0.304881
O O15 0.000000 0.500000 0.000000
O O16 0.000000 0.000000 0.500000
#
# Coordination Sequence:
#
# PCOD9055582 Si02
#       7
#     2   2   2   2   2   2   2
#     4  11  22  42  71 103 135 175 228 287 340 398
#     4  11  21  42  70  99 135 177 230 290 338 389
#     4  12  24  43  70 103 136 179 230 283 341 404
#     4  11  25  44  68 100 137 184 226 277 344 407
#     4  11  24  40  71 103 133 177 235 285 337 400
#     4  12  23  42  74 102 137 170 227 289 342 397
#     4  12  26  48  65  97 149 187 219 279 345 412
#
# _framework density 26.043187
#
# number of rings (size 3 to 8) (size 9 to 14) (size 15 to 20)
#    0.000    0.571    5.714    2.143    0.000    2.286 
#    5.143    5.000    0.000    0.000    0.000    0.000 
#    0.000    0.000    0.000    0.000    0.000    0.000 
#
# Total GULP energy -78171.611937 kJ/mol
# GULP energy per Si atom -5583.686567 kJ/mol
# Density = 2.598391 g / cm^3
# Si number density = 26.043187 Si / 1000 Ang^3
#
#
#
# Elastic Constant Matrix: (Units=GPa)
#
#
# Indices 1 2 3 4 5 6 
#
# 1 185.3705 17.2211 27.8294 0.2061 -40.8249 33.8657
# 2 17.2211 72.8016 15.6558 17.4554 -13.4959 23.3937
# 3 27.8294 15.6558 72.8702 5.5583 -6.4464 3.5575
# 4 0.2061 17.4554 5.5583 28.9112 5.8940 -6.0885
# 5 -40.8249 -13.4959 -6.4464 5.8940 52.3668 -0.6231
# 6 33.8657 23.3937 3.5575 -6.0885 -0.6231 45.0946
#
#
#
# Elastic Compliance Matrix: (Units=1/GPa)
#
#
# Indices 1 2 3 4 5 6 
#
# 1 0.008995 0.004546 -0.002741 -0.006017 0.008410 -0.009594
# 2 0.004546 0.027978 -0.003864 -0.023088 0.012633 -0.020566
# 3 -0.002741 -0.003864 0.015330 0.000263 -0.001241 0.002872
# 4 -0.006017 -0.023088 0.000263 0.056973 -0.016736 0.023936
# 5 0.008410 0.012633 -0.001241 -0.016736 0.030465 -0.014610
# 6 -0.009594 -0.020566 0.002872 0.023936 -0.014610 0.042852
#
#
# Mechanical properties :
#
#
# Convention : Reuss Voigt Hill
#
# Bulk Modulus (GPa) = 20.75359 50.27278 35.51318
# Shear Modulus (GPa) = 24.65810 43.29690 33.97750
#
# Velocity S-wave (km/s) = 3.08038 4.08181 3.61593
# Velocity P-wave (km/s) = 4.54289 6.44673 5.57666
#
# Compressibility (1/GPa) = 0.04818444
#
# Stress axis : x y z
#
# Youngs Moduli (GPa) = 111.16981 35.74293 65.23195
#
# Poissons Ratio (x) = -0.16249 0.17878
# Poissons Ratio (y) = -0.50538 0.25208
# Poissons Ratio (z) = 0.30469 0.13812
#
# Static dielectric constant tensor:
#      x y z
#    x 2.086200 0.066090 0.055980 
#    y 0.066090 2.109060 -0.089020 
#    z 0.055980 -0.089020 2.086230 
# 
# From -- ./inp_files/345025.got.cif
#   From: 2010.05.17/outbox.cif.g08.bks.cpg/sg2_173_cif.got.tgz:345025.got - 2010.06.03 11:33:40.
