data_PCOD9055730
_publ_section_title
;
Structure prediction by ZEFSAII (Michael W. Deem and Ramdas Pophale) SiO2 
 PCOD9055730
Probable space group: P -1
;
_chemical_formula_sum "Si O2"
_cell_formula_units_Z 16
_cell_length_a 19.253959
_cell_length_b 17.149154
_cell_length_c 9.448803
_cell_angle_alpha 35.601354
_cell_angle_beta 147.223917
_cell_angle_gamma 157.488159
_cell_volume 636.636729
_symmetry_space_group_name_H-M "P -1"
_symmetry_group_IT_number 2
_symmetry_cell_setting 'triclinic'
loop_
_space_group_symop_operation_xyz
x,y,z
-x,-y,-z
loop_
_atom_site_type_symbol
_atom_site_label
_atom_site_fract_x
_atom_site_fract_y
_atom_site_fract_z
Si Si1 0.623097 0.351386 0.606550
Si Si2 0.749667 0.802010 0.776936
Si Si3 0.268419 0.197428 0.673154
Si Si4 0.264575 0.431496 0.094793
Si Si5 0.893838 0.454274 0.164978
Si Si6 0.363290 0.958186 0.539127
Si Si7 0.142718 0.216732 0.726636
Si Si8 0.274205 0.915360 0.125461
O O1 0.465041 0.321950 0.460817
O O2 0.755633 0.376754 0.907702
O O3 0.765421 0.563145 0.451545
O O4 0.482735 0.150145 0.564721
O O5 0.811278 0.702973 0.976407
O O6 0.743329 0.781852 0.963728
O O7 0.917670 0.032999 0.665820
O O8 0.238863 0.291951 0.371176
O O9 0.504051 0.360764 0.843267
O O10 0.178999 0.175725 0.699173
O O11 0.188769 0.985517 0.813952
O O12 0.161789 0.481032 0.904429
O O13 0.830641 0.259665 0.400173
O O14 0.121107 0.671010 0.203246
O O15 0.311087 0.968578 0.277666
O O16 0.520114 0.963047 0.771883
#
# Coordination Sequence:
#
# PCOD9055730 Si02
#       8
#     2   2   2   2   2   2   2   2
#     4  12  25  43  70  97 140 184 225 285 344 404
#     4  11  25  40  66 104 143 180 226 282 343 419
#     4  11  21  43  69 102 135 174 225 282 347 408
#     4  11  22  39  72 102 136 175 220 287 345 407
#     4  12  25  46  69 102 135 178 231 290 339 404
#     4  11  27  47  66  98 134 184 235 281 336 401
#     4  11  24  41  66 103 142 185 225 273 353 418
#     4  11  26  44  74  95 132 183 232 283 340 409
#
# _framework density 25.132071
#
# number of rings (size 3 to 8) (size 9 to 14) (size 15 to 20)
#    0.000    0.750    3.750    3.375    3.500    3.500 
#    0.000    0.000    0.000    0.000    0.000    0.000 
#    0.000    0.000    0.000    0.000    0.000    0.000 
#
# Total GULP energy -89678.060271 kJ/mol
# GULP energy per Si atom -5604.878767 kJ/mol
# Density = 2.507487 g / cm^3
# Si number density = 25.132071 Si / 1000 Ang^3
#
#
#
# Elastic Constant Matrix: (Units=GPa)
#
#
# Indices 1 2 3 4 5 6 
#
# 1 51.4908 10.2806 29.3262 -7.5504 -11.9183 -8.3927
# 2 10.2806 129.4760 16.4015 -22.1880 -5.4938 0.1339
# 3 29.3262 16.4015 72.0281 -3.1851 -13.3622 1.4866
# 4 -7.5504 -22.1880 -3.1851 44.7540 -1.1717 -3.5248
# 5 -11.9183 -5.4938 -13.3622 -1.1717 29.5608 -2.4321
# 6 -8.3927 0.1339 1.4866 -3.5248 -2.4321 43.6476
#
#
#
# Elastic Compliance Matrix: (Units=1/GPa)
#
#
# Indices 1 2 3 4 5 6 
#
# 1 0.028858 0.000183 -0.010268 0.004962 0.007778 0.006732
# 2 0.000183 0.008704 -0.001663 0.004295 0.001149 0.000476
# 3 -0.010268 -0.001663 0.019172 -0.001286 0.003960 -0.002505
# 4 0.004962 0.004295 -0.001286 0.025567 0.003498 0.003244
# 5 0.007778 0.001149 0.003960 0.003498 0.039423 0.003836
# 6 0.006732 0.000476 -0.002505 0.003244 0.003836 0.024765
#
#
# Mechanical properties :
#
#
# Convention : Reuss Voigt Hill
#
# Bulk Modulus (GPa) = 30.08618 40.55684 35.32151
# Shear Modulus (GPa) = 27.61473 36.72492 32.16982
#
# Velocity S-wave (km/s) = 3.31839 3.82681 3.58163
# Velocity P-wave (km/s) = 5.16522 5.97482 5.58471
#
# Compressibility (1/GPa) = 0.03323785
#
# Stress axis : x y z
#
# Youngs Moduli (GPa) = 34.65300 114.89070 52.15893
#
# Poissons Ratio (x) = -0.02100 0.53554
# Poissons Ratio (y) = -0.00633 0.08675
# Poissons Ratio (z) = 0.35580 0.19108
#
# Static dielectric constant tensor:
#      x y z
#    x 1.987580 -0.034330 0.017030 
#    y -0.034330 2.008470 0.014010 
#    z 0.017030 0.014010 1.972520 
# 
# From -- ./inp_files/348849.got.cif
#   From: 2010.05.17/outbox.cif.g08.bks.cpg/sg2_175_cif.got.tgz:348849.got - 2010.06.03 11:33:40.
