data_PCOD9055152
_publ_section_title
;
Structure prediction by ZEFSAII (Michael W. Deem and Ramdas Pophale) SiO2 
 PCOD9055152
Probable space group: P -1
;
_chemical_formula_sum "Si O2"
_cell_formula_units_Z 12
_cell_length_a 10.050786
_cell_length_b 11.700764
_cell_length_c 9.442896
_cell_angle_alpha 125.913159
_cell_angle_beta 135.127755
_cell_angle_gamma 45.983096
_cell_volume 553.656881
_symmetry_space_group_name_H-M "P -1"
_symmetry_group_IT_number 2
_symmetry_cell_setting 'triclinic'
loop_
_space_group_symop_operation_xyz
x,y,z
-x,-y,-z
loop_
_atom_site_type_symbol
_atom_site_label
_atom_site_fract_x
_atom_site_fract_y
_atom_site_fract_z
Si Si1 0.190428 0.865822 0.452354
Si Si2 0.027809 0.431962 0.632574
Si Si3 0.298930 0.096939 0.519908
Si Si4 0.353428 0.656609 0.683642
Si Si5 0.798606 0.375597 0.932371
Si Si6 0.878674 0.173483 0.106062
O O1 0.353418 0.733352 0.589041
O O2 0.110235 0.773866 0.216993
O O3 0.284766 0.963173 0.508288
O O4 0.000000 0.000000 0.500000
O O5 0.252972 0.258768 0.686676
O O6 0.000000 0.500000 0.500000
O O7 0.825349 0.404533 0.498647
O O8 0.050027 0.553105 0.847603
O O9 0.086996 0.181182 0.323094
O O10 0.500000 0.000000 0.500000
O O11 0.582133 0.514631 0.801021
O O12 0.263663 0.794913 0.838744
O O13 0.746733 0.306721 0.986213
O O14 0.000000 0.000000 0.000000
#
# Coordination Sequence:
#
# PCOD9055152 Si02
#       6
#     2   2   2   2   2   2
#     4  12  24  50  70  99 148 190 228 296 358 420
#     4  11  24  43  68 111 139 174 239 298 337 419
#     4  11  25  43  72 100 142 178 237 293 345 415
#     4  11  25  45  70 100 150 183 234 291 357 412
#     4  12  25  41  75 103 138 192 235 285 359 423
#     4  11  21  40  69 102 130 187 235 281 343 418
#
# _framework density 21.674071000000001
#
# number of rings (size 3 to 8) (size 9 to 14) (size 15 to 20)
#    0.000    0.667    8.333    1.000    4.667    0.667 
#    0.000    2.500    0.000    0.000    0.000    0.000 
#    0.000    0.000    0.000    0.000    0.000    0.000 
#
# Total GULP energy -66987.134733 kJ/mol
# GULP energy per Si atom -5582.261228 kJ/mol
# Density = 2.162474 g / cm^3
# Si number density = 21.674071 Si / 1000 Ang^3
#
#
#
# Elastic Constant Matrix: (Units=GPa)
#
#
# Indices 1 2 3 4 5 6 
#
# 1 110.4770 56.2407 40.2977 0.3381 -9.3595 14.6913
# 2 56.2407 123.7857 53.1925 -1.9666 -10.7163 25.5399
# 3 40.2977 53.1925 99.0929 8.8663 -25.0273 10.8345
# 4 0.3381 -1.9666 8.8663 53.8664 -2.4952 -10.5892
# 5 -9.3595 -10.7163 -25.0273 -2.4952 26.1374 -3.1032
# 6 14.6913 25.5399 10.8345 -10.5892 -3.1032 43.7229
#
#
#
# Elastic Compliance Matrix: (Units=1/GPa)
#
#
# Indices 1 2 3 4 5 6 
#
# 1 0.012306 -0.004268 -0.002590 0.000000 0.000059 -0.000996
# 2 -0.004268 0.013158 -0.005242 0.000307 -0.001717 -0.005000
# 3 -0.002590 -0.005242 0.017605 -0.002459 0.013538 -0.000065
# 4 0.000000 0.000307 -0.002459 0.020038 0.000315 0.005305
# 5 0.000059 -0.001717 0.013538 0.000315 0.050725 0.001305
# 6 -0.000996 -0.005000 -0.000065 0.005305 0.001305 0.027520
#
#
# Mechanical properties :
#
#
# Convention : Reuss Voigt Hill
#
# Bulk Modulus (GPa) = 52.99441 70.31303 61.65372
# Shear Modulus (GPa) = 29.09655 36.98698 33.04177
#
# Velocity S-wave (km/s) = 3.66793 4.13547 3.90870
# Velocity P-wave (km/s) = 6.51475 7.43736 6.99129
#
# Compressibility (1/GPa) = 0.01886992
#
# Stress axis : x y z
#
# Youngs Moduli (GPa) = 81.25853 75.99943 56.80191
#
# Poissons Ratio (x) = 0.32434 0.14711
# Poissons Ratio (y) = 0.34679 0.29776
# Poissons Ratio (z) = 0.21046 0.39840
#
# Static dielectric constant tensor:
#      x y z
#    x 1.653680 0.032300 0.121180 
#    y 0.032300 1.938990 0.112130 
#    z 0.121180 0.112130 1.747040 
# 
# From -- ./inp_files/182897.got.cif
#   From: 2010.05.17/outbox.cif.g08.bks.cpg/sg2_92_cif.got.tgz:182897.got - 2010.06.03 11:33:40.
