data_PCOD9055224
_publ_section_title
;
Structure prediction by ZEFSAII (Michael W. Deem and Ramdas Pophale) SiO2 
 PCOD9055224
Probable space group: P -1
;
_chemical_formula_sum "Si O2"
_cell_formula_units_Z 14
_cell_length_a 8.961012
_cell_length_b 9.089525
_cell_length_c 9.593324
_cell_angle_alpha 105.685302
_cell_angle_beta 95.499944
_cell_angle_gamma 70.352806
_cell_volume 708.482773
_symmetry_space_group_name_H-M "P -1"
_symmetry_group_IT_number 2
_symmetry_cell_setting 'triclinic'
loop_
_space_group_symop_operation_xyz
x,y,z
-x,-y,-z
loop_
_atom_site_type_symbol
_atom_site_label
_atom_site_fract_x
_atom_site_fract_y
_atom_site_fract_z
Si Si1 0.620377 0.995332 0.385153
Si Si2 0.476544 0.340970 0.517460
Si Si3 0.839525 0.539520 0.903122
Si Si4 0.451834 0.158215 0.938907
Si Si5 0.667188 0.268697 0.797513
Si Si6 0.125140 0.365809 0.386858
Si Si7 0.886669 0.947019 0.580026
O O1 0.599452 0.183457 0.413694
O O2 0.500000 0.000000 0.500000
O O3 0.585777 0.913612 0.226537
O O4 0.784850 0.896087 0.439198
O O5 0.500000 0.500000 0.500000
O O6 0.528563 0.331139 0.682607
O O7 0.301800 0.339849 0.458431
O O8 0.763271 0.394147 0.858606
O O9 0.875455 0.575688 0.756629
O O10 0.700203 0.699409 0.983877
O O11 0.000000 0.500000 0.000000
O O12 0.590362 0.230757 0.924045
O O13 0.500000 0.000000 0.000000
O O14 0.783452 0.102396 0.698513
O O15 0.072961 0.205065 0.352774
O O16 0.000000 0.500000 0.500000
O O17 0.000000 0.000000 0.500000
#
# Coordination Sequence:
#
# PCOD9055224 Si02
#       7
#     2   2   2   2   2   2   2
#     4  11  21  42  71  95 128 173 226 285 325 388
#     4  11  21  40  74 101 127 166 242 283 321 395
#     4  12  29  46  65 104 148 179 221 285 353 406
#     4  12  25  46  71  97 138 185 228 277 338 417
#     4  11  23  46  71  97 133 185 228 280 335 412
#     4  12  25  44  70 101 137 176 226 282 342 404
#     4  11  23  41  70 101 131 169 232 283 334 390
#
# _framework density 19.760535999999998
#
# number of rings (size 3 to 8) (size 9 to 14) (size 15 to 20)
#    0.000    0.571    5.714    3.000    8.000    0.000 
#    2.571    1.429    0.000    0.000    0.000    0.000 
#    0.000    0.000    0.000    0.000    0.000    0.000 
#
# Total GULP energy -78081.530564 kJ/mol
# GULP energy per Si atom -5577.252183 kJ/mol
# Density = 1.971556 g / cm^3
# Si number density = 19.760536 Si / 1000 Ang^3
#
#
#
# Elastic Constant Matrix: (Units=GPa)
#
#
# Indices 1 2 3 4 5 6 
#
# 1 108.8735 58.0747 65.6637 -22.8690 -12.7072 18.6177
# 2 58.0747 168.9091 65.1402 -4.4736 -16.6252 25.9603
# 3 65.6637 65.1402 128.7049 -5.8549 -9.7451 7.2627
# 4 -22.8690 -4.4736 -5.8549 34.6860 0.2168 -6.2560
# 5 -12.7072 -16.6252 -9.7451 0.2168 44.0220 0.6839
# 6 18.6177 25.9603 7.2627 -6.2560 0.6839 41.1017
#
#
#
# Elastic Compliance Matrix: (Units=1/GPa)
#
#
# Indices 1 2 3 4 5 6 
#
# 1 0.017523 -0.002224 -0.006963 0.009367 0.002692 -0.003922
# 2 -0.002224 0.008608 -0.002904 -0.001616 0.002039 -0.004196
# 3 -0.006963 -0.002904 0.012519 -0.002415 -0.000361 0.002415
# 4 0.009367 -0.001616 -0.002415 0.034829 0.001349 0.002483
# 5 0.002692 0.002039 -0.000361 0.001349 0.024217 -0.002641
# 6 -0.003922 -0.004196 0.002415 0.002483 -0.002641 0.028752
#
#
# Mechanical properties :
#
#
# Convention : Reuss Voigt Hill
#
# Bulk Modulus (GPa) = 69.12379 87.13832 78.13105
# Shear Modulus (GPa) = 32.16387 38.46920 35.31654
#
# Velocity S-wave (km/s) = 4.03883 4.41701 4.23215
# Velocity P-wave (km/s) = 7.53699 8.37891 7.96908
#
# Compressibility (1/GPa) = 0.01446680
#
# Stress axis : x y z
#
# Youngs Moduli (GPa) = 57.06710 116.17327 79.87909
#
# Poissons Ratio (x) = 0.25833 0.55624
# Poissons Ratio (y) = 0.12690 0.23200
# Poissons Ratio (z) = 0.39739 0.33742
#
# Static dielectric constant tensor:
#      x y z
#    x 1.725970 0.039630 0.013120 
#    y 0.039630 1.719750 0.028440 
#    z 0.013120 0.028440 1.635170 
# 
# From -- ./inp_files/159832.got.cif
#   From: 2010.05.17/outbox.cif.g08.bks.cpg/sg2_80_cif.got.tgz:159832.got - 2010.06.03 11:33:40.
