data_PCOD9055238
_publ_section_title
;
Structure prediction by ZEFSAII (Michael W. Deem and Ramdas Pophale) SiO2 
 PCOD9055238
Probable space group: P -1
;
_chemical_formula_sum "Si O2"
_cell_formula_units_Z 12
_cell_length_a 24.030298
_cell_length_b 4.728689
_cell_length_c 13.142123
_cell_angle_alpha 82.400401
_cell_angle_beta 17.655996
_cell_angle_gamma 87.037930
_cell_volume 435.016428
_symmetry_space_group_name_H-M "P -1"
_symmetry_group_IT_number 2
_symmetry_cell_setting 'triclinic'
loop_
_space_group_symop_operation_xyz
x,y,z
-x,-y,-z
loop_
_atom_site_type_symbol
_atom_site_label
_atom_site_fract_x
_atom_site_fract_y
_atom_site_fract_z
Si Si1 0.205451 0.182416 0.669934
Si Si2 0.488450 0.140740 0.764694
Si Si3 0.960771 0.665544 0.854203
Si Si4 0.929819 0.201754 0.767634
Si Si5 0.303022 0.565918 0.992237
Si Si6 0.662048 0.857245 0.763623
O O1 0.333219 0.979771 0.504427
O O2 0.294158 0.321488 0.402001
O O3 0.168473 0.379689 0.818169
O O4 0.000000 0.000000 0.000000
O O5 0.469541 0.393764 0.705529
O O6 0.408951 0.273164 0.997379
O O7 0.353022 0.838086 0.971403
O O8 0.975052 0.370906 0.788308
O O9 0.892848 0.862023 0.876678
O O10 0.158842 0.874805 0.534767
O O11 0.754075 0.287334 0.016680
O O12 0.112279 0.324748 0.372326
O O13 0.500000 0.000000 0.000000
#
# Coordination Sequence:
#
# PCOD9055238 Si02
#       6
#     2   2   2   2   2   2
#     4   9  22  42  64  91 128 164 202 250 312 368
#     4  11  21  41  65  94 123 159 207 256 297 362
#     4  11  21  41  61  92 125 163 199 249 316 362
#     4  11  22  39  65  92 124 162 203 255 308 362
#     4  11  22  39  65  95 120 159 211 255 302 357
#     4   9  18  38  62  89 118 158 206 250 295 356
#
# _framework density 27.585163999999999
#
# number of rings (size 3 to 8) (size 9 to 14) (size 15 to 20)
#    0.000    1.667    3.333    1.000    0.000    4.000 
#    0.000   38.333    0.000    0.000    0.000    0.000 
#    0.000    0.000    0.000    0.000    0.000    0.000 
#
# Total GULP energy -67238.238791 kJ/mol
# GULP energy per Si atom -5603.186566 kJ/mol
# Density = 2.752238 g / cm^3
# Si number density = 27.585164 Si / 1000 Ang^3
#
#
#
# Elastic Constant Matrix: (Units=GPa)
#
#
# Indices 1 2 3 4 5 6 
#
# 1 105.5172 24.9099 44.8008 4.8571 -30.8315 -4.0187
# 2 24.9099 127.8260 18.7232 6.0706 -16.7037 -4.9818
# 3 44.8008 18.7232 87.8609 9.0771 -6.8926 -1.9874
# 4 4.8571 6.0706 9.0771 30.3295 -5.0426 -3.5704
# 5 -30.8315 -16.7037 -6.8926 -5.0426 57.7699 17.1761
# 6 -4.0187 -4.9818 -1.9874 -3.5704 17.1761 42.3309
#
#
#
# Elastic Compliance Matrix: (Units=1/GPa)
#
#
# Indices 1 2 3 4 5 6 
#
# 1 0.014646 -0.001012 -0.006811 0.000890 0.007373 -0.001965
# 2 -0.001012 0.008440 -0.001054 -0.000924 0.001666 0.000094
# 3 -0.006811 -0.001054 0.015262 -0.003622 -0.002647 0.000715
# 4 0.000890 -0.000924 -0.003622 0.034687 0.002265 0.001813
# 5 0.007373 0.001666 -0.002647 0.002265 0.024248 -0.008876
# 6 -0.001965 0.000094 0.000715 0.001813 -0.008876 0.027236
#
#
# Mechanical properties :
#
#
# Convention : Reuss Voigt Hill
#
# Bulk Modulus (GPa) = 48.55688 55.34133 51.94910
# Shear Modulus (GPa) = 33.52611 41.60406 37.56508
#
# Velocity S-wave (km/s) = 3.48999 3.88777 3.69424
# Velocity P-wave (km/s) = 5.82072 6.34497 6.08849
#
# Compressibility (1/GPa) = 0.02059441
#
# Stress axis : x y z
#
# Youngs Moduli (GPa) = 68.27637 118.48347 65.52338
#
# Poissons Ratio (x) = 0.11990 0.44625
# Poissons Ratio (y) = 0.06909 0.06908
# Poissons Ratio (z) = 0.46500 0.12492
#
# Static dielectric constant tensor:
#      x y z
#    x 2.154850 -0.001420 0.030710 
#    y -0.001420 2.015400 -0.044190 
#    z 0.030710 -0.044190 2.250960 
# 
# From -- ./inp_files/19623.got.cif
#   From: 2010.05.17/outbox.cif.g08.bks.cpg/sg2_10_cif.got.tgz:19623.got - 2010.06.03 11:33:40.
