data_PCOD9055779
_publ_section_title
;
Structure prediction by ZEFSAII (Michael W. Deem and Ramdas Pophale) SiO2 
 PCOD9055779
Probable space group: P -1
;
_chemical_formula_sum "Si O2"
_cell_formula_units_Z 16
_cell_length_a 5.867876
_cell_length_b 20.296909
_cell_length_c 22.911046
_cell_angle_alpha 157.667638
_cell_angle_beta 64.704621
_cell_angle_gamma 127.649819
_cell_volume 729.849933
_symmetry_space_group_name_H-M "P -1"
_symmetry_group_IT_number 2
_symmetry_cell_setting 'triclinic'
loop_
_space_group_symop_operation_xyz
x,y,z
-x,-y,-z
loop_
_atom_site_type_symbol
_atom_site_label
_atom_site_fract_x
_atom_site_fract_y
_atom_site_fract_z
Si Si1 0.314123 0.733949 0.634748
Si Si2 0.861431 0.668516 0.527382
Si Si3 0.791578 0.144652 0.479590
Si Si4 0.666783 0.890545 0.020191
Si Si5 0.606249 0.845881 0.857461
Si Si6 0.181411 0.484141 0.822829
Si Si7 0.356442 0.224743 0.638560
Si Si8 0.402806 0.649164 0.154076
O O1 0.615371 0.729469 0.603412
O O2 0.000000 0.500000 0.500000
O O3 0.174050 0.768657 0.618456
O O4 0.384331 0.926321 0.826158
O O5 0.641427 0.402368 0.343745
O O6 0.993309 0.737896 0.504014
O O7 0.521399 0.175598 0.533080
O O8 0.978874 0.277432 0.628376
O O9 0.600535 0.880148 0.286105
O O10 0.636864 0.799743 0.884371
O O11 0.395727 0.703736 0.940699
O O12 0.041798 0.016938 0.098660
O O13 0.500000 0.000000 0.000000
O O14 0.410925 0.443981 0.794361
O O15 0.977293 0.477442 0.894097
O O16 0.485064 0.268632 0.725186
O O17 0.000000 0.000000 0.500000
O O18 0.500000 0.500000 0.000000
#
# Coordination Sequence:
#
# PCOD9055779 Si02
#       8
#     2   2   2   2   2   2   2   2
#     4  12  27  50  71 104 149 192 232 293 367 425
#     4  12  28  46  76 104 144 194 234 293 361 424
#     4  11  24  43  68 100 134 181 237 287 348 425
#     4  11  26  43  68 100 138 181 238 293 349 427
#     4  11  25  43  70 102 135 186 238 295 345 422
#     4  11  23  44  68  96 134 183 231 288 350 418
#     4  11  21  43  71  90 131 185 228 285 346 422
#     4  11  25  42  65 101 136 172 229 288 356 415
#
# _framework density 21.922315999999999
#
# number of rings (size 3 to 8) (size 9 to 14) (size 15 to 20)
#    0.000    0.750    5.000    1.875    8.750    1.500 
#    0.000    0.000    0.000    0.000    0.000    0.000 
#    0.000    0.000    0.000    0.000    0.000    0.000 
#
# Total GULP energy -89163.117328 kJ/mol
# GULP energy per Si atom -5572.694833 kJ/mol
# Density = 2.187242 g / cm^3
# Si number density = 21.922316 Si / 1000 Ang^3
#
#
#
# Elastic Constant Matrix: (Units=GPa)
#
#
# Indices 1 2 3 4 5 6 
#
# 1 85.8467 27.2297 25.9480 -10.4208 -21.4607 13.5008
# 2 27.2297 114.7805 41.8246 3.9221 -17.0314 22.6235
# 3 25.9480 41.8246 102.8551 6.7823 -25.6097 22.5005
# 4 -10.4208 3.9221 6.7823 35.9461 -2.6439 -4.9830
# 5 -21.4607 -17.0314 -25.6097 -2.6439 40.7983 -14.0955
# 6 13.5008 22.6235 22.5005 -4.9830 -14.0955 38.1513
#
#
#
# Elastic Compliance Matrix: (Units=1/GPa)
#
#
# Indices 1 2 3 4 5 6 
#
# 1 0.015094 -0.002213 -0.001696 0.005401 0.006303 0.000005
# 2 -0.002213 0.011238 -0.002909 -0.001924 0.000058 -0.004395
# 3 -0.001696 -0.002909 0.013676 -0.003009 0.004773 -0.004370
# 4 0.005401 -0.001924 -0.003009 0.031437 0.004530 0.006784
# 5 0.006303 0.000058 0.004773 0.004530 0.033920 0.008043
# 6 0.000005 -0.004395 -0.004370 0.006784 0.008043 0.035251
#
#
# Mechanical properties :
#
#
# Convention : Reuss Voigt Hill
#
# Bulk Modulus (GPa) = 37.91829 54.83189 46.37509
# Shear Modulus (GPa) = 30.66720 36.87782 33.77251
#
# Velocity S-wave (km/s) = 3.74425 4.10592 3.92925
# Velocity P-wave (km/s) = 6.00223 6.89524 6.46417
#
# Compressibility (1/GPa) = 0.02637250
#
# Stress axis : x y z
#
# Youngs Moduli (GPa) = 66.25251 88.98515 73.12104
#
# Poissons Ratio (x) = 0.19694 0.12400
# Poissons Ratio (y) = 0.14663 0.21267
# Poissons Ratio (z) = 0.11235 0.25882
#
# Static dielectric constant tensor:
#      x y z
#    x 1.824280 -0.450890 0.004860 
#    y -0.450890 0.250860 -0.259570 
#    z 0.004860 -0.259570 1.670050 
# 
# From -- ./inp_files/39779.got.cif
#   From: 2010.05.17/outbox.cif.g08.bks.cpg/sg2_20_cif.got.tgz:39779.got - 2010.06.03 11:33:40.
