data_PCOD9055711
_publ_section_title
;
Structure prediction by ZEFSAII (Michael W. Deem and Ramdas Pophale) SiO2 
 PCOD9055711
Probable space group: P -1
;
_chemical_formula_sum "Si O2"
_cell_formula_units_Z 16
_cell_length_a 9.565737
_cell_length_b 9.297367
_cell_length_c 13.470432
_cell_angle_alpha 115.873778
_cell_angle_beta 86.501785
_cell_angle_gamma 48.857667
_cell_volume 696.421531
_symmetry_space_group_name_H-M "P -1"
_symmetry_group_IT_number 2
_symmetry_cell_setting 'triclinic'
loop_
_space_group_symop_operation_xyz
x,y,z
-x,-y,-z
loop_
_atom_site_type_symbol
_atom_site_label
_atom_site_fract_x
_atom_site_fract_y
_atom_site_fract_z
Si Si1 0.057703 0.125547 0.712205
Si Si2 0.578498 0.927448 0.862475
Si Si3 0.174890 0.487005 0.988153
Si Si4 0.654373 0.489638 0.705021
Si Si5 0.465692 0.456895 0.876673
Si Si6 0.785567 0.885432 0.680759
Si Si7 0.504880 0.888550 0.563465
Si Si8 0.234704 0.629640 0.554720
O O1 0.899407 0.340926 0.864631
O O2 0.899678 0.246699 0.660763
O O3 0.262261 0.061783 0.663337
O O4 0.151321 0.873994 0.668549
O O5 0.599192 0.724711 0.774802
O O6 0.793187 0.825501 0.778639
O O7 0.500000 0.000000 0.000000
O O8 0.394298 0.196528 0.902659
O O9 0.238870 0.556767 0.920304
O O10 0.000000 0.500000 0.000000
O O11 0.494566 0.552316 0.812781
O O12 0.649226 0.439050 0.576302
O O13 0.656929 0.163154 0.761811
O O14 0.500000 0.500000 0.000000
O O15 0.650228 0.864365 0.626198
O O16 0.017972 0.713505 0.572616
O O17 0.617206 0.618350 0.462825
O O18 0.500000 0.000000 0.500000
#
# Coordination Sequence:
#
# PCOD9055711 Si02
#       8
#     2   2   2   2   2   2   2   2
#     4  12  24  45  68 100 141 180 220 285 352 406
#     4  11  22  41  70 101 137 178 231 284 339 406
#     4  11  24  44  70  98 139 179 226 282 341 402
#     4  12  23  41  73 101 137 178 234 283 340 412
#     4  11  21  43  68 102 133 178 229 279 338 413
#     4  11  23  45  69  99 136 178 235 284 336 414
#     4  12  28  44  66 100 142 181 231 283 348 407
#     4  12  26  45  70 101 138 184 233 284 348 412
#
# _framework density 22.974592999999999
#
# number of rings (size 3 to 8) (size 9 to 14) (size 15 to 20)
#    0.000    0.500    5.000    4.125    3.500    0.000 
#    0.000    0.625    0.000    0.000    0.000    0.000 
#    0.000    0.000    0.000    0.000    0.000    0.000 
#
# Total GULP energy -89364.417589 kJ/mol
# GULP energy per Si atom -5585.276099 kJ/mol
# Density = 2.292230 g / cm^3
# Si number density = 22.974593 Si / 1000 Ang^3
#
#
#
# Elastic Constant Matrix: (Units=GPa)
#
#
# Indices 1 2 3 4 5 6 
#
# 1 123.6417 34.1945 28.4344 -3.9755 -30.5562 25.1800
# 2 34.1945 113.7169 45.7548 6.9926 -6.8551 38.4068
# 3 28.4344 45.7548 80.6607 13.3405 -5.6804 23.7093
# 4 -3.9755 6.9926 13.3405 44.6041 17.1889 -5.3468
# 5 -30.5562 -6.8551 -5.6804 17.1889 47.0425 1.6727
# 6 25.1800 38.4068 23.7093 -5.3468 1.6727 36.6007
#
#
#
# Elastic Compliance Matrix: (Units=1/GPa)
#
#
# Indices 1 2 3 4 5 6 
#
# 1 0.012319 0.000636 -0.000502 -0.003793 0.009769 -0.009817
# 2 0.000636 0.015973 -0.003389 -0.005199 0.004799 -0.015982
# 3 -0.000502 -0.003389 0.019133 -0.008306 0.004878 -0.009928
# 4 -0.003793 -0.005199 -0.008306 0.034431 -0.017490 0.019274
# 5 0.009769 0.004799 0.004878 -0.017490 0.035961 -0.019115
# 6 -0.009817 -0.015982 -0.009928 0.019274 -0.019115 0.060966
#
#
# Mechanical properties :
#
#
# Convention : Reuss Voigt Hill
#
# Bulk Modulus (GPa) = 24.44236 59.42072 41.93154
# Shear Modulus (GPa) = 25.13403 39.62517 32.37960
#
# Velocity S-wave (km/s) = 3.31114 4.15750 3.75822
# Velocity P-wave (km/s) = 5.02794 6.99759 6.09288
#
# Compressibility (1/GPa) = 0.04091258
#
# Stress axis : x y z
#
# Youngs Moduli (GPa) = 81.17425 62.60545 52.26671
#
# Poissons Ratio (x) = -0.03979 0.02626
# Poissons Ratio (y) = -0.05159 0.17715
# Poissons Ratio (z) = 0.04078 0.21219
#
# Static dielectric constant tensor:
#      x y z
#    x 1.971980 -0.004290 0.009570 
#    y -0.004290 1.864980 -0.079710 
#    z 0.009570 -0.079710 1.919210 
# 
# From -- ./inp_files/225505.got.cif
#   From: 2010.05.17/outbox.cif.g08.bks.cpg/sg2_113_cif.got.tgz:225505.got - 2010.06.03 11:33:40.
