data_PCOD9055604
_publ_section_title
;
Structure prediction by ZEFSAII (Michael W. Deem and Ramdas Pophale) SiO2 
 PCOD9055604
Probable space group: P -1
;
_chemical_formula_sum "Si O2"
_cell_formula_units_Z 14
_cell_length_a 6.891234
_cell_length_b 9.574624
_cell_length_c 13.539239
_cell_angle_alpha 51.018132
_cell_angle_beta 97.880705
_cell_angle_gamma 126.280271
_cell_volume 518.896708
_symmetry_space_group_name_H-M "P -1"
_symmetry_group_IT_number 2
_symmetry_cell_setting 'triclinic'
loop_
_space_group_symop_operation_xyz
x,y,z
-x,-y,-z
loop_
_atom_site_type_symbol
_atom_site_label
_atom_site_fract_x
_atom_site_fract_y
_atom_site_fract_z
Si Si1 0.981644 0.667355 0.358682
Si Si2 0.843268 0.825196 0.444799
Si Si3 0.028303 0.732731 0.811070
Si Si4 0.666438 0.843244 0.764016
Si Si5 0.689781 0.062061 0.075058
Si Si6 0.628845 0.432335 0.761475
Si Si7 0.193299 0.392968 0.844004
O O1 0.793472 0.685169 0.401869
O O2 0.890061 0.580139 0.280406
O O3 0.000000 0.500000 0.500000
O O4 0.241109 0.948420 0.246809
O O5 0.726924 0.655886 0.603952
O O6 0.799750 0.011076 0.347346
O O7 0.160662 0.996122 0.391428
O O8 0.806251 0.734837 0.843210
O O9 0.865276 0.522719 0.812000
O O10 0.197906 0.764658 0.899822
O O11 0.370019 0.639433 0.807792
O O12 0.505206 0.790180 0.220988
O O13 0.500000 0.000000 0.000000
O O14 0.953020 0.173477 0.985385
O O15 0.396717 0.358573 0.847794
#
# Coordination Sequence:
#
# PCOD9055604 Si02
#       7
#     2   2   2   2   2   2   2
#     4   9  20  37  59  95 130 165 195 256 328 371
#     4   8  19  40  65 102 120 149 220 261 316 363
#     4   8  20  41  65  93 121 166 207 268 311 360
#     4   7  19  38  61  94 121 153 215 260 299 370
#     4  12  28  41  58  93 135 171 213 250 310 384
#     4  11  21  42  71  93 123 165 213 268 305 372
#     4  11  23  40  64  90 125 171 214 254 306 373
#
# _framework density 26.980322000000001
#
# number of rings (size 3 to 8) (size 9 to 14) (size 15 to 20)
#    1.714    0.571    0.000    2.571    2.000    6.857 
#    0.000    0.000    0.000    0.000    0.000    0.000 
#    0.000    0.000    0.000    0.000    0.000    0.000 
#
# Total GULP energy -78117.779921 kJ/mol
# GULP energy per Si atom -5579.841423 kJ/mol
# Density = 2.691891 g / cm^3
# Si number density = 26.980322 Si / 1000 Ang^3
#
#
#
# Elastic Constant Matrix: (Units=GPa)
#
#
# Indices 1 2 3 4 5 6 
#
# 1 58.7215 52.1818 6.5272 -2.0028 -19.5818 8.9446
# 2 52.1818 254.1902 71.3826 12.9644 2.3143 11.7531
# 3 6.5272 71.3826 86.3492 2.2983 -3.5546 20.3228
# 4 -2.0028 12.9644 2.2983 35.5638 7.1378 -2.8502
# 5 -19.5818 2.3143 -3.5546 7.1378 36.7265 -1.4670
# 6 8.9446 11.7531 20.3228 -2.8502 -1.4670 52.7454
#
#
#
# Elastic Compliance Matrix: (Units=1/GPa)
#
#
# Indices 1 2 3 4 5 6 
#
# 1 0.029464 -0.007658 0.005978 0.000343 0.016499 -0.005116
# 2 -0.007658 0.007222 -0.005961 -0.001587 -0.004736 0.001769
# 3 0.005978 -0.005961 0.017776 -0.000168 0.005060 -0.006403
# 4 0.000343 -0.001587 -0.000168 0.029975 -0.005486 0.001827
# 5 0.016499 -0.004736 0.005060 -0.005486 0.037762 -0.002938
# 6 -0.005116 0.001769 -0.006403 0.001827 -0.002938 0.021917
#
#
# Mechanical properties :
#
#
# Convention : Reuss Voigt Hill
#
# Bulk Modulus (GPa) = 25.52321 73.27157 49.39739
# Shear Modulus (GPa) = 28.99255 42.95174 35.97215
#
# Velocity S-wave (km/s) = 3.28164 3.99427 3.65536
# Velocity P-wave (km/s) = 4.88255 6.96338 6.01365
#
# Compressibility (1/GPa) = 0.03918002
#
# Stress axis : x y z
#
# Youngs Moduli (GPa) = 33.94021 138.45846 56.25473
#
# Poissons Ratio (x) = 1.06037 -0.33629
# Poissons Ratio (y) = 0.25993 0.33531
# Poissons Ratio (z) = -0.20289 0.82530
#
# Static dielectric constant tensor:
#      x y z
#    x 2.234450 -0.054670 0.089440 
#    y -0.054670 2.138570 -0.054080 
#    z 0.089440 -0.054080 2.194770 
# 
# From -- ./inp_files/500068.got.cif
#   From: 2010.05.17/outbox.cif.g08.bks.cpg/sg2_251_cif.got.tgz:500068.got - 2010.06.03 11:33:40.
