data_PCOD9055805
_publ_section_title
;
Structure prediction by ZEFSAII (Michael W. Deem and Ramdas Pophale) SiO2 
 PCOD9055805
Probable space group: P -1
;
_chemical_formula_sum "Si O2"
_cell_formula_units_Z 14
_cell_length_a 12.931479
_cell_length_b 8.657577
_cell_length_c 8.940450
_cell_angle_alpha 85.418231
_cell_angle_beta 87.669482
_cell_angle_gamma 149.101600
_cell_volume 500.556081
_symmetry_space_group_name_H-M "P -1"
_symmetry_group_IT_number 2
_symmetry_cell_setting 'triclinic'
loop_
_space_group_symop_operation_xyz
x,y,z
-x,-y,-z
loop_
_atom_site_type_symbol
_atom_site_label
_atom_site_fract_x
_atom_site_fract_y
_atom_site_fract_z
Si Si1 0.789471 0.740512 0.221267
Si Si2 0.199885 0.269964 0.347893
Si Si3 0.163926 0.715050 0.175350
Si Si4 0.589739 0.744087 0.082175
Si Si5 0.674305 0.910928 0.574277
Si Si6 0.510667 0.125125 0.632424
Si Si7 0.214419 0.583026 0.917572
O O1 0.983677 0.986572 0.300199
O O2 0.771201 0.887659 0.141914
O O3 0.562944 0.419968 0.331736
O O4 0.811989 0.630406 0.108876
O O5 0.399838 0.543696 0.209576
O O6 0.229457 0.136392 0.426400
O O7 0.258415 0.502678 0.414401
O O8 0.957216 0.536457 0.150194
O O9 0.211944 0.825411 0.335535
O O10 0.179961 0.572507 0.097060
O O11 0.336573 0.026162 0.044460
O O12 0.500000 0.500000 0.000000
O O13 0.650986 0.950801 0.407400
O O14 0.422638 0.917981 0.796827
O O15 0.500000 0.000000 0.500000
#
# Coordination Sequence:
#
# PCOD9055805 Si02
#       7
#     2   2   2   2   2   2   2
#     4  11  23  44  72 107 139 185 238 292 345 431
#     4  11  24  46  72 102 140 191 235 294 349 425
#     4  11  23  46  71 107 142 186 233 294 361 414
#     4  11  21  43  72 104 143 181 238 288 356 418
#     4  11  24  47  72 104 145 188 238 291 353 423
#     4  12  26  48  71 106 143 189 240 292 355 424
#     4  11  24  46  72 105 146 183 236 295 355 419
#
# _framework density 27.968896999999998
#
# number of rings (size 3 to 8) (size 9 to 14) (size 15 to 20)
#    0.000    0.857    7.143    0.429    0.000    4.000 
#    7.714    1.429    0.000    0.000    0.000    0.000 
#    0.000    0.000    0.000    0.000    0.000    0.000 
#
# Total GULP energy -78438.608158 kJ/mol
# GULP energy per Si atom -5602.757726 kJ/mol
# Density = 2.790524 g / cm^3
# Si number density = 27.968897 Si / 1000 Ang^3
#
#
#
# Elastic Constant Matrix: (Units=GPa)
#
#
# Indices 1 2 3 4 5 6 
#
# 1 160.1305 62.6088 46.4581 23.9169 18.0203 10.8802
# 2 62.6088 171.3339 57.8898 39.2186 -5.7853 5.8462
# 3 46.4581 57.8898 84.9923 12.2505 -5.8380 -3.0096
# 4 23.9169 39.2186 12.2505 60.0109 -3.3860 2.5427
# 5 18.0203 -5.7853 -5.8380 -3.3860 51.1787 10.1970
# 6 10.8802 5.8462 -3.0096 2.5427 10.1970 53.5840
#
#
#
# Elastic Compliance Matrix: (Units=1/GPa)
#
#
# Indices 1 2 3 4 5 6 
#
# 1 0.008680 -0.001599 -0.003675 -0.001822 -0.003572 -0.001028
# 2 -0.001599 0.009010 -0.004622 -0.004216 0.000955 -0.000900
# 3 -0.003675 -0.004622 0.016994 0.001082 0.002445 0.001688
# 4 -0.001822 -0.004216 0.001082 0.020036 0.001690 -0.000382
# 5 -0.003572 0.000955 0.002445 0.001690 0.021995 -0.003507
# 6 -0.001028 -0.000900 0.001688 -0.000382 -0.003507 0.019750
#
#
# Mechanical properties :
#
#
# Convention : Reuss Voigt Hill
#
# Bulk Modulus (GPa) = 67.14143 83.37444 75.25794
# Shear Modulus (GPa) = 41.24725 49.58805 45.41765
#
# Velocity S-wave (km/s) = 3.84442 4.21523 4.03409
# Velocity P-wave (km/s) = 6.61543 7.31884 6.97600
#
# Compressibility (1/GPa) = 0.01489393
#
# Stress axis : x y z
#
# Youngs Moduli (GPa) = 115.20503 110.98436 58.84305
#
# Poissons Ratio (x) = 0.17742 0.21625
# Poissons Ratio (y) = 0.18416 0.27197
# Poissons Ratio (z) = 0.42338 0.51296
#
# Static dielectric constant tensor:
#      x y z
#    x 2.320600 -0.121960 0.018910 
#    y -0.121960 2.300190 0.027680 
#    z 0.018910 0.027680 2.227510 
# 
# From -- ./inp_files/260745.got.cif
#   From: 2010.05.17/outbox.cif.g08.bks.cpg/sg2_131_cif.got.tgz:260745.got - 2010.06.03 11:33:40.
