data_PCOD9055641
_publ_section_title
;
Structure prediction by ZEFSAII (Michael W. Deem and Ramdas Pophale) SiO2 
 PCOD9055641
Probable space group: P -1
;
_chemical_formula_sum "Si O2"
_cell_formula_units_Z 14
_cell_length_a 5.664013
_cell_length_b 12.429568
_cell_length_c 9.176086
_cell_angle_alpha 101.687153
_cell_angle_beta 82.017153
_cell_angle_gamma 106.699199
_cell_volume 603.690206
_symmetry_space_group_name_H-M "P -1"
_symmetry_group_IT_number 2
_symmetry_cell_setting 'triclinic'
loop_
_space_group_symop_operation_xyz
x,y,z
-x,-y,-z
loop_
_atom_site_type_symbol
_atom_site_label
_atom_site_fract_x
_atom_site_fract_y
_atom_site_fract_z
Si Si1 0.687338 0.944286 0.884462
Si Si2 0.231882 0.999003 0.585554
Si Si3 0.315034 0.551135 0.123515
Si Si4 0.297627 0.562625 0.468939
Si Si5 0.923151 0.326702 0.025943
Si Si6 0.298869 0.794921 0.693525
Si Si7 0.837046 0.847934 0.130108
O O1 0.565343 0.874491 0.737048
O O2 0.748400 0.862623 0.979059
O O3 0.910027 0.050635 0.854138
O O4 0.500000 0.000000 0.000000
O O5 0.161829 0.879613 0.650627
O O6 0.500000 0.000000 0.500000
O O7 0.301399 0.110866 0.715198
O O8 0.000000 0.000000 0.500000
O O9 0.361675 0.573761 0.295010
O O10 0.058396 0.450568 0.110865
O O11 0.500000 0.500000 0.000000
O O12 0.283332 0.658696 0.064881
O O13 0.500000 0.500000 0.500000
O O14 0.323996 0.686403 0.571668
O O15 0.000000 0.500000 0.500000
O O16 0.824063 0.248828 0.151938
O O17 0.106931 0.273009 0.902602
#
# Coordination Sequence:
#
# PCOD9055641 Si02
#       7
#     2   2   2   2   2   2   2
#     4  11  21  42  73 110 139 193 258 319 372 470
#     4  12  29  48  71 112 164 205 258 322 393 476
#     4  11  27  50  74 116 155 199 271 332 387 468
#     4  12  29  51  82 115 157 207 267 325 400 473
#     4  11  25  45  80 108 149 201 265 326 391 461
#     4  12  25  50  80 109 158 211 259 324 404 466
#     4  11  24  42  74 108 150 194 262 311 388 465
#
# _framework density 23.190702000000002
#
# number of rings (size 3 to 8) (size 9 to 14) (size 15 to 20)
#    0.000    0.571    4.286    2.571    8.000    3.429 
#    0.000    0.000    0.000    0.000    0.000    0.000 
#    0.000    0.000    0.000    0.000    0.000    0.000 
#
# Total GULP energy -78267.094707 kJ/mol
# GULP energy per Si atom -5590.506765 kJ/mol
# Density = 2.313792 g / cm^3
# Si number density = 23.190702 Si / 1000 Ang^3
#
#
#
# Elastic Constant Matrix: (Units=GPa)
#
#
# Indices 1 2 3 4 5 6 
#
# 1 111.9095 41.4296 59.4111 -1.5399 11.2380 -15.1762
# 2 41.4296 117.1547 59.0211 8.5652 20.3751 -25.1399
# 3 59.4111 59.0211 182.3884 11.5748 8.8066 -28.2832
# 4 -1.5399 8.5652 11.5748 54.4844 0.0459 -9.6781
# 5 11.2380 20.3751 8.8066 0.0459 50.4419 2.4677
# 6 -15.1762 -25.1399 -28.2832 -9.6781 2.4677 38.9025
#
#
#
# Elastic Compliance Matrix: (Units=1/GPa)
#
#
# Indices 1 2 3 4 5 6 
#
# 1 0.011641 -0.002249 -0.002875 0.001554 -0.001256 0.001464
# 2 -0.002249 0.012466 -0.002160 -0.000538 -0.004438 0.005755
# 3 -0.002875 -0.002160 0.007604 -0.000861 0.000050 0.002793
# 4 0.001554 -0.000538 -0.000861 0.019463 -0.000216 0.004488
# 5 -0.001256 -0.004438 0.000050 -0.000216 0.022123 -0.004779
# 6 0.001464 0.005755 0.002793 0.004488 -0.004779 0.033446
#
#
# Mechanical properties :
#
#
# Convention : Reuss Voigt Hill
#
# Bulk Modulus (GPa) = 58.33932 81.24181 69.79056
# Shear Modulus (GPa) = 39.36249 45.53847 42.45048
#
# Velocity S-wave (km/s) = 4.12435 4.43612 4.28307
# Velocity P-wave (km/s) = 6.92035 7.83243 7.39048
#
# Compressibility (1/GPa) = 0.01714110
#
# Stress axis : x y z
#
# Youngs Moduli (GPa) = 85.90468 80.22031 131.51379
#
# Poissons Ratio (x) = 0.18044 0.37810
# Poissons Ratio (y) = 0.19322 0.28411
# Poissons Ratio (z) = 0.24698 0.17330
#
# Static dielectric constant tensor:
#      x y z
#    x 1.948190 0.035940 -0.011510 
#    y 0.035940 1.875870 -0.031980 
#    z -0.011510 -0.031980 1.908410 
# 
# From -- ./inp_files/131770.got.cif
#   From: 2010.05.17/outbox.cif.g08.bks.cpg/sg2_66_cif.got.tgz:131770.got - 2010.06.03 11:33:40.
