data_PCOD9055293
_publ_section_title
;
Structure prediction by ZEFSAII (Michael W. Deem and Ramdas Pophale) SiO2 
 PCOD9055293
Probable space group: P -1
;
_chemical_formula_sum "Si O2"
_cell_formula_units_Z 16
_cell_length_a 12.047126
_cell_length_b 9.299708
_cell_length_c 12.565956
_cell_angle_alpha 74.500880
_cell_angle_beta 48.208598
_cell_angle_gamma 53.013285
_cell_volume 817.019646
_symmetry_space_group_name_H-M "P -1"
_symmetry_group_IT_number 2
_symmetry_cell_setting 'triclinic'
loop_
_space_group_symop_operation_xyz
x,y,z
-x,-y,-z
loop_
_atom_site_type_symbol
_atom_site_label
_atom_site_fract_x
_atom_site_fract_y
_atom_site_fract_z
Si Si1 0.419496 0.975989 0.663302
Si Si2 0.678695 0.287548 0.929409
Si Si3 0.883161 0.609799 0.206037
Si Si4 0.257714 0.462402 0.876910
Si Si5 0.216172 0.831564 0.885218
Si Si6 0.241926 0.215413 0.354100
Si Si7 0.581298 0.093049 0.862292
Si Si8 0.053588 0.605065 0.311968
O O1 0.327849 0.869683 0.725376
O O2 0.581138 0.879614 0.664749
O O3 0.500000 0.000000 0.500000
O O4 0.248778 0.173074 0.777255
O O5 0.662090 0.171875 0.872717
O O6 0.852559 0.297944 0.806230
O O7 0.500000 0.500000 0.000000
O O8 0.698323 0.194364 0.047709
O O9 0.777819 0.539828 0.226030
O O10 0.925052 0.601249 0.306006
O O11 0.080988 0.504423 0.045326
O O12 0.256439 0.636987 0.869994
O O13 0.428670 0.268650 0.853066
O O14 0.000000 0.000000 0.000000
O O15 0.066709 0.294268 0.526524
O O16 0.210127 0.391960 0.281381
O O17 0.271450 0.068812 0.278580
O O18 0.500000 0.000000 0.000000
#
# Coordination Sequence:
#
# PCOD9055293 Si02
#       8
#     2   2   2   2   2   2   2   2
#     4  12  23  42  69  94 132 182 221 269 336 410
#     4  12  23  41  71  97 133 173 225 281 330 397
#     4  11  21  41  66  96 134 170 214 279 332 393
#     4  11  23  39  68  99 135 168 224 282 331 392
#     4  12  24  41  65 104 129 174 225 274 333 392
#     4  11  25  41  68  95 133 181 223 270 343 408
#     4  12  24  41  66 101 136 173 226 278 335 397
#     4  11  23  45  66  98 132 177 224 275 341 401
#
# _framework density 19.583373000000002
#
# number of rings (size 3 to 8) (size 9 to 14) (size 15 to 20)
#    0.000    0.500    6.250    3.000    0.000    1.500 
#    0.000    0.625    5.500    0.000    0.000    0.000 
#    0.000    0.000    0.000    0.000    0.000    0.000 
#
# Total GULP energy -89346.307676 kJ/mol
# GULP energy per Si atom -5584.144230 kJ/mol
# Density = 1.953880 g / cm^3
# Si number density = 19.583373 Si / 1000 Ang^3
#
#
#
# Elastic Constant Matrix: (Units=GPa)
#
#
# Indices 1 2 3 4 5 6 
#
# 1 125.2409 49.3967 33.9459 1.6678 27.5619 9.1660
# 2 49.3967 111.0628 32.5659 11.7368 12.1882 -2.0505
# 3 33.9459 32.5659 71.9164 -3.9559 9.0752 15.6423
# 4 1.6678 11.7368 -3.9559 34.7623 8.1969 2.4054
# 5 27.5619 12.1882 9.0752 8.1969 25.2862 7.7421
# 6 9.1660 -2.0505 15.6423 2.4054 7.7421 39.3916
#
#
#
# Elastic Compliance Matrix: (Units=1/GPa)
#
#
# Indices 1 2 3 4 5 6 
#
# 1 0.012921 -0.003999 -0.002552 0.003346 -0.012331 0.000018
# 2 -0.003999 0.012836 -0.005102 -0.005101 0.000480 0.003842
# 3 -0.002552 -0.005102 0.019440 0.004812 -0.001003 -0.007488
# 4 0.003346 -0.005101 0.004812 0.034168 -0.013245 -0.002438
# 5 -0.012331 0.000480 -0.001003 -0.013245 0.059750 -0.007642
# 6 0.000018 0.003842 -0.007488 -0.002438 -0.007642 0.030206
#
#
# Mechanical properties :
#
#
# Convention : Reuss Voigt Hill
#
# Bulk Modulus (GPa) = 45.67926 60.00412 52.84169
# Shear Modulus (GPa) = 25.00961 32.70880 28.85921
#
# Velocity S-wave (km/s) = 3.57751 4.09128 3.84299
# Velocity P-wave (km/s) = 6.35932 7.28183 6.83615
#
# Compressibility (1/GPa) = 0.02189177
#
# Stress axis : x y z
#
# Youngs Moduli (GPa) = 77.39159 77.90825 51.44075
#
# Poissons Ratio (x) = 0.31152 0.13129
# Poissons Ratio (y) = 0.30946 0.26243
# Poissons Ratio (z) = 0.19752 0.39746
#
# Static dielectric constant tensor:
#      x y z
#    x 1.733460 0.002810 0.006150 
#    y 0.002810 1.686350 -0.009230 
#    z 0.006150 -0.009230 1.706560 
# 
# From -- ./inp_files/223427.got.cif
#   From: 2010.05.17/outbox.cif.g08.bks.cpg/sg2_112_cif.got.tgz:223427.got - 2010.06.03 11:33:40.
