data_PCOD9055966
_publ_section_title
;
Structure prediction by ZEFSAII (Michael W. Deem and Ramdas Pophale) SiO2 
 PCOD9055966
Probable space group: P -1
;
_chemical_formula_sum "Si O2"
_cell_formula_units_Z 16
_cell_length_a 5.788280
_cell_length_b 20.194669
_cell_length_c 17.272897
_cell_angle_alpha 24.686974
_cell_angle_beta 122.007130
_cell_angle_gamma 115.397533
_cell_volume 707.134911
_symmetry_space_group_name_H-M "P -1"
_symmetry_group_IT_number 2
_symmetry_cell_setting 'triclinic'
loop_
_space_group_symop_operation_xyz
x,y,z
-x,-y,-z
loop_
_atom_site_type_symbol
_atom_site_label
_atom_site_fract_x
_atom_site_fract_y
_atom_site_fract_z
Si Si1 0.794617 0.976229 0.215839
Si Si2 0.069295 0.585902 0.000836
Si Si3 0.668940 0.588080 0.116346
Si Si4 0.163863 0.689539 0.663451
Si Si5 0.738783 0.409460 0.540128
Si Si6 0.835519 0.096625 0.798471
Si Si7 0.601148 0.812641 0.717791
Si Si8 0.784349 0.336477 0.800117
O O1 0.476563 0.948813 0.203023
O O2 0.977876 0.855024 0.434744
O O3 0.966170 0.935717 0.207686
O O4 0.793062 0.165258 0.023583
O O5 0.353476 0.625811 0.042457
O O6 0.000447 0.450439 0.191155
O O7 0.000000 0.500000 0.000000
O O8 0.877798 0.757334 0.778250
O O9 0.683104 0.404908 0.281780
O O10 0.920125 0.605492 0.198229
O O11 0.674430 0.723673 0.906414
O O12 0.375390 0.721033 0.733907
O O13 0.793467 0.282934 0.615925
O O14 0.717622 0.321067 0.713238
O O15 0.458759 0.532003 0.350662
O O16 0.000000 0.500000 0.500000
O O17 0.000000 0.000000 0.000000
O O18 0.500000 0.000000 0.500000
#
# Coordination Sequence:
#
# PCOD9055966 Si02
#       8
#     2   2   2   2   2   2   2   2
#     4  12  28  47  73 110 146 190 244 305 365 436
#     4  11  21  44  73  97 133 193 239 287 356 434
#     4  11  23  44  70  99 140 184 239 288 359 430
#     4  11  24  43  69 102 140 183 241 291 360 430
#     4  11  26  45  76 102 142 192 241 298 368 436
#     4  12  26  49  76 103 145 194 241 299 371 434
#     4  11  23  42  66 100 139 180 229 298 354 422
#     4  11  26  46  68 108 143 185 241 305 359 434
#
# _framework density 22.626518999999998
#
# number of rings (size 3 to 8) (size 9 to 14) (size 15 to 20)
#    0.000    0.750    3.750    3.375    7.000    2.500 
#    2.250    0.000    0.000    0.000    0.000    0.000 
#    0.000    0.000    0.000    0.000    0.000    0.000 
#
# Total GULP energy -89291.265363 kJ/mol
# GULP energy per Si atom -5580.704085 kJ/mol
# Density = 2.257502 g / cm^3
# Si number density = 22.626519 Si / 1000 Ang^3
#
#
#
# Elastic Constant Matrix: (Units=GPa)
#
#
# Indices 1 2 3 4 5 6 
#
# 1 77.4762 35.7102 25.2301 4.5129 20.4101 21.3724
# 2 35.7102 92.0219 39.1863 -1.4736 16.8662 20.3929
# 3 25.2301 39.1863 168.8857 -6.7775 20.9640 4.7504
# 4 4.5129 -1.4736 -6.7775 47.6032 2.8128 -2.3489
# 5 20.4101 16.8662 20.9640 2.8128 36.8314 5.2168
# 6 21.3724 20.3929 4.7504 -2.3489 5.2168 40.6971
#
#
#
# Elastic Compliance Matrix: (Units=1/GPa)
#
#
# Indices 1 2 3 4 5 6 
#
# 1 0.019015 -0.004208 -0.000883 -0.001992 -0.006965 -0.006997
# 2 -0.004208 0.015035 -0.002392 0.000444 -0.002561 -0.004691
# 3 -0.000883 -0.002392 0.006950 0.001217 -0.002642 0.001260
# 4 -0.001992 0.000444 0.001217 0.021592 -0.001746 0.002152
# 5 -0.006965 -0.002561 -0.002642 -0.001746 0.033703 0.000828
# 6 -0.006997 -0.004691 0.001260 0.002152 0.000828 0.030467
#
#
# Mechanical properties :
#
#
# Convention : Reuss Voigt Hill
#
# Bulk Modulus (GPa) = 38.41285 59.84853 49.13069
# Shear Modulus (GPa) = 33.24346 40.91016 37.07681
#
# Velocity S-wave (km/s) = 3.83721 4.25674 4.05241
# Velocity P-wave (km/s) = 6.05359 7.11814 6.60734
#
# Compressibility (1/GPa) = 0.02603296
#
# Stress axis : x y z
#
# Youngs Moduli (GPa) = 52.58993 66.51331 143.89464
#
# Poissons Ratio (x) = 0.27988 0.12705
# Poissons Ratio (y) = 0.22130 0.34422
# Poissons Ratio (z) = 0.04644 0.15911
#
# Static dielectric constant tensor:
#      x y z
#    x 2.022640 -0.066870 0.016110 
#    y -0.066870 1.869010 0.025490 
#    z 0.016110 0.025490 1.793460 
# 
# From -- ./inp_files/584437.got.cif
#   From: 2010.05.17/outbox.cif.g08.bks.cpg/sg2_293_cif.got.tgz:584437.got - 2010.06.03 11:33:40.
