data_PCOD9055365
_publ_section_title
;
Structure prediction by ZEFSAII (Michael W. Deem and Ramdas Pophale) SiO2 
 PCOD9055365
Probable space group: P -1
;
_chemical_formula_sum "Si O2"
_cell_formula_units_Z 14
_cell_length_a 20.028940
_cell_length_b 14.095725
_cell_length_c 8.945837
_cell_angle_alpha 48.500246
_cell_angle_beta 30.723897
_cell_angle_gamma 30.473218
_cell_volume 623.798007
_symmetry_space_group_name_H-M "P -1"
_symmetry_group_IT_number 2
_symmetry_cell_setting 'triclinic'
loop_
_space_group_symop_operation_xyz
x,y,z
-x,-y,-z
loop_
_atom_site_type_symbol
_atom_site_label
_atom_site_fract_x
_atom_site_fract_y
_atom_site_fract_z
Si Si1 0.282373 0.642745 0.187848
Si Si2 0.063258 0.761055 0.784104
Si Si3 0.343396 0.720537 0.496849
Si Si4 0.646949 0.781813 0.015394
Si Si5 0.316812 0.377140 0.191128
Si Si6 0.293992 0.882103 0.719133
Si Si7 0.008228 0.515688 0.142702
O O1 0.112716 0.768039 0.513169
O O2 0.245394 0.547111 0.255353
O O3 0.500000 0.500000 0.000000
O O4 0.292400 0.751033 0.943453
O O5 0.198506 0.745484 0.648560
O O6 0.104240 0.582854 0.904013
O O7 0.843092 0.935607 0.097115
O O8 0.500000 0.500000 0.500000
O O9 0.234004 0.883815 0.664860
O O10 0.456752 0.739936 0.154505
O O11 0.499604 0.805369 0.375291
O O12 0.735874 0.626432 0.873670
O O13 0.838000 0.685925 0.846161
O O14 0.500000 0.000000 0.000000
O O15 0.219288 0.332744 0.515102
O O16 0.000000 0.500000 0.000000
#
# Coordination Sequence:
#
# PCOD9055365 Si02
#       7
#     2   2   2   2   2   2   2
#     4  12  22  43  69 102 141 181 229 287 356 417
#     4  12  24  44  68 101 142 179 229 294 349 417
#     4  11  21  41  69  97 129 178 227 283 340 412
#     4  11  26  49  71 101 143 187 236 291 348 422
#     4  11  23  43  70 101 136 186 234 282 353 419
#     4  11  25  42  70 105 135 179 237 289 350 415
#     4  12  26  46  73 104 138 189 234 287 355 417
#
# _framework density 22.443162999999998
#
# number of rings (size 3 to 8) (size 9 to 14) (size 15 to 20)
#    0.000    0.571    4.286    4.714    0.000    1.143 
#    7.714    1.429    0.000    0.000    0.000    0.000 
#    0.000    0.000    0.000    0.000    0.000    0.000 
#
# Total GULP energy -77991.948414 kJ/mol
# GULP energy per Si atom -5570.853458 kJ/mol
# Density = 2.239208 g / cm^3
# Si number density = 22.443163 Si / 1000 Ang^3
#
#
#
# Elastic Constant Matrix: (Units=GPa)
#
#
# Indices 1 2 3 4 5 6 
#
# 1 117.4035 43.8644 54.9289 14.8596 17.3878 14.3495
# 2 43.8644 14.6924 17.3135 -14.4855 2.6462 18.6918
# 3 54.9289 17.3135 191.5149 -17.3871 31.2468 10.2415
# 4 14.8596 -14.4855 -17.3871 28.6602 15.9929 4.5528
# 5 17.3878 2.6462 31.2468 15.9929 52.5427 0.7171
# 6 14.3495 18.6918 10.2415 4.5528 0.7171 10.0118
#
#
#
# Elastic Compliance Matrix: (Units=1/GPa)
#
#
# Indices 1 2 3 4 5 6 
#
# 1 0.010228 0.005681 -0.001355 0.002523 -0.003295 -0.024790
# 2 0.005681 -0.014721 -0.006129 -0.025311 0.009714 0.036427
# 3 -0.001355 -0.006129 0.006964 0.003576 -0.004541 0.004960
# 4 0.002523 -0.025311 0.003576 0.023319 -0.009194 0.030036
# 5 -0.003295 0.009714 -0.004541 -0.009194 0.025219 -0.006393
# 6 -0.024790 0.036427 0.004960 0.030036 -0.006393 0.049130
#
#
# Mechanical properties :
#
#
# Convention : Reuss Voigt Hill
#
# Bulk Modulus (GPa) = -880.35749 61.75825 -409.29962
# Shear Modulus (GPa) = 48.37143 32.07654 40.22399
#
# Velocity S-wave (km/s) = 4.64754 3.78462 4.23810
# Velocity P-wave (km/s) = 19.08698 6.83192 12.60234
#
# Compressibility (1/GPa) = -0.00113590
#
# Stress axis : x y z
#
# Youngs Moduli (GPa) = 97.77468 -67.92808 143.58774
#
# Poissons Ratio (x) = 0.38587 0.19451
# Poissons Ratio (y) = -0.55542 0.88007
# Poissons Ratio (z) = 0.13245 -0.41634
#
# Static dielectric constant tensor:
#      x y z
#    x 2.273760 0.248180 0.006950 
#    y 0.248180 1.970570 -0.036320 
#    z 0.006950 -0.036320 1.866360 
# 
# From -- ./inp_files/347483.got.cif
#   From: 2010.05.17/outbox.cif.g08.bks.cpg/sg2_174_cif.got.tgz:347483.got - 2010.06.03 11:33:40.
