data_PCOD9055706
_publ_section_title
;
Structure prediction by ZEFSAII (Michael W. Deem and Ramdas Pophale) SiO2 
 PCOD9055706
Probable space group: P -1
;
_chemical_formula_sum "Si O2"
_cell_formula_units_Z 14
_cell_length_a 7.864809
_cell_length_b 8.710553
_cell_length_c 17.391148
_cell_angle_alpha 100.642745
_cell_angle_beta 103.037634
_cell_angle_gamma 34.878278
_cell_volume 663.728837
_symmetry_space_group_name_H-M "P -1"
_symmetry_group_IT_number 2
_symmetry_cell_setting 'triclinic'
loop_
_space_group_symop_operation_xyz
x,y,z
-x,-y,-z
loop_
_atom_site_type_symbol
_atom_site_label
_atom_site_fract_x
_atom_site_fract_y
_atom_site_fract_z
Si Si1 0.419378 0.308941 0.822911
Si Si2 0.903655 0.191833 0.822798
Si Si3 0.221480 0.250169 0.942830
Si Si4 0.215630 0.213205 0.264532
Si Si5 0.451228 0.714303 0.735363
Si Si6 0.865225 0.536896 0.568287
Si Si7 0.800938 0.032025 0.431714
O O1 0.677067 0.250195 0.853626
O O2 0.350169 0.260702 0.887452
O O3 0.096672 0.603964 0.789887
O O4 0.551774 0.096322 0.751213
O O5 0.699096 0.404834 0.751097
O O6 0.037453 0.239921 0.887289
O O7 0.193302 0.897020 0.789758
O O8 0.000000 0.500000 0.000000
O O9 0.500000 0.000000 0.000000
O O10 0.370991 0.249706 0.242551
O O11 0.142433 0.327231 0.352883
O O12 0.289289 0.829268 0.647056
O O13 0.000000 0.500000 0.500000
O O14 0.039198 0.253468 0.587158
O O15 0.517053 0.754418 0.539189
O O16 0.000000 0.000000 0.500000
#
# Coordination Sequence:
#
# PCOD9055706 Si02
#       7
#     2   2   2   2   2   2   2
#     4  12  25  43  71 104 131 175 234 274 334 411
#     4  12  25  43  71 104 131 175 234 274 334 411
#     4  12  26  46  72 100 142 178 212 284 354 404
#     4  11  21  43  67  93 134 184 226 280 338 404
#     4  11  21  43  67  93 134 184 226 280 338 404
#     4  11  24  41  64  96 137 183 227 283 343 397
#     4  11  24  41  64  96 137 183 227 283 343 397
#
# _framework density 21.092952
#
# number of rings (size 3 to 8) (size 9 to 14) (size 15 to 20)
#    0.000    0.571    2.857    6.857    0.000    4.571 
#    0.000    0.000    0.000    0.000    0.000    0.000 
#    0.000    0.000    0.000    0.000    0.000    0.000 
#
# Total GULP energy -78313.396192 kJ/mol
# GULP energy per Si atom -5593.814014 kJ/mol
# Density = 2.104494 g / cm^3
# Si number density = 21.092952 Si / 1000 Ang^3
#
#
#
# Elastic Constant Matrix: (Units=GPa)
#
#
# Indices 1 2 3 4 5 6 
#
# 1 161.1652 17.7571 70.6459 1.0245 -3.2333 -27.0221
# 2 17.7571 115.3658 36.3220 4.3786 0.6640 -17.6192
# 3 70.6459 36.3220 114.5935 3.0714 -0.5988 -9.2302
# 4 1.0245 4.3786 3.0714 17.1759 -11.5831 -2.0996
# 5 -3.2333 0.6640 -0.5988 -11.5831 15.0753 0.9875
# 6 -27.0221 -17.6192 -9.2302 -2.0996 0.9875 40.6792
#
#
#
# Elastic Compliance Matrix: (Units=1/GPa)
#
#
# Indices 1 2 3 4 5 6 
#
# 1 0.009706 0.001070 -0.005948 0.003873 0.004404 0.005654
# 2 0.001070 0.010456 -0.003534 -0.004173 -0.003861 0.004316
# 3 -0.005948 -0.003534 0.013388 -0.003599 -0.003187 -0.002553
# 4 0.003873 -0.004173 -0.003599 0.125777 0.097245 0.004080
# 5 0.004404 -0.003861 -0.003187 0.097245 0.141902 0.002105
# 6 0.005654 0.004316 -0.002553 0.004080 0.002105 0.029788
#
#
# Mechanical properties :
#
#
# Convention : Reuss Voigt Hill
#
# Bulk Modulus (GPa) = 59.79211 71.17493 65.48352
# Shear Modulus (GPa) = 14.14760 32.34603 23.24682
#
# Velocity S-wave (km/s) = 2.59265 3.92024 3.32341
# Velocity P-wave (km/s) = 6.11318 7.36938 6.77048
#
# Compressibility (1/GPa) = 0.01672462
#
# Stress axis : x y z
#
# Youngs Moduli (GPa) = 103.02866 95.63940 74.69364
#
# Poissons Ratio (x) = -0.10233 0.44429
# Poissons Ratio (y) = -0.11024 0.26400
# Poissons Ratio (z) = 0.61283 0.33804
#
# Static dielectric constant tensor:
#      x y z
#    x 1.774080 0.024960 0.000290 
#    y 0.024960 1.719080 -0.000900 
#    z 0.000290 -0.000900 1.746550 
# 
# From -- ./inp_files/556286.got.cif
#   From: 2010.05.17/outbox.cif.g08.bks.cpg/sg2_279_cif.got.tgz:556286.got - 2010.06.03 11:33:40.
