data_PCOD9055470
_publ_section_title
;
Structure prediction by ZEFSAII (Michael W. Deem and Ramdas Pophale) SiO2 
 PCOD9055470
Probable space group: P -1
;
_chemical_formula_sum "Si O2"
_cell_formula_units_Z 16
_cell_length_a 15.453659
_cell_length_b 14.245733
_cell_length_c 14.156670
_cell_angle_alpha 29.574403
_cell_angle_beta 150.562945
_cell_angle_gamma 142.728862
_cell_volume 746.465775
_symmetry_space_group_name_H-M "P -1"
_symmetry_group_IT_number 2
_symmetry_cell_setting 'triclinic'
loop_
_space_group_symop_operation_xyz
x,y,z
-x,-y,-z
loop_
_atom_site_type_symbol
_atom_site_label
_atom_site_fract_x
_atom_site_fract_y
_atom_site_fract_z
Si Si1 0.278508 0.397190 0.984668
Si Si2 0.289616 0.973392 0.340345
Si Si3 0.596279 0.655724 0.151516
Si Si4 0.813419 0.438706 0.425474
Si Si5 0.718043 0.583450 0.528755
Si Si6 0.349057 0.317977 0.417535
Si Si7 0.894503 0.455819 0.140749
Si Si8 0.311898 0.914237 0.630264
O O1 0.452135 0.461863 0.159657
O O2 0.243669 0.184807 0.094792
O O3 0.312399 0.543219 0.801343
O O4 0.118273 0.425654 0.877731
O O5 0.210746 0.783448 0.373520
O O6 0.243583 0.931240 0.443903
O O7 0.500000 0.000000 0.500000
O O8 0.768852 0.597671 0.316448
O O9 0.645152 0.687755 0.278758
O O10 0.499544 0.831304 0.873526
O O11 0.000000 0.500000 0.500000
O O12 0.559436 0.402771 0.549398
O O13 0.725057 0.700431 0.530194
O O14 0.909836 0.532779 0.726565
O O15 0.327759 0.119794 0.514243
O O16 0.236581 0.463460 0.129354
O O17 0.811446 0.242222 0.285078
#
# Coordination Sequence:
#
# PCOD9055470 Si02
#       8
#     2   2   2   2   2   2   2   2
#     4  11  21  42  66  91 132 170 216 264 326 388
#     4  12  22  38  68  91 123 179 218 254 328 392
#     4  11  21  42  65  94 130 175 215 265 326 387
#     4  12  25  41  63  96 134 167 216 275 322 386
#     4  11  24  44  71  97 133 175 217 278 328 388
#     4  11  24  47  67  99 134 172 222 270 334 390
#     4  11  22  45  69  96 136 170 218 277 329 384
#     4  11  23  43  69  95 133 175 219 270 329 395
#
# _framework density 21.434339000000001
#
# number of rings (size 3 to 8) (size 9 to 14) (size 15 to 20)
#    0.000    0.750    7.500    2.250    0.000    1.500 
#    4.500    0.000    0.000    0.000    0.000    0.000 
#    0.000    0.000    0.000    0.000    0.000    0.000 
#
# Total GULP energy -89309.942391 kJ/mol
# GULP energy per Si atom -5581.871399 kJ/mol
# Density = 2.138555 g / cm^3
# Si number density = 21.434339 Si / 1000 Ang^3
#
#
#
# Elastic Constant Matrix: (Units=GPa)
#
#
# Indices 1 2 3 4 5 6 
#
# 1 87.9462 5.3343 12.4242 2.3532 9.5134 -4.4010
# 2 5.3343 63.2642 27.0983 -12.2439 8.3688 7.5029
# 3 12.4242 27.0983 63.7672 -7.4324 12.5147 5.0300
# 4 2.3532 -12.2439 -7.4324 35.1623 2.7066 5.1824
# 5 9.5134 8.3688 12.5147 2.7066 46.0619 14.6532
# 6 -4.4010 7.5029 5.0300 5.1824 14.6532 34.6755
#
#
#
# Elastic Compliance Matrix: (Units=1/GPa)
#
#
# Indices 1 2 3 4 5 6 
#
# 1 0.012221 -0.000501 -0.002078 -0.001716 -0.002857 0.003425
# 2 -0.000501 0.020916 -0.007584 0.006378 -0.000690 -0.004150
# 3 -0.002078 -0.007584 0.020316 0.002125 -0.003740 -0.000307
# 4 -0.001716 0.006378 0.002125 0.032235 -0.001314 -0.006169
# 5 -0.002857 -0.000690 -0.003740 -0.001314 0.026978 -0.010875
# 6 0.003425 -0.004150 -0.000307 -0.006169 -0.010875 0.035734
#
#
# Mechanical properties :
#
#
# Convention : Reuss Voigt Hill
#
# Bulk Modulus (GPa) = 30.18732 33.85460 32.02096
# Shear Modulus (GPa) = 27.81382 34.52134 31.16758
#
# Velocity S-wave (km/s) = 3.60617 4.01754 3.81740
# Velocity P-wave (km/s) = 5.60834 6.11143 5.86528
#
# Compressibility (1/GPa) = 0.03312649
#
# Stress axis : x y z
#
# Youngs Moduli (GPa) = 81.82732 47.81129 49.22287
#
# Poissons Ratio (x) = 0.02395 0.10227
# Poissons Ratio (y) = 0.04098 0.37332
# Poissons Ratio (z) = 0.17001 0.36262
#
# Static dielectric constant tensor:
#      x y z
#    x 1.809350 0.009540 -0.014550 
#    y 0.009540 1.775730 0.042250 
#    z -0.014550 0.042250 1.900500 
# 
# From -- ./inp_files/529822.got.cif
#   From: 2010.05.17/outbox.cif.g08.bks.cpg/sg2_265_cif.got.tgz:529822.got - 2010.06.03 11:33:40.
