data_PCOD9055896
_publ_section_title
;
Structure prediction by ZEFSAII (Michael W. Deem and Ramdas Pophale) SiO2 
 PCOD9055896
Probable space group: P -1
;
_chemical_formula_sum "Si O2"
_cell_formula_units_Z 16
_cell_length_a 13.329366
_cell_length_b 9.588633
_cell_length_c 11.224552
_cell_angle_alpha 109.295562
_cell_angle_beta 35.023530
_cell_angle_gamma 95.001348
_cell_volume 731.183849
_symmetry_space_group_name_H-M "P -1"
_symmetry_group_IT_number 2
_symmetry_cell_setting 'triclinic'
loop_
_space_group_symop_operation_xyz
x,y,z
-x,-y,-z
loop_
_atom_site_type_symbol
_atom_site_label
_atom_site_fract_x
_atom_site_fract_y
_atom_site_fract_z
Si Si1 0.923946 0.319239 0.567662
Si Si2 0.386516 0.674988 0.314717
Si Si3 0.105843 0.778726 0.185894
Si Si4 0.122596 0.998377 0.716391
Si Si5 0.903171 0.543362 0.234694
Si Si6 0.500614 0.577696 0.651785
Si Si7 0.247222 0.322557 0.114867
Si Si8 0.898637 0.799606 0.991445
O O1 0.786617 0.340800 0.595104
O O2 0.877261 0.216829 0.687497
O O3 0.878605 0.494578 0.712748
O O4 0.137093 0.254244 0.297694
O O5 0.467730 0.546686 0.303747
O O6 0.308000 0.850120 0.492259
O O7 0.548288 0.672928 0.064116
O O8 0.965419 0.932061 0.304011
O O9 0.009247 0.648055 0.219691
O O10 0.305943 0.714180 0.907708
O O11 0.151507 0.134481 0.808406
O O12 0.971675 0.928975 0.898717
O O13 0.682912 0.627968 0.481134
O O14 0.000000 0.500000 0.000000
O O15 0.941537 0.370129 0.203472
O O16 0.500000 0.500000 0.500000
O O17 0.246261 0.237541 0.965595
#
# Coordination Sequence:
#
# PCOD9055896 Si02
#       8
#     2   2   2   2   2   2   2   2
#     4  11  24  43  72  99 135 178 236 287 323 399
#     4  12  25  45  71 102 137 183 225 279 346 409
#     4  12  26  43  68 102 135 182 228 281 340 392
#     4  11  25  43  68 100 146 178 214 287 354 405
#     4  12  21  41  67  98 136 176 228 279 327 400
#     4  12  24  40  68 102 134 175 230 281 330 407
#     4  11  23  42  72  99 127 184 237 276 331 405
#     4  11  21  44  69  96 139 183 219 274 354 406
#
# _framework density 21.882321000000001
#
# number of rings (size 3 to 8) (size 9 to 14) (size 15 to 20)
#    0.000    0.500    7.500    0.375    3.500    1.000 
#    2.250    0.625    0.000    0.000    0.000    0.000 
#    0.000    0.000    0.000    0.000    0.000    0.000 
#
# Total GULP energy -89301.376765 kJ/mol
# GULP energy per Si atom -5581.336048 kJ/mol
# Density = 2.183252 g / cm^3
# Si number density = 21.882321 Si / 1000 Ang^3
#
#
#
# Elastic Constant Matrix: (Units=GPa)
#
#
# Indices 1 2 3 4 5 6 
#
# 1 71.0746 22.1786 20.8496 -8.5239 15.8997 -2.4261
# 2 22.1786 50.0338 0.4467 -1.0053 4.0511 1.5862
# 3 20.8496 0.4467 97.6892 -25.2627 -13.3028 7.6025
# 4 -8.5239 -1.0053 -25.2627 32.6568 2.5968 2.2637
# 5 15.8997 4.0511 -13.3028 2.5968 29.4832 -7.5835
# 6 -2.4261 1.5862 7.6025 2.2637 -7.5835 37.7301
#
#
#
# Elastic Compliance Matrix: (Units=1/GPa)
#
#
# Indices 1 2 3 4 5 6 
#
# 1 0.021645 -0.008431 -0.005926 0.001853 -0.013312 0.000154
# 2 -0.008431 0.023610 0.002093 0.000111 0.001827 -0.001596
# 3 -0.005926 0.002093 0.015389 0.009932 0.008337 -0.002490
# 4 0.001853 0.000111 0.009932 0.039192 -0.001134 -0.004466
# 5 -0.013312 0.001827 0.008337 -0.001134 0.046454 0.006792
# 6 0.000154 -0.001596 -0.002490 -0.004466 0.006792 0.028716
#
#
# Mechanical properties :
#
#
# Convention : Reuss Voigt Hill
#
# Bulk Modulus (GPa) = 27.68951 33.97195 30.83073
# Shear Modulus (GPa) = 23.63246 31.66221 27.64733
#
# Velocity S-wave (km/s) = 3.28987 3.80798 3.55837
# Velocity P-wave (km/s) = 5.20695 5.90702 5.56799
#
# Compressibility (1/GPa) = 0.03611477
#
# Stress axis : x y z
#
# Youngs Moduli (GPa) = 46.20078 42.35471 64.97975
#
# Poissons Ratio (x) = 0.35711 0.38510
# Poissons Ratio (y) = 0.38954 -0.13601
# Poissons Ratio (z) = 0.27381 -0.08865
#
# Static dielectric constant tensor:
#      x y z
#    x 1.912800 0.014960 0.114190 
#    y 0.014960 1.818830 -0.010140 
#    z 0.114190 -0.010140 1.927880 
# 
# From -- ./inp_files/447727.got.cif
#   From: 2010.05.17/outbox.cif.g08.bks.cpg/sg2_224_cif.got.tgz:447727.got - 2010.06.03 11:33:40.
