data_PCOD9055023
_publ_section_title
;
Structure prediction by ZEFSAII (Michael W. Deem and Ramdas Pophale) SiO2 
 PCOD9055023
Probable space group: P -1
;
_chemical_formula_sum "Si O2"
_cell_formula_units_Z 14
_cell_length_a 12.540939
_cell_length_b 9.654379
_cell_length_c 8.175049
_cell_angle_alpha 97.347516
_cell_angle_beta 57.149464
_cell_angle_gamma 121.692151
_cell_volume 690.224760
_symmetry_space_group_name_H-M "P -1"
_symmetry_group_IT_number 2
_symmetry_cell_setting 'triclinic'
loop_
_space_group_symop_operation_xyz
x,y,z
-x,-y,-z
loop_
_atom_site_type_symbol
_atom_site_label
_atom_site_fract_x
_atom_site_fract_y
_atom_site_fract_z
Si Si1 0.003274 0.849436 0.892799
Si Si2 0.565940 0.387556 0.890427
Si Si3 0.849914 0.940638 0.505953
Si Si4 0.258173 0.509440 0.911199
Si Si5 0.632217 0.970418 0.928600
Si Si6 0.234639 0.424679 0.560435
Si Si7 0.096849 0.702931 0.076310
O O1 0.079759 0.784147 0.939206
O O2 0.091101 0.922460 0.663666
O O3 0.836030 0.684278 0.984172
O O4 0.000000 0.000000 0.000000
O O5 0.681234 0.471125 0.655658
O O6 0.500000 0.500000 0.000000
O O7 0.636055 0.388508 0.009035
O O8 0.441841 0.195302 0.923400
O O9 0.712697 0.932322 0.711523
O O10 0.790402 0.756846 0.459812
O O11 0.000000 0.000000 0.500000
O O12 0.315853 0.511020 0.679312
O O13 0.147265 0.574808 0.991418
O O14 0.500000 0.000000 0.000000
O O15 0.769809 0.139550 0.915008
O O16 0.064066 0.382894 0.710556
#
# Coordination Sequence:
#
# PCOD9055023 Si02
#       7
#     2   2   2   2   2   2   2
#     4  11  21  39  72 105 127 175 239 296 333 401
#     4  12  27  44  70 101 140 187 229 285 355 418
#     4  12  22  42  72 105 133 180 239 285 339 414
#     4  11  25  45  68 104 144 174 232 294 349 410
#     4  12  26  46  65 102 147 180 226 289 357 412
#     4  11  23  44  74 101 131 183 240 286 340 411
#     4  11  24  46  70  99 143 180 231 290 347 419
#
# _framework density 20.283248
#
# number of rings (size 3 to 8) (size 9 to 14) (size 15 to 20)
#    0.000    0.571    7.143    2.571    2.000    3.429 
#    2.571    1.429    0.000    0.000    0.000    0.000 
#    0.000    0.000    0.000    0.000    0.000    0.000 
#
# Total GULP energy -78184.477542 kJ/mol
# GULP energy per Si atom -5584.605539 kJ/mol
# Density = 2.023708 g / cm^3
# Si number density = 20.283248 Si / 1000 Ang^3
#
#
#
# Elastic Constant Matrix: (Units=GPa)
#
#
# Indices 1 2 3 4 5 6 
#
# 1 66.9594 1.2703 65.7713 1.7598 2.6327 -19.5319
# 2 1.2703 113.0061 47.4515 4.4728 2.7255 -15.5222
# 3 65.7713 47.4515 163.7766 -7.2962 8.7810 -5.4561
# 4 1.7598 4.4728 -7.2962 35.9036 -5.3825 -2.3583
# 5 2.6327 2.7255 8.7810 -5.3825 25.5564 8.4196
# 6 -19.5319 -15.5222 -5.4561 -2.3583 8.4196 36.3778
#
#
#
# Elastic Compliance Matrix: (Units=1/GPa)
#
#
# Indices 1 2 3 4 5 6 
#
# 1 0.041449 0.011555 -0.018955 -0.006968 -0.009015 0.025977
# 2 0.011555 0.014066 -0.008253 -0.003906 -0.004554 0.011769
# 3 -0.018955 -0.008253 0.015819 0.004744 0.002194 -0.011526
# 4 -0.006968 -0.003906 0.004744 0.030460 0.007379 -0.004430
# 5 -0.009015 -0.004554 0.002194 0.007379 0.046888 -0.016828
# 6 0.025977 0.011769 -0.011526 -0.004430 -0.016828 0.048337
#
#
# Mechanical properties :
#
#
# Convention : Reuss Voigt Hill
#
# Bulk Modulus (GPa) = 24.98370 63.63646 44.31008
# Shear Modulus (GPa) = 20.68963 34.85083 27.77023
#
# Velocity S-wave (km/s) = 3.19726 4.14962 3.70418
# Velocity P-wave (km/s) = 5.09648 7.37572 6.33937
#
# Compressibility (1/GPa) = 0.04002610
#
# Stress axis : x y z
#
# Youngs Moduli (GPa) = 24.12629 71.09515 63.21555
#
# Poissons Ratio (x) = -0.82147 1.19824
# Poissons Ratio (y) = -0.27877 0.52173
# Poissons Ratio (z) = 0.45731 0.58676
#
# Static dielectric constant tensor:
#      x y z
#    x 1.801490 0.098200 0.006210 
#    y 0.098200 1.791870 0.019870 
#    z 0.006210 0.019870 1.720370 
# 
# From -- ./inp_files/156942.got.cif
#   From: 2010.05.17/outbox.cif.g08.bks.cpg/sg2_79_cif.got.tgz:156942.got - 2010.06.03 11:33:40.
