data_PCOD9055532
_publ_section_title
;
Structure prediction by ZEFSAII (Michael W. Deem and Ramdas Pophale) SiO2 
 PCOD9055532
Probable space group: P -1
;
_chemical_formula_sum "Si O2"
_cell_formula_units_Z 16
_cell_length_a 10.487230
_cell_length_b 14.371776
_cell_length_c 9.485725
_cell_angle_alpha 121.986984
_cell_angle_beta 110.748246
_cell_angle_gamma 115.360952
_cell_volume 714.375189
_symmetry_space_group_name_H-M "P -1"
_symmetry_group_IT_number 2
_symmetry_cell_setting 'triclinic'
loop_
_space_group_symop_operation_xyz
x,y,z
-x,-y,-z
loop_
_atom_site_type_symbol
_atom_site_label
_atom_site_fract_x
_atom_site_fract_y
_atom_site_fract_z
Si Si1 0.001499 0.772069 0.171459
Si Si2 0.585777 0.978937 0.643374
Si Si3 0.281604 0.566552 0.601856
Si Si4 0.341921 0.323482 0.704611
Si Si5 0.217324 0.779500 0.824917
Si Si6 0.326012 0.232105 0.912271
Si Si7 0.129024 0.881464 0.623498
Si Si8 0.627421 0.378613 0.641343
O O1 0.831223 0.765974 0.109683
O O2 0.177437 0.908463 0.231116
O O3 0.111019 0.829340 0.413865
O O4 0.862673 0.575191 0.930313
O O5 0.500000 0.000000 0.500000
O O6 0.429217 0.779342 0.456228
O O7 0.631705 0.077943 0.880280
O O8 0.268494 0.685349 0.737976
O O9 0.385456 0.622293 0.532812
O O10 0.034265 0.371718 0.346290
O O11 0.432971 0.599399 0.799924
O O12 0.308009 0.207027 0.716124
O O13 0.455906 0.347424 0.631674
O O14 0.115673 0.240926 0.526002
O O15 0.500000 0.500000 0.000000
O O16 0.229051 0.857980 0.750888
O O17 0.251280 0.073056 0.825467
#
# Coordination Sequence:
#
# PCOD9055532 Si02
#       8
#     2   2   2   2   2   2   2   2
#     4  11  25  47  70 112 141 183 242 289 350 427
#     4  12  29  48  73 107 144 185 237 298 348 429
#     4  11  27  47  71 101 142 196 231 296 353 420
#     4  11  21  42  69 107 137 184 234 286 352 419
#     4  11  27  49  68 103 145 183 246 286 355 428
#     4  11  23  43  73 102 143 184 237 292 356 416
#     4  11  23  42  73 102 145 184 232 298 350 421
#     4  12  25  45  74 102 145 185 238 285 360 410
#
# _framework density 22.397193000000001
#
# number of rings (size 3 to 8) (size 9 to 14) (size 15 to 20)
#    0.000    0.750    3.750    4.500    5.250    4.000 
#    0.000    2.500    0.000    0.000    0.000    0.000 
#    0.000    0.000    0.000    0.000    0.000    0.000 
#
# Total GULP energy -89597.598354 kJ/mol
# GULP energy per Si atom -5599.849897 kJ/mol
# Density = 2.234622 g / cm^3
# Si number density = 22.397193 Si / 1000 Ang^3
#
#
#
# Elastic Constant Matrix: (Units=GPa)
#
#
# Indices 1 2 3 4 5 6 
#
# 1 79.5202 34.8042 35.6138 -16.2167 1.2903 19.6918
# 2 34.8042 121.7504 43.2419 -0.8314 -4.2247 -1.5345
# 3 35.6138 43.2419 131.1035 -1.4634 -6.5803 -11.9719
# 4 -16.2167 -0.8314 -1.4634 54.0033 -2.0114 -0.1082
# 5 1.2903 -4.2247 -6.5803 -2.0114 39.1883 -2.0630
# 6 19.6918 -1.5345 -11.9719 -0.1082 -2.0630 42.7164
#
#
#
# Elastic Compliance Matrix: (Units=1/GPa)
#
#
# Indices 1 2 3 4 5 6 
#
# 1 0.020921 -0.004257 -0.005371 0.005961 -0.002344 -0.011401
# 2 -0.004257 0.010190 -0.002005 -0.001137 0.000939 0.001809
# 3 -0.005371 -0.002005 0.010321 -0.001282 0.001912 0.005386
# 4 0.005961 -0.001137 -0.001282 0.020262 0.000344 -0.003080
# 5 -0.002344 0.000939 0.001912 0.000344 0.026188 0.002916
# 6 -0.011401 0.001809 0.005386 -0.003080 0.002916 0.030373
#
#
# Mechanical properties :
#
#
# Convention : Reuss Voigt Hill
#
# Bulk Modulus (GPa) = 55.04789 62.18823 58.61806
# Shear Modulus (GPa) = 33.88028 41.76254 37.82141
#
# Velocity S-wave (km/s) = 3.89357 4.32282 4.11380
# Velocity P-wave (km/s) = 6.69661 7.26238 6.98522
#
# Compressibility (1/GPa) = 0.01816600
#
# Stress axis : x y z
#
# Youngs Moduli (GPa) = 47.79840 98.13308 96.88652
#
# Poissons Ratio (x) = 0.41778 0.52039
# Poissons Ratio (y) = 0.20349 0.19425
# Poissons Ratio (z) = 0.25673 0.19675
#
# Static dielectric constant tensor:
#      x y z
#    x 1.814970 0.023350 0.016490 
#    y 0.023350 1.858530 0.064170 
#    z 0.016490 0.064170 1.828450 
# 
# From -- ./inp_files/274114.got.cif
#   From: 2010.05.17/outbox.cif.g08.bks.cpg/sg2_138_cif.got.tgz:274114.got - 2010.06.03 11:33:40.
