data_PCOD9055318
_publ_section_title
;
Structure prediction by ZEFSAII (Michael W. Deem and Ramdas Pophale) SiO2 
 PCOD9055318
Probable space group: P -1
;
_chemical_formula_sum "Si O2"
_cell_formula_units_Z 16
_cell_length_a 8.646716
_cell_length_b 10.076094
_cell_length_c 15.383060
_cell_angle_alpha 115.570629
_cell_angle_beta 86.562319
_cell_angle_gamma 48.956702
_cell_volume 787.167765
_symmetry_space_group_name_H-M "P -1"
_symmetry_group_IT_number 2
_symmetry_cell_setting 'triclinic'
loop_
_space_group_symop_operation_xyz
x,y,z
-x,-y,-z
loop_
_atom_site_type_symbol
_atom_site_label
_atom_site_fract_x
_atom_site_fract_y
_atom_site_fract_z
Si Si1 0.892927 0.956512 0.645261
Si Si2 0.388241 0.001160 0.087750
Si Si3 0.785437 0.811848 0.452155
Si Si4 0.013126 0.782185 0.265085
Si Si5 0.647866 0.570274 0.210298
Si Si6 0.079398 0.604734 0.685670
Si Si7 0.460889 0.611178 0.940758
Si Si8 0.804751 0.713585 0.128709
O O1 0.861549 0.878658 0.539038
O O2 0.009952 0.775211 0.665401
O O3 0.622403 0.199517 0.741678
O O4 0.023340 0.019854 0.655365
O O5 0.567049 0.893731 0.131798
O O6 0.367933 0.841456 0.025437
O O7 0.136560 0.243905 0.195374
O O8 0.500000 0.000000 0.000000
O O9 0.914379 0.764365 0.345317
O O10 0.878189 0.584212 0.411327
O O11 0.500000 0.000000 0.500000
O O12 0.876608 0.818215 0.195579
O O13 0.289361 0.554645 0.166967
O O14 0.692716 0.524661 0.298230
O O15 0.707527 0.374851 0.105406
O O16 0.781160 0.614464 0.179618
O O17 0.500000 0.500000 0.000000
O O18 0.000000 0.500000 0.000000
#
# Coordination Sequence:
#
# PCOD9055318 Si02
#       8
#     2   2   2   2   2   2   2   2
#     4  11  24  45  68  98 132 171 227 289 337 393
#     4  12  24  37  62 103 139 172 227 277 332 403
#     4  12  24  46  74  94 132 185 228 282 349 394
#     4  11  23  41  72 100 134 180 224 274 342 406
#     4  11  22  42  68  94 135 178 226 272 338 409
#     4  12  24  42  70  98 130 177 231 279 339 405
#     4  11  21  41  67  98 139 182 215 271 343 405
#     4  12  20  39  65  96 136 181 216 268 334 407
#
# _framework density 20.326035999999998
#
# number of rings (size 3 to 8) (size 9 to 14) (size 15 to 20)
#    0.000    0.500    6.250    3.000    0.000    1.500 
#    0.000    0.625    0.000    0.000    0.000    0.000 
#    0.000    0.000    0.000    0.000    0.000    0.000 
#
# Total GULP energy -89374.108667 kJ/mol
# GULP energy per Si atom -5585.881792 kJ/mol
# Density = 2.027977 g / cm^3
# Si number density = 20.326036 Si / 1000 Ang^3
#
#
#
# Elastic Constant Matrix: (Units=GPa)
#
#
# Indices 1 2 3 4 5 6 
#
# 1 106.3372 34.0101 28.0053 0.1001 37.9106 8.7400
# 2 34.0101 105.9765 13.6344 -1.2148 7.2186 -0.4270
# 3 28.0053 13.6344 61.3280 0.0126 18.6345 5.9991
# 4 0.1001 -1.2148 0.0126 37.8705 2.8445 7.2249
# 5 37.9106 7.2186 18.6345 2.8445 58.5593 -3.0061
# 6 8.7400 -0.4270 5.9991 7.2249 -3.0061 19.4690
#
#
#
# Elastic Compliance Matrix: (Units=1/GPa)
#
#
# Indices 1 2 3 4 5 6 
#
# 1 0.015274 -0.003968 -0.002498 0.002116 -0.009137 -0.008370
# 2 -0.003968 0.010774 -0.001429 -0.000330 0.001858 0.002867
# 3 -0.002498 -0.001429 0.019887 0.001541 -0.004937 -0.006372
# 4 0.002116 -0.000330 0.001541 0.029132 -0.003894 -0.012844
# 5 -0.009137 0.001858 -0.004937 -0.003894 0.025087 0.010982
# 6 -0.008370 0.002867 -0.006372 -0.012844 0.010982 0.063610
#
#
# Mechanical properties :
#
#
# Convention : Reuss Voigt Hill
#
# Bulk Modulus (GPa) = 33.17082 47.21571 40.19327
# Shear Modulus (GPa) = 26.37102 36.37922 31.37512
#
# Velocity S-wave (km/s) = 3.60585 4.23517 3.93312
# Velocity P-wave (km/s) = 5.80440 6.86988 6.35949
#
# Compressibility (1/GPa) = 0.03014698
#
# Stress axis : x y z
#
# Youngs Moduli (GPa) = 65.46933 92.81327 50.28345
#
# Poissons Ratio (x) = 0.36824 0.12563
# Poissons Ratio (y) = 0.25975 0.07183
# Poissons Ratio (z) = 0.16357 0.13259
#
# Static dielectric constant tensor:
#      x y z
#    x 1.777060 -0.007920 0.006670 
#    y -0.007920 1.704580 -0.006200 
#    z 0.006670 -0.006200 1.753110 
# 
# From -- ./inp_files/218785.got.cif
#   From: 2010.05.17/outbox.cif.g08.bks.cpg/sg2_110_cif.got.tgz:218785.got - 2010.06.03 11:33:40.
