data_PCOD9055324
_publ_section_title
;
Structure prediction by ZEFSAII (Michael W. Deem and Ramdas Pophale) SiO2 
 PCOD9055324
Probable space group: P -1
;
_chemical_formula_sum "Si O2"
_cell_formula_units_Z 15
_cell_length_a 9.388647
_cell_length_b 7.306991
_cell_length_c 15.306456
_cell_angle_alpha 77.975128
_cell_angle_beta 145.611202
_cell_angle_gamma 91.297263
_cell_volume 558.486061
_symmetry_space_group_name_H-M "P -1"
_symmetry_group_IT_number 2
_symmetry_cell_setting 'triclinic'
loop_
_space_group_symop_operation_xyz
x,y,z
-x,-y,-z
loop_
_atom_site_type_symbol
_atom_site_label
_atom_site_fract_x
_atom_site_fract_y
_atom_site_fract_z
Si Si1 0.562020 0.899317 0.891968
Si Si2 0.897482 0.653150 0.750812
Si Si3 0.803884 0.680154 0.195278
Si Si4 0.017929 0.813103 0.449090
Si Si5 0.388481 0.534972 0.105078
Si Si6 0.000000 0.000000 0.000000
Si Si7 0.610248 0.380471 0.708496
Si Si8 0.203896 0.151232 0.482176
O O1 0.573638 0.684952 0.883906
O O2 0.260158 0.024816 0.730732
O O3 0.709381 0.013530 0.891938
O O4 0.707233 0.861747 0.063072
O O5 0.662707 0.564093 0.666804
O O6 0.858656 0.843245 0.653884
O O7 0.070834 0.500339 0.785484
O O8 0.079810 0.649572 0.927831
O O9 0.013986 0.679123 0.377720
O O10 0.549557 0.640987 0.114817
O O11 0.979372 0.754378 0.535657
O O12 0.241605 0.925570 0.546263
O O13 0.483614 0.543931 0.250186
O O14 0.887949 0.217512 0.875868
O O15 0.425017 0.264414 0.583116
#
# Coordination Sequence:
#
# PCOD9055324 Si02
#       8
#     2   2   2   2   2   1   2   2
#     4  11  22  40  69  99 133 167 220 280 319 388
#     4  11  24  42  66  97 137 169 221 263 329 399
#     4  11  21  41  68 100 127 171 225 274 321 382
#     4  11  23  42  66  98 133 173 220 271 332 373
#     4  11  22  42  71 100 127 171 225 268 325 384
#     4  12  22  40  66  94 134 166 212 272 324 382
#     4  12  24  47  67  98 132 176 215 272 330 386
#     4  11  24  44  65  92 137 177 215 269 325 397
#
# _framework density 26.858326999999999
#
# number of rings (size 3 to 8) (size 9 to 14) (size 15 to 20)
#    0.000    0.800    5.333    4.400    0.000    1.600 
#    4.800    0.667    0.000    0.000    0.000    0.000 
#    0.000    0.000    0.000    0.000    0.000    0.000 
#
# Total GULP energy -83737.073292 kJ/mol
# GULP energy per Si atom -5582.471553 kJ/mol
# Density = 2.679720 g / cm^3
# Si number density = 26.858327 Si / 1000 Ang^3
#
#
#
# Elastic Constant Matrix: (Units=GPa)
#
#
# Indices 1 2 3 4 5 6 
#
# 1 93.0384 30.0976 18.2086 1.4401 -10.0466 53.7074
# 2 30.0976 84.8468 25.3056 13.1801 -10.8010 31.7248
# 3 18.2086 25.3056 96.8822 11.9305 -24.3654 16.1699
# 4 1.4401 13.1801 11.9305 51.7919 7.4159 0.8639
# 5 -10.0466 -10.8010 -24.3654 7.4159 38.6621 -4.2800
# 6 53.7074 31.7248 16.1699 0.8639 -4.2800 55.2113
#
#
#
# Elastic Compliance Matrix: (Units=1/GPa)
#
#
# Indices 1 2 3 4 5 6 
#
# 1 0.025190 0.001004 0.000475 -0.001314 0.004628 -0.024840
# 2 0.001004 0.016659 -0.001433 -0.004312 0.003757 -0.009770
# 3 0.000475 -0.001433 0.013834 -0.004060 0.008895 -0.002937
# 4 -0.001314 -0.004312 -0.004060 0.022452 -0.007971 0.003975
# 5 0.004628 0.003757 0.008895 -0.007971 0.034536 -0.006463
# 6 -0.024840 -0.009770 -0.002937 0.003975 -0.006463 0.048187
#
#
# Mechanical properties :
#
#
# Convention : Reuss Voigt Hill
#
# Bulk Modulus (GPa) = 17.92965 46.88789 32.40877
# Shear Modulus (GPa) = 27.87713 42.54342 35.21028
#
# Velocity S-wave (km/s) = 3.22519 3.98426 3.62465
# Velocity P-wave (km/s) = 4.53423 6.21781 5.44153
#
# Compressibility (1/GPa) = 0.05577355
#
# Stress axis : x y z
#
# Youngs Moduli (GPa) = 39.69833 60.02918 72.28500
#
# Poissons Ratio (x) = -0.06026 -0.03433
# Poissons Ratio (y) = -0.03985 0.10361
# Poissons Ratio (z) = -0.01885 0.08604
#
# Static dielectric constant tensor:
#      x y z
#    x 2.100100 -0.053870 0.016520 
#    y -0.053870 2.144850 -0.024590 
#    z 0.016520 -0.024590 2.294330 
# 
# From -- ./inp_files/179029.got.cif
#   From: 2010.05.17/outbox.cif.g08.bks.cpg/sg2_90_cif.got.tgz:179029.got - 2010.06.03 11:33:40.
