data_PCOD9055394
_publ_section_title
;
Structure prediction by ZEFSAII (Michael W. Deem and Ramdas Pophale) SiO2 
 PCOD9055394
Probable space group: P -1
;
_chemical_formula_sum "Si O2"
_cell_formula_units_Z 16
_cell_length_a 24.535226
_cell_length_b 9.923118
_cell_length_c 8.917431
_cell_angle_alpha 149.474203
_cell_angle_beta 48.588656
_cell_angle_gamma 132.281059
_cell_volume 796.246229
_symmetry_space_group_name_H-M "P -1"
_symmetry_group_IT_number 2
_symmetry_cell_setting 'triclinic'
loop_
_space_group_symop_operation_xyz
x,y,z
-x,-y,-z
loop_
_atom_site_type_symbol
_atom_site_label
_atom_site_fract_x
_atom_site_fract_y
_atom_site_fract_z
Si Si1 0.917343 0.386565 0.113070
Si Si2 0.150158 0.117557 0.762838
Si Si3 0.314696 0.092870 0.163525
Si Si4 0.688506 0.459064 0.178239
Si Si5 0.081954 0.532031 0.452582
Si Si6 0.847915 0.838178 0.546238
Si Si7 0.528675 0.789539 0.147134
Si Si8 0.536158 0.293790 0.145208
O O1 0.919162 0.432677 0.332479
O O2 0.861758 0.551151 0.297864
O O3 0.000000 0.500000 0.000000
O O4 0.890932 0.070660 0.806148
O O5 0.234353 0.323400 0.804746
O O6 0.124221 0.107896 0.626082
O O7 0.139073 0.806735 0.541059
O O8 0.104775 0.263293 0.096925
O O9 0.344722 0.361235 0.470848
O O10 0.237838 0.138473 0.280174
O O11 0.381258 0.100591 0.934239
O O12 0.298924 0.811022 0.020076
O O13 0.626116 0.370844 0.079208
O O14 0.000000 0.500000 0.500000
O O15 0.500000 0.000000 0.500000
O O16 0.500000 0.500000 0.000000
O O17 0.489539 0.741013 0.010969
O O18 0.500000 0.500000 0.500000
O O19 0.500000 0.000000 0.000000
#
# Coordination Sequence:
#
# PCOD9055394 Si02
#       8
#     2   2   2   2   2   2   2   2
#     4  12  25  44  68  98 132 171 219 258 319 400
#     4  11  23  42  68  98 130 168 217 268 331 381
#     4  11  22  42  69  93 133 176 223 270 332 397
#     4  11  21  41  70  97 124 174 229 276 318 396
#     4  12  25  44  67  97 135 168 208 272 328 382
#     4  11  23  43  69  96 126 176 219 263 321 399
#     4  12  25  42  63  99 135 174 221 279 340 384
#     4  12  22  42  70  94 127 175 234 270 321 393
#
# _framework density 20.094287000000001
#
# number of rings (size 3 to 8) (size 9 to 14) (size 15 to 20)
#    0.000    0.500    2.500    8.250    0.000    0.000 
#    6.750    0.000    0.000    0.000    0.000    0.000 
#    0.000    0.000    0.000    0.000    0.000    0.000 
#
# Total GULP energy -89446.008440 kJ/mol
# GULP energy per Si atom -5590.375528 kJ/mol
# Density = 2.004855 g / cm^3
# Si number density = 20.094287 Si / 1000 Ang^3
#
#
#
# Elastic Constant Matrix: (Units=GPa)
#
#
# Indices 1 2 3 4 5 6 
#
# 1 94.8225 37.3548 17.2454 -9.5508 8.1815 -9.1940
# 2 37.3548 92.0270 21.6005 -0.4828 -3.8186 -15.4789
# 3 17.2454 21.6005 124.5533 -2.0346 7.5969 -12.0725
# 4 -9.5508 -0.4828 -2.0346 47.7098 -8.1219 0.2449
# 5 8.1815 -3.8186 7.5969 -8.1219 39.3166 -8.0618
# 6 -9.1940 -15.4789 -12.0725 0.2449 -8.0618 43.6668
#
#
#
# Elastic Compliance Matrix: (Units=1/GPa)
#
#
# Indices 1 2 3 4 5 6 
#
# 1 0.013207 -0.005257 -0.000699 0.002110 -0.002642 0.000224
# 2 -0.005257 0.014210 -0.001556 -0.000393 0.003546 0.004157
# 3 -0.000699 -0.001556 0.008618 -0.000031 -0.001384 0.001428
# 4 0.002110 -0.000393 -0.000031 0.022103 0.004293 0.000965
# 5 -0.002642 0.003546 -0.001384 0.004293 0.028627 0.005579
# 6 0.000224 0.004157 0.001428 0.000965 0.005579 0.025841
#
#
# Mechanical properties :
#
#
# Convention : Reuss Voigt Hill
#
# Bulk Modulus (GPa) = 47.60064 51.53378 49.56721
# Shear Modulus (GPa) = 37.13779 41.81876 39.47828
#
# Velocity S-wave (km/s) = 4.30371 4.56689 4.43725
# Velocity P-wave (km/s) = 6.95959 7.31507 7.13954
#
# Compressibility (1/GPa) = 0.02100812
#
# Stress axis : x y z
#
# Youngs Moduli (GPa) = 75.72012 70.37331 116.03911
#
# Poissons Ratio (x) = 0.36998 0.08117
# Poissons Ratio (y) = 0.39809 0.18058
# Poissons Ratio (z) = 0.05297 0.10952
#
# Static dielectric constant tensor:
#      x y z
#    x 1.716930 0.022440 -0.015090 
#    y 0.022440 1.689150 -0.011750 
#    z -0.015090 -0.011750 1.693330 
# 
# From -- ./inp_files/328282.got.cif
#   From: 2010.05.17/outbox.cif.g08.bks.cpg/sg2_165_cif.got.tgz:328282.got - 2010.06.03 11:33:40.
