data_PCOD9055308
_publ_section_title
;
Structure prediction by ZEFSAII (Michael W. Deem and Ramdas Pophale) SiO2 
 PCOD9055308
Probable space group: P -1
;
_chemical_formula_sum "Si O2"
_cell_formula_units_Z 14
_cell_length_a 8.812635
_cell_length_b 20.886088
_cell_length_c 5.940785
_cell_angle_alpha 66.418990
_cell_angle_beta 62.903111
_cell_angle_gamma 35.225030
_cell_volume 560.641544
_symmetry_space_group_name_H-M "P -1"
_symmetry_group_IT_number 2
_symmetry_cell_setting 'triclinic'
loop_
_space_group_symop_operation_xyz
x,y,z
-x,-y,-z
loop_
_atom_site_type_symbol
_atom_site_label
_atom_site_fract_x
_atom_site_fract_y
_atom_site_fract_z
Si Si1 0.677542 0.587749 0.603318
Si Si2 0.217352 0.725749 0.347698
Si Si3 0.777831 0.122630 0.885762
Si Si4 0.402270 0.919325 0.267311
Si Si5 0.271173 0.569541 0.366003
Si Si6 0.679239 0.726292 0.672439
Si Si7 0.295964 0.090621 0.312172
O O1 0.494841 0.649889 0.410464
O O2 0.665676 0.507073 0.763525
O O3 0.586241 0.680734 0.694425
O O4 0.000000 0.500000 0.500000
O O5 0.123635 0.831819 0.190317
O O6 0.230216 0.665402 0.224506
O O7 0.973566 0.783961 0.600090
O O8 0.743475 0.103839 0.687423
O O9 0.483099 0.213364 0.073077
O O10 0.000000 0.000000 0.000000
O O11 0.602286 0.820072 0.450484
O O12 0.226055 0.038111 0.320557
O O13 0.554002 0.909136 0.972441
O O14 0.500000 0.500000 0.500000
O O15 0.003404 0.624266 0.593059
O O16 0.500000 0.000000 0.500000
#
# Coordination Sequence:
#
# PCOD9055308 Si02
#       7
#     2   2   2   2   2   2   2
#     4   9  20  41  68  93 127 172 225 282 329 394
#     4  11  21  41  67  94 136 171 223 276 335 391
#     4  12  26  39  64 102 140 177 221 267 336 415
#     4  11  23  41  65  95 136 178 224 266 335 403
#     4   9  20  41  71  93 127 175 229 284 330 394
#     4  11  22  43  69  93 140 176 215 279 341 391
#     4  11  24  42  66  98 134 179 223 276 329 404
#
# _framework density 24.971395000000001
#
# number of rings (size 3 to 8) (size 9 to 14) (size 15 to 20)
#    0.000    1.429    1.429    4.286    2.000    2.286 
#    0.000    7.143   12.571    0.000    0.000    0.000 
#    0.000    0.000    0.000    0.000    0.000    0.000 
#
# Total GULP energy -78097.847470 kJ/mol
# GULP energy per Si atom -5578.417676 kJ/mol
# Density = 2.491456 g / cm^3
# Si number density = 24.971395 Si / 1000 Ang^3
#
#
#
# Elastic Constant Matrix: (Units=GPa)
#
#
# Indices 1 2 3 4 5 6 
#
# 1 156.9548 58.6582 17.4995 5.3859 -9.9741 51.5661
# 2 58.6582 113.8524 9.2938 9.9427 -2.9487 48.2074
# 3 17.4995 9.2938 52.9293 10.0630 -17.0750 10.5196
# 4 5.3859 9.9427 10.0630 34.0302 10.0471 -4.9570
# 5 -9.9741 -2.9487 -17.0750 10.0471 28.2661 0.0733
# 6 51.5661 48.2074 10.5196 -4.9570 0.0733 83.5640
#
#
#
# Elastic Compliance Matrix: (Units=1/GPa)
#
#
# Indices 1 2 3 4 5 6 
#
# 1 0.009048 -0.002547 -0.000014 -0.002423 0.003791 -0.004259
# 2 -0.002547 0.013519 0.002523 -0.006603 0.004400 -0.006940
# 3 -0.000014 0.002523 0.031781 -0.018816 0.026162 -0.006587
# 4 -0.002423 -0.006603 -0.018816 0.047611 -0.029861 0.010524
# 5 0.003791 0.004400 0.026162 -0.029861 0.063618 -0.009998
# 6 -0.004259 -0.006940 -0.006587 0.010524 -0.009998 0.020061
#
#
# Mechanical properties :
#
#
# Convention : Reuss Voigt Hill
#
# Bulk Modulus (GPa) = 18.42615 54.95993 36.69304
# Shear Modulus (GPa) = 24.53300 45.05773 34.79536
#
# Velocity S-wave (km/s) = 3.13780 4.25240 3.73689
# Velocity P-wave (km/s) = 4.53019 6.79467 5.77452
#
# Compressibility (1/GPa) = 0.05427069
#
# Stress axis : x y z
#
# Youngs Moduli (GPa) = 110.51846 73.97011 31.46532
#
# Poissons Ratio (x) = 0.18843 0.00044
# Poissons Ratio (y) = 0.28153 -0.07937
# Poissons Ratio (z) = 0.00155 -0.18659
#
# Static dielectric constant tensor:
#      x y z
#    x 2.220070 -0.079140 -0.010060 
#    y -0.079140 2.118810 -0.038740 
#    z -0.010060 -0.038740 2.018360 
# 
# From -- ./inp_files/52655.got.cif
#   From: 2010.05.17/outbox.cif.g08.bks.cpg/sg2_27_cif.got.tgz:52655.got - 2010.06.03 11:33:40.
