data_PCOD9055873
_publ_section_title
;
Structure prediction by ZEFSAII (Michael W. Deem and Ramdas Pophale) SiO2 
 PCOD9055873
Probable space group: P -1
;
_chemical_formula_sum "Si O2"
_cell_formula_units_Z 12
_cell_length_a 13.296139
_cell_length_b 7.744903
_cell_length_c 14.250018
_cell_angle_alpha 141.830869
_cell_angle_beta 29.340065
_cell_angle_gamma 135.475790
_cell_volume 442.497572
_symmetry_space_group_name_H-M "P -1"
_symmetry_group_IT_number 2
_symmetry_cell_setting 'triclinic'
loop_
_space_group_symop_operation_xyz
x,y,z
-x,-y,-z
loop_
_atom_site_type_symbol
_atom_site_label
_atom_site_fract_x
_atom_site_fract_y
_atom_site_fract_z
Si Si1 0.861857 0.236585 0.676057
Si Si2 0.183797 0.955810 0.068885
Si Si3 0.417224 0.422957 0.692588
Si Si4 0.700479 0.005129 0.531857
Si Si5 0.731826 0.577671 0.653752
Si Si6 0.206433 0.192007 0.941618
O O1 0.023804 0.426589 0.560873
O O2 0.697111 0.072195 0.672939
O O3 0.000000 0.000000 0.500000
O O4 0.794439 0.466565 0.900319
O O5 0.289340 0.156085 0.150218
O O6 0.936154 0.946582 0.286812
O O7 0.240316 0.082919 0.974087
O O8 0.261941 0.651800 0.890378
O O9 0.619412 0.567106 0.640801
O O10 0.326238 0.194232 0.745781
O O11 0.446585 0.244539 0.499159
O O12 0.651565 0.297105 0.651663
O O13 0.000000 0.000000 0.000000
#
# Coordination Sequence:
#
# PCOD9055873 Si02
#       6
#     2   2   2   2   2   2
#     4  11  23  42  70  92 125 172 223 253 311 395
#     4  11  22  42  67  93 129 171 216 258 316 387
#     4  12  26  40  68  99 132 162 214 273 324 364
#     4  11  21  44  67  91 127 176 211 257 321 388
#     4  11  22  45  64  93 133 169 206 270 328 369
#     4  12  23  41  68  98 123 170 222 261 306 388
#
# _framework density 27.118791999999999
#
# number of rings (size 3 to 8) (size 9 to 14) (size 15 to 20)
#    0.000    0.667    5.000    4.500    2.333    0.667 
#    3.000    0.833    0.000    0.000    0.000    0.000 
#    0.000    0.000    0.000    0.000    0.000    0.000 
#
# Total GULP energy -67221.747875 kJ/mol
# GULP energy per Si atom -5601.812323 kJ/mol
# Density = 2.705707 g / cm^3
# Si number density = 27.118792 Si / 1000 Ang^3
#
#
#
# Elastic Constant Matrix: (Units=GPa)
#
#
# Indices 1 2 3 4 5 6 
#
# 1 156.5423 61.6276 25.3299 34.7706 13.7628 40.3735
# 2 61.6276 109.0641 23.8202 10.1616 18.1222 0.5866
# 3 25.3299 23.8202 126.6874 22.2805 16.2954 15.1055
# 4 34.7706 10.1616 22.2805 56.2247 2.8297 12.2145
# 5 13.7628 18.1222 16.2954 2.8297 43.1835 17.6805
# 6 40.3735 0.5866 15.1055 12.2145 17.6805 55.8040
#
#
#
# Elastic Compliance Matrix: (Units=1/GPa)
#
#
# Indices 1 2 3 4 5 6 
#
# 1 0.012024 -0.006850 0.000369 -0.004618 0.002718 -0.008577
# 2 -0.006850 0.014256 -0.001538 0.001072 -0.006126 0.006929
# 3 0.000369 -0.001538 0.009101 -0.003157 -0.002150 -0.001342
# 4 -0.004618 0.001072 -0.003157 0.021850 0.001179 -0.000972
# 5 0.002718 -0.006126 -0.002150 0.001179 0.030153 -0.011132
# 6 -0.008577 0.006929 -0.001342 -0.000972 -0.011132 0.028156
#
#
# Mechanical properties :
#
#
# Convention : Reuss Voigt Hill
#
# Bulk Modulus (GPa) = 51.69639 68.20546 59.95092
# Shear Modulus (GPa) = 36.22524 49.81018 43.01771
#
# Velocity S-wave (km/s) = 3.65882 4.29037 3.98712
# Velocity P-wave (km/s) = 6.07895 7.05324 6.58414
#
# Compressibility (1/GPa) = 0.01934371
#
# Stress axis : x y z
#
# Youngs Moduli (GPa) = 83.16727 70.14470 109.88362
#
# Poissons Ratio (x) = 0.48050 -0.04056
# Poissons Ratio (y) = 0.56970 0.16895
# Poissons Ratio (z) = -0.03070 0.10785
#
# Static dielectric constant tensor:
#      x y z
#    x 2.172620 -0.000330 -0.054610 
#    y -0.000330 2.141960 -0.127980 
#    z -0.054610 -0.127980 2.272630 
# 
# From -- ./inp_files/151203.got.cif
#   From: 2010.05.17/outbox.cif.g08.bks.cpg/sg2_76_cif.got.tgz:151203.got - 2010.06.03 11:33:40.
