data_PCOD9055729
_publ_section_title
;
Structure prediction by ZEFSAII (Michael W. Deem and Ramdas Pophale) SiO2 
 PCOD9055729
Probable space group: P -1
;
_chemical_formula_sum "Si O2"
_cell_formula_units_Z 16
_cell_length_a 20.895170
_cell_length_b 8.053038
_cell_length_c 7.752964
_cell_angle_alpha 127.524445
_cell_angle_beta 35.929581
_cell_angle_gamma 121.380632
_cell_volume 606.067267
_symmetry_space_group_name_H-M "P -1"
_symmetry_group_IT_number 2
_symmetry_cell_setting 'triclinic'
loop_
_space_group_symop_operation_xyz
x,y,z
-x,-y,-z
loop_
_atom_site_type_symbol
_atom_site_label
_atom_site_fract_x
_atom_site_fract_y
_atom_site_fract_z
Si Si1 0.151279 0.902776 0.568035
Si Si2 0.383139 0.968181 0.975430
Si Si3 0.898065 0.520552 0.447301
Si Si4 0.206072 0.337243 0.875157
Si Si5 0.427076 0.283730 0.545214
Si Si6 0.681993 0.623579 0.800083
Si Si7 0.083582 0.836990 0.276724
Si Si8 0.301261 0.724117 0.682594
O O1 0.104954 0.729722 0.693053
O O2 0.103712 0.867371 0.456930
O O3 0.142316 0.139086 0.801145
O O4 0.280952 0.865303 0.240418
O O5 0.498598 0.912604 0.760938
O O6 0.379511 0.847528 0.722054
O O7 0.348573 0.201496 0.159975
O O8 0.809604 0.605154 0.560396
O O9 0.019618 0.619337 0.227186
O O10 0.857382 0.590186 0.771054
O O11 0.323916 0.268007 0.636129
O O12 0.236559 0.534438 0.809724
O O13 0.500000 0.500000 0.500000
O O14 0.377747 0.308092 0.856732
O O15 0.644665 0.393289 0.665134
O O16 0.202002 0.868742 0.948391
O O17 0.000000 0.000000 0.500000
#
# Coordination Sequence:
#
# PCOD9055729 Si02
#       8
#     2   2   2   2   2   2   2   2
#     4  11  23  42  69  97 137 176 222 279 335 398
#     4  11  21  43  68  98 139 177 221 281 333 395
#     4  11  23  45  66 100 135 178 224 280 333 398
#     4  11  23  43  69  97 135 179 221 279 338 394
#     4  11  23  45  70 100 136 180 228 277 335 400
#     4  11  25  42  69  99 137 177 223 276 343 394
#     4  11  25  45  71 100 138 177 225 281 339 400
#     4  11  23  44  68  95 139 176 220 282 336 396
#
# _framework density 26.399711
#
# number of rings (size 3 to 8) (size 9 to 14) (size 15 to 20)
#    0.000    1.000    5.000    3.000    0.000    5.000 
#    0.000    0.000    0.000    0.000    0.000    0.000 
#    0.000    0.000    0.000    0.000    0.000    0.000 
#
# Total GULP energy -89763.640903 kJ/mol
# GULP energy per Si atom -5610.227556 kJ/mol
# Density = 2.633962 g / cm^3
# Si number density = 26.399711 Si / 1000 Ang^3
#
#
#
# Elastic Constant Matrix: (Units=GPa)
#
#
# Indices 1 2 3 4 5 6 
#
# 1 73.4810 14.7079 57.4045 13.9712 -6.4897 2.5629
# 2 14.7079 96.0997 11.5672 17.0867 -2.9052 2.4535
# 3 57.4045 11.5672 87.7050 13.9314 -19.0870 -2.5869
# 4 13.9712 17.0867 13.9314 41.8028 5.5230 3.7100
# 5 -6.4897 -2.9052 -19.0870 5.5230 56.2121 9.0312
# 6 2.5629 2.4535 -2.5869 3.7100 9.0312 33.8251
#
#
#
# Elastic Compliance Matrix: (Units=1/GPa)
#
#
# Indices 1 2 3 4 5 6 
#
# 1 0.029234 -0.001809 -0.019219 -0.002047 -0.002621 -0.002629
# 2 -0.001809 0.011433 0.000593 -0.004369 0.001086 -0.000458
# 3 -0.019219 0.000593 0.025971 -0.003532 0.006654 0.002010
# 4 -0.002047 -0.004369 -0.003532 0.028276 -0.004152 -0.001791
# 5 -0.002621 0.001086 0.006654 -0.004152 0.020935 -0.004505
# 6 -0.002629 -0.000458 0.002010 -0.001791 -0.004505 0.031349
#
#
# Mechanical properties :
#
#
# Convention : Reuss Voigt Hill
#
# Bulk Modulus (GPa) = 38.80633 47.18277 42.99455
# Shear Modulus (GPa) = 25.42496 37.94174 31.68335
#
# Velocity S-wave (km/s) = 3.10672 3.79516 3.46806
# Velocity P-wave (km/s) = 5.25360 6.09225 5.68841
#
# Compressibility (1/GPa) = 0.02576899
#
# Stress axis : x y z
#
# Youngs Moduli (GPa) = 34.20638 87.46849 38.50441
#
# Poissons Ratio (x) = 0.15825 0.74000
# Poissons Ratio (y) = 0.06189 -0.02284
# Poissons Ratio (z) = 0.65740 -0.05189
#
# Static dielectric constant tensor:
#      x y z
#    x 2.039040 -0.024910 0.031830 
#    y -0.024910 2.112560 0.011320 
#    z 0.031830 0.011320 2.076880 
# 
# From -- ./inp_files/342984.got.cif
#   From: 2010.05.17/outbox.cif.g08.bks.cpg/sg2_172_cif.got.tgz:342984.got - 2010.06.03 11:33:40.
