data_PCOD9055245
_publ_section_title
;
Structure prediction by ZEFSAII (Michael W. Deem and Ramdas Pophale) SiO2 
 PCOD9055245
Probable space group: P -1
;
_chemical_formula_sum "Si O2"
_cell_formula_units_Z 16
_cell_length_a 12.732151
_cell_length_b 9.727064
_cell_length_c 19.874618
_cell_angle_alpha 45.471797
_cell_angle_beta 41.321648
_cell_angle_gamma 78.731276
_cell_volume 823.206753
_symmetry_space_group_name_H-M "P -1"
_symmetry_group_IT_number 2
_symmetry_cell_setting 'triclinic'
loop_
_space_group_symop_operation_xyz
x,y,z
-x,-y,-z
loop_
_atom_site_type_symbol
_atom_site_label
_atom_site_fract_x
_atom_site_fract_y
_atom_site_fract_z
Si Si1 0.923431 0.560977 0.843600
Si Si2 0.161660 0.212812 0.907641
Si Si3 0.138932 0.760308 0.893731
Si Si4 0.598912 0.186193 0.454398
Si Si5 0.916803 0.617874 0.538964
Si Si6 0.407970 0.163103 0.907177
Si Si7 0.287333 0.617387 0.140873
Si Si8 0.736841 0.804497 0.892235
O O1 0.824422 0.477015 0.845621
O O2 0.826179 0.664276 0.892984
O O3 0.191684 0.765770 0.639749
O O4 0.857119 0.327287 0.003713
O O5 0.312260 0.522367 0.704176
O O6 0.304808 0.166701 0.888618
O O7 0.002715 0.166221 0.057793
O O8 0.000000 0.000000 0.000000
O O9 0.390317 0.010546 0.664614
O O10 0.000000 0.500000 0.000000
O O11 0.500000 0.000000 0.500000
O O12 0.664949 0.446567 0.694123
O O13 0.886518 0.561921 0.652727
O O14 0.000000 0.500000 0.500000
O O15 0.091733 0.929794 0.327470
O O16 0.275736 0.125018 0.049862
O O17 0.396484 0.921617 0.995224
O O18 0.485093 0.628293 0.046966
#
# Coordination Sequence:
#
# PCOD9055245 Si02
#       8
#     2   2   2   2   2   2   2   2
#     4  11  25  40  66  95 128 166 211 266 327 367
#     4  11  25  43  64 101 135 164 218 275 319 376
#     4  11  22  44  68  89 133 174 212 265 318 385
#     4  11  24  43  67  96 130 172 221 261 317 394
#     4  11  21  41  63  90 123 165 212 259 306 384
#     4  11  22  38  68  88 124 170 212 250 319 384
#     4  11  23  43  60  94 131 160 206 268 317 379
#     4  11  23  39  66  92 122 169 214 254 316 384
#
# _framework density 19.436187
#
# number of rings (size 3 to 8) (size 9 to 14) (size 15 to 20)
#    0.000    1.000    5.000    3.375    1.750    3.000 
#    2.250    0.000    0.000    0.000    0.000    0.000 
#    0.000    0.000    0.000    0.000    0.000    0.000 
#
# Total GULP energy -89360.424928 kJ/mol
# GULP energy per Si atom -5585.026558 kJ/mol
# Density = 1.939195 g / cm^3
# Si number density = 19.436187 Si / 1000 Ang^3
#
#
#
# Elastic Constant Matrix: (Units=GPa)
#
#
# Indices 1 2 3 4 5 6 
#
# 1 96.8770 0.3767 23.3449 -0.5794 -3.8045 7.5697
# 2 0.3767 47.1753 13.5947 3.5882 -5.1183 -1.5252
# 3 23.3449 13.5947 133.9722 16.0802 -2.0746 0.4004
# 4 -0.5794 3.5882 16.0802 28.4980 -1.6190 -6.3036
# 5 -3.8045 -5.1183 -2.0746 -1.6190 21.1234 1.9346
# 6 7.5697 -1.5252 0.4004 -6.3036 1.9346 39.7708
#
#
#
# Elastic Compliance Matrix: (Units=1/GPa)
#
#
# Indices 1 2 3 4 5 6 
#
# 1 0.011068 0.000606 -0.002070 0.000996 0.002198 -0.002012
# 2 0.000606 0.022486 -0.002159 -0.001233 0.005222 0.000319
# 3 -0.002070 -0.002159 0.008612 -0.004764 -0.000368 -0.000513
# 4 0.000996 -0.001233 -0.004764 0.039379 0.001885 0.005961
# 5 0.002198 0.005222 -0.000368 0.001885 0.049322 -0.002315
# 6 -0.002012 0.000319 -0.000513 0.005961 -0.002315 0.026602
#
#
# Mechanical properties :
#
#
# Convention : Reuss Voigt Hill
#
# Bulk Modulus (GPa) = 28.63797 39.18412 33.91105
# Shear Modulus (GPa) = 28.35195 33.92566 31.13880
#
# Velocity S-wave (km/s) = 3.82346 4.18244 4.00697
# Velocity P-wave (km/s) = 5.85305 6.59757 6.23643
#
# Compressibility (1/GPa) = 0.03491867
#
# Stress axis : x y z
#
# Youngs Moduli (GPa) = 90.34900 44.47291 116.12255
#
# Poissons Ratio (x) = -0.02693 0.24034
# Poissons Ratio (y) = -0.05472 0.25075
# Poissons Ratio (z) = 0.18699 0.09603
#
# Static dielectric constant tensor:
#      x y z
#    x 1.676140 -0.023890 -0.000600 
#    y -0.023890 1.673910 0.008040 
#    z -0.000600 0.008040 1.677900 
# 
# From -- ./inp_files/279014.got.cif
#   From: 2010.05.17/outbox.cif.g08.bks.cpg/sg2_140_cif.got.tgz:279014.got - 2010.06.03 11:33:40.
