data_PCOD9055142
_publ_section_title
;
Structure prediction by ZEFSAII (Michael W. Deem and Ramdas Pophale) SiO2 
 PCOD9055142
Probable space group: P -1
;
_chemical_formula_sum "Si O2"
_cell_formula_units_Z 16
_cell_length_a 11.184189
_cell_length_b 9.582914
_cell_length_c 9.058643
_cell_angle_alpha 75.990331
_cell_angle_beta 129.715330
_cell_angle_gamma 103.944241
_cell_volume 719.754211
_symmetry_space_group_name_H-M "P -1"
_symmetry_group_IT_number 2
_symmetry_cell_setting 'triclinic'
loop_
_space_group_symop_operation_xyz
x,y,z
-x,-y,-z
loop_
_atom_site_type_symbol
_atom_site_label
_atom_site_fract_x
_atom_site_fract_y
_atom_site_fract_z
Si Si1 0.462116 0.964749 0.805099
Si Si2 0.616118 0.470291 0.966555
Si Si3 0.545080 0.749591 0.696533
Si Si4 0.980188 0.454459 0.329061
Si Si5 0.684957 0.213242 0.935653
Si Si6 0.023975 0.869654 0.663500
Si Si7 0.203193 0.710756 0.291955
Si Si8 0.216867 0.022732 0.357176
O O1 0.506183 0.815771 0.809598
O O2 0.302930 0.989040 0.588630
O O3 0.500000 0.000000 0.000000
O O4 0.586545 0.087679 0.800321
O O5 0.569306 0.316580 0.889683
O O6 0.795104 0.453735 0.153672
O O7 0.500000 0.500000 0.000000
O O8 0.618312 0.602806 0.821767
O O9 0.379346 0.708068 0.494924
O O10 0.661283 0.868692 0.669535
O O11 0.031343 0.293614 0.391343
O O12 0.085416 0.577964 0.291050
O O13 0.000000 0.500000 0.500000
O O14 0.794451 0.141328 0.155220
O O15 0.793833 0.300000 0.879404
O O16 0.933364 0.902553 0.732412
O O17 0.000000 0.000000 0.500000
O O18 0.165680 0.869029 0.277220
#
# Coordination Sequence:
#
# PCOD9055142 Si02
#       8
#     2   2   2   2   2   2   2   2
#     4  11  21  40  68  97 131 180 232 278 333 396
#     4  11  26  44  67 100 135 177 227 284 339 407
#     4  11  23  43  67 101 139 179 228 282 335 401
#     4  11  26  46  69  98 138 179 219 283 347 399
#     4  11  24  43  67  99 136 178 223 282 342 397
#     4  11  26  44  67 100 135 177 227 284 339 407
#     4  11  23  45  70 100 142 175 222 285 340 405
#     4  11  23  43  67 101 139 179 228 282 335 401
#
# _framework density 22.229811999999999
#
# number of rings (size 3 to 8) (size 9 to 14) (size 15 to 20)
#    0.000    1.000    2.500    3.750    3.500   11.000 
#    0.000    0.000    0.000    0.000    0.000    0.000 
#    0.000    0.000    0.000    0.000    0.000    0.000 
#
# Total GULP energy -89330.434604 kJ/mol
# GULP energy per Si atom -5583.152163 kJ/mol
# Density = 2.217922 g / cm^3
# Si number density = 22.229812 Si / 1000 Ang^3
#
#
#
# Elastic Constant Matrix: (Units=GPa)
#
#
# Indices 1 2 3 4 5 6 
#
# 1 98.1610 50.6884 20.5150 -16.6572 -10.9393 2.4662
# 2 50.6884 154.9819 41.7673 -21.0533 10.4087 -8.4360
# 3 20.5150 41.7673 63.3125 -12.3734 -18.3703 -15.1813
# 4 -16.6572 -21.0533 -12.3734 30.3213 2.6973 4.3716
# 5 -10.9393 10.4087 -18.3703 2.6973 32.7295 -4.7041
# 6 2.4662 -8.4360 -15.1813 4.3716 -4.7041 46.6383
#
#
#
# Elastic Compliance Matrix: (Units=1/GPa)
#
#
# Indices 1 2 3 4 5 6 
#
# 1 0.013847 -0.004671 0.000983 0.004368 0.006155 -0.001046
# 2 -0.004671 0.011445 -0.009090 0.002925 -0.010833 -0.002008
# 3 0.000983 -0.009090 0.030912 0.003431 0.021758 0.010239
# 4 0.004368 0.002925 0.003431 0.039253 -0.001121 -0.002378
# 5 0.006155 -0.010833 0.021758 -0.001121 0.049787 0.009924
# 6 -0.001046 -0.002008 0.010239 -0.002378 0.009924 0.025690
#
#
# Mechanical properties :
#
#
# Convention : Reuss Voigt Hill
#
# Bulk Modulus (GPa) = 32.62728 60.26631 46.44679
# Shear Modulus (GPa) = 24.18891 35.50348 29.84620
#
# Velocity S-wave (km/s) = 3.30226 4.00072 3.66815
# Velocity P-wave (km/s) = 5.40824 6.96495 6.23536
#
# Compressibility (1/GPa) = 0.03064920
#
# Stress axis : x y z
#
# Youngs Moduli (GPa) = 72.21662 87.37221 32.35018
#
# Poissons Ratio (x) = 0.40810 -0.03181
# Poissons Ratio (y) = 0.33731 0.29407
# Poissons Ratio (z) = -0.07102 0.79423
#
# Static dielectric constant tensor:
#      x y z
#    x 1.901730 0.008320 -0.036390 
#    y 0.008320 1.928470 0.004050 
#    z -0.036390 0.004050 1.825810 
# 
# From -- ./inp_files/243722.got.cif
#   From: 2010.05.17/outbox.cif.g08.bks.cpg/sg2_122_cif.got.tgz:243722.got - 2010.06.03 11:33:40.
