data_PCOD9055134
_publ_section_title
;
Structure prediction by ZEFSAII (Michael W. Deem and Ramdas Pophale) SiO2 
 PCOD9055134
Probable space group: P -1
;
_chemical_formula_sum "Si O2"
_cell_formula_units_Z 12
_cell_length_a 13.692753
_cell_length_b 8.310230
_cell_length_c 12.905552
_cell_angle_alpha 49.589088
_cell_angle_beta 55.576997
_cell_angle_gamma 96.067214
_cell_volume 608.245342
_symmetry_space_group_name_H-M "P -1"
_symmetry_group_IT_number 2
_symmetry_cell_setting 'triclinic'
loop_
_space_group_symop_operation_xyz
x,y,z
-x,-y,-z
loop_
_atom_site_type_symbol
_atom_site_label
_atom_site_fract_x
_atom_site_fract_y
_atom_site_fract_z
Si Si1 0.154123 0.360609 0.715498
Si Si2 0.525149 0.140378 0.537096
Si Si3 0.534258 0.467911 0.660602
Si Si4 0.675743 0.214977 0.992654
Si Si5 0.948647 0.371973 0.467646
Si Si6 0.543115 0.691873 0.995367
O O1 0.279903 0.615038 0.627546
O O2 0.288312 0.410078 0.539251
O O3 0.075153 0.451088 0.661932
O O4 0.000000 0.000000 0.000000
O O5 0.490352 0.343314 0.460112
O O6 0.500000 0.000000 0.500000
O O7 0.385826 0.857424 0.821365
O O8 0.374456 0.088807 0.888515
O O9 0.530575 0.498389 0.773285
O O10 0.551698 0.208318 0.005284
O O11 0.884625 0.535522 0.716348
O O12 0.000000 0.500000 0.500000
O O13 0.756864 0.002694 0.740874
O O14 0.500000 0.500000 0.000000
#
# Coordination Sequence:
#
# PCOD9055134 Si02
#       6
#     2   2   2   2   2   2
#     4  11  23  42  65  97 125 168 225 260 311 392
#     4  11  23  42  65  94 133 168 209 276 325 368
#     4  11  21  40  68  90 127 174 212 260 319 383
#     4  11  22  44  67  93 127 172 222 258 317 392
#     4  12  23  41  70  95 127 172 219 262 314 391
#     4  12  25  43  65  98 135 166 212 274 326 372
#
# _framework density 19.728881000000001
#
# number of rings (size 3 to 8) (size 9 to 14) (size 15 to 20)
#    0.000    0.667    5.000    6.500    0.000    0.667 
#    3.000    1.667    0.000    0.000    0.000    0.000 
#    0.000    0.000    0.000    0.000    0.000    0.000 
#
# Total GULP energy -67109.956411 kJ/mol
# GULP energy per Si atom -5592.496368 kJ/mol
# Density = 1.968398 g / cm^3
# Si number density = 19.728881 Si / 1000 Ang^3
#
#
#
# Elastic Constant Matrix: (Units=GPa)
#
#
# Indices 1 2 3 4 5 6 
#
# 1 66.5581 13.6641 28.5944 2.4023 -5.5596 23.9982
# 2 13.6641 95.4828 28.7700 3.6162 -12.9388 38.3270
# 3 28.5944 28.7700 138.9385 4.4647 -20.8309 28.1625
# 4 2.4023 3.6162 4.4647 24.9820 7.5014 7.4053
# 5 -5.5596 -12.9388 -20.8309 7.5014 38.9662 3.4923
# 6 23.9982 38.3270 28.1625 7.4053 3.4923 37.5729
#
#
#
# Elastic Compliance Matrix: (Units=1/GPa)
#
#
# Indices 1 2 3 4 5 6 
#
# 1 0.022009 0.006196 -0.000692 0.001321 0.006431 -0.020717
# 2 0.006196 0.022424 0.001776 0.001055 0.011716 -0.029460
# 3 -0.000692 0.001776 0.009901 -0.001300 0.006856 -0.009172
# 4 0.001321 0.001055 -0.001300 0.045083 -0.008021 -0.009086
# 5 0.006431 0.011716 0.006856 -0.008021 0.037753 -0.023126
# 6 -0.020717 -0.029460 -0.009172 -0.009086 -0.023126 0.080713
#
#
# Mechanical properties :
#
#
# Convention : Reuss Voigt Hill
#
# Bulk Modulus (GPa) = 14.51495 49.22627 31.87061
# Shear Modulus (GPa) = 22.09576 35.63429 28.86503
#
# Velocity S-wave (km/s) = 3.35023 4.25455 3.82918
# Velocity P-wave (km/s) = 4.72637 7.01003 5.97825
#
# Compressibility (1/GPa) = 0.06889450
#
# Stress axis : x y z
#
# Youngs Moduli (GPa) = 45.43619 44.59437 101.00137
#
# Poissons Ratio (x) = -0.27632 0.06985
# Poissons Ratio (y) = -0.28153 -0.17933
# Poissons Ratio (z) = 0.03142 -0.07918
#
# Static dielectric constant tensor:
#      x y z
#    x 1.733970 -0.006940 0.016790 
#    y -0.006940 1.693770 0.008260 
#    z 0.016790 0.008260 1.706350 
# 
# From -- ./inp_files/157552.got.cif
#   From: 2010.05.17/outbox.cif.g08.bks.cpg/sg2_79_cif.got.tgz:157552.got - 2010.06.03 11:33:40.
