data_PCOD9055468
_publ_section_title
;
Structure prediction by ZEFSAII (Michael W. Deem and Ramdas Pophale) SiO2 
 PCOD9055468
Probable space group: P -1
;
_chemical_formula_sum "Si O2"
_cell_formula_units_Z 12
_cell_length_a 12.426938
_cell_length_b 9.066582
_cell_length_c 11.447101
_cell_angle_alpha 126.412130
_cell_angle_beta 142.665752
_cell_angle_gamma 46.280463
_cell_volume 562.443915
_symmetry_space_group_name_H-M "P -1"
_symmetry_group_IT_number 2
_symmetry_cell_setting 'triclinic'
loop_
_space_group_symop_operation_xyz
x,y,z
-x,-y,-z
loop_
_atom_site_type_symbol
_atom_site_label
_atom_site_fract_x
_atom_site_fract_y
_atom_site_fract_z
Si Si1 0.196742 0.727441 0.570227
Si Si2 0.705035 0.477304 0.218478
Si Si3 0.701752 0.843835 0.542459
Si Si4 0.699945 0.147032 0.495532
Si Si5 0.633214 0.542263 0.763212
Si Si6 0.051304 0.516719 0.796265
O O1 0.199348 0.725274 0.711894
O O2 0.181066 0.903539 0.547996
O O3 0.431401 0.569366 0.667943
O O4 0.047619 0.636984 0.361110
O O5 0.680388 0.661842 0.370264
O O6 0.837263 0.490064 0.232270
O O7 0.500000 0.500000 0.000000
O O8 0.867716 0.742329 0.737369
O O9 0.500000 0.000000 0.500000
O O10 0.756342 0.966254 0.548859
O O11 0.716530 0.337609 0.661645
O O12 0.465414 0.253274 0.306117
O O13 0.796616 0.529894 0.989246
#
# Coordination Sequence:
#
# PCOD9055468 Si02
#       6
#     2   2   2   2   2   2
#     4   9  18  36  60  86 121 162 205 247 306 369
#     4  11  21  42  65  89 127 173 207 249 316 384
#     4  11  24  40  64  99 128 155 215 270 301 356
#     4   9  19  39  57  90 131 158 201 273 299 362
#     4   9  19  37  63  85 129 167 206 238 329 368
#     4  11  22  39  67  90 121 176 209 242 321 383
#
# _framework density 21.335462
#
# number of rings (size 3 to 8) (size 9 to 14) (size 15 to 20)
#    1.000    1.000    1.667    4.000    0.000    1.333 
#    0.000    6.667    0.000    0.000    0.000    0.000 
#    0.000    0.000    0.000    0.000    0.000    0.000 
#
# Total GULP energy -66890.038813 kJ/mol
# GULP energy per Si atom -5574.169901 kJ/mol
# Density = 2.128690 g / cm^3
# Si number density = 21.335462 Si / 1000 Ang^3
#
#
#
# Elastic Constant Matrix: (Units=GPa)
#
#
# Indices 1 2 3 4 5 6 
#
# 1 69.0508 12.1311 18.4083 -7.3323 13.4263 4.9308
# 2 12.1311 53.2648 15.8585 -10.6358 3.0763 18.4657
# 3 18.4083 15.8585 148.3501 -34.0807 1.2849 4.9434
# 4 -7.3323 -10.6358 -34.0807 21.2213 4.8024 -4.7738
# 5 13.4263 3.0763 1.2849 4.8024 32.9358 -3.4363
# 6 4.9308 18.4657 4.9434 -4.7738 -3.4363 47.4089
#
#
#
# Elastic Compliance Matrix: (Units=1/GPa)
#
#
# Indices 1 2 3 4 5 6 
#
# 1 0.017117 -0.001812 -0.000524 0.005686 -0.007722 -0.001007
# 2 -0.001812 0.024545 0.000601 0.011658 -0.004171 -0.008563
# 3 -0.000524 0.000601 0.011019 0.018556 -0.002944 0.000327
# 4 0.005686 0.011658 0.018556 0.088721 -0.017001 0.000634
# 5 -0.007722 -0.004171 -0.002944 -0.017001 0.036879 0.003696
# 6 -0.001007 -0.008563 0.000327 0.000634 0.003696 0.024831
#
#
# Mechanical properties :
#
#
# Convention : Reuss Voigt Hill
#
# Bulk Modulus (GPa) = 20.32031 40.38460 30.35246
# Shear Modulus (GPa) = 22.42292 35.26438 28.84365
#
# Velocity S-wave (km/s) = 3.24538 4.06994 3.68082
# Velocity P-wave (km/s) = 4.85677 6.40745 5.68523
#
# Compressibility (1/GPa) = 0.04921185
#
# Stress axis : x y z
#
# Youngs Moduli (GPa) = 58.42041 40.74105 90.75107
#
# Poissons Ratio (x) = 0.07382 0.04751
# Poissons Ratio (y) = 0.10586 -0.05451
# Poissons Ratio (z) = 0.03059 -0.02447
#
# Static dielectric constant tensor:
#      x y z
#    x 1.850570 0.006340 -0.002750 
#    y 0.006340 1.882520 -0.053590 
#    z -0.002750 -0.053590 1.725990 
# 
# From -- ./inp_files/418309.got.cif
#   From: 2010.05.17/outbox.cif.g08.bks.cpg/sg2_210_cif.got.tgz:418309.got - 2010.06.03 11:33:40.
