data_PCOD9055289
_publ_section_title
;
Structure prediction by ZEFSAII (Michael W. Deem and Ramdas Pophale) SiO2 
 PCOD9055289
Probable space group: P -1
;
_chemical_formula_sum "Si O2"
_cell_formula_units_Z 16
_cell_length_a 9.389241
_cell_length_b 10.683312
_cell_length_c 20.228563
_cell_angle_alpha 35.441578
_cell_angle_beta 144.051647
_cell_angle_gamma 137.126733
_cell_volume 674.527481
_symmetry_space_group_name_H-M "P -1"
_symmetry_group_IT_number 2
_symmetry_cell_setting 'triclinic'
loop_
_space_group_symop_operation_xyz
x,y,z
-x,-y,-z
loop_
_atom_site_type_symbol
_atom_site_label
_atom_site_fract_x
_atom_site_fract_y
_atom_site_fract_z
Si Si1 0.450414 0.530345 0.079380
Si Si2 0.781992 0.214377 0.328121
Si Si3 0.117741 0.763402 0.442454
Si Si4 0.769807 0.660412 0.461248
Si Si5 0.576634 0.198278 0.620499
Si Si6 0.025103 0.209083 0.873051
Si Si7 0.996083 0.379659 0.214762
Si Si8 0.345858 0.247250 0.293499
O O1 0.564660 0.336595 0.172152
O O2 0.700919 0.721240 0.086659
O O3 0.363971 0.420807 0.164951
O O4 0.229422 0.595691 0.928389
O O5 0.991894 0.342567 0.400681
O O6 0.918523 0.185480 0.323779
O O7 0.628264 0.000510 0.397976
O O8 0.373761 0.759852 0.578064
O O9 0.000000 0.500000 0.500000
O O10 0.885432 0.805306 0.381191
O O11 0.197483 0.992936 0.331625
O O12 0.648746 0.404701 0.510373
O O13 0.566322 0.735577 0.397225
O O14 0.826268 0.151816 0.764478
O O15 0.964807 0.405390 0.813798
O O16 0.000000 0.000000 0.000000
O O17 0.212480 0.338211 0.266384
#
# Coordination Sequence:
#
# PCOD9055289 Si02
#       8
#     2   2   2   2   2   2   2   2
#     4  11  22  44  65  95 135 175 219 269 333 393
#     4  11  21  41  66  95 132 170 214 267 337 387
#     4  11  26  44  68  93 136 177 220 272 335 394
#     4  11  23  40  60 101 129 163 222 273 324 395
#     4  11  22  35  66  94 129 165 213 274 329 379
#     4  11  22  42  66 102 133 171 225 273 329 397
#     4  11  23  42  69  96 135 175 221 276 327 396
#     4  11  25  46  67  96 134 178 224 268 328 402
#
# _framework density 23.720307999999999
#
# number of rings (size 3 to 8) (size 9 to 14) (size 15 to 20)
#    0.000    1.000    3.750    4.500    3.500    0.000 
#    2.250    0.625    0.000    0.000    0.000    0.000 
#    0.000    0.000    0.000    0.000    0.000    0.000 
#
# Total GULP energy -89296.886412 kJ/mol
# GULP energy per Si atom -5581.055401 kJ/mol
# Density = 2.366632 g / cm^3
# Si number density = 23.720308 Si / 1000 Ang^3
#
#
#
# Elastic Constant Matrix: (Units=GPa)
#
#
# Indices 1 2 3 4 5 6 
#
# 1 149.6660 50.9395 23.0151 -2.4503 -17.4191 37.6760
# 2 50.9395 172.4162 43.8298 -8.5792 -14.5079 25.3341
# 3 23.0151 43.8298 79.6588 21.3578 -5.6624 19.8087
# 4 -2.4503 -8.5792 21.3578 33.2681 11.9955 -4.4874
# 5 -17.4191 -14.5079 -5.6624 11.9955 38.5035 -11.1179
# 6 37.6760 25.3341 19.8087 -4.4874 -11.1179 49.4155
#
#
#
# Elastic Compliance Matrix: (Units=1/GPa)
#
#
# Indices 1 2 3 4 5 6 
#
# 1 0.008893 -0.001798 0.000448 -0.001691 0.002300 -0.005674
# 2 -0.001798 0.007938 -0.005278 0.005399 -0.000329 -0.000167
# 3 0.000448 -0.005278 0.022470 -0.018612 0.005252 -0.007151
# 4 -0.001691 0.005399 -0.018612 0.049595 -0.014856 0.007143
# 5 0.002300 -0.000329 0.005252 -0.014856 0.032976 0.002380
# 6 -0.005674 -0.000167 -0.007151 0.007143 0.002380 0.028699
#
#
# Mechanical properties :
#
#
# Convention : Reuss Voigt Hill
#
# Bulk Modulus (GPa) = 38.39497 70.81222 54.60360
# Shear Modulus (GPa) = 28.98388 43.16786 36.07587
#
# Velocity S-wave (km/s) = 3.49936 4.27062 3.90408
# Velocity P-wave (km/s) = 5.70518 7.36447 6.58728
#
# Compressibility (1/GPa) = 0.02604508
#
# Stress axis : x y z
#
# Youngs Moduli (GPa) = 112.44752 125.97139 44.50407
#
# Poissons Ratio (x) = 0.22651 -0.01993
# Poissons Ratio (y) = 0.20219 0.23488
# Poissons Ratio (z) = -0.05035 0.66484
#
# Static dielectric constant tensor:
#      x y z
#    x 2.011340 -0.073690 0.006210 
#    y -0.073690 2.004140 -0.095150 
#    z 0.006210 -0.095150 1.849990 
# 
# From -- ./inp_files/589508.got.cif
#   From: 2010.05.17/outbox.cif.g08.bks.cpg/sg2_295_cif.got.tgz:589508.got - 2010.06.03 11:33:40.
