data_PCOD9055030
_publ_section_title
;
Structure prediction by ZEFSAII (Michael W. Deem and Ramdas Pophale) SiO2 
 PCOD9055030
Probable space group: P -1
;
_chemical_formula_sum "Si O2"
_cell_formula_units_Z 14
_cell_length_a 9.686339
_cell_length_b 23.836117
_cell_length_c 8.402157
_cell_angle_alpha 47.005931
_cell_angle_beta 148.389355
_cell_angle_gamma 138.532792
_cell_volume 667.943245
_symmetry_space_group_name_H-M "P -1"
_symmetry_group_IT_number 2
_symmetry_cell_setting 'triclinic'
loop_
_space_group_symop_operation_xyz
x,y,z
-x,-y,-z
loop_
_atom_site_type_symbol
_atom_site_label
_atom_site_fract_x
_atom_site_fract_y
_atom_site_fract_z
Si Si1 0.400442 0.725083 0.133447
Si Si2 0.656853 0.439055 0.793575
Si Si3 0.659021 0.206704 0.402533
Si Si4 0.267196 0.013066 0.351166
Si Si5 0.683501 0.696867 0.014280
Si Si6 0.075428 0.245679 0.182981
Si Si7 0.173894 0.946134 0.723070
O O1 0.381516 0.634662 0.229046
O O2 0.692000 0.761448 0.453964
O O3 0.396324 0.774136 0.871854
O O4 0.146090 0.728504 0.987411
O O5 0.500000 0.500000 0.500000
O O6 0.510694 0.387333 0.912021
O O7 0.000000 0.500000 0.000000
O O8 0.452281 0.107543 0.420129
O O9 0.008181 0.246110 0.700687
O O10 0.523083 0.255129 0.285670
O O11 0.500000 0.000000 0.500000
O O12 0.166119 0.947017 0.523070
O O13 0.000000 0.000000 0.000000
O O14 0.770628 0.688156 0.936823
O O15 0.928901 0.151797 0.138320
O O16 0.000000 0.000000 0.500000
O O17 0.500000 0.000000 0.000000
#
# Coordination Sequence:
#
# PCOD9055030 Si02
#       7
#     2   2   2   2   2   2   2
#     4  11  23  40  65  91 123 163 201 255 311 362
#     4  11  23  44  68  93 121 157 201 249 310 387
#     4  11  21  40  60  87 120 167 214 246 296 372
#     4  12  23  37  58  88 121 162 212 265 302 342
#     4  11  23  40  65  89 120 162 201 247 305 375
#     4  12  23  41  61  94 128 161 208 256 304 364
#     4  12  24  40  60  88 127 172 209 256 308 352
#
# _framework density 20.959865000000001
#
# number of rings (size 3 to 8) (size 9 to 14) (size 15 to 20)
#    0.000    0.571    0.000   11.143    0.000    0.000 
#    0.000    4.286    0.000    0.000    0.000    0.000 
#    0.000    0.000    0.000    0.000    0.000    0.000 
#
# Total GULP energy -78224.602184 kJ/mol
# GULP energy per Si atom -5587.471585 kJ/mol
# Density = 2.091216 g / cm^3
# Si number density = 20.959865 Si / 1000 Ang^3
#
#
#
# Elastic Constant Matrix: (Units=GPa)
#
#
# Indices 1 2 3 4 5 6 
#
# 1 138.2269 28.9344 39.0920 -10.3151 25.1026 9.3635
# 2 28.9344 96.3908 15.1102 -2.1787 5.7911 23.6574
# 3 39.0920 15.1102 124.5595 17.0317 19.7190 13.0841
# 4 -10.3151 -2.1787 17.0317 40.8241 -10.7498 8.4125
# 5 25.1026 5.7911 19.7190 -10.7498 48.4874 -1.7507
# 6 9.3635 23.6574 13.0841 8.4125 -1.7507 21.3217
#
#
#
# Elastic Compliance Matrix: (Units=1/GPa)
#
#
# Indices 1 2 3 4 5 6 
#
# 1 0.009147 -0.001595 -0.002360 0.002862 -0.003029 -0.002177
# 2 -0.001595 0.015406 0.000140 0.003856 -0.000869 -0.018072
# 3 -0.002360 0.000140 0.010596 -0.005382 -0.004437 -0.003862
# 4 0.002862 0.003856 -0.005382 0.032476 0.006924 -0.014477
# 5 -0.003029 -0.000869 -0.004437 0.006924 0.025794 0.004403
# 6 -0.002177 -0.018072 -0.003862 -0.014477 0.004403 0.076352
#
#
# Mechanical properties :
#
#
# Convention : Reuss Voigt Hill
#
# Bulk Modulus (GPa) = 36.33793 58.38336 47.36065
# Shear Modulus (GPa) = 26.79905 40.52936 33.66420
#
# Velocity S-wave (km/s) = 3.57962 4.40212 4.01200
# Velocity P-wave (km/s) = 5.87021 7.33168 6.64127
#
# Compressibility (1/GPa) = 0.02751945
#
# Stress axis : x y z
#
# Youngs Moduli (GPa) = 109.32573 64.90994 94.37524
#
# Poissons Ratio (x) = 0.10352 0.22275
# Poissons Ratio (y) = 0.17435 -0.01324
# Poissons Ratio (z) = 0.25804 -0.00911
#
# Static dielectric constant tensor:
#      x y z
#    x 1.751120 -0.022080 -0.013870 
#    y -0.022080 1.942530 -0.037240 
#    z -0.013870 -0.037240 1.732710 
# 
# From -- ./inp_files/47217.got.cif
#   From: 2010.05.17/outbox.cif.g08.bks.cpg/sg2_24_cif.got.tgz:47217.got - 2010.06.03 11:33:40.
