data_PCOD9055101
_publ_section_title
;
Structure prediction by ZEFSAII (Michael W. Deem and Ramdas Pophale) SiO2 
 PCOD9055101
Probable space group: P -1
;
_chemical_formula_sum "Si O2"
_cell_formula_units_Z 16
_cell_length_a 15.797921
_cell_length_b 24.700689
_cell_length_c 24.204882
_cell_angle_alpha 11.639148
_cell_angle_beta 23.585982
_cell_angle_gamma 23.690761
_cell_volume 743.018259
_symmetry_space_group_name_H-M "P -1"
_symmetry_group_IT_number 2
_symmetry_cell_setting 'triclinic'
loop_
_space_group_symop_operation_xyz
x,y,z
-x,-y,-z
loop_
_atom_site_type_symbol
_atom_site_label
_atom_site_fract_x
_atom_site_fract_y
_atom_site_fract_z
Si Si1 0.129095 0.107004 0.013382
Si Si2 0.420341 0.513537 0.796105
Si Si3 0.323037 0.525443 0.423979
Si Si4 0.661031 0.088462 0.358469
Si Si5 0.318428 0.433575 0.058655
Si Si6 0.135328 0.105099 0.361684
Si Si7 0.718763 0.222069 0.565741
Si Si8 0.808336 0.687268 0.111036
O O1 0.255022 0.821213 0.197741
O O2 0.887896 0.084857 0.195956
O O3 0.229075 0.192614 0.925278
O O4 0.143159 0.352237 0.717970
O O5 0.623385 0.455843 0.691222
O O6 0.438932 0.410515 0.951032
O O7 0.319313 0.839104 0.533588
O O8 0.248347 0.353510 0.031685
O O9 0.541482 0.350542 0.497859
O O10 0.500000 0.000000 0.500000
O O11 0.582717 0.385981 0.136520
O O12 0.693927 0.858402 0.616679
O O13 0.069298 0.604522 0.029855
O O14 0.958104 0.201664 0.418180
O O15 0.000000 0.000000 0.500000
O O16 0.711995 0.919223 0.892313
O O17 0.713917 0.421655 0.421378
#
# Coordination Sequence:
#
# PCOD9055101 Si02
#       8
#     2   2   2   2   2   2   2   2
#     4  11  25  44  60  87 127 162 209 256 318 384
#     4  12  24  38  62  89 129 171 212 259 310 355
#     4  12  26  39  58  88 131 183 209 244 302 372
#     4  11  24  45  76  98 115 148 197 265 330 387
#     4  11  21  40  67 100 124 149 205 268 320 354
#     4  12  22  36  56  87 124 174 229 274 282 328
#     4  12  22  35  58  86 124 173 224 257 299 330
#     4  11  22  38  60  86 122 170 214 271 296 335
#
# _framework density 21.53379
#
# number of rings (size 3 to 8) (size 9 to 14) (size 15 to 20)
#    0.000    0.500    3.750    6.750    1.750    3.000 
#    0.000    0.000    0.000    4.500    0.000    0.000 
#    0.000    0.000    0.000    0.000    0.000    0.000 
#
# Total GULP energy -89576.953567 kJ/mol
# GULP energy per Si atom -5598.559598 kJ/mol
# Density = 2.148478 g / cm^3
# Si number density = 21.533790 Si / 1000 Ang^3
#
#
#
# Elastic Constant Matrix: (Units=GPa)
#
#
# Indices 1 2 3 4 5 6 
#
# 1 64.2032 32.2831 13.3974 13.5053 -1.5471 22.1196
# 2 32.2831 76.2526 24.5508 7.0904 12.5301 39.2997
# 3 13.3974 24.5508 99.2971 -3.6847 5.5221 18.9921
# 4 13.5053 7.0904 -3.6847 33.0518 10.4833 4.4110
# 5 -1.5471 12.5301 5.5221 10.4833 32.3713 8.5514
# 6 22.1196 39.2997 18.9921 4.4110 8.5514 33.8376
#
#
#
# Elastic Compliance Matrix: (Units=1/GPa)
#
#
# Indices 1 2 3 4 5 6 
#
# 1 0.024463 -0.005321 -0.000937 -0.010611 0.009550 -0.010315
# 2 -0.005321 0.034207 -0.000812 0.000791 -0.004425 -0.034779
# 3 -0.000937 -0.000812 0.011530 0.002928 -0.001335 -0.004960
# 4 -0.010611 0.000791 0.002928 0.039023 -0.014746 0.003015
# 5 0.009550 -0.004425 -0.001335 -0.014746 0.040343 -0.008627
# 6 -0.010315 -0.034779 -0.004960 0.003015 -0.008627 0.081261
#
#
# Mechanical properties :
#
#
# Convention : Reuss Voigt Hill
#
# Bulk Modulus (GPa) = 17.83834 42.24616 30.04225
# Shear Modulus (GPa) = 18.96427 31.15356 25.05892
#
# Velocity S-wave (km/s) = 2.97084 3.80772 3.41501
# Velocity P-wave (km/s) = 4.47992 6.24442 5.43426
#
# Compressibility (1/GPa) = 0.05605904
#
# Stress axis : x y z
#
# Youngs Moduli (GPa) = 40.87819 29.23363 86.73395
#
# Poissons Ratio (x) = 0.15556 0.08125
# Poissons Ratio (y) = 0.21753 0.07044
# Poissons Ratio (z) = 0.03829 0.02374
#
# Static dielectric constant tensor:
#      x y z
#    x 1.850450 0.035290 -0.018730 
#    y 0.035290 1.795850 0.003260 
#    z -0.018730 0.003260 1.774070 
# 
# From -- ./inp_files/437346.got.cif
#   From: 2010.05.17/outbox.cif.g08.bks.cpg/sg2_219_cif.got.tgz:437346.got - 2010.06.03 11:33:40.
