data_PCOD9055922
_publ_section_title
;
Structure prediction by ZEFSAII (Michael W. Deem and Ramdas Pophale) SiO2 
 PCOD9055922
Probable space group: P -1
;
_chemical_formula_sum "Si O2"
_cell_formula_units_Z 14
_cell_length_a 11.782881
_cell_length_b 11.901269
_cell_length_c 11.571497
_cell_angle_alpha 104.995607
_cell_angle_beta 145.322648
_cell_angle_gamma 104.619021
_cell_volume 474.895290
_symmetry_space_group_name_H-M "P -1"
_symmetry_group_IT_number 2
_symmetry_cell_setting 'triclinic'
loop_
_space_group_symop_operation_xyz
x,y,z
-x,-y,-z
loop_
_atom_site_type_symbol
_atom_site_label
_atom_site_fract_x
_atom_site_fract_y
_atom_site_fract_z
Si Si1 0.278186 0.399857 0.045959
Si Si2 0.554204 0.295027 0.621633
Si Si3 0.233004 0.012173 0.846641
Si Si4 0.561182 0.297646 0.978704
Si Si5 0.500000 0.000000 0.500000
Si Si6 0.848026 0.213033 0.091151
Si Si7 0.500000 0.500000 0.000000
Si Si8 0.770798 0.823367 0.916445
O O1 0.228119 0.509106 0.062313
O O2 0.254081 0.360193 0.880727
O O3 0.049249 0.210004 0.898035
O O4 0.705119 0.579243 0.484760
O O5 0.507262 0.322102 0.460506
O O6 0.666154 0.217586 0.696862
O O7 0.124812 0.076354 0.247084
O O8 0.298829 0.931953 0.957763
O O9 0.775536 0.784260 0.379525
O O10 0.387371 0.130278 0.885915
O O11 0.366172 0.182606 0.085145
O O12 0.725717 0.286744 0.025074
O O13 0.772720 0.514222 0.262826
O O14 0.312327 0.926786 0.193754
#
# Coordination Sequence:
#
# PCOD9055922 Si02
#       8
#     2   2   2   2   1   2   1   2
#     4  12  25  43  71 103 140 185 231 285 352 418
#     4  11  23  45  71  96 138 180 231 297 341 413
#     4  11  21  46  69  98 140 185 236 290 348 414
#     4  11  25  41  71 102 138 191 237 282 351 417
#     4  12  24  42  74 100 136 184 230 286 356 410
#     4  12  24  45  69 104 139 185 236 291 345 420
#     4  12  22  44  62  98 148 178 224 288 338 414
#     4  11  21  44  71  96 131 189 228 282 363 401
#
# _framework density 29.480181999999999
#
# number of rings (size 3 to 8) (size 9 to 14) (size 15 to 20)
#    0.000    0.571    5.714    3.429    0.000    0.571 
#    0.000    4.286    0.000    0.000    0.000    0.000 
#    0.000    0.000    0.000    0.000    0.000    0.000 
#
# Total GULP energy -78132.713149 kJ/mol
# GULP energy per Si atom -5580.908082 kJ/mol
# Density = 2.941308 g / cm^3
# Si number density = 29.480182 Si / 1000 Ang^3
#
#
#
# Elastic Constant Matrix: (Units=GPa)
#
#
# Indices 1 2 3 4 5 6 
#
# 1 117.9188 45.8978 39.1043 -7.9419 -28.4991 -9.9747
# 2 45.8978 215.8055 23.5432 -13.0842 -8.7694 1.6706
# 3 39.1043 23.5432 99.9084 1.7906 -11.1253 8.8331
# 4 -7.9419 -13.0842 1.7906 34.0977 -3.1786 -9.4421
# 5 -28.4991 -8.7694 -11.1253 -3.1786 45.3863 -2.6313
# 6 -9.9747 1.6706 8.8331 -9.4421 -2.6313 74.4025
#
#
#
# Elastic Compliance Matrix: (Units=1/GPa)
#
#
# Indices 1 2 3 4 5 6 
#
# 1 0.012783 -0.001758 -0.004133 0.004017 0.007130 0.003006
# 2 -0.001758 0.005159 -0.000563 0.001561 -0.000141 -0.000091
# 3 -0.004133 -0.000563 0.011997 -0.002446 -0.000067 -0.002279
# 4 0.004017 0.001561 -0.002446 0.032862 0.004824 0.005135
# 5 0.007130 -0.000141 -0.000067 0.004824 0.026951 0.002532
# 6 0.003006 -0.000091 -0.002279 0.005135 0.002532 0.014857
#
#
# Mechanical properties :
#
#
# Convention : Reuss Voigt Hill
#
# Bulk Modulus (GPa) = 58.71554 72.30259 65.50907
# Shear Modulus (GPa) = 40.58620 52.44979 46.51800
#
# Velocity S-wave (km/s) = 3.71445 4.22258 3.97664
# Velocity P-wave (km/s) = 6.19326 6.95361 6.58442
#
# Compressibility (1/GPa) = 0.01703127
#
# Stress axis : x y z
#
# Youngs Moduli (GPa) = 78.22837 193.84576 83.35142
#
# Poissons Ratio (x) = 0.34075 0.34448
# Poissons Ratio (y) = 0.13751 0.04695
# Poissons Ratio (z) = 0.32331 0.10918
#
# Static dielectric constant tensor:
#      x y z
#    x 1.893280 0.192490 0.387610 
#    y 0.192490 2.144470 -0.313480 
#    z 0.387610 -0.313480 1.512500 
# 
# From -- ./inp_files/426397.got.cif
#   From: 2010.05.17/outbox.cif.g08.bks.cpg/sg2_214_cif.got.tgz:426397.got - 2010.06.03 11:33:40.
