data_PCOD9055676
_publ_section_title
;
Structure prediction by ZEFSAII (Michael W. Deem and Ramdas Pophale) SiO2 
 PCOD9055676
Probable space group: P -1
;
_chemical_formula_sum "Si O2"
_cell_formula_units_Z 16
_cell_length_a 8.812603
_cell_length_b 21.595021
_cell_length_c 12.249851
_cell_angle_alpha 39.818991
_cell_angle_beta 49.000367
_cell_angle_gamma 29.522427
_cell_volume 735.063918
_symmetry_space_group_name_H-M "P -1"
_symmetry_group_IT_number 2
_symmetry_cell_setting 'triclinic'
loop_
_space_group_symop_operation_xyz
x,y,z
-x,-y,-z
loop_
_atom_site_type_symbol
_atom_site_label
_atom_site_fract_x
_atom_site_fract_y
_atom_site_fract_z
Si Si1 0.300330 0.208993 0.490758
Si Si2 0.158064 0.423783 0.413503
Si Si3 0.471819 0.383784 0.933369
Si Si4 0.094798 0.389199 0.939234
Si Si5 0.246603 0.112051 0.261078
Si Si6 0.340728 0.589133 0.565340
Si Si7 0.893591 0.110318 0.251204
Si Si8 0.210929 0.798345 0.481124
O O1 0.179820 0.304098 0.528347
O O2 0.593067 0.163584 0.369886
O O3 0.012375 0.319281 0.396133
O O4 0.416043 0.058152 0.659107
O O5 0.514446 0.321138 0.401504
O O6 0.000000 0.500000 0.500000
O O7 0.993876 0.537625 0.236772
O O8 0.337922 0.364589 0.926137
O O9 0.515557 0.471837 0.739096
O O10 0.765806 0.227083 0.060538
O O11 0.215933 0.490771 0.003681
O O12 0.213759 0.236117 0.082392
O O13 0.065866 0.110411 0.261389
O O14 0.081566 0.152436 0.400127
O O15 0.500000 0.500000 0.500000
O O16 0.318287 0.710737 0.436624
O O17 0.118234 0.943987 0.327330
#
# Coordination Sequence:
#
# PCOD9055676 Si02
#       8
#     2   2   2   2   2   2   2   2
#     4  11  21  43  64  91 129 167 210 264 310 372
#     4  12  23  42  65  88 129 172 210 258 317 377
#     4  11  22  41  63  94 129 163 212 265 312 371
#     4  11  23  40  64  97 125 166 214 261 315 371
#     4  11  22  39  68  98 125 158 217 268 312 370
#     4  12  26  43  63  93 130 170 215 255 314 388
#     4  11  22  40  67  97 128 157 214 271 312 367
#     4  11  23  39  65  95 123 171 211 260 318 369
#
# _framework density 21.766815000000001
#
# number of rings (size 3 to 8) (size 9 to 14) (size 15 to 20)
#    0.000    0.750    6.250    2.250    3.500    2.000 
#    0.000    2.500    0.000    0.000    0.000    0.000 
#    0.000    0.000    0.000    0.000    0.000    0.000 
#
# Total GULP energy -89456.706875 kJ/mol
# GULP energy per Si atom -5591.044180 kJ/mol
# Density = 2.171727 g / cm^3
# Si number density = 21.766815 Si / 1000 Ang^3
#
#
#
# Elastic Constant Matrix: (Units=GPa)
#
#
# Indices 1 2 3 4 5 6 
#
# 1 73.5886 43.7866 29.6219 -16.3344 1.8211 27.6237
# 2 43.7866 108.5847 68.7509 -28.1746 2.3247 38.7254
# 3 29.6219 68.7509 109.6058 -37.9505 16.7549 15.9504
# 4 -16.3344 -28.1746 -37.9505 40.7571 7.0967 -2.8663
# 5 1.8211 2.3247 16.7549 7.0967 37.8317 -4.1933
# 6 27.6237 38.7254 15.9504 -2.8663 -4.1933 45.2779
#
#
#
# Elastic Compliance Matrix: (Units=1/GPa)
#
#
# Indices 1 2 3 4 5 6 
#
# 1 0.020542 -0.003691 0.000933 0.006475 -0.003456 -0.009614
# 2 -0.003691 0.022955 -0.010423 0.003527 0.001240 -0.013371
# 3 0.000933 -0.010423 0.023320 0.017138 -0.012945 0.000017
# 4 0.006475 0.003527 0.017138 0.047909 -0.018400 -0.011675
# 5 -0.003456 0.001240 -0.012945 -0.018400 0.036576 0.007831
# 6 -0.009614 -0.013371 0.000017 -0.011675 0.007831 0.039367
#
#
# Mechanical properties :
#
#
# Convention : Reuss Voigt Hill
#
# Bulk Modulus (GPa) = 24.72014 64.01090 44.36552
# Shear Modulus (GPa) = 21.69053 34.74797 28.21925
#
# Velocity S-wave (km/s) = 3.16016 3.99980 3.60451
# Velocity P-wave (km/s) = 4.96960 7.12759 6.14408
#
# Compressibility (1/GPa) = 0.04045284
#
# Stress axis : x y z
#
# Youngs Moduli (GPa) = 48.68183 43.56420 42.88185
#
# Poissons Ratio (x) = 0.16082 -0.04002
# Poissons Ratio (y) = 0.17971 0.44698
# Poissons Ratio (z) = -0.04543 0.45409
#
# Static dielectric constant tensor:
#      x y z
#    x 1.833430 -0.012880 -0.023000 
#    y -0.012880 1.813700 0.003390 
#    z -0.023000 0.003390 1.782090 
# 
# From -- ./inp_files/298439.got.cif
#   From: 2010.05.17/outbox.cif.g08.bks.cpg/sg2_150_cif.got.tgz:298439.got - 2010.06.03 11:33:40.
