data_PCOD9055698
_publ_section_title
;
Structure prediction by ZEFSAII (Michael W. Deem and Ramdas Pophale) SiO2 
 PCOD9055698
Probable space group: P -1
;
_chemical_formula_sum "Si O2"
_cell_formula_units_Z 16
_cell_length_a 13.719984
_cell_length_b 9.799110
_cell_length_c 9.025293
_cell_angle_alpha 80.317173
_cell_angle_beta 86.048684
_cell_angle_gamma 142.102220
_cell_volume 692.782184
_symmetry_space_group_name_H-M "P -1"
_symmetry_group_IT_number 2
_symmetry_cell_setting 'triclinic'
loop_
_space_group_symop_operation_xyz
x,y,z
-x,-y,-z
loop_
_atom_site_type_symbol
_atom_site_label
_atom_site_fract_x
_atom_site_fract_y
_atom_site_fract_z
Si Si1 0.258577 0.677907 0.950172
Si Si2 0.826752 0.316906 0.731805
Si Si3 0.938972 0.178207 0.927160
Si Si4 0.311043 0.046639 0.776819
Si Si5 0.476069 0.092307 0.360569
Si Si6 0.938461 0.156038 0.408760
Si Si7 0.011321 0.064511 0.684044
Si Si8 0.409764 0.544237 0.499808
O O1 0.088100 0.399754 0.979676
O O2 0.250150 0.822197 0.856295
O O3 0.408149 0.785753 0.819975
O O4 0.274925 0.725427 0.114375
O O5 0.909271 0.275804 0.803806
O O6 0.710419 0.137860 0.641352
O O7 0.956623 0.584828 0.621933
O O8 0.986873 0.100301 0.840887
O O9 0.770100 0.959929 0.080354
O O10 0.509332 0.288226 0.684086
O O11 0.221128 0.988095 0.645737
O O12 0.500000 0.000000 0.500000
O O13 0.530413 0.294866 0.397893
O O14 0.907321 0.040760 0.586203
O O15 0.032261 0.145225 0.303062
O O16 0.208657 0.305533 0.573396
O O17 0.500000 0.500000 0.500000
#
# Coordination Sequence:
#
# PCOD9055698 Si02
#       8
#     2   2   2   2   2   2   2   2
#     4  11  21  43  67 100 134 173 222 277 334 387
#     4  11  24  42  68 100 138 169 217 285 331 387
#     4  11  23  43  69 100 130 176 225 273 329 397
#     4  11  22  42  68  95 134 172 216 271 336 383
#     4  12  25  41  68 100 132 179 224 266 333 398
#     4  11  23  42  66  98 131 174 217 282 327 383
#     4  11  26  42  67  97 134 173 227 270 327 397
#     4  12  25  44  67  95 135 176 215 273 328 390
#
# _framework density 23.095282000000001
#
# number of rings (size 3 to 8) (size 9 to 14) (size 15 to 20)
#    0.000    0.750    6.250    1.875    1.750    1.000 
#    2.250    0.000    0.000    4.500    0.000    0.000 
#    0.000    0.000    0.000    0.000    0.000    0.000 
#
# Total GULP energy -89508.261311 kJ/mol
# GULP energy per Si atom -5594.266332 kJ/mol
# Density = 2.304272 g / cm^3
# Si number density = 23.095282 Si / 1000 Ang^3
#
#
#
# Elastic Constant Matrix: (Units=GPa)
#
#
# Indices 1 2 3 4 5 6 
#
# 1 51.5778 23.7029 19.0181 9.3955 -1.9268 2.8195
# 2 23.7029 105.8859 24.0127 25.4195 0.9623 0.5183
# 3 19.0181 24.0127 77.2538 6.2536 -13.4940 6.2629
# 4 9.3955 25.4195 6.2536 31.4289 -1.8274 -11.5589
# 5 -1.9268 0.9623 -13.4940 -1.8274 58.2344 5.3976
# 6 2.8195 0.5183 6.2629 -11.5589 5.3976 23.2845
#
#
#
# Elastic Compliance Matrix: (Units=1/GPa)
#
#
# Indices 1 2 3 4 5 6 
#
# 1 0.023491 -0.003035 -0.004025 -0.005375 0.000133 -0.004394
# 2 -0.003035 0.013359 -0.002245 -0.011234 -0.000756 -0.004727
# 3 -0.004025 -0.002245 0.015970 -0.002020 0.004070 -0.005704
# 4 -0.005375 -0.011234 -0.002020 0.053193 -0.001403 0.028176
# 5 0.000133 -0.000756 0.004070 -0.001403 0.018655 -0.006115
# 6 -0.004394 -0.004727 -0.005704 0.028176 -0.006115 0.060523
#
#
# Mechanical properties :
#
#
# Convention : Reuss Voigt Hill
#
# Bulk Modulus (GPa) = 29.23052 40.90941 35.06997
# Shear Modulus (GPa) = 23.23368 33.78849 28.51108
#
# Velocity S-wave (km/s) = 3.17518 3.82907 3.51735
# Velocity P-wave (km/s) = 5.11139 6.10744 5.63148
#
# Compressibility (1/GPa) = 0.03421082
#
# Stress axis : x y z
#
# Youngs Moduli (GPa) = 42.56870 74.85349 62.61828
#
# Poissons Ratio (x) = 0.22719 0.25204
# Poissons Ratio (y) = 0.12920 0.14056
# Poissons Ratio (z) = 0.17134 0.16802
#
# Static dielectric constant tensor:
#      x y z
#    x 1.917660 -0.005570 -0.048780 
#    y -0.005570 1.859450 -0.037520 
#    z -0.048780 -0.037520 1.913500 
# 
# From -- ./inp_files/298548.got.cif
#   From: 2010.05.17/outbox.cif.g08.bks.cpg/sg2_150_cif.got.tgz:298548.got - 2010.06.03 11:33:40.
