data_PCOD9055487
_publ_section_title
;
Structure prediction by ZEFSAII (Michael W. Deem and Ramdas Pophale) SiO2 
 PCOD9055487
Probable space group: P -1
;
_chemical_formula_sum "Si O2"
_cell_formula_units_Z 16
_cell_length_a 21.664810
_cell_length_b 25.408335
_cell_length_c 8.934983
_cell_angle_alpha 153.505852
_cell_angle_beta 32.577313
_cell_angle_gamma 164.188366
_cell_volume 590.920740
_symmetry_space_group_name_H-M "P -1"
_symmetry_group_IT_number 2
_symmetry_cell_setting 'triclinic'
loop_
_space_group_symop_operation_xyz
x,y,z
-x,-y,-z
loop_
_atom_site_type_symbol
_atom_site_label
_atom_site_fract_x
_atom_site_fract_y
_atom_site_fract_z
Si Si1 0.892695 0.539401 0.412610
Si Si2 0.370141 0.454340 0.461932
Si Si3 0.271010 0.670614 0.474670
Si Si4 0.680908 0.864599 0.222450
Si Si5 0.047410 0.797873 0.188585
Si Si6 0.386866 0.885027 0.275700
Si Si7 0.797375 0.901619 0.601398
Si Si8 0.162001 0.273230 0.115847
O O1 0.838385 0.416204 0.358558
O O2 0.824043 0.614646 0.753760
O O3 0.164158 0.770886 0.418966
O O4 0.736196 0.346296 0.108394
O O5 0.170083 0.308174 0.612282
O O6 0.609957 0.734192 0.687984
O O7 0.285648 0.422830 0.393787
O O8 0.402388 0.343236 0.107400
O O9 0.475093 0.757733 0.305935
O O10 0.406572 0.900904 0.714737
O O11 0.078699 0.440719 0.174802
O O12 0.780853 0.019971 0.562780
O O13 0.902562 0.041891 0.116916
O O14 0.153273 0.930079 0.149044
O O15 0.500000 0.000000 0.500000
O O16 0.738710 0.763494 0.229475
O O17 0.000000 0.000000 0.500000
#
# Coordination Sequence:
#
# PCOD9055487 Si02
#       8
#     2   2   2   2   2   2   2   2
#     4  11  26  49  74 107 135 175 231 288 348 414
#     4  11  23  40  66  91 142 195 225 272 335 388
#     4  12  27  45  74 105 138 180 228 286 347 412
#     4  11  22  43  67  97 144 189 227 278 336 397
#     4  11  25  40  62 101 139 184 232 274 330 403
#     4  11  28  51  78 102 135 174 225 293 362 417
#     4  12  24  37  61  98 140 186 235 277 322 402
#     4  11  21  42  66  96 138 182 229 276 335 404
#
# _framework density 27.076388999999999
#
# number of rings (size 3 to 8) (size 9 to 14) (size 15 to 20)
#    0.000    0.750    3.750    3.750    7.000    3.500 
#    0.000    0.000    0.000    0.000    0.000    0.000 
#    0.000    0.000    0.000    0.000    0.000    0.000 
#
# Total GULP energy -89630.947590 kJ/mol
# GULP energy per Si atom -5601.934224 kJ/mol
# Density = 2.701476 g / cm^3
# Si number density = 27.076389 Si / 1000 Ang^3
#
#
#
# Elastic Constant Matrix: (Units=GPa)
#
#
# Indices 1 2 3 4 5 6 
#
# 1 78.0015 18.0380 24.4935 23.3663 17.6412 -5.9470
# 2 18.0380 147.7409 15.2153 14.5308 0.9636 -0.4517
# 3 24.4935 15.2153 103.2234 12.1758 11.2205 0.5238
# 4 23.3663 14.5308 12.1758 37.6341 6.2184 0.4277
# 5 17.6412 0.9636 11.2205 6.2184 51.5390 9.6372
# 6 -5.9470 -0.4517 0.5238 0.4277 9.6372 37.0899
#
#
#
# Elastic Compliance Matrix: (Units=1/GPa)
#
#
# Indices 1 2 3 4 5 6 
#
# 1 0.018160 -0.001001 -0.002511 -0.009240 -0.005365 0.004436
# 2 -0.001001 0.007152 -0.000645 -0.002034 0.000633 -0.000205
# 3 -0.002511 -0.000645 0.010684 -0.001442 -0.001239 -0.000223
# 4 -0.009240 -0.002034 -0.001442 0.033614 -0.000200 -0.001822
# 5 -0.005365 0.000633 -0.001239 -0.000200 0.022784 -0.006753
# 6 0.004436 -0.000205 -0.000223 -0.001822 -0.006753 0.029449
#
#
# Mechanical properties :
#
#
# Convention : Reuss Voigt Hill
#
# Bulk Modulus (GPa) = 36.12293 49.38438 42.75365
# Shear Modulus (GPa) = 35.87189 43.33386 39.60287
#
# Velocity S-wave (km/s) = 3.64378 4.00488 3.82859
# Velocity P-wave (km/s) = 5.57431 6.29793 5.94714
#
# Compressibility (1/GPa) = 0.02768325
#
# Stress axis : x y z
#
# Youngs Moduli (GPa) = 55.06674 139.81126 93.59440
#
# Poissons Ratio (x) = 0.13998 0.23501
# Poissons Ratio (y) = 0.05513 0.06033
# Poissons Ratio (z) = 0.13827 0.09012
#
# Static dielectric constant tensor:
#      x y z
#    x 2.118500 0.006700 0.079240 
#    y 0.006700 2.134040 0.044570 
#    z 0.079240 0.044570 2.220570 
# 
# From -- ./inp_files/350047.got.cif
#   From: 2010.05.17/outbox.cif.g08.bks.cpg/sg2_176_cif.got.tgz:350047.got - 2010.06.03 11:33:40.
