data_PCOD9055215
_publ_section_title
;
Structure prediction by ZEFSAII (Michael W. Deem and Ramdas Pophale) SiO2 
 PCOD9055215
Probable space group: P -1
;
_chemical_formula_sum "Si O2"
_cell_formula_units_Z 16
_cell_length_a 11.821840
_cell_length_b 10.791075
_cell_length_c 11.431263
_cell_angle_alpha 151.271170
_cell_angle_beta 64.972374
_cell_angle_gamma 104.460862
_cell_volume 610.019205
_symmetry_space_group_name_H-M "P -1"
_symmetry_group_IT_number 2
_symmetry_cell_setting 'triclinic'
loop_
_space_group_symop_operation_xyz
x,y,z
-x,-y,-z
loop_
_atom_site_type_symbol
_atom_site_label
_atom_site_fract_x
_atom_site_fract_y
_atom_site_fract_z
Si Si1 0.722454 0.844694 0.296068
Si Si2 0.586248 0.094192 0.137712
Si Si3 0.243515 0.649946 0.870872
Si Si4 0.721330 0.533858 0.690449
Si Si5 0.911902 0.253796 0.186329
Si Si6 0.922204 0.398004 0.693608
Si Si7 0.475528 0.745177 0.442861
Si Si8 0.827563 0.915503 0.546470
O O1 0.609479 0.733606 0.311692
O O2 0.787204 0.979865 0.482113
O O3 0.640949 0.032439 0.385654
O O4 0.840100 0.619024 0.002984
O O5 0.518470 0.182379 0.364374
O O6 0.706464 0.839550 0.913872
O O7 0.500000 0.000000 0.000000
O O8 0.638851 0.314636 0.230236
O O9 0.240430 0.821446 0.130941
O O10 0.117997 0.814921 0.988658
O O11 0.223049 0.353060 0.635800
O O12 0.783090 0.363419 0.409579
O O13 0.811487 0.396031 0.644557
O O14 0.575288 0.517003 0.762462
O O15 0.983975 0.482870 0.331004
O O16 0.000000 0.000000 0.000000
O O17 0.023668 0.183368 0.553330
#
# Coordination Sequence:
#
# PCOD9055215 Si02
#       8
#     2   2   2   2   2   2   2   2
#     4  11  25  50  70 104 153 199 262 296 370 454
#     4  12  25  44  72 106 147 193 248 318 382 449
#     4  11  24  45  72 113 149 188 249 314 384 440
#     4  12  24  44  73 110 149 189 252 312 389 456
#     4  11  21  40  72 105 148 184 241 311 386 451
#     4  11  23  43  72 107 145 196 247 310 374 446
#     4  11  26  47  73 104 146 201 250 312 372 453
#     4  11  26  47  77 112 152 201 253 312 377 449
#
# _framework density 26.228683
#
# number of rings (size 3 to 8) (size 9 to 14) (size 15 to 20)
#    0.000    0.750    2.500    5.250    1.750    3.000 
#    0.000    3.750    0.000    0.000    0.000    0.000 
#    0.000    0.000    0.000    0.000    0.000    0.000 
#
# Total GULP energy -89563.099232 kJ/mol
# GULP energy per Si atom -5597.693702 kJ/mol
# Density = 2.616899 g / cm^3
# Si number density = 26.228683 Si / 1000 Ang^3
#
#
#
# Elastic Constant Matrix: (Units=GPa)
#
#
# Indices 1 2 3 4 5 6 
#
# 1 180.0603 71.0066 34.3657 -2.6356 14.9501 -29.1761
# 2 71.0066 116.6890 57.9624 11.7799 3.7911 -27.9615
# 3 34.3657 57.9624 96.9453 -3.9704 12.0514 -20.2314
# 4 -2.6356 11.7799 -3.9704 45.9403 -14.5644 -1.0516
# 5 14.9501 3.7911 12.0514 -14.5644 57.4193 1.3400
# 6 -29.1761 -27.9615 -20.2314 -1.0516 1.3400 59.0427
#
#
#
# Elastic Compliance Matrix: (Units=1/GPa)
#
#
# Indices 1 2 3 4 5 6 
#
# 1 0.007715 -0.004657 0.000693 0.001241 -0.001577 0.001902
# 2 -0.004657 0.016450 -0.007883 -0.004959 0.000461 0.002689
# 3 0.000693 -0.007883 0.015609 0.002731 -0.002291 0.002058
# 4 0.001241 -0.004959 0.002731 0.025183 0.005830 -0.000483
# 5 -0.001577 0.000461 -0.002291 0.005830 0.019795 -0.001692
# 6 0.001902 0.002689 0.002058 -0.000483 -0.001692 0.019885
#
#
# Mechanical properties :
#
#
# Convention : Reuss Voigt Hill
#
# Bulk Modulus (GPa) = 62.19195 80.04043 71.11619
# Shear Modulus (GPa) = 37.39939 47.83781 42.61860
#
# Velocity S-wave (km/s) = 3.78020 4.27532 4.03536
# Velocity P-wave (km/s) = 6.54340 7.41308 6.99178
#
# Compressibility (1/GPa) = 0.01607925
#
# Stress axis : x y z
#
# Youngs Moduli (GPa) = 129.61218 60.79151 64.06623
#
# Poissons Ratio (x) = 0.28314 -0.04443
# Poissons Ratio (y) = 0.60367 0.50505
# Poissons Ratio (z) = -0.08988 0.47924
#
# Static dielectric constant tensor:
#      x y z
#    x 2.103970 0.012300 -0.013270 
#    y 0.012300 2.097990 0.038110 
#    z -0.013270 0.038110 2.013400 
# 
# From -- ./inp_files/429204.got.cif
#   From: 2010.05.17/outbox.cif.g08.bks.cpg/sg2_215_cif.got.tgz:429204.got - 2010.06.03 11:33:40.
