data_PCOD9055116
_publ_section_title
;
Structure prediction by ZEFSAII (Michael W. Deem and Ramdas Pophale) SiO2 
 PCOD9055116
Probable space group: P -1
;
_chemical_formula_sum "Si O2"
_cell_formula_units_Z 16
_cell_length_a 13.007935
_cell_length_b 14.936032
_cell_length_c 8.317114
_cell_angle_alpha 89.886670
_cell_angle_beta 53.467669
_cell_angle_gamma 132.979797
_cell_volume 684.173347
_symmetry_space_group_name_H-M "P -1"
_symmetry_group_IT_number 2
_symmetry_cell_setting 'triclinic'
loop_
_space_group_symop_operation_xyz
x,y,z
-x,-y,-z
loop_
_atom_site_type_symbol
_atom_site_label
_atom_site_fract_x
_atom_site_fract_y
_atom_site_fract_z
Si Si1 0.226772 0.406981 0.325750
Si Si2 0.499720 0.252365 0.014416
Si Si3 0.713009 0.195900 0.861894
Si Si4 0.259110 0.121735 0.588082
Si Si5 0.188261 0.290518 0.692335
Si Si6 0.357414 0.085740 0.827438
Si Si7 0.095260 0.242850 0.126338
Si Si8 0.413414 0.954588 0.402794
O O1 0.284890 0.400411 0.446333
O O2 0.962761 0.296362 0.592558
O O3 0.214772 0.329915 0.188607
O O4 0.397063 0.588879 0.113384
O O5 0.374774 0.174398 0.304990
O O6 0.698558 0.291206 0.831489
O O7 0.338652 0.131199 0.008848
O O8 0.500000 0.000000 0.000000
O O9 0.623638 0.139586 0.127883
O O10 0.244901 0.219158 0.624265
O O11 0.381598 0.153324 0.636289
O O12 0.002835 0.915996 0.813736
O O13 0.238570 0.353723 0.828082
O O14 0.893815 0.118054 0.952751
O O15 0.570779 0.140581 0.659182
O O16 0.848471 0.155950 0.366624
O O17 0.500000 0.000000 0.500000
#
# Coordination Sequence:
#
# PCOD9055116 Si02
#       8
#     2   2   2   2   2   2   2   2
#     4  12  25  40  62  95 133 167 200 249 320 387
#     4  12  25  40  62  95 133 167 200 249 320 387
#     4  12  19  40  65  92 123 157 204 257 303 365
#     4  11  24  42  65  92 120 163 222 269 302 354
#     4  11  24  42  65  92 120 163 222 269 302 354
#     4  11  21  40  67  95 122 160 211 266 310 361
#     4  11  21  40  67  95 122 160 211 266 310 361
#     4  12  18  34  68  96 119 150 196 262 318 357
#
# _framework density 23.385884999999998
#
# number of rings (size 3 to 8) (size 9 to 14) (size 15 to 20)
#    0.000    0.500    7.500    2.625    0.000    4.500 
#    0.000    1.250    0.000    6.000    0.000    0.000 
#    0.000    0.000    0.000    0.000    0.000    0.000 
#
# Total GULP energy -89354.911696 kJ/mol
# GULP energy per Si atom -5584.681981 kJ/mol
# Density = 2.333266 g / cm^3
# Si number density = 23.385885 Si / 1000 Ang^3
#
#
#
# Elastic Constant Matrix: (Units=GPa)
#
#
# Indices 1 2 3 4 5 6 
#
# 1 137.1256 45.8128 50.7628 9.2034 26.0911 -16.7869
# 2 45.8128 80.6607 35.4866 22.8977 19.2208 -0.5718
# 3 50.7628 35.4866 117.3049 28.4519 39.9010 7.3077
# 4 9.2034 22.8977 28.4519 40.5953 -0.0440 8.6973
# 5 26.0911 19.2208 39.9010 -0.0440 55.5841 7.7629
# 6 -16.7869 -0.5718 7.3077 8.6973 7.7629 43.3618
#
#
#
# Elastic Compliance Matrix: (Units=1/GPa)
#
#
# Indices 1 2 3 4 5 6 
#
# 1 0.010923 -0.004704 -0.003379 0.001528 -0.001736 0.004741
# 2 -0.004704 0.018945 0.000282 -0.010091 -0.004729 0.001252
# 3 -0.003379 0.000282 0.015789 -0.010446 -0.009838 -0.000109
# 4 0.001528 -0.010091 -0.010446 0.038947 0.011367 -0.007628
# 5 -0.001736 -0.004729 -0.009838 0.011367 0.028412 -0.006443
# 6 0.004741 0.001252 -0.000109 -0.007628 -0.006443 0.027615
#
#
# Mechanical properties :
#
#
# Convention : Reuss Voigt Hill
#
# Bulk Modulus (GPa) = 33.27200 66.57951 49.92575
# Shear Modulus (GPa) = 30.07495 41.44350 35.75923
#
# Velocity S-wave (km/s) = 3.59002 4.21427 3.91461
# Velocity P-wave (km/s) = 5.60737 7.22578 6.46740
#
# Compressibility (1/GPa) = 0.03005530
#
# Stress axis : x y z
#
# Youngs Moduli (GPa) = 91.54843 52.78375 63.33598
#
# Poissons Ratio (x) = 0.24828 0.21404
# Poissons Ratio (y) = 0.43062 -0.01787
# Poissons Ratio (z) = 0.30938 -0.01490
#
# Static dielectric constant tensor:
#      x y z
#    x 1.845700 -0.044440 -0.209730 
#    y -0.044440 1.896720 -0.069450 
#    z -0.209730 -0.069450 1.559960 
# 
# From -- ./inp_files/315177.got.cif
#   From: 2010.05.17/outbox.cif.g08.bks.cpg/sg2_158_cif.got.tgz:315177.got - 2010.06.03 11:33:40.
