data_PCOD9055075
_publ_section_title
;
Structure prediction by ZEFSAII (Michael W. Deem and Ramdas Pophale) SiO2 
 PCOD9055075
Probable space group: P -1
;
_chemical_formula_sum "Si O2"
_cell_formula_units_Z 14
_cell_length_a 9.322077
_cell_length_b 12.139529
_cell_length_c 11.516773
_cell_angle_alpha 143.089488
_cell_angle_beta 58.308878
_cell_angle_gamma 123.161261
_cell_volume 645.132583
_symmetry_space_group_name_H-M "P -1"
_symmetry_group_IT_number 2
_symmetry_cell_setting 'triclinic'
loop_
_space_group_symop_operation_xyz
x,y,z
-x,-y,-z
loop_
_atom_site_type_symbol
_atom_site_label
_atom_site_fract_x
_atom_site_fract_y
_atom_site_fract_z
Si Si1 0.643390 0.721834 0.345764
Si Si2 0.192272 0.886849 0.467830
Si Si3 0.113406 0.006297 0.177143
Si Si4 0.105137 0.687245 0.741518
Si Si5 0.697698 0.606443 0.486027
Si Si6 0.258762 0.588176 0.355898
Si Si7 0.010915 0.718616 0.167752
O O1 0.697773 0.686804 0.424043
O O2 0.458365 0.582906 0.281323
O O3 0.816063 0.704686 0.192053
O O4 0.651273 0.940435 0.496909
O O5 0.253071 0.714428 0.351788
O O6 0.069294 0.818110 0.350550
O O7 0.068557 0.946512 0.668626
O O8 0.136615 0.854379 0.137854
O O9 0.245339 0.210707 0.301977
O O10 0.127769 0.893152 0.959639
O O11 0.180537 0.537731 0.662068
O O12 0.205699 0.688202 0.578390
O O13 0.898330 0.598320 0.741626
O O14 0.500000 0.500000 0.500000
O O15 0.000000 0.500000 0.000000
#
# Coordination Sequence:
#
# PCOD9055075 Si02
#       7
#     2   2   2   2   2   2   2
#     4  11  21  40  65  98 127 168 221 276 324 383
#     4  11  21  41  66  93 133 172 213 272 330 393
#     4  11  22  42  70  98 126 173 230 263 331 386
#     4  11  25  43  69  92 136 181 216 265 330 396
#     4  12  22  43  67  95 130 168 222 279 320 379
#     4  11  23  43  62  96 138 177 213 266 330 394
#     4  11  21  40  72  97 129 173 218 277 333 382
#
# _framework density 21.700965
#
# number of rings (size 3 to 8) (size 9 to 14) (size 15 to 20)
#    0.000    0.857    5.714    3.000    0.000    1.143 
#    0.000    7.857    0.000    0.000    0.000    0.000 
#    0.000    0.000    0.000    0.000    0.000    0.000 
#
# Total GULP energy -78095.388503 kJ/mol
# GULP energy per Si atom -5578.242036 kJ/mol
# Density = 2.165157 g / cm^3
# Si number density = 21.700965 Si / 1000 Ang^3
#
#
#
# Elastic Constant Matrix: (Units=GPa)
#
#
# Indices 1 2 3 4 5 6 
#
# 1 98.3554 17.4793 19.9226 10.3839 15.2621 20.2533
# 2 17.4793 69.9546 0.0135 11.4431 7.4147 11.7088
# 3 19.9226 0.0135 90.7560 23.3197 4.5101 14.4720
# 4 10.3839 11.4431 23.3197 22.8171 -0.5747 7.8465
# 5 15.2621 7.4147 4.5101 -0.5747 7.8831 7.4321
# 6 20.2533 11.7088 14.4720 7.8465 7.4321 46.2197
#
#
#
# Elastic Compliance Matrix: (Units=1/GPa)
#
#
# Indices 1 2 3 4 5 6 
#
# 1 0.015941 0.000961 0.000457 -0.008752 -0.031963 -0.000747
# 2 0.000961 0.019181 0.005048 -0.015666 -0.023540 -0.000416
# 3 0.000457 0.005048 0.017065 -0.020320 -0.016144 -0.000776
# 4 -0.008752 -0.015666 -0.020320 0.080915 0.057518 -0.008819
# 5 -0.031963 -0.023540 -0.016144 0.057518 0.247428 -0.024527
# 6 -0.000747 -0.000416 -0.000776 -0.008819 -0.024527 0.027753
#
#
# Mechanical properties :
#
#
# Convention : Reuss Voigt Hill
#
# Bulk Modulus (GPa) = 15.35676 37.09962 26.22819
# Shear Modulus (GPa) = 11.98874 30.16068 21.07471
#
# Velocity S-wave (km/s) = 2.35298 3.73209 3.11970
# Velocity P-wave (km/s) = 3.80446 5.97530 5.00890
#
# Compressibility (1/GPa) = 0.06511789
#
# Stress axis : x y z
#
# Youngs Moduli (GPa) = 62.72994 52.13467 58.60027
#
# Poissons Ratio (x) = -0.05011 -0.02676
# Poissons Ratio (y) = -0.06029 -0.29579
# Poissons Ratio (z) = -0.02865 -0.26315
#
# Static dielectric constant tensor:
#      x y z
#    x 1.875340 -0.033480 -0.027590 
#    y -0.033480 1.896770 0.000070 
#    z -0.027590 0.000070 1.828430 
# 
# From -- ./inp_files/332783.got.cif
#   From: 2010.05.17/outbox.cif.g08.bks.cpg/sg2_167_cif.got.tgz:332783.got - 2010.06.03 11:33:40.
