data_PCOD9055737
_publ_section_title
;
Structure prediction by ZEFSAII (Michael W. Deem and Ramdas Pophale) SiO2 
 PCOD9055737
Probable space group: P -1
;
_chemical_formula_sum "Si O2"
_cell_formula_units_Z 12
_cell_length_a 9.594711
_cell_length_b 14.327243
_cell_length_c 9.199445
_cell_angle_alpha 44.733584
_cell_angle_beta 53.076711
_cell_angle_gamma 47.281590
_cell_volume 636.415053
_symmetry_space_group_name_H-M "P -1"
_symmetry_group_IT_number 2
_symmetry_cell_setting 'triclinic'
loop_
_space_group_symop_operation_xyz
x,y,z
-x,-y,-z
loop_
_atom_site_type_symbol
_atom_site_label
_atom_site_fract_x
_atom_site_fract_y
_atom_site_fract_z
Si Si1 0.560325 0.839101 0.706395
Si Si2 0.387848 0.426817 0.556336
Si Si3 0.995978 0.386458 0.257447
Si Si4 0.022745 0.833813 0.694781
Si Si5 0.595102 0.861228 0.990068
Si Si6 0.423111 0.652615 0.792970
O O1 0.505988 0.871973 0.873786
O O2 0.463813 0.763349 0.748024
O O3 0.787462 0.716996 0.706800
O O4 0.500000 0.000000 0.500000
O O5 0.500000 0.500000 0.500000
O O6 0.156400 0.525248 0.619278
O O7 0.462909 0.392329 0.382677
O O8 0.424882 0.272525 0.774645
O O9 0.922643 0.271276 0.364785
O O10 0.000000 0.500000 0.000000
O O11 0.193946 0.739876 0.803028
O O12 0.816467 0.838343 0.859845
O O13 0.000000 0.000000 0.500000
O O14 0.500000 0.000000 0.000000
O O15 0.500000 0.500000 0.000000
#
# Coordination Sequence:
#
# PCOD9055737 Si02
#       6
#     2   2   2   2   2   2
#     4  11  23  42  64  95 137 165 208 282 336 367
#     4  12  23  41  71  96 126 179 229 265 316 405
#     4  11  21  43  69  93 129 177 226 265 321 401
#     4  11  22  42  68  94 131 175 216 264 327 396
#     4  11  24  44  69  95 128 179 230 259 320 411
#     4  12  25  42  65  99 134 164 218 284 334 373
#
# _framework density 18.855619999999998
#
# number of rings (size 3 to 8) (size 9 to 14) (size 15 to 20)
#    0.000    0.667    5.000    6.000    0.000    0.667 
#    3.000    0.833    0.000    0.000    0.000    0.000 
#    0.000    0.000    0.000    0.000    0.000    0.000 
#
# Total GULP energy -66931.405218 kJ/mol
# GULP energy per Si atom -5577.617102 kJ/mol
# Density = 1.881270 g / cm^3
# Si number density = 18.855620 Si / 1000 Ang^3
#
#
#
# Elastic Constant Matrix: (Units=GPa)
#
#
# Indices 1 2 3 4 5 6 
#
# 1 113.8214 30.1152 33.1982 -1.0678 6.1677 23.3358
# 2 30.1152 119.6092 52.7309 -2.2003 8.7520 26.1067
# 3 33.1982 52.7309 150.0290 -16.6751 12.9831 18.2206
# 4 -1.0678 -2.2003 -16.6751 50.1059 8.0244 0.1370
# 5 6.1677 8.7520 12.9831 8.0244 33.0733 -6.4080
# 6 23.3358 26.1067 18.2206 0.1370 -6.4080 46.3862
#
#
#
# Elastic Compliance Matrix: (Units=1/GPa)
#
#
# Indices 1 2 3 4 5 6 
#
# 1 0.010439 -0.000938 -0.001232 0.000124 -0.002123 -0.004533
# 2 -0.000938 0.011156 -0.002883 -0.000058 -0.002607 -0.005035
# 3 -0.001232 -0.002883 0.008855 0.003382 -0.003643 -0.001749
# 4 0.000124 -0.000058 0.003382 0.022243 -0.007201 -0.002418
# 5 -0.002123 -0.002607 -0.003643 -0.007201 0.036241 0.008994
# 6 -0.004533 -0.005035 -0.001749 -0.002418 0.008994 0.028609
#
#
# Mechanical properties :
#
#
# Convention : Reuss Voigt Hill
#
# Bulk Modulus (GPa) = 49.15532 68.39422 58.77477
# Shear Modulus (GPa) = 37.19382 43.74076 40.46729
#
# Velocity S-wave (km/s) = 4.44617 4.82163 4.63770
# Velocity P-wave (km/s) = 7.24457 8.20663 7.74056
#
# Compressibility (1/GPa) = 0.02034368
#
# Stress axis : x y z
#
# Youngs Moduli (GPa) = 95.79561 89.63564 112.93184
#
# Poissons Ratio (x) = 0.08408 0.13915
# Poissons Ratio (y) = 0.08985 0.32558
# Poissons Ratio (z) = 0.11804 0.25842
#
# Static dielectric constant tensor:
#      x y z
#    x 1.647820 -0.048300 -0.033730 
#    y -0.048300 1.662890 0.000310 
#    z -0.033730 0.000310 1.615980 
# 
# From -- ./inp_files/145105.got.cif
#   From: 2010.05.17/outbox.cif.g08.bks.cpg/sg2_73_cif.got.tgz:145105.got - 2010.06.03 11:33:40.
