data_PCOD9055103
_publ_section_title
;
Structure prediction by ZEFSAII (Michael W. Deem and Ramdas Pophale) SiO2 
 PCOD9055103
Probable space group: P -1
;
_chemical_formula_sum "Si O2"
_cell_formula_units_Z 16
_cell_length_a 8.786684
_cell_length_b 13.675759
_cell_length_c 13.613321
_cell_angle_alpha 33.682754
_cell_angle_beta 70.610242
_cell_angle_gamma 56.909492
_cell_volume 733.273859
_symmetry_space_group_name_H-M "P -1"
_symmetry_group_IT_number 2
_symmetry_cell_setting 'triclinic'
loop_
_space_group_symop_operation_xyz
x,y,z
-x,-y,-z
loop_
_atom_site_type_symbol
_atom_site_label
_atom_site_fract_x
_atom_site_fract_y
_atom_site_fract_z
Si Si1 0.332609 0.202638 0.411977
Si Si2 0.411234 0.627169 0.813368
Si Si3 0.851151 0.937171 0.114743
Si Si4 0.443449 0.263733 0.000306
Si Si5 0.975766 0.725761 0.457658
Si Si6 0.151936 0.279124 0.893830
Si Si7 0.157665 0.269961 0.193912
Si Si8 0.007950 0.907861 0.758109
O O1 0.428804 0.335424 0.293974
O O2 0.242623 0.174206 0.550588
O O3 0.171399 0.280545 0.298038
O O4 0.500000 0.000000 0.500000
O O5 0.213660 0.810006 0.745443
O O6 0.500000 0.500000 0.000000
O O7 0.382007 0.496833 0.845473
O O8 0.664656 0.122181 0.051444
O O9 0.967438 0.749284 0.322864
O O10 0.788371 0.875199 0.081147
O O11 0.000000 0.000000 0.000000
O O12 0.359886 0.210569 0.157416
O O13 0.322712 0.249778 0.949294
O O14 0.068509 0.500192 0.673430
O O15 0.043821 0.873688 0.366896
O O16 0.019766 0.228321 0.036337
O O17 0.112707 0.105632 0.294677
O O18 0.000000 0.500000 0.000000
#
# Coordination Sequence:
#
# PCOD9055103 Si02
#       8
#     2   2   2   2   2   2   2   2
#     4  12  24  37  61 100 144 176 220 277 342 406
#     4  12  21  39  66 103 142 181 222 274 340 429
#     4  12  26  49  75  96 133 188 241 294 345 398
#     4  11  24  43  74 102 139 186 229 280 351 413
#     4  12  25  44  71 104 135 183 236 291 347 405
#     4  11  26  47  73  99 136 186 236 288 344 403
#     4  11  21  40  67 101 141 187 214 268 346 420
#     4  11  23  42  70 103 145 182 227 275 349 425
#
# _framework density 21.819953999999999
#
# number of rings (size 3 to 8) (size 9 to 14) (size 15 to 20)
#    0.000    0.500    5.000    4.500    1.750    1.500 
#    0.000    0.625    0.000    0.000    0.000    0.000 
#    0.000    0.000    0.000    0.000    0.000    0.000 
#
# Total GULP energy -89325.564348 kJ/mol
# GULP energy per Si atom -5582.847772 kJ/mol
# Density = 2.177029 g / cm^3
# Si number density = 21.819954 Si / 1000 Ang^3
#
#
#
# Elastic Constant Matrix: (Units=GPa)
#
#
# Indices 1 2 3 4 5 6 
#
# 1 79.9579 16.8755 25.6197 12.0321 -22.4259 7.1277
# 2 16.8755 85.1773 23.0812 10.6018 -5.5984 4.7960
# 3 25.6197 23.0812 89.7450 17.3507 -12.7839 -5.4955
# 4 12.0321 10.6018 17.3507 37.0718 -1.2355 -1.7274
# 5 -22.4259 -5.5984 -12.7839 -1.2355 36.4902 -7.0209
# 6 7.1277 4.7960 -5.4955 -1.7274 -7.0209 47.7874
#
#
#
# Elastic Compliance Matrix: (Units=1/GPa)
#
#
# Indices 1 2 3 4 5 6 
#
# 1 0.016779 -0.001527 -0.002542 -0.003596 0.008780 -0.001482
# 2 -0.001527 0.013091 -0.002650 -0.002084 -0.000218 -0.001498
# 3 -0.002542 -0.002650 0.014105 -0.004788 0.003307 0.002580
# 4 -0.003596 -0.002084 -0.004788 0.030920 -0.002992 0.000873
# 5 0.008780 -0.000218 0.003307 -0.002992 0.034607 0.004069
# 6 -0.001482 -0.001498 0.002580 0.000873 0.004069 0.022223
#
#
# Mechanical properties :
#
#
# Convention : Reuss Voigt Hill
#
# Bulk Modulus (GPa) = 32.74946 42.89256 37.82101
# Shear Modulus (GPa) = 32.18680 36.89012 34.53846
#
# Velocity S-wave (km/s) = 3.84488 4.11622 3.98286
# Velocity P-wave (km/s) = 5.89511 6.50317 6.20659
#
# Compressibility (1/GPa) = 0.03053485
#
# Stress axis : x y z
#
# Youngs Moduli (GPa) = 59.59735 76.39111 70.89819
#
# Poissons Ratio (x) = 0.11668 0.18022
# Poissons Ratio (y) = 0.09103 0.18791
# Poissons Ratio (z) = 0.15150 0.20247
#
# Static dielectric constant tensor:
#      x y z
#    x 0.950670 -0.029810 0.301750 
#    y -0.029810 1.784140 -0.006730 
#    z 0.301750 -0.006730 1.798480 
# 
# From -- ./inp_files/504952.got.cif
#   From: 2010.05.17/outbox.cif.g08.bks.cpg/sg2_253_cif.got.tgz:504952.got - 2010.06.03 11:33:40.
