data_PCOD9055491
_publ_section_title
;
Structure prediction by ZEFSAII (Michael W. Deem and Ramdas Pophale) SiO2 
 PCOD9055491
Probable space group: P -1
;
_chemical_formula_sum "Si O2"
_cell_formula_units_Z 16
_cell_length_a 11.177455
_cell_length_b 20.391833
_cell_length_c 17.393943
_cell_angle_alpha 149.860832
_cell_angle_beta 145.981407
_cell_angle_gamma 21.911040
_cell_volume 735.357171
_symmetry_space_group_name_H-M "P -1"
_symmetry_group_IT_number 2
_symmetry_cell_setting 'triclinic'
loop_
_space_group_symop_operation_xyz
x,y,z
-x,-y,-z
loop_
_atom_site_type_symbol
_atom_site_label
_atom_site_fract_x
_atom_site_fract_y
_atom_site_fract_z
Si Si1 0.958965 0.967818 0.590681
Si Si2 0.292653 0.075497 0.828238
Si Si3 0.055605 0.515193 0.889122
Si Si4 0.540296 0.641441 0.209095
Si Si5 0.602507 0.319924 0.329915
Si Si6 0.315290 0.157004 0.751528
Si Si7 0.005013 0.786339 0.966036
Si Si8 0.029775 0.041678 0.144564
O O1 0.593402 0.182046 0.630976
O O2 0.147887 0.995798 0.674534
O O3 0.929788 0.841318 0.406793
O O4 0.135186 0.864767 0.661267
O O5 0.392130 0.080436 0.801676
O O6 0.622601 0.932226 0.909655
O O7 0.018882 0.306876 0.939179
O O8 0.289534 0.398518 0.821331
O O9 0.165965 0.367685 0.866535
O O10 0.712932 0.623252 0.785068
O O11 0.790545 0.432967 0.175290
O O12 0.206483 0.723285 0.087294
O O13 0.500000 0.500000 0.500000
O O14 0.749632 0.250360 0.251443
O O15 0.653364 0.013391 0.740668
O O16 0.055242 0.893920 0.053835
O O17 0.000000 0.000000 0.000000
#
# Coordination Sequence:
#
# PCOD9055491 Si02
#       8
#     2   2   2   2   2   2   2   2
#     4  12  26  46  67  99 145 183 228 286 357 417
#     4  12  25  45  68 100 141 184 232 289 343 416
#     4  12  23  42  73 100 136 179 235 290 342 413
#     4  11  24  40  69 105 128 174 233 289 344 408
#     4  12  25  44  71 107 141 180 229 296 357 410
#     4  12  26  44  68 101 141 185 228 282 356 419
#     4  11  21  42  67 102 128 176 235 290 339 400
#     4  12  24  47  74 101 139 184 238 288 348 421
#
# _framework density 21.758133999999998
#
# number of rings (size 3 to 8) (size 9 to 14) (size 15 to 20)
#    0.000    0.250    6.250    3.000    1.750    2.500 
#    0.000    0.625    0.000    0.000    0.000    0.000 
#    0.000    0.000    0.000    0.000    0.000    0.000 
#
# Total GULP energy -89290.021294 kJ/mol
# GULP energy per Si atom -5580.626331 kJ/mol
# Density = 2.170861 g / cm^3
# Si number density = 21.758134 Si / 1000 Ang^3
#
#
#
# Elastic Constant Matrix: (Units=GPa)
#
#
# Indices 1 2 3 4 5 6 
#
# 1 119.3634 32.8127 40.4141 8.2159 15.2429 -7.4060
# 2 32.8127 100.1173 29.3258 14.5600 1.7655 -5.4928
# 3 40.4141 29.3258 63.9213 0.9120 18.4086 -1.4608
# 4 8.2159 14.5600 0.9120 41.2270 -1.2432 4.1340
# 5 15.2429 1.7655 18.4086 -1.2432 34.2285 -0.8718
# 6 -7.4060 -5.4928 -1.4608 4.1340 -0.8718 27.7018
#
#
#
# Elastic Compliance Matrix: (Units=1/GPa)
#
#
# Indices 1 2 3 4 5 6 
#
# 1 0.011301 -0.001546 -0.005824 -0.001897 -0.001823 0.002633
# 2 -0.001546 0.012864 -0.005663 -0.004278 0.002981 0.002571
# 3 -0.005824 -0.005663 0.024848 0.002504 -0.010440 -0.002072
# 4 -0.001897 -0.004278 0.002504 0.026625 0.000554 -0.005179
# 5 -0.001823 0.002981 -0.010440 0.000554 0.035523 0.000589
# 6 0.002633 0.002571 -0.002072 -0.005179 0.000589 0.037995
#
#
# Mechanical properties :
#
#
# Convention : Reuss Voigt Hill
#
# Bulk Modulus (GPa) = 43.57679 54.27858 48.92768
# Shear Modulus (GPa) = 27.34154 32.68810 30.01482
#
# Velocity S-wave (km/s) = 3.54872 3.88021 3.71816
# Velocity P-wave (km/s) = 6.07145 6.71380 6.40069
#
# Compressibility (1/GPa) = 0.02294800
#
# Stress axis : x y z
#
# Youngs Moduli (GPa) = 88.48608 77.73439 40.24441
#
# Poissons Ratio (x) = 0.12014 0.23438
# Poissons Ratio (y) = 0.13676 0.22792
# Poissons Ratio (z) = 0.51534 0.44024
#
# Static dielectric constant tensor:
#      x y z
#    x 1.825010 -0.019510 -0.033450 
#    y -0.019510 1.858450 0.059390 
#    z -0.033450 0.059390 1.878080 
# 
# From -- ./inp_files/570757.got.cif
#   From: 2010.05.17/outbox.cif.g08.bks.cpg/sg2_286_cif.got.tgz:570757.got - 2010.06.03 11:33:40.
