data_PCOD9055566
_publ_section_title
;
Structure prediction by ZEFSAII (Michael W. Deem and Ramdas Pophale) SiO2 
 PCOD9055566
Probable space group: P -1
;
_chemical_formula_sum "Si O2"
_cell_formula_units_Z 16
_cell_length_a 11.613096
_cell_length_b 13.476824
_cell_length_c 15.055136
_cell_angle_alpha 29.267661
_cell_angle_beta 34.937067
_cell_angle_gamma 49.710477
_cell_volume 639.652479
_symmetry_space_group_name_H-M "P -1"
_symmetry_group_IT_number 2
_symmetry_cell_setting 'triclinic'
loop_
_space_group_symop_operation_xyz
x,y,z
-x,-y,-z
loop_
_atom_site_type_symbol
_atom_site_label
_atom_site_fract_x
_atom_site_fract_y
_atom_site_fract_z
Si Si1 0.353296 0.071271 0.109546
Si Si2 0.382886 0.809676 0.983528
Si Si3 0.029827 0.270093 0.441612
Si Si4 0.367486 0.537991 0.677844
Si Si5 0.520257 0.862786 0.473787
Si Si6 0.562328 0.467281 0.085943
Si Si7 0.827163 0.608425 0.261515
Si Si8 0.041849 0.092983 0.764349
O O1 0.461912 0.060552 0.142819
O O2 0.128560 0.921870 0.354441
O O3 0.349239 0.307971 0.907804
O O4 0.500000 0.000000 0.000000
O O5 0.409628 0.574785 0.154485
O O6 0.460443 0.913807 0.758296
O O7 0.153025 0.829243 0.135479
O O8 0.911907 0.453040 0.392625
O O9 0.097583 0.192545 0.553516
O O10 0.210501 0.378513 0.175792
O O11 0.373880 0.699892 0.626520
O O12 0.596427 0.615261 0.430048
O O13 0.201852 0.501977 0.731012
O O14 0.762544 0.856944 0.332884
O O15 0.438402 0.763125 0.698632
O O16 0.500000 0.500000 0.000000
O O17 0.966484 0.842600 0.992880
#
# Coordination Sequence:
#
# PCOD9055566 Si02
#       8
#     2   2   2   2   2   2   2   2
#     4  12  21  44  76 111 143 184 236 308 365 421
#     4  12  26  46  77 106 144 186 239 307 358 423
#     4  12  26  45  74 105 148 194 238 289 367 434
#     4  11  21  42  70 110 145 177 228 309 359 422
#     4  12  27  46  72 107 146 185 246 296 362 420
#     4  12  30  51  66  99 152 204 238 286 361 443
#     4  11  23  41  74 110 146 177 238 298 370 423
#     4  12  25  44  77 113 139 183 247 306 361 420
#
# _framework density 25.013583000000001
#
# number of rings (size 3 to 8) (size 9 to 14) (size 15 to 20)
#    0.000    0.250    7.500    1.125    1.750    2.500 
#    0.000    1.250    0.000    0.000    0.000    0.000 
#    0.000    0.000    0.000    0.000    0.000    0.000 
#
# Total GULP energy -89602.829825 kJ/mol
# GULP energy per Si atom -5600.176864 kJ/mol
# Density = 2.495665 g / cm^3
# Si number density = 25.013583 Si / 1000 Ang^3
#
#
#
# Elastic Constant Matrix: (Units=GPa)
#
#
# Indices 1 2 3 4 5 6 
#
# 1 103.2420 12.7331 31.6398 -1.4865 13.6174 11.4299
# 2 12.7331 40.7742 10.1327 -13.6968 -3.9704 4.9799
# 3 31.6398 10.1327 148.4997 -19.8499 7.6414 -4.9108
# 4 -1.4865 -13.6968 -19.8499 33.7587 -4.6132 9.7106
# 5 13.6174 -3.9704 7.6414 -4.6132 52.8916 -1.0416
# 6 11.4299 4.9799 -4.9108 9.7106 -1.0416 29.4970
#
#
#
# Elastic Compliance Matrix: (Units=1/GPa)
#
#
# Indices 1 2 3 4 5 6 
#
# 1 0.011678 -0.003398 -0.002439 -0.001591 -0.003126 -0.003944
# 2 -0.003398 0.032713 0.000158 0.016564 0.004566 -0.009472
# 3 -0.002439 0.000158 0.007853 0.004332 -0.000101 0.000796
# 4 -0.001591 0.016564 0.004332 0.043979 0.004552 -0.015776
# 5 -0.003126 0.004566 -0.000101 0.004552 0.020459 -0.000353
# 6 -0.003944 -0.009472 0.000796 -0.015776 -0.000353 0.042343
#
#
# Mechanical properties :
#
#
# Convention : Reuss Voigt Hill
#
# Bulk Modulus (GPa) = 24.45766 44.61410 34.53588
# Shear Modulus (GPa) = 27.17202 39.09682 33.13442
#
# Velocity S-wave (km/s) = 3.29947 3.95780 3.64353
# Velocity P-wave (km/s) = 4.93095 6.22577 5.61580
#
# Compressibility (1/GPa) = 0.04088699
#
# Stress axis : x y z
#
# Youngs Moduli (GPa) = 85.62755 30.56904 127.33374
#
# Poissons Ratio (x) = 0.10388 0.31052
# Poissons Ratio (y) = 0.29097 -0.02010
# Poissons Ratio (z) = 0.20881 -0.00482
#
# Static dielectric constant tensor:
#      x y z
#    x 1.988670 0.019070 0.009070 
#    y 0.019070 1.993150 0.040000 
#    z 0.009070 0.040000 1.970940 
# 
# From -- ./inp_files/522103.got.cif
#   From: 2010.05.17/outbox.cif.g08.bks.cpg/sg2_262_cif.got.tgz:522103.got - 2010.06.03 11:33:40.
