data_PCOD9055020
_publ_section_title
;
Structure prediction by ZEFSAII (Michael W. Deem and Ramdas Pophale) SiO2 
 PCOD9055020
Probable space group: P -1
;
_chemical_formula_sum "Si O2"
_cell_formula_units_Z 16
_cell_length_a 14.127393
_cell_length_b 11.655724
_cell_length_c 16.188511
_cell_angle_alpha 27.473562
_cell_angle_beta 36.709003
_cell_angle_gamma 53.795630
_cell_volume 661.076132
_symmetry_space_group_name_H-M "P -1"
_symmetry_group_IT_number 2
_symmetry_cell_setting 'triclinic'
loop_
_space_group_symop_operation_xyz
x,y,z
-x,-y,-z
loop_
_atom_site_type_symbol
_atom_site_label
_atom_site_fract_x
_atom_site_fract_y
_atom_site_fract_z
Si Si1 0.951280 0.485209 0.641843
Si Si2 0.819973 0.062167 0.254156
Si Si3 0.735602 0.624913 0.474405
Si Si4 0.732357 0.963259 0.672127
Si Si5 0.121850 0.348467 0.107479
Si Si6 0.860580 0.911205 0.891907
Si Si7 0.524678 0.291169 0.678544
Si Si8 0.383911 0.517141 0.168544
O O1 0.742797 0.377895 0.857737
O O2 0.000000 0.500000 0.500000
O O3 0.069241 0.357387 0.682768
O O4 0.025420 0.801507 0.418150
O O5 0.017849 0.094683 0.113668
O O6 0.695705 0.817748 0.560050
O O7 0.818972 0.350572 0.088039
O O8 0.759175 0.927808 0.292326
O O9 0.618671 0.467557 0.580505
O O10 0.645555 0.454382 0.729966
O O11 0.792301 0.816474 0.796029
O O12 0.637173 0.142418 0.659495
O O13 0.586019 0.707769 0.886715
O O14 0.911271 0.173407 0.369687
O O15 0.174959 0.347620 0.976070
O O16 0.677460 0.918908 0.030822
O O17 0.500000 0.500000 0.500000
#
# Coordination Sequence:
#
# PCOD9055020 Si02
#       8
#     2   2   2   2   2   2   2   2
#     4   9  15  33  65  97 126 163 219 271 326 390
#     4   9  21  40  67  95 133 179 218 264 327 411
#     4   9  19  37  65  99 130 173 218 272 340 390
#     4  11  24  42  64  96 138 170 220 282 328 386
#     4  11  24  42  66  96 137 186 216 261 336 409
#     4  11  21  39  71  95 129 178 224 270 328 398
#     4  12  25  41  66 102 132 166 229 290 328 380
#     4   8  18  36  67  96 126 172 219 272 319 390
#
# _framework density 24.202960999999998
#
# number of rings (size 3 to 8) (size 9 to 14) (size 15 to 20)
#    0.750    1.250    1.250    4.125    0.000    2.000 
#    0.000    5.000   13.750    0.000    0.000    0.000 
#    0.000    0.000    0.000    0.000    0.000    0.000 
#
# Total GULP energy -89385.489944 kJ/mol
# GULP energy per Si atom -5586.593121 kJ/mol
# Density = 2.414787 g / cm^3
# Si number density = 24.202961 Si / 1000 Ang^3
#
#
#
# Elastic Constant Matrix: (Units=GPa)
#
#
# Indices 1 2 3 4 5 6 
#
# 1 62.7597 18.0826 20.7458 1.8998 -4.5197 -19.8355
# 2 18.0826 126.0867 37.0357 -18.6706 0.4166 -27.4724
# 3 20.7458 37.0357 93.4264 3.3313 -17.6651 -13.7204
# 4 1.8998 -18.6706 3.3313 42.2990 -5.9685 -4.7077
# 5 -4.5197 0.4166 -17.6651 -5.9685 25.5771 2.3319
# 6 -19.8355 -27.4724 -13.7204 -4.7077 2.3319 20.2825
#
#
#
# Elastic Compliance Matrix: (Units=1/GPa)
#
#
# Indices 1 2 3 4 5 6 
#
# 1 0.024725 0.004247 -0.002974 0.004296 0.000619 0.028847
# 2 0.004247 0.015246 -0.004201 0.009236 -0.002468 0.024389
# 3 -0.002974 -0.004201 0.014874 -0.001557 0.009451 0.000016
# 4 0.004296 0.009236 -0.001557 0.030787 0.004688 0.022265
# 5 0.000619 -0.002468 0.009451 0.004688 0.046928 -0.000651
# 6 0.028847 0.024389 0.000016 0.022265 -0.000651 0.115803
#
#
# Mechanical properties :
#
#
# Convention : Reuss Voigt Hill
#
# Bulk Modulus (GPa) = 20.41253 48.22236 34.31745
# Shear Modulus (GPa) = 18.48104 31.39228 24.93666
#
# Velocity S-wave (km/s) = 2.76630 3.60536 3.21333
# Velocity P-wave (km/s) = 4.31920 6.10728 5.28934
#
# Compressibility (1/GPa) = 0.04898951
#
# Stress axis : x y z
#
# Youngs Moduli (GPa) = 40.44521 65.59233 67.23118
#
# Poissons Ratio (x) = -0.27857 0.19992
# Poissons Ratio (y) = -0.17177 0.28243
# Poissons Ratio (z) = 0.12027 0.27554
#
# Static dielectric constant tensor:
#      x y z
#    x 1.926420 0.043990 0.034250 
#    y 0.043990 1.927690 -0.037690 
#    z 0.034250 -0.037690 1.950190 
# 
# From -- ./inp_files/573561.got.cif
#   From: 2010.05.17/outbox.cif.g08.bks.cpg/sg2_287_cif.got.tgz:573561.got - 2010.06.03 11:33:40.
