data_PCOD9055368
_publ_section_title
;
Structure prediction by ZEFSAII (Michael W. Deem and Ramdas Pophale) SiO2 
 PCOD9055368
Probable space group: P -1
;
_chemical_formula_sum "Si O2"
_cell_formula_units_Z 14
_cell_length_a 21.299842
_cell_length_b 8.470951
_cell_length_c 8.880901
_cell_angle_alpha 88.535522
_cell_angle_beta 45.161178
_cell_angle_gamma 54.149403
_cell_volume 680.313344
_symmetry_space_group_name_H-M "P -1"
_symmetry_group_IT_number 2
_symmetry_cell_setting 'triclinic'
loop_
_space_group_symop_operation_xyz
x,y,z
-x,-y,-z
loop_
_atom_site_type_symbol
_atom_site_label
_atom_site_fract_x
_atom_site_fract_y
_atom_site_fract_z
Si Si1 0.555321 0.669768 0.487886
Si Si2 0.721918 0.096401 0.202333
Si Si3 0.052476 0.245761 0.414634
Si Si4 0.703723 0.280589 0.808663
Si Si5 0.363627 0.790432 0.344288
Si Si6 0.251879 0.462868 0.093603
Si Si7 0.434595 0.969171 0.990690
O O1 0.653351 0.370148 0.321661
O O2 0.393118 0.848461 0.697600
O O3 0.539757 0.762333 0.679808
O O4 0.633952 0.672592 0.233550
O O5 0.728206 0.024142 0.362723
O O6 0.878680 0.882191 0.862794
O O7 0.000000 0.500000 0.500000
O O8 0.912664 0.337524 0.687469
O O9 0.189121 0.002863 0.295568
O O10 0.706654 0.256039 0.624620
O O11 0.746230 0.384354 0.809256
O O12 0.528248 0.514004 0.133415
O O13 0.386036 0.892391 0.178400
O O14 0.304783 0.243477 0.114010
O O15 0.500000 0.000000 0.000000
#
# Coordination Sequence:
#
# PCOD9055368 Si02
#       7
#     2   2   2   2   2   2   2
#     4  11  22  40  69 101 128 173 230 279 320 391
#     4  11  21  41  69  98 127 178 229 269 329 396
#     4  12  26  44  66  97 138 179 222 274 339 400
#     4  11  21  42  68  96 131 175 218 277 332 390
#     4  11  22  41  70  99 133 173 223 276 334 389
#     4  12  24  43  68 101 137 174 223 276 333 399
#     4  12  24  40  65 104 138 169 217 280 336 387
#
# _framework density 20.578752999999999
#
# number of rings (size 3 to 8) (size 9 to 14) (size 15 to 20)
#    0.000    0.571    4.286    6.000    0.000    1.143 
#    0.000    5.000    0.000    0.000    0.000    0.000 
#    0.000    0.000    0.000    0.000    0.000    0.000 
#
# Total GULP energy -78225.501130 kJ/mol
# GULP energy per Si atom -5587.535795 kJ/mol
# Density = 2.053191 g / cm^3
# Si number density = 20.578753 Si / 1000 Ang^3
#
#
#
# Elastic Constant Matrix: (Units=GPa)
#
#
# Indices 1 2 3 4 5 6 
#
# 1 120.3962 18.9759 33.7198 -5.1193 15.0680 0.0235
# 2 18.9759 106.9200 29.5450 7.4161 -1.7959 -9.6839
# 3 33.7198 29.5450 80.9271 -7.2192 6.2953 -6.8367
# 4 -5.1193 7.4161 -7.2192 32.4240 0.7850 6.6279
# 5 15.0680 -1.7959 6.2953 0.7850 32.6358 0.3499
# 6 0.0235 -9.6839 -6.8367 6.6279 0.3499 27.6517
#
#
#
# Elastic Compliance Matrix: (Units=1/GPa)
#
#
# Indices 1 2 3 4 5 6 
#
# 1 0.010020 -0.001140 -0.003443 0.001494 -0.004044 -0.001566
# 2 -0.001140 0.011342 -0.003877 -0.004517 0.001963 0.004072
# 3 -0.003443 -0.003877 0.015808 0.003553 -0.001777 0.001724
# 4 0.001494 -0.004517 0.003553 0.034802 -0.002364 -0.009017
# 5 -0.004044 0.001963 -0.001777 -0.002364 0.033012 0.000401
# 6 -0.001566 0.004072 0.001724 -0.009017 0.000401 0.040174
#
#
# Mechanical properties :
#
#
# Convention : Reuss Voigt Hill
#
# Bulk Modulus (GPa) = 49.38717 52.52495 50.95606
# Shear Modulus (GPa) = 29.61598 33.60914 31.61256
#
# Velocity S-wave (km/s) = 3.79773 4.04567 3.92366
# Velocity P-wave (km/s) = 6.57887 6.88495 6.73365
#
# Compressibility (1/GPa) = 0.02024818
#
# Stress axis : x y z
#
# Youngs Moduli (GPa) = 99.80114 88.17033 63.25990
#
# Poissons Ratio (x) = 0.10054 0.21781
# Poissons Ratio (y) = 0.11380 0.24527
# Poissons Ratio (z) = 0.34363 0.34185
#
# Static dielectric constant tensor:
#      x y z
#    x 1.774450 0.012710 0.028790 
#    y 0.012710 1.790840 -0.013950 
#    z 0.028790 -0.013950 1.720750 
# 
# From -- ./inp_files/342738.got.cif
#   From: 2010.05.17/outbox.cif.g08.bks.cpg/sg2_172_cif.got.tgz:342738.got - 2010.06.03 11:33:40.
