data_PCOD9055578
_publ_section_title
;
Structure prediction by ZEFSAII (Michael W. Deem and Ramdas Pophale) SiO2 
 PCOD9055578
Probable space group: P -1
;
_chemical_formula_sum "Si O2"
_cell_formula_units_Z 14
_cell_length_a 21.621329
_cell_length_b 13.554651
_cell_length_c 13.775072
_cell_angle_alpha 146.074173
_cell_angle_beta 155.557422
_cell_angle_gamma 23.657762
_cell_volume 670.103553
_symmetry_space_group_name_H-M "P -1"
_symmetry_group_IT_number 2
_symmetry_cell_setting 'triclinic'
loop_
_space_group_symop_operation_xyz
x,y,z
-x,-y,-z
loop_
_atom_site_type_symbol
_atom_site_label
_atom_site_fract_x
_atom_site_fract_y
_atom_site_fract_z
Si Si1 0.799974 0.781656 0.972046
Si Si2 0.538486 0.207275 0.436524
Si Si3 0.336871 0.734463 0.886266
Si Si4 0.489260 0.222345 0.170759
Si Si5 0.350466 0.554087 0.077746
Si Si6 0.076287 0.154608 0.592686
Si Si7 0.968999 0.702588 0.561785
O O1 0.853648 0.812590 0.181076
O O2 0.733992 0.001500 0.988726
O O3 0.602851 0.815863 0.728390
O O4 0.000000 0.500000 0.000000
O O5 0.423956 0.346757 0.284610
O O6 0.606676 0.305660 0.685574
O O7 0.745114 0.952648 0.479526
O O8 0.458548 0.630553 0.873265
O O9 0.121137 0.805046 0.635673
O O10 0.500000 0.500000 0.000000
O O11 0.340735 0.409431 0.026486
O O12 0.716648 0.108336 0.369734
O O13 0.500000 0.000000 0.000000
O O14 0.140463 0.707844 0.841531
O O15 0.016120 0.331330 0.560894
O O16 0.000000 0.500000 0.500000
#
# Coordination Sequence:
#
# PCOD9055578 Si02
#       7
#     2   2   2   2   2   2   2
#     4  12  26  47  71 103 138 181 238 289 342 416
#     4  11  25  42  67 106 133 174 233 288 349 410
#     4  12  25  47  71 100 139 186 233 281 353 410
#     4  11  21  42  70  98 131 177 232 278 345 415
#     4  12  23  44  69  98 143 177 224 294 345 415
#     4  11  23  42  71  97 133 187 230 276 345 417
#     4  11  24  43  70  99 139 183 227 281 353 416
#
# _framework density 20.892294
#
# number of rings (size 3 to 8) (size 9 to 14) (size 15 to 20)
#    0.000    0.571    4.286    4.714    2.000    0.000 
#    2.571    1.429    0.000    0.000    0.000    0.000 
#    0.000    0.000    0.000    0.000    0.000    0.000 
#
# Total GULP energy -78159.892446 kJ/mol
# GULP energy per Si atom -5582.849460 kJ/mol
# Density = 2.084474 g / cm^3
# Si number density = 20.892294 Si / 1000 Ang^3
#
#
#
# Elastic Constant Matrix: (Units=GPa)
#
#
# Indices 1 2 3 4 5 6 
#
# 1 79.1652 38.6878 30.3652 4.4701 6.1669 14.0744
# 2 38.6878 88.2783 32.0400 5.0189 2.7018 4.2782
# 3 30.3652 32.0400 129.1828 -1.5039 14.2343 4.5625
# 4 4.4701 5.0189 -1.5039 31.0509 -4.9250 2.9551
# 5 6.1669 2.7018 14.2343 -4.9250 45.0831 -11.4509
# 6 14.0744 4.2782 4.5625 2.9551 -11.4509 40.9631
#
#
#
# Elastic Compliance Matrix: (Units=1/GPa)
#
#
# Indices 1 2 3 4 5 6 
#
# 1 0.018107 -0.006715 -0.002050 -0.001541 -0.003134 -0.006057
# 2 -0.006715 0.015114 -0.002339 -0.001572 0.000925 0.001361
# 3 -0.002050 -0.002339 0.009127 0.000785 -0.002591 -0.000849
# 4 -0.001541 -0.001572 0.000785 0.033351 0.003491 -0.000824
# 5 -0.003134 0.000925 -0.002591 0.003491 0.025848 0.008242
# 6 -0.006057 0.001361 -0.000849 -0.000824 0.008242 0.028809
#
#
# Mechanical properties :
#
#
# Convention : Reuss Voigt Hill
#
# Bulk Modulus (GPa) = 49.64365 55.42356 52.53361
# Shear Modulus (GPa) = 31.39175 36.45498 33.92337
#
# Velocity S-wave (km/s) = 3.88048 4.18173 4.03392
# Velocity P-wave (km/s) = 6.62501 7.06411 6.84808
#
# Compressibility (1/GPa) = 0.02014356
#
# Stress axis : x y z
#
# Youngs Moduli (GPa) = 55.22624 66.16220 109.55987
#
# Poissons Ratio (x) = 0.44425 0.22455
# Poissons Ratio (y) = 0.37082 0.25622
# Poissons Ratio (z) = 0.11319 0.15473
#
# Static dielectric constant tensor:
#      x y z
#    x 1.782040 0.074690 -0.036790 
#    y 0.074690 1.796540 -0.037460 
#    z -0.036790 -0.037460 1.784680 
# 
# From -- ./inp_files/465157.got.cif
#   From: 2010.05.17/outbox.cif.g08.bks.cpg/sg2_233_cif.got.tgz:465157.got - 2010.06.03 11:33:40.
