data_PCOD9055880
_publ_section_title
;
Structure prediction by ZEFSAII (Michael W. Deem and Ramdas Pophale) SiO2 
 PCOD9055880
Probable space group: P -1
;
_chemical_formula_sum "Si O2"
_cell_formula_units_Z 16
_cell_length_a 25.552201
_cell_length_b 9.676218
_cell_length_c 9.029318
_cell_angle_alpha 150.215591
_cell_angle_beta 138.896732
_cell_angle_gamma 33.689811
_cell_volume 611.132634
_symmetry_space_group_name_H-M "P -1"
_symmetry_group_IT_number 2
_symmetry_cell_setting 'triclinic'
loop_
_space_group_symop_operation_xyz
x,y,z
-x,-y,-z
loop_
_atom_site_type_symbol
_atom_site_label
_atom_site_fract_x
_atom_site_fract_y
_atom_site_fract_z
Si Si1 0.817275 0.324083 0.340401
Si Si2 0.130565 0.154326 0.744447
Si Si3 0.978243 0.106441 0.883440
Si Si4 0.411420 0.286443 0.985836
Si Si5 0.161820 0.132571 0.254737
Si Si6 0.641631 0.270237 0.199650
Si Si7 0.331516 0.918673 0.588767
Si Si8 0.381862 0.156051 0.471033
O O1 0.857428 0.522309 0.528534
O O2 0.731532 0.613095 0.522124
O O3 0.884509 0.998020 0.279140
O O4 0.771771 0.169089 0.996753
O O5 0.059463 0.121422 0.458289
O O6 0.102157 0.528832 0.010442
O O7 0.243396 0.925989 0.746088
O O8 0.072223 0.100544 0.033306
O O9 0.000000 0.000000 0.000000
O O10 0.391857 0.631252 0.328334
O O11 0.422567 0.185181 0.742488
O O12 0.500000 0.000000 0.000000
O O13 0.329518 0.240037 0.832887
O O14 0.221271 0.036122 0.443498
O O15 0.605703 0.156082 0.878381
O O16 0.625636 0.197676 0.265173
O O17 0.597889 0.654595 0.435709
#
# Coordination Sequence:
#
# PCOD9055880 Si02
#       8
#     2   2   2   2   2   2   2   2
#     4  11  22  40  67  96 128 177 232 286 338 403
#     4  11  24  42  62  94 137 176 233 283 344 397
#     4  12  26  41  59  89 138 185 226 285 351 395
#     4  12  26  46  74 103 139 177 220 281 347 412
#     4  12  23  40  67  95 131 178 233 286 338 402
#     4  11  24  41  74  98 137 185 228 279 334 401
#     4  12  24  46  69 106 134 175 237 279 330 420
#     4  11  21  44  68 101 135 179 225 272 345 414
#
# _framework density 26.180897999999999
#
# number of rings (size 3 to 8) (size 9 to 14) (size 15 to 20)
#    0.000    0.500    2.500    7.500    0.000    5.000 
#    0.000    3.750    0.000    0.000    0.000    0.000 
#    0.000    0.000    0.000    0.000    0.000    0.000 
#
# Total GULP energy -89381.246384 kJ/mol
# GULP energy per Si atom -5586.327899 kJ/mol
# Density = 2.612131 g / cm^3
# Si number density = 26.180898 Si / 1000 Ang^3
#
#
#
# Elastic Constant Matrix: (Units=GPa)
#
#
# Indices 1 2 3 4 5 6 
#
# 1 75.2672 26.1063 23.8876 -7.3170 1.0297 18.7890
# 2 26.1063 84.2732 23.6253 -6.8268 -13.6727 28.4144
# 3 23.8876 23.6253 128.7452 5.8607 -2.8291 15.4196
# 4 -7.3170 -6.8268 5.8607 66.7346 9.7447 4.6026
# 5 1.0297 -13.6727 -2.8291 9.7447 24.5137 -12.2788
# 6 18.7890 28.4144 15.4196 4.6026 -12.2788 54.9316
#
#
#
# Elastic Compliance Matrix: (Units=1/GPa)
#
#
# Indices 1 2 3 4 5 6 
#
# 1 0.016909 -0.003822 -0.002125 0.002980 -0.006762 -0.004971
# 2 -0.003822 0.016374 -0.001550 0.000888 0.006030 -0.005454
# 3 -0.002125 -0.001550 0.008591 -0.001142 0.000310 -0.000718
# 4 0.002980 0.000888 -0.001142 0.017110 -0.008853 -0.004570
# 5 -0.006762 0.006030 0.000310 -0.008853 0.053962 0.011911
# 6 -0.004971 -0.005454 -0.000718 -0.004570 0.011911 0.025973
#
#
# Mechanical properties :
#
#
# Convention : Reuss Voigt Hill
#
# Bulk Modulus (GPa) = 37.20289 48.39157 42.79723
# Shear Modulus (GPa) = 30.69885 43.54706 37.12296
#
# Velocity S-wave (km/s) = 3.42799 4.08280 3.76964
# Velocity P-wave (km/s) = 5.46891 6.38352 5.94383
#
# Compressibility (1/GPa) = 0.02687963
#
# Stress axis : x y z
#
# Youngs Moduli (GPa) = 59.13934 61.07328 116.40406
#
# Poissons Ratio (x) = 0.23342 0.24734
# Poissons Ratio (y) = 0.22603 0.18045
# Poissons Ratio (z) = 0.12566 0.09468
#
# Static dielectric constant tensor:
#      x y z
#    x 2.227790 -0.133940 -0.028720 
#    y -0.133940 2.142420 -0.059490 
#    z -0.028720 -0.059490 2.064880 
# 
# From -- ./inp_files/358484.got.cif
#   From: 2010.05.17/outbox.cif.g08.bks.cpg/sg2_180_cif.got.tgz:358484.got - 2010.06.03 11:33:40.
