data_PCOD9055550
_publ_section_title
;
Structure prediction by ZEFSAII (Michael W. Deem and Ramdas Pophale) SiO2 
 PCOD9055550
Probable space group: P -1
;
_chemical_formula_sum "Si O2"
_cell_formula_units_Z 16
_cell_length_a 11.569186
_cell_length_b 15.225160
_cell_length_c 15.218246
_cell_angle_alpha 152.010264
_cell_angle_beta 40.144078
_cell_angle_gamma 132.307403
_cell_volume 811.053111
_symmetry_space_group_name_H-M "P -1"
_symmetry_group_IT_number 2
_symmetry_cell_setting 'triclinic'
loop_
_space_group_symop_operation_xyz
x,y,z
-x,-y,-z
loop_
_atom_site_type_symbol
_atom_site_label
_atom_site_fract_x
_atom_site_fract_y
_atom_site_fract_z
Si Si1 0.782952 0.389152 0.822735
Si Si2 0.898227 0.985714 0.453035
Si Si3 0.044787 0.608863 0.979561
Si Si4 0.499334 0.910815 0.677250
Si Si5 0.105660 0.803538 0.749778
Si Si6 0.453114 0.342516 0.109017
Si Si7 0.441106 0.463462 0.599852
Si Si8 0.134429 0.511425 0.330203
O O1 0.766347 0.439406 0.774660
O O2 0.913236 0.540206 0.921044
O O3 0.880539 0.188081 0.598643
O O4 0.612212 0.387108 0.985665
O O5 0.690345 0.917778 0.520984
O O6 0.000000 0.000000 0.500000
O O7 0.014786 0.828872 0.199190
O O8 0.242074 0.542721 0.787992
O O9 0.000000 0.500000 0.000000
O O10 0.317851 0.846053 0.675837
O O11 0.538440 0.757281 0.592045
O O12 0.462457 0.119275 0.917136
O O13 0.078677 0.703573 0.582147
O O14 0.026797 0.640551 0.716444
O O15 0.000000 0.000000 0.000000
O O16 0.471518 0.441360 0.280029
O O17 0.274512 0.410281 0.224547
O O18 0.500000 0.500000 0.500000
#
# Coordination Sequence:
#
# PCOD9055550 Si02
#       8
#     2   2   2   2   2   2   2   2
#     4  11  24  40  69 101 131 171 227 279 339 400
#     4  11  21  42  69  98 130 175 223 278 340 396
#     4  12  21  42  68  92 133 178 217 278 336 395
#     4  11  22  42  70  93 131 178 219 278 339 396
#     4  11  24  45  67  93 137 185 223 273 337 400
#     4  11  22  45  68  94 134 174 220 284 341 395
#     4  12  26  42  67 100 133 177 228 276 339 408
#     4  11  25  43  68  98 132 180 229 276 332 407
#
# _framework density 19.727439
#
# number of rings (size 3 to 8) (size 9 to 14) (size 15 to 20)
#    0.000    0.750    6.250    1.125    1.750    1.500 
#    0.000    1.250    0.000    0.000    0.000    0.000 
#    0.000    0.000    0.000    0.000    0.000    0.000 
#
# Total GULP energy -89256.056719 kJ/mol
# GULP energy per Si atom -5578.503545 kJ/mol
# Density = 1.968254 g / cm^3
# Si number density = 19.727439 Si / 1000 Ang^3
#
#
#
# Elastic Constant Matrix: (Units=GPa)
#
#
# Indices 1 2 3 4 5 6 
#
# 1 43.2826 42.4182 68.9326 -15.5039 11.8672 24.0238
# 2 42.4182 87.6786 60.2083 -0.7729 19.5712 -3.0373
# 3 68.9326 60.2083 128.8344 7.2019 -5.2541 -14.8885
# 4 -15.5039 -0.7729 7.2019 33.2685 2.6740 3.3750
# 5 11.8672 19.5712 -5.2541 2.6740 26.2643 -13.4640
# 6 24.0238 -3.0373 -14.8885 3.3750 -13.4640 29.0787
#
#
#
# Elastic Compliance Matrix: (Units=1/GPa)
#
#
# Indices 1 2 3 4 5 6 
#
# 1 -0.004858 -0.009307 0.010624 -0.008578 0.022274 0.019790
# 2 -0.009307 0.023651 -0.006570 -0.001224 -0.014492 0.000227
# 3 0.010624 -0.006570 0.003356 0.005609 -0.005387 -0.010890
# 4 -0.008578 -0.001224 0.005609 0.022878 0.009518 0.011583
# 5 0.022274 -0.014492 -0.005387 0.009518 0.032221 -0.008859
# 6 0.019790 0.000227 -0.010890 0.011583 -0.008859 0.007042
#
#
# Mechanical properties :
#
#
# Convention : Reuss Voigt Hill
#
# Bulk Modulus (GPa) = 85.88479 66.99044 76.43762
# Shear Modulus (GPa) = 50.67018 23.60473 37.13746
#
# Velocity S-wave (km/s) = 5.07355 3.46286 4.34352
# Velocity P-wave (km/s) = 8.82901 7.07250 7.99911
#
# Compressibility (1/GPa) = 0.01164351
#
# Stress axis : x y z
#
# Youngs Moduli (GPa) = -205.82961 42.28124 297.93839
#
# Poissons Ratio (x) = 0.39349 -3.16516
# Poissons Ratio (y) = -1.91556 1.95740
# Poissons Ratio (z) = 2.18664 0.27778
#
# Static dielectric constant tensor:
#      x y z
#    x 1.705340 0.004100 0.033160 
#    y 0.004100 1.762700 -0.036460 
#    z 0.033160 -0.036460 1.705160 
# 
# From -- ./inp_files/522590.got.cif
#   From: 2010.05.17/outbox.cif.g08.bks.cpg/sg2_262_cif.got.tgz:522590.got - 2010.06.03 11:33:40.
