data_PCOD9055356
_publ_section_title
;
Structure prediction by ZEFSAII (Michael W. Deem and Ramdas Pophale) SiO2 
 PCOD9055356
Probable space group: P -1
;
_chemical_formula_sum "Si O2"
_cell_formula_units_Z 16
_cell_length_a 8.552088
_cell_length_b 5.349408
_cell_length_c 17.717589
_cell_angle_alpha 81.746729
_cell_angle_beta 103.169356
_cell_angle_gamma 59.757786
_cell_volume 648.886204
_symmetry_space_group_name_H-M "P -1"
_symmetry_group_IT_number 2
_symmetry_cell_setting 'triclinic'
loop_
_space_group_symop_operation_xyz
x,y,z
-x,-y,-z
loop_
_atom_site_type_symbol
_atom_site_label
_atom_site_fract_x
_atom_site_fract_y
_atom_site_fract_z
Si Si1 0.545109 0.232138 0.958701
Si Si2 0.231716 0.779628 0.252382
Si Si3 0.408034 0.776752 0.835150
Si Si4 0.656975 0.251817 0.340715
Si Si5 0.221142 0.198055 0.113117
Si Si6 0.629894 0.134635 0.506934
Si Si7 0.955154 0.650052 0.164289
Si Si8 0.007632 0.226467 0.326954
O O1 0.419604 0.462649 0.864741
O O2 0.747170 0.007611 0.947118
O O3 0.500000 0.500000 0.000000
O O4 0.500000 0.000000 0.000000
O O5 0.433376 0.513770 0.317629
O O6 0.131833 0.690641 0.184248
O O7 0.275391 0.999180 0.204143
O O8 0.072455 0.937744 0.292901
O O9 0.352707 0.870822 0.737548
O O10 0.613055 0.731636 0.877370
O O11 0.244426 0.032311 0.860695
O O12 0.713521 0.078448 0.433368
O O13 0.808386 0.345335 0.341339
O O14 0.000892 0.461762 0.099891
O O15 0.500000 0.500000 0.500000
O O16 0.500000 0.000000 0.500000
O O17 0.809602 0.920386 0.591538
O O18 0.981696 0.463363 0.251120
#
# Coordination Sequence:
#
# PCOD9055356 Si02
#       8
#     2   2   2   2   2   2   2   2
#     4  12  26  48  78 111 153 197 243 304 377 452
#     4  11  21  41  69 103 145 186 250 309 364 439
#     4  12  25  45  77 113 144 195 258 305 374 457
#     4  12  23  44  72 104 143 203 248 311 376 439
#     4  11  23  43  76 105 150 194 241 304 380 432
#     4  12  28  47  72 103 154 202 254 313 375 438
#     4  11  24  42  74 112 147 191 255 312 366 449
#     4  11  25  43  67 107 149 196 255 314 372 436
#
# _framework density 24.657636
#
# number of rings (size 3 to 8) (size 9 to 14) (size 15 to 20)
#    0.000    0.500    6.250    1.875    1.750    1.000 
#    0.000    3.125    0.000    0.000    0.000    0.000 
#    0.000    0.000    0.000    0.000    0.000    0.000 
#
# Total GULP energy -89279.556523 kJ/mol
# GULP energy per Si atom -5579.972283 kJ/mol
# Density = 2.460151 g / cm^3
# Si number density = 24.657636 Si / 1000 Ang^3
#
#
#
# Elastic Constant Matrix: (Units=GPa)
#
#
# Indices 1 2 3 4 5 6 
#
# 1 115.2547 44.3497 28.9358 -8.8376 -20.6465 6.6003
# 2 44.3497 141.4616 49.3717 -0.1988 -13.8669 -18.3161
# 3 28.9358 49.3717 104.7454 8.8790 -18.5855 -6.1848
# 4 -8.8376 -0.1988 8.8790 36.9959 -10.1688 0.9437
# 5 -20.6465 -13.8669 -18.5855 -10.1688 46.5084 1.3702
# 6 6.6003 -18.3161 -6.1848 0.9437 1.3702 38.8183
#
#
#
# Elastic Compliance Matrix: (Units=1/GPa)
#
#
# Indices 1 2 3 4 5 6 
#
# 1 0.011716 -0.003193 -0.001510 0.004555 0.004760 -0.004018
# 2 -0.003193 0.009897 -0.003510 0.000013 -0.000004 0.004654
# 3 -0.001510 -0.003510 0.012339 -0.002634 0.002622 0.000538
# 4 0.004555 0.000013 -0.002634 0.030953 0.007806 -0.002216
# 5 0.004760 -0.000004 0.002622 0.007806 0.026413 -0.001515
# 6 -0.004018 0.004654 0.000538 -0.002216 -0.001515 0.028833
#
#
# Mechanical properties :
#
#
# Convention : Reuss Voigt Hill
#
# Bulk Modulus (GPa) = 57.05944 67.41958 62.23951
# Shear Modulus (GPa) = 35.10733 40.38481 37.74607
#
# Velocity S-wave (km/s) = 3.77741 4.05139 3.91680
# Velocity P-wave (km/s) = 6.49739 7.02045 6.76397
#
# Compressibility (1/GPa) = 0.01752558
#
# Stress axis : x y z
#
# Youngs Moduli (GPa) = 85.34973 101.03622 81.04475
#
# Poissons Ratio (x) = 0.32265 0.12240
# Poissons Ratio (y) = 0.27256 0.28446
# Poissons Ratio (z) = 0.12890 0.35463
#
# Static dielectric constant tensor:
#      x y z
#    x 1.958300 0.036680 -0.002190 
#    y 0.036680 2.105840 0.045910 
#    z -0.002190 0.045910 2.037550 
# 
# From -- ./inp_files/552008.got.cif
#   From: 2010.05.17/outbox.cif.g08.bks.cpg/sg2_277_cif.got.tgz:552008.got - 2010.06.03 11:33:40.
