data_PCOD9055083
_publ_section_title
;
Structure prediction by ZEFSAII (Michael W. Deem and Ramdas Pophale) SiO2 
 PCOD9055083
Probable space group: P -1
;
_chemical_formula_sum "Si O2"
_cell_formula_units_Z 16
_cell_length_a 9.398801
_cell_length_b 15.975040
_cell_length_c 15.821804
_cell_angle_alpha 32.561069
_cell_angle_beta 43.178316
_cell_angle_gamma 68.063333
_cell_volume 661.472816
_symmetry_space_group_name_H-M "P -1"
_symmetry_group_IT_number 2
_symmetry_cell_setting 'triclinic'
loop_
_space_group_symop_operation_xyz
x,y,z
-x,-y,-z
loop_
_atom_site_type_symbol
_atom_site_label
_atom_site_fract_x
_atom_site_fract_y
_atom_site_fract_z
Si Si1 0.170813 0.766176 0.063550
Si Si2 0.397876 0.267556 0.469577
Si Si3 0.812833 0.358843 0.486076
Si Si4 0.652453 0.823191 0.611511
Si Si5 0.953935 0.265377 0.672850
Si Si6 0.266004 0.857793 0.573384
Si Si7 0.719844 0.811806 0.210981
Si Si8 0.120242 0.336015 0.237370
O O1 0.085954 0.592965 0.182524
O O2 0.957377 0.800994 0.108312
O O3 0.106916 0.678554 0.260371
O O4 0.482965 0.961877 0.747863
O O5 0.239440 0.120768 0.579586
O O6 0.353881 0.225703 0.625503
O O7 0.278762 0.387338 0.410905
O O8 0.673306 0.296729 0.313481
O O9 0.802191 0.255969 0.664538
O O10 0.552542 0.339695 0.597814
O O11 0.866318 0.282670 0.445635
O O12 0.686238 0.012357 0.475038
O O13 0.807048 0.786917 0.641422
O O14 0.370701 0.582258 0.925961
O O15 0.829787 0.034520 0.946508
O O16 0.980054 0.743344 0.746790
#
# Coordination Sequence:
#
# PCOD9055083 Si02
#       8
#     2   2   2   2   2   2   2   2
#     4  11  22  40  65  97 134 170 212 272 330 386
#     4  11  21  40  68  90 126 175 217 265 329 385
#     4  12  22  40  65  99 133 171 218 269 329 390
#     4  11  25  44  66  93 133 168 219 276 321 384
#     4  11  21  40  66  91 131 173 217 267 327 392
#     4  12  22  43  68  95 129 171 219 267 329 386
#     4  11  22  41  67  94 132 172 217 269 324 397
#     4  11  24  43  67  96 129 172 217 270 332 384
#
# _framework density 24.188447
#
# number of rings (size 3 to 8) (size 9 to 14) (size 15 to 20)
#    0.000    0.750    6.250    2.625    0.000    0.500 
#    0.000    0.000    2.750    0.000    0.000    0.000 
#    0.000    0.000    0.000    0.000    0.000    0.000 
#
# Total GULP energy -89161.527122 kJ/mol
# GULP energy per Si atom -5572.595445 kJ/mol
# Density = 2.413339 g / cm^3
# Si number density = 24.188447 Si / 1000 Ang^3
#
#
#
# Elastic Constant Matrix: (Units=GPa)
#
#
# Indices 1 2 3 4 5 6 
#
# 1 156.6249 36.1285 33.7369 -0.1913 -0.7720 25.4529
# 2 36.1285 105.3568 10.6186 6.0365 -1.2932 18.4172
# 3 33.7369 10.6186 57.3690 -11.5214 -6.6248 6.6306
# 4 -0.1913 6.0365 -11.5214 24.5567 9.2716 -8.1559
# 5 -0.7720 -1.2932 -6.6248 9.2716 36.2542 0.1434
# 6 25.4529 18.4172 6.6306 -8.1559 0.1434 27.9677
#
#
#
# Elastic Compliance Matrix: (Units=1/GPa)
#
#
# Indices 1 2 3 4 5 6 
#
# 1 0.008956 -0.000913 -0.005122 -0.004875 0.000499 -0.007759
# 2 -0.000913 0.012003 -0.001951 -0.007569 0.002023 -0.008828
# 3 -0.005122 -0.001951 0.022884 0.012203 0.000866 0.004075
# 4 -0.004875 -0.007569 0.012203 0.061738 -0.014030 0.024603
# 5 0.000499 0.002023 0.000866 -0.014030 0.031437 -0.006245
# 6 -0.007759 -0.008828 0.004075 0.024603 -0.006245 0.054871
#
#
# Mechanical properties :
#
#
# Convention : Reuss Voigt Hill
#
# Bulk Modulus (GPa) = 35.87992 53.36876 44.62434
# Shear Modulus (GPa) = 23.02530 33.68016 28.35273
#
# Velocity S-wave (km/s) = 3.08866 3.73555 3.42740
# Velocity P-wave (km/s) = 5.25218 6.38102 5.84392
#
# Compressibility (1/GPa) = 0.02787074
#
# Stress axis : x y z
#
# Youngs Moduli (GPa) = 111.65581 83.31238 43.69855
#
# Poissons Ratio (x) = 0.07608 0.22384
# Poissons Ratio (y) = 0.10196 0.08525
# Poissons Ratio (z) = 0.57193 0.16252
#
# Static dielectric constant tensor:
#      x y z
#    x 1.934810 -0.022100 0.021720 
#    y -0.022100 1.955580 0.011390 
#    z 0.021720 0.011390 2.096120 
# 
# From -- ./inp_files/190410.got.cif
#   From: 2010.05.17/outbox.cif.g08.bks.cpg/sg2_96_cif.got.tgz:190410.got - 2010.06.03 11:33:40.
