data_PCOD9055573
_publ_section_title
;
Structure prediction by ZEFSAII (Michael W. Deem and Ramdas Pophale) SiO2 
 PCOD9055573
Probable space group: P -1
;
_chemical_formula_sum "Si O2"
_cell_formula_units_Z 14
_cell_length_a 9.796358
_cell_length_b 6.782751
_cell_length_c 18.079842
_cell_angle_alpha 99.017487
_cell_angle_beta 52.064565
_cell_angle_gamma 128.723606
_cell_volume 686.669811
_symmetry_space_group_name_H-M "P -1"
_symmetry_group_IT_number 2
_symmetry_cell_setting 'triclinic'
loop_
_space_group_symop_operation_xyz
x,y,z
-x,-y,-z
loop_
_atom_site_type_symbol
_atom_site_label
_atom_site_fract_x
_atom_site_fract_y
_atom_site_fract_z
Si Si1 0.707995 0.532987 0.295515
Si Si2 0.981923 0.066578 0.316909
Si Si3 0.799946 0.733130 0.504628
Si Si4 0.091785 0.376507 0.917870
Si Si5 0.251405 0.703599 0.586389
Si Si6 0.583435 0.862874 0.003753
Si Si7 0.513596 0.508507 0.870778
O O1 0.448034 0.421210 0.382778
O O2 0.762084 0.466457 0.196682
O O3 0.731887 0.400667 0.348189
O O4 0.889557 0.858734 0.267813
O O5 0.927452 0.256083 0.340882
O O6 0.263234 0.267907 0.242457
O O7 0.824776 0.860800 0.424603
O O8 0.821059 0.515431 0.464758
O O9 0.000000 0.000000 0.500000
O O10 0.265988 0.371210 0.907008
O O11 0.853989 0.087792 0.951529
O O12 0.000000 0.500000 0.000000
O O13 0.500000 0.000000 0.500000
O O14 0.539576 0.672407 0.942107
O O15 0.464544 0.692592 0.109890
O O16 0.500000 0.000000 0.000000
#
# Coordination Sequence:
#
# PCOD9055573 Si02
#       7
#     2   2   2   2   2   2   2
#     4  11  23  42  68  96 138 180 226 290 345 408
#     4  11  22  42  68  98 134 179 226 278 352 421
#     4  11  23  41  65  98 141 171 224 290 344 416
#     4  12  25  46  70  99 139 184 238 288 348 412
#     4  11  21  42  70  96 132 185 232 272 350 426
#     4  11  24  45  69  96 135 177 234 289 345 409
#     4  11  25  43  71  97 135 184 225 288 356 404
#
# _framework density 20.388256999999999
#
# number of rings (size 3 to 8) (size 9 to 14) (size 15 to 20)
#    0.000    0.857    5.714    2.143    2.000    0.571 
#    5.143    0.000    0.000    0.000    0.000    0.000 
#    0.000    0.000    0.000    0.000    0.000    0.000 
#
# Total GULP energy -78080.568281 kJ/mol
# GULP energy per Si atom -5577.183449 kJ/mol
# Density = 2.034185 g / cm^3
# Si number density = 20.388257 Si / 1000 Ang^3
#
#
#
# Elastic Constant Matrix: (Units=GPa)
#
#
# Indices 1 2 3 4 5 6 
#
# 1 104.9201 56.7361 32.5374 3.7025 -13.1196 8.9782
# 2 56.7361 104.3929 30.3911 7.3245 -0.4903 -1.9982
# 3 32.5374 30.3911 116.3938 4.5111 2.8374 -2.8162
# 4 3.7025 7.3245 4.5111 35.5169 7.5134 -4.8421
# 5 -13.1196 -0.4903 2.8374 7.5134 30.5402 -0.2292
# 6 8.9782 -1.9982 -2.8162 -4.8421 -0.2292 40.8332
#
#
#
# Elastic Compliance Matrix: (Units=1/GPa)
#
#
# Indices 1 2 3 4 5 6 
#
# 1 0.015915 -0.007802 -0.002622 -0.001856 0.007380 -0.004241
# 2 -0.007802 0.014333 -0.001400 -0.001096 -0.002706 0.002175
# 3 -0.002622 -0.001400 0.009771 -0.000092 -0.002025 0.001160
# 4 -0.001856 -0.001096 -0.000092 0.030900 -0.008379 0.003965
# 5 0.007380 -0.002706 -0.002025 -0.008379 0.038100 -0.002674
# 6 -0.004241 0.002175 0.001160 0.003965 -0.002674 0.026064
#
#
# Mechanical properties :
#
#
# Convention : Reuss Voigt Hill
#
# Bulk Modulus (GPa) = 61.08989 62.78177 61.93583
# Shear Modulus (GPa) = 30.45282 35.11420 32.78351
#
# Velocity S-wave (km/s) = 3.86896 4.15453 4.01429
# Velocity P-wave (km/s) = 7.07014 7.33986 7.20626
#
# Compressibility (1/GPa) = 0.01636932
#
# Stress axis : x y z
#
# Youngs Moduli (GPa) = 62.83569 69.76878 102.34169
#
# Poissons Ratio (x) = 0.54435 0.26836
# Poissons Ratio (y) = 0.49026 0.14331
# Poissons Ratio (z) = 0.16477 0.09770
#
# Static dielectric constant tensor:
#      x y z
#    x 1.425680 -0.519860 -0.054360 
#    y -0.519860 1.031960 -0.130960 
#    z -0.054360 -0.130960 1.748100 
# 
# From -- ./inp_files/39607.got.cif
#   From: 2010.05.17/outbox.cif.g08.bks.cpg/sg2_20_cif.got.tgz:39607.got - 2010.06.03 11:33:40.
