data_PCOD9055727
_publ_section_title
;
Structure prediction by ZEFSAII (Michael W. Deem and Ramdas Pophale) SiO2 
 PCOD9055727
Probable space group: P -1
;
_chemical_formula_sum "Si O2"
_cell_formula_units_Z 16
_cell_length_a 19.588128
_cell_length_b 12.423686
_cell_length_c 8.098654
_cell_angle_alpha 51.775712
_cell_angle_beta 63.611689
_cell_angle_gamma 27.550721
_cell_volume 686.107476
_symmetry_space_group_name_H-M "P -1"
_symmetry_group_IT_number 2
_symmetry_cell_setting 'triclinic'
loop_
_space_group_symop_operation_xyz
x,y,z
-x,-y,-z
loop_
_atom_site_type_symbol
_atom_site_label
_atom_site_fract_x
_atom_site_fract_y
_atom_site_fract_z
Si Si1 0.588051 0.721987 0.626639
Si Si2 0.060877 0.770829 0.241645
Si Si3 0.232437 0.936543 0.174374
Si Si4 0.492803 0.734375 0.050472
Si Si5 0.765616 0.656922 0.127109
Si Si6 0.923398 0.492522 0.785442
Si Si7 0.921046 0.787951 0.589569
Si Si8 0.659645 0.516362 0.417603
O O1 0.769766 0.464543 0.647738
O O2 0.538707 0.738490 0.485726
O O3 0.500000 0.000000 0.500000
O O4 0.571282 0.651022 0.871874
O O5 0.091523 0.592551 0.261629
O O6 0.929896 0.919523 0.364997
O O7 0.000000 0.000000 0.000000
O O8 0.389726 0.759804 0.115031
O O9 0.237335 0.765589 0.348441
O O10 0.200380 0.036895 0.299995
O O11 0.091732 0.204054 0.958595
O O12 0.592642 0.565979 0.269444
O O13 0.378883 0.038899 0.929404
O O14 0.740737 0.533124 0.271152
O O15 0.913261 0.472581 0.249737
O O16 0.802045 0.644446 0.914218
O O17 0.905472 0.681404 0.589741
#
# Coordination Sequence:
#
# PCOD9055727 Si02
#       8
#     2   2   2   2   2   2   2   2
#     4  12  27  46  72 104 141 186 238 289 343 428
#     4  12  27  45  68 108 141 178 237 298 348 409
#     4  11  25  45  67 104 138 178 233 291 356 416
#     4  12  24  47  70  98 144 181 235 286 345 433
#     4  11  21  43  68  97 131 176 240 284 340 420
#     4  11  23  42  73  97 134 189 228 285 356 412
#     4  11  22  44  71  94 138 179 229 289 344 425
#     4  12  26  43  69 104 137 189 228 292 362 398
#
# _framework density 23.319959000000001
#
# number of rings (size 3 to 8) (size 9 to 14) (size 15 to 20)
#    0.000    0.500    5.000    3.375    5.250    1.500 
#    2.250    0.000    0.000    0.000    0.000    0.000 
#    0.000    0.000    0.000    0.000    0.000    0.000 
#
# Total GULP energy -89500.402710 kJ/mol
# GULP energy per Si atom -5593.775169 kJ/mol
# Density = 2.326688 g / cm^3
# Si number density = 23.319959 Si / 1000 Ang^3
#
#
#
# Elastic Constant Matrix: (Units=GPa)
#
#
# Indices 1 2 3 4 5 6 
#
# 1 80.4053 13.3181 16.4089 6.4879 -8.9178 -4.3092
# 2 13.3181 44.6056 16.5487 20.5621 -1.6362 2.4222
# 3 16.4089 16.5487 98.6380 13.9424 -14.4087 -17.7826
# 4 6.4879 20.5621 13.9424 50.2458 11.6734 -6.9084
# 5 -8.9178 -1.6362 -14.4087 11.6734 41.1485 7.6424
# 6 -4.3092 2.4222 -17.7826 -6.9084 7.6424 22.0898
#
#
#
# Elastic Compliance Matrix: (Units=1/GPa)
#
#
# Indices 1 2 3 4 5 6 
#
# 1 0.013583 -0.003454 -0.001058 -0.000416 0.002323 0.001243
# 2 -0.003454 0.033293 -0.004651 -0.015362 0.006087 -0.014979
# 3 -0.001058 -0.004651 0.013403 -0.000957 0.002721 0.009853
# 4 -0.000416 -0.015362 -0.000957 0.031562 -0.012800 0.015133
# 5 0.002323 0.006087 0.002721 -0.012800 0.032069 -0.013122
# 6 0.001243 -0.014979 0.009853 0.015133 -0.013122 0.064359
#
#
# Mechanical properties :
#
#
# Convention : Reuss Voigt Hill
#
# Bulk Modulus (GPa) = 23.83546 35.13336 29.48441
# Shear Modulus (GPa) = 22.66751 34.52169 28.59460
#
# Velocity S-wave (km/s) = 3.12111 3.85171 3.50549
# Velocity P-wave (km/s) = 4.81992 5.90587 5.39032
#
# Compressibility (1/GPa) = 0.04195430
#
# Stress axis : x y z
#
# Youngs Moduli (GPa) = 73.62281 30.03591 74.60828
#
# Poissons Ratio (x) = 0.10373 0.07893
# Poissons Ratio (y) = 0.25426 0.34701
# Poissons Ratio (z) = 0.07789 0.13970
#
# Static dielectric constant tensor:
#      x y z
#    x 1.913210 0.024070 0.010780 
#    y 0.024070 1.879180 0.009190 
#    z 0.010780 0.009190 1.896700 
# 
# From -- ./inp_files/261765.got.cif
#   From: 2010.05.17/outbox.cif.g08.bks.cpg/sg2_131_cif.got.tgz:261765.got - 2010.06.03 11:33:40.
