data_PCOD9055329
_publ_section_title
;
Structure prediction by ZEFSAII (Michael W. Deem and Ramdas Pophale) SiO2 
 PCOD9055329
Probable space group: P -1
;
_chemical_formula_sum "Si O2"
_cell_formula_units_Z 16
_cell_length_a 15.766072
_cell_length_b 9.212397
_cell_length_c 8.694037
_cell_angle_alpha 77.363000
_cell_angle_beta 115.170056
_cell_angle_gamma 148.201630
_cell_volume 574.614280
_symmetry_space_group_name_H-M "P -1"
_symmetry_group_IT_number 2
_symmetry_cell_setting 'triclinic'
loop_
_space_group_symop_operation_xyz
x,y,z
-x,-y,-z
loop_
_atom_site_type_symbol
_atom_site_label
_atom_site_fract_x
_atom_site_fract_y
_atom_site_fract_z
Si Si1 0.804648 0.210727 0.237978
Si Si2 0.227388 0.195554 0.428207
Si Si3 0.787231 0.077241 0.909173
Si Si4 0.317351 0.647830 0.928393
Si Si5 0.898382 0.724407 0.845129
Si Si6 0.174019 0.614657 0.368944
Si Si7 0.587329 0.842403 0.430161
Si Si8 0.594273 0.507447 0.187764
O O1 0.770948 0.119056 0.058499
O O2 0.819492 0.407931 0.218589
O O3 0.993737 0.386861 0.384522
O O4 0.630285 0.916273 0.265848
O O5 0.068286 0.065726 0.246075
O O6 0.398713 0.515380 0.407187
O O7 0.256252 0.065858 0.429750
O O8 0.252717 0.242593 0.622891
O O9 0.914976 0.107171 0.008741
O O10 0.858569 0.307265 0.807365
O O11 0.579590 0.765621 0.776494
O O12 0.344629 0.552034 0.850370
O O13 0.238139 0.483906 0.069002
O O14 0.500000 0.000000 0.000000
O O15 0.820233 0.531658 0.679687
O O16 0.356310 0.919572 0.518705
O O17 0.500000 0.500000 0.000000
#
# Coordination Sequence:
#
# PCOD9055329 Si02
#       8
#     2   2   2   2   2   2   2   2
#     4  11  21  41  68 105 136 175 229 288 340 403
#     4  11  27  46  65 100 140 188 227 277 344 407
#     4  11  21  46  70 100 142 179 220 287 350 405
#     4  12  23  40  72 103 133 173 237 283 333 407
#     4  11  24  44  71 106 138 174 228 287 346 407
#     4  11  21  43  71 101 139 179 224 284 354 399
#     4  11  25  43  69  94 145 183 228 278 342 407
#     4  12  27  47  71  98 139 187 229 277 345 412
#
# _framework density 27.844764999999999
#
# number of rings (size 3 to 8) (size 9 to 14) (size 15 to 20)
#    0.000    0.750    5.000    2.625    5.250    0.500 
#    2.250    4.375    0.000    0.000    0.000    0.000 
#    0.000    0.000    0.000    0.000    0.000    0.000 
#
# Total GULP energy -89619.189318 kJ/mol
# GULP energy per Si atom -5601.199332 kJ/mol
# Density = 2.778139 g / cm^3
# Si number density = 27.844765 Si / 1000 Ang^3
#
#
#
# Elastic Constant Matrix: (Units=GPa)
#
#
# Indices 1 2 3 4 5 6 
#
# 1 189.3095 28.8317 39.0206 -13.7569 -11.6699 -11.4840
# 2 28.8317 87.3842 8.5900 2.0701 -12.1909 12.7067
# 3 39.0206 8.5900 106.3253 -21.1376 -14.9830 -1.2497
# 4 -13.7569 2.0701 -21.1376 30.8533 -9.5110 3.4275
# 5 -11.6699 -12.1909 -14.9830 -9.5110 59.3428 -2.3121
# 6 -11.4840 12.7067 -1.2497 3.4275 -2.3121 49.5011
#
#
#
# Elastic Compliance Matrix: (Units=1/GPa)
#
#
# Indices 1 2 3 4 5 6 
#
# 1 0.006229 -0.002104 -0.001625 0.001830 0.000748 0.001852
# 2 -0.002104 0.012983 -0.000251 -0.000991 0.001888 -0.003670
# 3 -0.001625 -0.000251 0.012432 0.009158 0.004218 -0.000436
# 4 0.001830 -0.000991 0.009158 0.042593 0.009232 -0.001608
# 5 0.000748 0.001888 0.004218 0.009232 0.019934 0.000087
# 6 0.001852 -0.003670 -0.000436 -0.001608 0.000087 0.021678
#
#
# Mechanical properties :
#
#
# Convention : Reuss Voigt Hill
#
# Bulk Modulus (GPa) = 42.22216 59.54484 50.88350
# Shear Modulus (GPa) = 37.96403 48.37787 43.17095
#
# Velocity S-wave (km/s) = 3.69645 4.17275 3.94180
# Velocity P-wave (km/s) = 5.78054 6.68183 6.24746
#
# Compressibility (1/GPa) = 0.02368424
#
# Stress axis : x y z
#
# Youngs Moduli (GPa) = 160.53386 77.02290 80.43931
#
# Poissons Ratio (x) = 0.16205 0.13072
# Poissons Ratio (y) = 0.33775 0.02018
# Poissons Ratio (z) = 0.26089 0.01933
#
# Static dielectric constant tensor:
#      x y z
#    x 2.160410 0.067960 0.076390 
#    y 0.067960 2.255650 0.057180 
#    z 0.076390 0.057180 2.340460 
# 
# From -- ./inp_files/298324.got.cif
#   From: 2010.05.17/outbox.cif.g08.bks.cpg/sg2_150_cif.got.tgz:298324.got - 2010.06.03 11:33:40.
