data_PCOD9055163
_publ_section_title
;
Structure prediction by ZEFSAII (Michael W. Deem and Ramdas Pophale) SiO2 
 PCOD9055163
Probable space group: P -1
;
_chemical_formula_sum "Si O2"
_cell_formula_units_Z 14
_cell_length_a 6.802331
_cell_length_b 19.098323
_cell_length_c 8.174416
_cell_angle_alpha 47.852789
_cell_angle_beta 105.737926
_cell_angle_gamma 74.979182
_cell_volume 595.671755
_symmetry_space_group_name_H-M "P -1"
_symmetry_group_IT_number 2
_symmetry_cell_setting 'triclinic'
loop_
_space_group_symop_operation_xyz
x,y,z
-x,-y,-z
loop_
_atom_site_type_symbol
_atom_site_label
_atom_site_fract_x
_atom_site_fract_y
_atom_site_fract_z
Si Si1 0.325341 0.750386 0.144656
Si Si2 0.761326 0.408056 0.806410
Si Si3 0.971918 0.898296 0.128840
Si Si4 0.041411 0.700001 0.650033
Si Si5 0.556594 0.914915 0.401384
Si Si6 0.108072 0.443216 0.293369
Si Si7 0.301548 0.929659 0.645820
O O1 0.181270 0.711103 0.066820
O O2 0.579475 0.649335 0.467450
O O3 0.103854 0.843033 0.073092
O O4 0.425658 0.807927 0.966005
O O5 0.500000 0.500000 0.500000
O O6 0.945473 0.448957 0.772947
O O7 0.748569 0.393898 0.021313
O O8 0.095025 0.787772 0.452639
O O9 0.663699 0.976258 0.933131
O O10 0.000000 0.000000 0.000000
O O11 0.771664 0.792296 0.546822
O O12 0.999823 0.633466 0.602041
O O13 0.410297 0.896974 0.537648
O O14 0.661227 0.977061 0.419076
O O15 0.000000 0.500000 0.000000
O O16 0.000000 0.000000 0.500000
#
# Coordination Sequence:
#
# PCOD9055163 Si02
#       7
#     2   2   2   2   2   2   2
#     4  11  21  40  69  92 133 174 222 271 338 386
#     4   9  21  41  70  92 122 171 230 283 325 388
#     4  12  25  39  64 103 141 178 218 264 333 419
#     4  11  22  41  68  93 137 176 212 276 342 386
#     4  11  24  39  65 100 136 174 225 258 331 409
#     4   9  20  43  66  89 127 168 227 288 327 389
#     4  11  22  40  65  98 136 176 216 274 320 400
#
# _framework density 23.502873999999998
#
# number of rings (size 3 to 8) (size 9 to 14) (size 15 to 20)
#    0.000    1.429    1.429    3.857    4.000    0.000 
#    0.000    7.143   12.571    0.000    0.000    0.000 
#    0.000    0.000    0.000    0.000    0.000    0.000 
#
# Total GULP energy -78032.157930 kJ/mol
# GULP energy per Si atom -5573.725566 kJ/mol
# Density = 2.344938 g / cm^3
# Si number density = 23.502874 Si / 1000 Ang^3
#
#
#
# Elastic Constant Matrix: (Units=GPa)
#
#
# Indices 1 2 3 4 5 6 
#
# 1 77.8532 40.5016 26.1878 6.4320 -22.8319 13.0558
# 2 40.5016 103.2586 32.4374 8.4915 -18.4548 42.7174
# 3 26.1878 32.4374 128.3450 1.1924 -13.2011 19.0346
# 4 6.4320 8.4915 1.1924 27.3257 11.2732 0.5688
# 5 -22.8319 -18.4548 -13.2011 11.2732 36.6407 5.0687
# 6 13.0558 42.7174 19.0346 0.5688 5.0687 38.6433
#
#
#
# Elastic Compliance Matrix: (Units=1/GPa)
#
#
# Indices 1 2 3 4 5 6 
#
# 1 0.020705 -0.000594 -0.001076 -0.011415 0.016813 -0.007846
# 2 -0.000594 0.033364 0.000885 -0.021362 0.028942 -0.040598
# 3 -0.001076 0.000885 0.009110 -0.002161 0.004506 -0.005662
# 4 -0.011415 -0.021362 -0.002161 0.062896 -0.042594 0.033196
# 5 0.016813 0.028942 0.004506 -0.042594 0.073845 -0.048952
# 6 -0.007846 -0.040598 -0.005662 0.033196 -0.048952 0.082128
#
#
# Mechanical properties :
#
#
# Convention : Reuss Voigt Hill
#
# Bulk Modulus (GPa) = 16.23090 56.41227 36.32159
# Shear Modulus (GPa) = 16.43903 34.54394 25.49149
#
# Velocity S-wave (km/s) = 2.64758 3.83792 3.29692
# Velocity P-wave (km/s) = 4.03325 6.61014 5.47545
#
# Compressibility (1/GPa) = 0.06161088
#
# Stress axis : x y z
#
# Youngs Moduli (GPa) = 48.29780 29.97256 109.76354
#
# Poissons Ratio (x) = 0.01780 0.11806
# Poissons Ratio (y) = 0.02868 -0.09718
# Poissons Ratio (z) = 0.05195 -0.02654
#
# Static dielectric constant tensor:
#      x y z
#    x 1.920940 0.082730 -0.035710 
#    y 0.082730 1.956760 -0.069000 
#    z -0.035710 -0.069000 2.056730 
# 
# From -- ./inp_files/141049.got.cif
#   From: 2010.05.17/outbox.cif.g08.bks.cpg/sg2_71_cif.got.tgz:141049.got - 2010.06.03 11:33:40.
