data_PCOD9055463
_publ_section_title
;
Structure prediction by ZEFSAII (Michael W. Deem and Ramdas Pophale) SiO2 
 PCOD9055463
Probable space group: P -1
;
_chemical_formula_sum "Si O2"
_cell_formula_units_Z 12
_cell_length_a 14.021179
_cell_length_b 8.762942
_cell_length_c 19.141622
_cell_angle_alpha 39.537417
_cell_angle_beta 16.773006
_cell_angle_gamma 40.876936
_cell_volume 430.036540
_symmetry_space_group_name_H-M "P -1"
_symmetry_group_IT_number 2
_symmetry_cell_setting 'triclinic'
loop_
_space_group_symop_operation_xyz
x,y,z
-x,-y,-z
loop_
_atom_site_type_symbol
_atom_site_label
_atom_site_fract_x
_atom_site_fract_y
_atom_site_fract_z
Si Si1 0.387929 0.086503 0.824431
Si Si2 0.089122 0.590258 0.187943
Si Si3 0.391454 0.213712 0.629355
Si Si4 0.312228 0.041796 0.190332
Si Si5 0.744697 0.288137 0.146378
Si Si6 0.086397 0.583367 0.486165
O O1 0.546313 0.212062 0.598930
O O2 0.517083 0.059061 0.821947
O O3 0.298985 0.823744 0.953126
O O4 0.014303 0.234819 0.037071
O O5 0.681074 0.629414 0.444740
O O6 0.096570 0.559064 0.278168
O O7 0.219969 0.324526 0.164168
O O8 0.444334 0.947711 0.654354
O O9 0.006753 0.290815 0.896950
O O10 0.017281 0.867542 0.448683
O O11 0.500000 0.000000 0.000000
O O12 0.478505 0.511945 0.248680
O O13 0.000000 0.500000 0.500000
#
# Coordination Sequence:
#
# PCOD9055463 Si02
#       6
#     2   2   2   2   2   2
#     4   9  20  41  75  89 120 163 213 268 298 368
#     4  11  21  42  64  96 130 162 203 262 321 369
#     4   8  17  38  71  92 116 163 213 257 301 370
#     4  12  26  41  65  96 123 168 220 253 309 374
#     4   8  17  38  64  91 118 158 217 239 316 360
#     4  12  27  40  61  93 138 167 200 261 321 376
#
# _framework density 27.904606999999999
#
# number of rings (size 3 to 8) (size 9 to 14) (size 15 to 20)
#    1.000    1.000    1.667    3.000    2.333    3.333 
#    0.000    0.833    0.000    0.000    0.000    0.000 
#    0.000    0.000    0.000    0.000    0.000    0.000 
#
# Total GULP energy -66884.274517 kJ/mol
# GULP energy per Si atom -5573.689543 kJ/mol
# Density = 2.784109 g / cm^3
# Si number density = 27.904607 Si / 1000 Ang^3
#
#
#
# Elastic Constant Matrix: (Units=GPa)
#
#
# Indices 1 2 3 4 5 6 
#
# 1 239.2167 79.6223 18.3671 -4.8274 -24.1261 -9.3704
# 2 79.6223 141.9413 5.9112 8.9137 -22.3016 8.3866
# 3 18.3671 5.9112 44.3384 -7.5996 -1.1562 0.2034
# 4 -4.8274 8.9137 -7.5996 34.8913 3.7796 -6.1561
# 5 -24.1261 -22.3016 -1.1562 3.7796 41.9673 -0.5879
# 6 -9.3704 8.3866 0.2034 -6.1561 -0.5879 48.9998
#
#
#
# Elastic Compliance Matrix: (Units=1/GPa)
#
#
# Indices 1 2 3 4 5 6 
#
# 1 0.005549 -0.003004 -0.001640 0.001332 0.001453 0.001767
# 2 -0.003004 0.009751 -0.000618 -0.003922 0.003753 -0.002689
# 3 -0.001640 -0.000618 0.024208 0.005384 -0.001084 0.000355
# 4 0.001332 -0.003922 0.005384 0.032321 -0.004012 0.004916
# 5 0.001453 0.003753 -0.001084 -0.004012 0.026982 -0.000540
# 6 0.001767 -0.002689 0.000355 0.004916 -0.000540 0.021816
#
#
# Mechanical properties :
#
#
# Convention : Reuss Voigt Hill
#
# Bulk Modulus (GPa) = 34.50084 70.36640 52.43362
# Shear Modulus (GPa) = 35.50837 46.61142 41.05989
#
# Velocity S-wave (km/s) = 3.57107 4.09147 3.84009
# Velocity P-wave (km/s) = 5.42163 6.89867 6.20426
#
# Compressibility (1/GPa) = 0.02898480
#
# Stress axis : x y z
#
# Youngs Moduli (GPa) = 180.22064 102.55488 41.30807
#
# Poissons Ratio (x) = 0.30808 0.06774
# Poissons Ratio (y) = 0.54139 0.02551
# Poissons Ratio (z) = 0.29555 0.06334
#
# Static dielectric constant tensor:
#      x y z
#    x 3.599350 -0.638070 0.019320 
#    y -0.638070 2.337580 0.028270 
#    z 0.019320 0.028270 2.392280 
# 
# From -- ./inp_files/596756.got.cif
#   From: 2010.05.17/outbox.cif.g08.bks.cpg/sg2_299_cif.got.tgz:596756.got - 2010.06.03 11:33:40.
