data_PCOD9055535
_publ_section_title
;
Structure prediction by ZEFSAII (Michael W. Deem and Ramdas Pophale) SiO2 
 PCOD9055535
Probable space group: P -1
;
_chemical_formula_sum "Si O2"
_cell_formula_units_Z 16
_cell_length_a 5.091044
_cell_length_b 10.543858
_cell_length_c 22.192101
_cell_angle_alpha 145.014176
_cell_angle_beta 107.773697
_cell_angle_gamma 67.083199
_cell_volume 628.909535
_symmetry_space_group_name_H-M "P -1"
_symmetry_group_IT_number 2
_symmetry_cell_setting 'triclinic'
loop_
_space_group_symop_operation_xyz
x,y,z
-x,-y,-z
loop_
_atom_site_type_symbol
_atom_site_label
_atom_site_fract_x
_atom_site_fract_y
_atom_site_fract_z
Si Si1 0.899525 0.065073 0.394284
Si Si2 0.061138 0.595422 0.703625
Si Si3 0.462576 0.141727 0.290587
Si Si4 0.505881 0.353021 0.095342
Si Si5 0.952712 0.470788 0.777909
Si Si6 0.290728 0.672581 0.098009
Si Si7 0.256581 0.023583 0.879892
Si Si8 0.540557 0.820118 0.487600
O O1 0.956145 0.789882 0.294339
O O2 0.695065 0.169384 0.365380
O O3 0.733146 0.150488 0.478096
O O4 0.200713 0.126345 0.435082
O O5 0.971770 0.475790 0.709270
O O6 0.103292 0.839679 0.824098
O O7 0.338558 0.427683 0.629194
O O8 0.822417 0.658178 0.659225
O O9 0.586977 0.099345 0.215730
O O10 0.385747 0.903841 0.207383
O O11 0.819167 0.393140 0.130126
O O12 0.311522 0.544649 0.112630
O O13 0.357164 0.408895 0.171156
O O14 0.464599 0.117209 0.974043
O O15 0.500000 0.500000 0.000000
O O16 0.986534 0.762642 0.079847
O O17 0.500000 0.000000 0.500000
#
# Coordination Sequence:
#
# PCOD9055535 Si02
#       8
#     2   2   2   2   2   2   2   2
#     4  12  27  48  82 114 144 189 260 320 369 452
#     4  11  30  49  73 107 157 203 243 320 385 450
#     4  11  26  46  73 110 156 197 249 310 382 442
#     4  12  25  43  75 111 147 201 253 301 360 447
#     4  12  27  46  76 112 149 195 257 310 367 447
#     4  11  21  42  69 109 146 202 253 304 366 440
#     4  11  26  44  72 105 161 202 244 308 379 442
#     4  12  28  52  82 112 144 195 254 316 389 447
#
# _framework density 25.440861000000002
#
# number of rings (size 3 to 8) (size 9 to 14) (size 15 to 20)
#    0.000    0.500    3.750    3.000    8.750    2.000 
#    0.000    0.000    0.000    0.000    0.000    0.000 
#    0.000    0.000    0.000    0.000    0.000    0.000 
#
# Total GULP energy -89798.520905 kJ/mol
# GULP energy per Si atom -5612.407557 kJ/mol
# Density = 2.538296 g / cm^3
# Si number density = 25.440861 Si / 1000 Ang^3
#
#
#
# Elastic Constant Matrix: (Units=GPa)
#
#
# Indices 1 2 3 4 5 6 
#
# 1 68.1429 0.7096 8.4577 -0.0726 6.6035 -5.0504
# 2 0.7096 92.5013 36.9453 9.8035 6.4693 -14.0904
# 3 8.4577 36.9453 75.9922 -4.7909 1.6159 -0.8369
# 4 -0.0726 9.8035 -4.7909 39.5855 -6.6134 -0.5151
# 5 6.6035 6.4693 1.6159 -6.6134 58.0175 -11.7776
# 6 -5.0504 -14.0904 -0.8369 -0.5151 -11.7776 39.7171
#
#
#
# Elastic Compliance Matrix: (Units=1/GPa)
#
#
# Indices 1 2 3 4 5 6 
#
# 1 0.015236 0.001288 -0.002319 -0.000801 -0.001522 0.001884
# 2 0.001288 0.015273 -0.007795 -0.004854 -0.001169 0.005008
# 3 -0.002319 -0.007795 0.017426 0.004106 0.000617 -0.002457
# 4 -0.000801 -0.004854 0.004106 0.027556 0.003595 -0.000314
# 5 -0.001522 -0.001169 0.000617 0.003595 0.018963 0.005074
# 6 0.001884 0.005008 -0.002457 -0.000314 0.005074 0.028643
#
#
# Mechanical properties :
#
#
# Convention : Reuss Voigt Hill
#
# Bulk Modulus (GPa) = 33.02270 36.54018 34.78144
# Shear Modulus (GPa) = 33.14722 40.16560 36.65641
#
# Velocity S-wave (km/s) = 3.61350 3.97770 3.79997
# Velocity P-wave (km/s) = 5.51527 5.95736 5.74057
#
# Compressibility (1/GPa) = 0.03028220
#
# Stress axis : x y z
#
# Youngs Moduli (GPa) = 65.63524 65.47501 57.38693
#
# Poissons Ratio (x) = -0.08431 0.13309
# Poissons Ratio (y) = -0.08452 0.44731
# Poissons Ratio (z) = 0.15222 0.51035
#
# Static dielectric constant tensor:
#      x y z
#    x 2.048200 0.013540 0.054050 
#    y 0.013540 2.002010 -0.008050 
#    z 0.054050 -0.008050 1.996990 
# 
# From -- ./inp_files/604501.got.cif
#   From: 2010.05.17/outbox.cif.g08.bks.cpg/sg2_303_cif.got.tgz:604501.got - 2010.06.03 11:33:40.
