data_PCOD9055680
_publ_section_title
;
Structure prediction by ZEFSAII (Michael W. Deem and Ramdas Pophale) SiO2 
 PCOD9055680
Probable space group: P -1
;
_chemical_formula_sum "Si O2"
_cell_formula_units_Z 16
_cell_length_a 10.170731
_cell_length_b 8.390313
_cell_length_c 17.576429
_cell_angle_alpha 54.248146
_cell_angle_beta 130.602688
_cell_angle_gamma 136.234319
_cell_volume 768.832713
_symmetry_space_group_name_H-M "P -1"
_symmetry_group_IT_number 2
_symmetry_cell_setting 'triclinic'
loop_
_space_group_symop_operation_xyz
x,y,z
-x,-y,-z
loop_
_atom_site_type_symbol
_atom_site_label
_atom_site_fract_x
_atom_site_fract_y
_atom_site_fract_z
Si Si1 0.733230 0.875615 0.197688
Si Si2 0.490094 0.670609 0.009331
Si Si3 0.391741 0.876267 0.165730
Si Si4 0.241710 0.638358 0.548868
Si Si5 0.484869 0.331144 0.477679
Si Si6 0.165201 0.991167 0.344984
Si Si7 0.951053 0.429847 0.089220
Si Si8 0.555544 0.957657 0.690565
O O1 0.569242 0.839677 0.210699
O O2 0.918141 0.844455 0.299012
O O3 0.603888 0.715459 0.121069
O O4 0.869413 0.156452 0.148342
O O5 0.246930 0.564966 0.961620
O O6 0.597970 0.935428 0.942128
O O7 0.500000 0.500000 0.000000
O O8 0.167838 0.628718 0.154821
O O9 0.437405 0.005634 0.227753
O O10 0.335026 0.541304 0.553292
O O11 0.275771 0.869418 0.455696
O O12 0.000000 0.500000 0.500000
O O13 0.360411 0.713771 0.652033
O O14 0.500000 0.500000 0.500000
O O15 0.521439 0.153344 0.588342
O O16 0.275063 0.216112 0.379710
O O17 0.246966 0.028696 0.278294
O O18 0.000000 0.500000 0.000000
#
# Coordination Sequence:
#
# PCOD9055680 Si02
#       8
#     2   2   2   2   2   2   2   2
#     4  11  23  41  61  89 122 153 205 247 292 360
#     4  11  25  41  61  91 121 155 202 247 294 358
#     4  11  23  42  62  88 122 157 202 245 296 359
#     4   9  19  39  59  80 120 157 188 239 297 348
#     4   9  19  37  59  84 114 152 194 234 287 351
#     4   9  21  39  57  84 119 152 190 244 291 346
#     4  11  21  43  65  81 121 166 191 247 306 343
#     4   9  21  39  58  84 119 154 192 239 296 349
#
# _framework density 20.810770000000002
#
# number of rings (size 3 to 8) (size 9 to 14) (size 15 to 20)
#    0.000    2.000    2.500    2.250    3.500    4.500 
#    6.750    2.500    0.000    0.000    0.000    0.000 
#    0.000    0.000    0.000    0.000    0.000    0.000 
#
# Total GULP energy -89164.602403 kJ/mol
# GULP energy per Si atom -5572.787650 kJ/mol
# Density = 2.076340 g / cm^3
# Si number density = 20.810770 Si / 1000 Ang^3
#
#
#
# Elastic Constant Matrix: (Units=GPa)
#
#
# Indices 1 2 3 4 5 6 
#
# 1 135.4491 58.9965 63.6433 46.6231 -8.5819 -15.8080
# 2 58.9965 82.3051 19.2887 25.3713 8.9443 4.2145
# 3 63.6433 19.2887 81.6465 27.3691 -2.0368 -0.8226
# 4 46.6231 25.3713 27.3691 40.5678 -3.0096 0.3441
# 5 -8.5819 8.9443 -2.0368 -3.0096 41.9487 9.6046
# 6 -15.8080 4.2145 -0.8226 0.3441 9.6046 38.7084
#
#
#
# Elastic Compliance Matrix: (Units=1/GPa)
#
#
# Indices 1 2 3 4 5 6 
#
# 1 0.022589 -0.010912 -0.010975 -0.011557 0.003426 0.009432
# 2 -0.010912 0.021022 0.004749 -0.004181 -0.005589 -0.005221
# 3 -0.010975 0.004749 0.021187 -0.004737 -0.001630 -0.004103
# 4 -0.011557 -0.004181 -0.004737 0.043988 0.002695 -0.005425
# 5 0.003426 -0.005589 -0.001630 0.002695 0.026929 -0.004733
# 6 0.009432 -0.005221 -0.004103 -0.005425 -0.004733 0.031390
#
#
# Mechanical properties :
#
#
# Convention : Reuss Voigt Hill
#
# Bulk Modulus (GPa) = 32.76430 64.80641 48.78536
# Shear Modulus (GPa) = 23.63435 34.74313 29.18874
#
# Velocity S-wave (km/s) = 3.37364 4.09036 3.74916
# Velocity P-wave (km/s) = 5.56357 7.31549 6.49884
#
# Compressibility (1/GPa) = 0.03052103
#
# Stress axis : x y z
#
# Youngs Moduli (GPa) = 44.26959 47.56845 47.19881
#
# Poissons Ratio (x) = 0.51908 0.51802
# Poissons Ratio (y) = 0.48309 -0.22415
# Poissons Ratio (z) = 0.48587 -0.22591
#
# Static dielectric constant tensor:
#      x y z
#    x 9.385850 -0.386900 -7.322210 
#    y -0.386900 1.946640 0.257710 
#    z -7.322210 0.257710 8.795710 
# 
# From -- ./inp_files/556162.got.cif
#   From: 2010.05.17/outbox.cif.g08.bks.cpg/sg2_279_cif.got.tgz:556162.got - 2010.06.03 11:33:40.
