data_PCOD9055461
_publ_section_title
;
Structure prediction by ZEFSAII (Michael W. Deem and Ramdas Pophale) SiO2 
 PCOD9055461
Probable space group: P -1
;
_chemical_formula_sum "Si O2"
_cell_formula_units_Z 16
_cell_length_a 13.729655
_cell_length_b 9.212954
_cell_length_c 11.621402
_cell_angle_alpha 84.675699
_cell_angle_beta 59.495387
_cell_angle_gamma 133.091007
_cell_volume 661.761775
_symmetry_space_group_name_H-M "P -1"
_symmetry_group_IT_number 2
_symmetry_cell_setting 'triclinic'
loop_
_space_group_symop_operation_xyz
x,y,z
-x,-y,-z
loop_
_atom_site_type_symbol
_atom_site_label
_atom_site_fract_x
_atom_site_fract_y
_atom_site_fract_z
Si Si1 0.107859 0.040990 0.570601
Si Si2 0.523085 0.101065 0.602546
Si Si3 0.658421 0.048760 0.947062
Si Si4 0.854056 0.426523 0.000525
Si Si5 0.440950 0.276290 0.508789
Si Si6 0.905016 0.737126 0.092720
Si Si7 0.023242 0.273666 0.698479
Si Si8 0.633924 0.545353 0.824524
O O1 0.233946 0.063913 0.570077
O O2 0.079504 0.171916 0.632646
O O3 0.268529 0.247625 0.351423
O O4 0.859950 0.726218 0.721907
O O5 0.415840 0.140742 0.640706
O O6 0.766233 0.397901 0.467305
O O7 0.500000 0.000000 0.500000
O O8 0.392079 0.867273 0.789562
O O9 0.509355 0.751492 0.107323
O O10 0.836232 0.332632 0.895380
O O11 0.500000 0.000000 0.000000
O O12 0.821639 0.127746 0.767860
O O13 0.916124 0.659291 0.974235
O O14 0.000000 0.500000 0.000000
O O15 0.500000 0.500000 0.500000
O O16 0.654305 0.464135 0.298367
O O17 0.016077 0.788246 0.135194
O O18 0.000000 0.000000 0.000000
O O19 0.500000 0.500000 0.000000
#
# Coordination Sequence:
#
# PCOD9055461 Si02
#       8
#     2   2   2   2   2   2   2   2
#     4  11  24  45  75 108 141 193 244 302 375 424
#     4  11  21  42  64 101 146 185 228 295 372 434
#     4  12  28  48  70 107 144 200 252 302 366 440
#     4  12  25  45  72 104 144 193 240 304 378 429
#     4  11  23  39  69 108 139 180 235 296 362 444
#     4  11  25  41  69 112 144 188 240 300 369 448
#     4  11  22  45  70 101 148 189 237 308 366 434
#     4  11  26  49  77  98 144 200 249 302 358 440
#
# _framework density 24.177886000000001
#
# number of rings (size 3 to 8) (size 9 to 14) (size 15 to 20)
#    0.000    0.750    7.500    0.750    3.500    4.000 
#    0.000    1.250    0.000    0.000    0.000    0.000 
#    0.000    0.000    0.000    0.000    0.000    0.000 
#
# Total GULP energy -89344.642769 kJ/mol
# GULP energy per Si atom -5584.040173 kJ/mol
# Density = 2.412286 g / cm^3
# Si number density = 24.177886 Si / 1000 Ang^3
#
#
#
# Elastic Constant Matrix: (Units=GPa)
#
#
# Indices 1 2 3 4 5 6 
#
# 1 101.1175 15.6977 35.6787 -3.9618 -30.0260 -3.1263
# 2 15.6977 128.1311 17.7587 -13.6707 0.2285 -19.7451
# 3 35.6787 17.7587 116.8689 -16.9693 -9.9086 -0.3679
# 4 -3.9618 -13.6707 -16.9693 45.2467 7.0943 -1.5158
# 5 -30.0260 0.2285 -9.9086 7.0943 37.9829 -9.4597
# 6 -3.1263 -19.7451 -0.3679 -1.5158 -9.4597 36.5101
#
#
#
# Elastic Compliance Matrix: (Units=1/GPa)
#
#
# Indices 1 2 3 4 5 6 
#
# 1 0.015025 -0.000996 -0.003698 -0.002169 0.012270 0.003800
# 2 -0.000996 0.009045 -0.000705 0.002591 -0.000307 0.004827
# 3 -0.003698 -0.000705 0.010197 0.003433 -0.001083 -0.000733
# 4 -0.002169 0.002591 0.003433 0.024834 -0.005243 0.000923
# 5 0.012270 -0.000307 -0.001083 -0.005243 0.039434 0.010873
# 6 0.003800 0.004827 -0.000733 0.000923 0.010873 0.033174
#
#
# Mechanical properties :
#
#
# Convention : Reuss Voigt Hill
#
# Bulk Modulus (GPa) = 42.60975 53.82084 48.21529
# Shear Modulus (GPa) = 33.25994 42.41345 37.83669
#
# Velocity S-wave (km/s) = 3.71298 4.19289 3.96021
# Velocity P-wave (km/s) = 6.00361 6.76381 6.39502
#
# Compressibility (1/GPa) = 0.02346881
#
# Stress axis : x y z
#
# Youngs Moduli (GPa) = 66.55546 110.55676 98.06734
#
# Poissons Ratio (x) = 0.11010 0.36268
# Poissons Ratio (y) = 0.06628 0.06914
# Poissons Ratio (z) = 0.24614 0.07795
#
# Static dielectric constant tensor:
#      x y z
#    x 1.993740 0.027400 -0.002020 
#    y 0.027400 2.010960 0.033110 
#    z -0.002020 0.033110 1.996470 
# 
# From -- ./inp_files/529781.got.cif
#   From: 2010.05.17/outbox.cif.g08.bks.cpg/sg2_265_cif.got.tgz:529781.got - 2010.06.03 11:33:40.
