data_PCOD9055992
_publ_section_title
;
Structure prediction by ZEFSAII (Michael W. Deem and Ramdas Pophale) SiO2 
 PCOD9055992
Probable space group: P -1
;
_chemical_formula_sum "Si O2"
_cell_formula_units_Z 16
_cell_length_a 9.857896
_cell_length_b 5.498893
_cell_length_c 14.720854
_cell_angle_alpha 104.360043
_cell_angle_beta 96.470408
_cell_angle_gamma 84.582520
_cell_volume 766.291731
_symmetry_space_group_name_H-M "P -1"
_symmetry_group_IT_number 2
_symmetry_cell_setting 'triclinic'
loop_
_space_group_symop_operation_xyz
x,y,z
-x,-y,-z
loop_
_atom_site_type_symbol
_atom_site_label
_atom_site_fract_x
_atom_site_fract_y
_atom_site_fract_z
Si Si1 0.152594 0.008226 0.470914
Si Si2 0.848225 0.412503 0.972022
Si Si3 0.120805 0.283837 0.336770
Si Si4 0.779789 0.850824 0.864029
Si Si5 0.338850 0.572413 0.497240
Si Si6 0.316305 0.449434 0.845970
Si Si7 0.817710 0.533517 0.356892
Si Si8 0.476110 0.944762 0.885986
O O1 0.113665 0.019462 0.362039
O O2 0.199514 0.214757 0.563929
O O3 0.287162 0.821921 0.464416
O O4 0.000000 0.000000 0.500000
O O5 0.783093 0.622094 0.915922
O O6 0.844066 0.115438 0.919794
O O7 0.773498 0.450605 0.066138
O O8 0.000000 0.500000 0.000000
O O9 0.150359 0.259376 0.231909
O O10 0.244080 0.385168 0.416193
O O11 0.976630 0.432803 0.361890
O O12 0.620828 0.931605 0.845315
O O13 0.500000 0.500000 0.500000
O O14 0.279158 0.624742 0.600069
O O15 0.229575 0.433017 0.746227
O O16 0.416670 0.670975 0.853575
O O17 0.384814 0.178055 0.856947
O O18 0.500000 0.000000 0.000000
#
# Coordination Sequence:
#
# PCOD9055992 Si02
#       8
#     2   2   2   2   2   2   2   2
#     4  11  21  44  75  95 142 196 233 293 363 443
#     4  12  25  46  67 104 143 187 240 302 355 433
#     4  11  25  44  70 104 139 189 240 294 367 434
#     4  12  27  43  73 103 143 188 242 297 367 436
#     4  11  25  44  70 104 143 180 236 299 356 427
#     4  12  26  43  75 103 144 191 244 301 365 438
#     4  11  25  43  68 107 136 184 245 292 363 434
#     4  12  24  48  71 100 144 195 239 299 374 435
#
# _framework density 20.879774999999999
#
# number of rings (size 3 to 8) (size 9 to 14) (size 15 to 20)
#    0.000    0.500    5.000    3.000    5.250    5.000 
#    0.000    0.000    0.000    0.000    0.000    0.000 
#    0.000    0.000    0.000    0.000    0.000    0.000 
#
# Total GULP energy -89076.735966 kJ/mol
# GULP energy per Si atom -5567.295998 kJ/mol
# Density = 2.083225 g / cm^3
# Si number density = 20.879775 Si / 1000 Ang^3
#
#
#
# Elastic Constant Matrix: (Units=GPa)
#
#
# Indices 1 2 3 4 5 6 
#
# 1 115.2800 12.8277 8.0903 3.4885 -1.4331 -7.4725
# 2 12.8277 74.5269 27.9241 -9.0868 9.3651 -6.0340
# 3 8.0903 27.9241 96.6361 -6.7213 -4.5308 11.9450
# 4 3.4885 -9.0868 -6.7213 25.9198 -8.0498 -1.0610
# 5 -1.4331 9.3651 -4.5308 -8.0498 33.9574 -3.4162
# 6 -7.4725 -6.0340 11.9450 -1.0610 -3.4162 33.7434
#
#
#
# Elastic Compliance Matrix: (Units=1/GPa)
#
#
# Indices 1 2 3 4 5 6 
#
# 1 0.009065 -0.001402 -0.000694 -0.001659 0.000484 0.001999
# 2 -0.001402 0.016935 -0.005243 0.003657 -0.004133 0.004271
# 3 -0.000694 -0.005243 0.012884 0.002365 0.003168 -0.005257
# 4 -0.001659 0.003657 0.002365 0.043820 0.009808 0.001820
# 5 0.000484 -0.004133 0.003168 0.009808 0.033553 0.001952
# 6 0.001999 0.004271 -0.005257 0.001820 0.001952 0.032958
#
#
# Mechanical properties :
#
#
# Convention : Reuss Voigt Hill
#
# Bulk Modulus (GPa) = 41.31140 42.68083 41.99611
# Shear Modulus (GPa) = 29.07644 34.56417 31.82030
#
# Velocity S-wave (km/s) = 3.73576 4.07306 3.90805
# Velocity P-wave (km/s) = 6.19969 6.52728 6.36559
#
# Compressibility (1/GPa) = 0.02420639
#
# Stress axis : x y z
#
# Youngs Moduli (GPa) = 110.31436 59.04983 77.61480
#
# Poissons Ratio (x) = 0.08277 0.05384
# Poissons Ratio (y) = 0.15462 0.40697
# Poissons Ratio (z) = 0.07652 0.30962
#
# Static dielectric constant tensor:
#      x y z
#    x 1.751990 0.036380 0.023200 
#    y 0.036380 1.616770 0.012300 
#    z 0.023200 0.012300 1.761030 
# 
# From -- ./inp_files/39501.got.cif
#   From: 2010.05.17/outbox.cif.g08.bks.cpg/sg2_20_cif.got.tgz:39501.got - 2010.06.03 11:33:40.
