data_PCOD9055856
_publ_section_title
;
Structure prediction by ZEFSAII (Michael W. Deem and Ramdas Pophale) SiO2 
 PCOD9055856
Probable space group: P -1
;
_chemical_formula_sum "Si O2"
_cell_formula_units_Z 12
_cell_length_a 15.197965
_cell_length_b 15.129882
_cell_length_c 8.908162
_cell_angle_alpha 138.761154
_cell_angle_beta 31.059379
_cell_angle_gamma 152.760746
_cell_volume 483.303707
_symmetry_space_group_name_H-M "P -1"
_symmetry_group_IT_number 2
_symmetry_cell_setting 'triclinic'
loop_
_space_group_symop_operation_xyz
x,y,z
-x,-y,-z
loop_
_atom_site_type_symbol
_atom_site_label
_atom_site_fract_x
_atom_site_fract_y
_atom_site_fract_z
Si Si1 0.311903 0.271063 0.485032
Si Si2 0.420058 0.365181 0.117025
Si Si3 0.374036 0.016737 0.076169
Si Si4 0.004823 0.356019 0.379563
Si Si5 0.770601 0.006994 0.071323
Si Si6 0.047854 0.384938 0.698515
O O1 0.500000 0.500000 0.500000
O O2 0.301529 0.241263 0.285161
O O3 0.419549 0.194166 0.291259
O O4 0.050390 0.143350 0.777468
O O5 0.307011 0.450410 0.375010
O O6 0.713464 0.537272 0.911699
O O7 0.337266 0.182363 0.917390
O O8 0.097944 0.806356 0.235425
O O9 0.387091 0.029156 0.890218
O O10 0.500000 0.000000 0.000000
O O11 0.945122 0.336988 0.618333
O O12 0.000000 0.500000 0.500000
O O13 0.823208 0.155742 0.302104
O O14 0.000000 0.500000 0.000000
#
# Coordination Sequence:
#
# PCOD9055856 Si02
#       6
#     2   2   2   2   2   2
#     4  11  21  43  79 107 146 199 249 308 384 453
#     4  11  24  48  77 107 153 201 253 313 382 451
#     4  11  25  42  72 115 146 194 257 313 371 450
#     4  12  29  47  74 112 151 204 252 318 389 447
#     4  11  23  49  76 106 152 196 257 309 382 457
#     4  12  27  49  74 112 155 196 260 316 378 463
#
# _framework density 24.82911
#
# number of rings (size 3 to 8) (size 9 to 14) (size 15 to 20)
#    0.000    0.667    5.000    2.500    7.000    1.333 
#    3.000    0.000    0.000    0.000    0.000    0.000 
#    0.000    0.000    0.000    0.000    0.000    0.000 
#
# Total GULP energy -66864.282939 kJ/mol
# GULP energy per Si atom -5572.023578 kJ/mol
# Density = 2.477260 g / cm^3
# Si number density = 24.829110 Si / 1000 Ang^3
#
#
#
# Elastic Constant Matrix: (Units=GPa)
#
#
# Indices 1 2 3 4 5 6 
#
# 1 144.2978 34.1228 80.3241 28.7626 -10.8996 -11.3256
# 2 34.1228 164.6511 65.3899 27.2194 -13.7353 -5.6844
# 3 80.3241 65.3899 145.7994 8.9878 -20.6315 0.5727
# 4 28.7626 27.2194 8.9878 50.0923 -4.3758 -2.2176
# 5 -10.8996 -13.7353 -20.6315 -4.3758 48.8740 3.1019
# 6 -11.3256 -5.6844 0.5727 -2.2176 3.1019 41.8552
#
#
#
# Elastic Compliance Matrix: (Units=1/GPa)
#
#
# Indices 1 2 3 4 5 6 
#
# 1 0.011883 0.001356 -0.006872 -0.006240 -0.000632 0.003210
# 2 0.001356 0.008236 -0.004116 -0.004424 0.000402 0.001278
# 3 -0.006872 -0.004116 0.012704 0.004067 0.003203 -0.002614
# 4 -0.006240 -0.004424 0.004067 0.025295 0.001417 -0.001110
# 5 -0.000632 0.000402 0.003203 0.001417 0.022021 -0.001717
# 6 0.003210 0.001278 -0.002614 -0.001110 -0.001717 0.025038
#
#
# Mechanical properties :
#
#
# Convention : Reuss Voigt Hill
#
# Bulk Modulus (GPa) = 73.75683 90.49132 82.12408
# Shear Modulus (GPa) = 38.77143 46.49174 42.63159
#
# Velocity S-wave (km/s) = 3.95591 4.33190 4.14817
# Velocity P-wave (km/s) = 7.11589 7.84508 7.48936
#
# Compressibility (1/GPa) = 0.01355807
#
# Stress axis : x y z
#
# Youngs Moduli (GPa) = 84.15509 121.41542 78.71668
#
# Poissons Ratio (x) = -0.16467 0.54096
# Poissons Ratio (y) = -0.11414 0.32403
# Poissons Ratio (z) = 0.57833 0.49980
#
# Static dielectric constant tensor:
#      x y z
#    x 2.044040 0.123470 0.057430 
#    y 0.123470 2.027900 0.224680 
#    z 0.057430 0.224680 2.453120 
# 
# From -- ./inp_files/316011.got.cif
#   From: 2010.05.17/outbox.cif.g08.bks.cpg/sg2_159_cif.got.tgz:316011.got - 2010.06.03 11:33:40.
