data_PCOD9055384
_publ_section_title
;
Structure prediction by ZEFSAII (Michael W. Deem and Ramdas Pophale) SiO2 
 PCOD9055384
Probable space group: P -1
;
_chemical_formula_sum "Si O2"
_cell_formula_units_Z 14
_cell_length_a 11.772955
_cell_length_b 8.079048
_cell_length_c 7.832279
_cell_angle_alpha 118.677983
_cell_angle_beta 86.594960
_cell_angle_gamma 117.589268
_cell_volume 566.412123
_symmetry_space_group_name_H-M "P -1"
_symmetry_group_IT_number 2
_symmetry_cell_setting 'triclinic'
loop_
_space_group_symop_operation_xyz
x,y,z
-x,-y,-z
loop_
_atom_site_type_symbol
_atom_site_label
_atom_site_fract_x
_atom_site_fract_y
_atom_site_fract_z
Si Si1 0.854347 0.485841 0.706280
Si Si2 0.358805 0.340044 0.693164
Si Si3 0.421856 0.758432 0.460853
Si Si4 0.886642 0.860529 0.629342
Si Si5 0.120131 0.775579 0.984948
Si Si6 0.842785 0.071896 0.319694
Si Si7 0.623267 0.237118 0.131361
O O1 0.703225 0.370088 0.714731
O O2 0.871360 0.689890 0.695420
O O3 0.862889 0.299391 0.503629
O O4 0.972045 0.576119 0.876370
O O5 0.479397 0.334720 0.592269
O O6 0.234922 0.279883 0.551761
O O7 0.404321 0.583711 0.863307
O O8 0.294537 0.138739 0.729566
O O9 0.370817 0.742373 0.651596
O O10 0.500000 0.000000 0.500000
O O11 0.039329 0.950596 0.619511
O O12 0.870633 0.064600 0.787753
O O13 0.142024 0.911134 0.875158
O O14 0.240264 0.729194 0.940537
O O15 0.500000 0.000000 0.000000
#
# Coordination Sequence:
#
# PCOD9055384 Si02
#       7
#     2   2   2   2   2   2   2
#     4  11  21  41  70  93 131 171 218 261 319 380
#     4  12  24  44  66  96 130 172 210 272 325 385
#     4  12  24  45  69  95 127 174 220 260 320 395
#     4  11  23  41  70  96 132 168 215 271 323 378
#     4  11  23  44  66  98 130 173 217 267 315 385
#     4  11  21  42  68  99 125 169 219 262 322 382
#     4  12  26  46  66  96 133 170 213 270 329 381
#
# _framework density 24.716984
#
# number of rings (size 3 to 8) (size 9 to 14) (size 15 to 20)
#    0.000    0.571    4.286    6.000    2.000    0.000 
#    5.143    2.857    0.000    0.000    0.000    0.000 
#    0.000    0.000    0.000    0.000    0.000    0.000 
#
# Total GULP energy -78347.790677 kJ/mol
# GULP energy per Si atom -5596.270763 kJ/mol
# Density = 2.466073 g / cm^3
# Si number density = 24.716984 Si / 1000 Ang^3
#
#
#
# Elastic Constant Matrix: (Units=GPa)
#
#
# Indices 1 2 3 4 5 6 
#
# 1 161.8489 32.9157 16.4808 14.7926 -17.3516 19.7038
# 2 32.9157 95.6331 33.9554 33.4928 0.9576 16.8044
# 3 16.4808 33.9554 57.9258 22.3096 -10.5935 12.1375
# 4 14.7926 33.4928 22.3096 44.1931 -6.1452 12.8400
# 5 -17.3516 0.9576 -10.5935 -6.1452 44.4640 12.6386
# 6 19.7038 16.8044 12.1375 12.8400 12.6386 37.1129
#
#
#
# Elastic Compliance Matrix: (Units=1/GPa)
#
#
# Indices 1 2 3 4 5 6 
#
# 1 0.007655 -0.002426 0.000830 0.001067 0.004882 -0.005269
# 2 -0.002426 0.016838 -0.006431 -0.009442 -0.004287 0.000494
# 3 0.000830 -0.006431 0.025678 -0.005336 0.007753 -0.006721
# 4 0.001067 -0.009442 -0.005336 0.035783 0.006934 -0.009287
# 5 0.004882 -0.004287 0.007753 0.006934 0.031976 -0.016475
# 6 -0.005269 0.000494 -0.006721 -0.009287 -0.016475 0.040540
#
#
# Mechanical properties :
#
#
# Convention : Reuss Voigt Hill
#
# Bulk Modulus (GPa) = 29.31052 53.56794 41.43923
# Shear Modulus (GPa) = 26.89666 40.62440 33.76053
#
# Velocity S-wave (km/s) = 3.30234 4.05851 3.69980
# Velocity P-wave (km/s) = 5.14051 6.60920 5.92057
#
# Compressibility (1/GPa) = 0.03411745
#
# Stress axis : x y z
#
# Youngs Moduli (GPa) = 130.63618 59.38927 38.94333
#
# Poissons Ratio (x) = 0.14410 -0.03233
# Poissons Ratio (y) = 0.31696 0.25044
# Poissons Ratio (z) = -0.10846 0.38192
#
# Static dielectric constant tensor:
#      x y z
#    x 1.958360 -0.010590 0.031330 
#    y -0.010590 2.035850 -0.005100 
#    z 0.031330 -0.005100 2.011320 
# 
# From -- ./inp_files/188823.got.cif
#   From: 2010.05.17/outbox.cif.g08.bks.cpg/sg2_95_cif.got.tgz:188823.got - 2010.06.03 11:33:40.
