data_PCOD9055243
_publ_section_title
;
Structure prediction by ZEFSAII (Michael W. Deem and Ramdas Pophale) SiO2 
 PCOD9055243
Probable space group: P -1
;
_chemical_formula_sum "Si O2"
_cell_formula_units_Z 14
_cell_length_a 11.373190
_cell_length_b 12.550937
_cell_length_c 14.908237
_cell_angle_alpha 31.151256
_cell_angle_beta 149.056608
_cell_angle_gamma 133.353399
_cell_volume 556.943672
_symmetry_space_group_name_H-M "P -1"
_symmetry_group_IT_number 2
_symmetry_cell_setting 'triclinic'
loop_
_space_group_symop_operation_xyz
x,y,z
-x,-y,-z
loop_
_atom_site_type_symbol
_atom_site_label
_atom_site_fract_x
_atom_site_fract_y
_atom_site_fract_z
Si Si1 0.481902 0.690767 0.419114
Si Si2 0.011988 0.218563 0.293418
Si Si3 0.929721 0.942206 0.739710
Si Si4 0.991631 0.210711 0.898472
Si Si5 0.353955 0.100968 0.918935
Si Si6 0.424612 0.576336 0.053970
Si Si7 0.495818 0.765957 0.779108
O O1 0.500000 0.500000 0.500000
O O2 0.739847 0.712618 0.598934
O O3 0.273906 0.667564 0.368722
O O4 0.402476 0.914185 0.157655
O O5 0.826916 0.402867 0.081691
O O6 0.950971 0.183702 0.175968
O O7 0.000000 0.000000 0.500000
O O8 0.654642 0.005799 0.497719
O O9 0.075914 0.134445 0.698115
O O10 0.966485 0.832018 0.937810
O O11 0.233153 0.282313 0.981236
O O12 0.000000 0.000000 0.000000
O O13 0.437609 0.297289 0.878950
O O14 0.500000 0.000000 0.000000
O O15 0.379695 0.696022 0.843100
O O16 0.537116 0.351925 0.250580
#
# Coordination Sequence:
#
# PCOD9055243 Si02
#       7
#     2   2   2   2   2   2   2
#     4  11  24  42  66  97 128 170 221 273 328 389
#     4  12  20  41  71  94 127 174 219 271 332 389
#     4  11  22  39  68  93 124 175 224 262 328 398
#     4  11  24  45  63  89 141 175 212 267 338 394
#     4  11  21  41  62  95 128 171 214 273 332 381
#     4  11  23  40  67  93 136 167 218 277 323 392
#     4  11  23  41  62 100 128 174 220 264 329 396
#
# _framework density 25.137191000000001
#
# number of rings (size 3 to 8) (size 9 to 14) (size 15 to 20)
#    0.000    0.857    4.286    3.857    0.000    0.571 
#    5.143    2.143    0.000    0.000    0.000    0.000 
#    0.000    0.000    0.000    0.000    0.000    0.000 
#
# Total GULP energy -78176.493336 kJ/mol
# GULP energy per Si atom -5584.035238 kJ/mol
# Density = 2.507998 g / cm^3
# Si number density = 25.137191 Si / 1000 Ang^3
#
#
#
# Elastic Constant Matrix: (Units=GPa)
#
#
# Indices 1 2 3 4 5 6 
#
# 1 118.9553 40.9879 42.3068 1.2878 19.1700 -30.6625
# 2 40.9879 145.1623 22.7557 18.6707 22.9339 -22.1677
# 3 42.3068 22.7557 47.5180 11.8698 22.2935 12.1812
# 4 1.2878 18.6707 11.8698 33.7949 7.7475 15.0081
# 5 19.1700 22.9339 22.2935 7.7475 52.9564 0.4350
# 6 -30.6625 -22.1677 12.1812 15.0081 0.4350 48.6686
#
#
#
# Elastic Compliance Matrix: (Units=1/GPa)
#
#
# Indices 1 2 3 4 5 6 
#
# 1 0.023628 0.001193 -0.028361 -0.002657 0.003067 0.023320
# 2 0.001193 0.009950 -0.005675 -0.007204 -0.001371 0.008938
# 3 -0.028361 -0.005675 0.065008 0.001111 -0.014502 -0.036937
# 4 -0.002657 -0.007204 0.001111 0.041872 -0.002363 -0.018125
# 5 0.003067 -0.001371 -0.014502 -0.002363 0.024773 0.005445
# 6 0.023320 0.008938 -0.036937 -0.018125 0.005445 0.054096
#
#
# Mechanical properties :
#
#
# Convention : Reuss Voigt Hill
#
# Bulk Modulus (GPa) = 30.39612 58.19292 44.29452
# Shear Modulus (GPa) = 16.89312 40.78965 28.84139
#
# Velocity S-wave (km/s) = 2.59518 4.03262 3.39094
# Velocity P-wave (km/s) = 4.59329 6.69949 5.74375
#
# Compressibility (1/GPa) = 0.03289894
#
# Stress axis : x y z
#
# Youngs Moduli (GPa) = 42.32321 100.50525 15.38278
#
# Poissons Ratio (x) = -0.11988 0.43627
# Poissons Ratio (y) = -0.05048 0.08730
# Poissons Ratio (z) = 1.20032 0.57038
#
# Static dielectric constant tensor:
#      x y z
#    x 2.056680 0.111760 0.012690 
#    y 0.111760 2.072730 0.050320 
#    z 0.012690 0.050320 2.118940 
# 
# From -- ./inp_files/239548.got.cif
#   From: 2010.05.17/outbox.cif.g08.bks.cpg/sg2_120_cif.got.tgz:239548.got - 2010.06.03 11:33:40.
