data_PCOD9055311
_publ_section_title
;
Structure prediction by ZEFSAII (Michael W. Deem and Ramdas Pophale) SiO2 
 PCOD9055311
Probable space group: P -1
;
_chemical_formula_sum "Si O2"
_cell_formula_units_Z 16
_cell_length_a 8.231123
_cell_length_b 12.204165
_cell_length_c 16.688299
_cell_angle_alpha 26.478499
_cell_angle_beta 87.447929
_cell_angle_gamma 70.461990
_cell_volume 560.090050
_symmetry_space_group_name_H-M "P -1"
_symmetry_group_IT_number 2
_symmetry_cell_setting 'triclinic'
loop_
_space_group_symop_operation_xyz
x,y,z
-x,-y,-z
loop_
_atom_site_type_symbol
_atom_site_label
_atom_site_fract_x
_atom_site_fract_y
_atom_site_fract_z
Si Si1 0.359939 0.425369 0.096752
Si Si2 0.214390 0.565872 0.613055
Si Si3 0.487423 0.756042 0.046340
Si Si4 0.282599 0.936714 0.567721
Si Si5 0.010688 0.304463 0.761367
Si Si6 0.000532 0.220167 0.243699
Si Si7 0.009886 0.871737 0.947177
Si Si8 0.446037 0.834935 0.265454
O O1 0.555469 0.083320 0.361884
O O2 0.500000 0.500000 0.000000
O O3 0.190686 0.702278 0.985624
O O4 0.189416 0.470346 0.008485
O O5 0.292703 0.403863 0.804722
O O6 0.018959 0.590035 0.570713
O O7 0.425176 0.284370 0.742962
O O8 0.171244 0.898289 0.395887
O O9 0.547589 0.419566 0.243149
O O10 0.264740 0.978816 0.954600
O O11 0.476360 0.970088 0.835216
O O12 0.137254 0.198592 0.328636
O O13 0.122637 0.902585 0.637749
O O14 0.913964 0.238486 0.735032
O O15 0.933586 0.299390 0.854267
O O16 0.810510 0.912918 0.893920
O O17 0.500000 0.500000 0.500000
#
# Coordination Sequence:
#
# PCOD9055311 Si02
#       8
#     2   2   2   2   2   2   2   2
#     4  10  20  36  57  85 120 155 200 251 302 357
#     4  10  18  36  56  83 119 157 197 248 301 371
#     4  10  17  36  57  82 114 160 203 240 306 368
#     4   9  18  35  60  86 108 163 208 246 289 362
#     4  10  19  32  57  86 114 153 204 242 300 369
#     4   9  19  33  59  89 109 154 213 240 292 362
#     4  11  20  34  54  90 114 156 204 245 307 353
#     4  11  21  33  52  84 120 151 193 251 307 358
#
# _framework density 28.566835000000001
#
# number of rings (size 3 to 8) (size 9 to 14) (size 15 to 20)
#    0.000    2.000    3.750    1.500    0.000    0.000 
#    2.250    1.875    0.000    9.750    0.000    0.000 
#    0.000    0.000    0.000    0.000    0.000    0.000 
#
# Total GULP energy -89195.506961 kJ/mol
# GULP energy per Si atom -5574.719185 kJ/mol
# Density = 2.850182 g / cm^3
# Si number density = 28.566835 Si / 1000 Ang^3
#
#
#
# Elastic Constant Matrix: (Units=GPa)
#
#
# Indices 1 2 3 4 5 6 
#
# 1 133.1414 18.4905 51.3719 17.1436 22.2691 -5.4839
# 2 18.4905 129.2471 25.3770 -11.0420 5.4634 -24.1232
# 3 51.3719 25.3770 144.1282 3.4763 7.4365 6.9396
# 4 17.1436 -11.0420 3.4763 40.3920 2.2340 3.5202
# 5 22.2691 5.4634 7.4365 2.2340 57.1012 3.5681
# 6 -5.4839 -24.1232 6.9396 3.5202 3.5681 41.5274
#
#
#
# Elastic Compliance Matrix: (Units=1/GPa)
#
#
# Indices 1 2 3 4 5 6 
#
# 1 0.010066 -0.000593 -0.003313 -0.004151 -0.003412 0.002184
# 2 -0.000593 0.009458 -0.001737 0.002551 -0.000895 0.005567
# 3 -0.003313 -0.001737 0.008530 0.000426 0.000515 -0.002953
# 4 -0.004151 0.002551 0.000426 0.027290 0.000344 -0.001480
# 5 -0.003412 -0.000895 0.000515 0.000344 0.019018 -0.002720
# 6 0.002184 0.005567 -0.002953 -0.001480 -0.002720 0.028455
#
#
# Mechanical properties :
#
#
# Convention : Reuss Voigt Hill
#
# Bulk Modulus (GPa) = 59.63323 66.33284 62.98303
# Shear Modulus (GPa) = 41.77362 48.55592 45.16477
#
# Velocity S-wave (km/s) = 3.82817 4.12725 3.98052
# Velocity P-wave (km/s) = 6.36083 6.78107 6.57431
#
# Compressibility (1/GPa) = 0.01676917
#
# Stress axis : x y z
#
# Youngs Moduli (GPa) = 99.34103 105.73278 117.23019
#
# Poissons Ratio (x) = 0.06265 0.38834
# Poissons Ratio (y) = 0.05886 0.20368
# Poissons Ratio (z) = 0.32908 0.18370
#
# Static dielectric constant tensor:
#      x y z
#    x 2.428760 0.153980 -0.088280 
#    y 0.153980 2.364010 0.022820 
#    z -0.088280 0.022820 2.357590 
# 
# From -- ./inp_files/506964.got.cif
#   From: 2010.05.17/outbox.cif.g08.bks.cpg/sg2_254_cif.got.tgz:506964.got - 2010.06.03 11:33:40.
