data_PCOD9055130
_publ_section_title
;
Structure prediction by ZEFSAII (Michael W. Deem and Ramdas Pophale) SiO2 
 PCOD9055130
Probable space group: P -1
;
_chemical_formula_sum "Si O2"
_cell_formula_units_Z 16
_cell_length_a 10.827232
_cell_length_b 23.947787
_cell_length_c 9.491843
_cell_angle_alpha 136.715916
_cell_angle_beta 136.470172
_cell_angle_gamma 23.643798
_cell_volume 661.413459
_symmetry_space_group_name_H-M "P -1"
_symmetry_group_IT_number 2
_symmetry_cell_setting 'triclinic'
loop_
_space_group_symop_operation_xyz
x,y,z
-x,-y,-z
loop_
_atom_site_type_symbol
_atom_site_label
_atom_site_fract_x
_atom_site_fract_y
_atom_site_fract_z
Si Si1 0.935369 0.537471 0.286739
Si Si2 0.217443 0.539719 0.773565
Si Si3 0.812342 0.934781 0.608085
Si Si4 0.341072 0.139420 0.188819
Si Si5 0.076067 0.820489 0.913002
Si Si6 0.666483 0.132384 0.637729
Si Si7 0.708587 0.380251 0.663692
Si Si8 0.285318 0.476706 0.239058
O O1 0.781609 0.515277 0.186651
O O2 0.677371 0.699534 0.324653
O O3 0.127113 0.506565 0.516418
O O4 0.134793 0.456208 0.159751
O O5 0.543932 0.450671 0.810345
O O6 0.925465 0.712634 0.848680
O O7 0.744377 0.037944 0.647197
O O8 0.500000 0.000000 0.500000
O O9 0.947698 0.906788 0.821562
O O10 0.060737 0.783088 0.454736
O O11 0.610416 0.101836 0.392911
O O12 0.139134 0.175943 0.217434
O O13 0.500000 0.000000 0.000000
O O14 0.423355 0.660366 0.867000
O O15 0.105451 0.875956 0.162970
O O16 0.430357 0.468263 0.481391
O O17 0.880598 0.393056 0.756030
#
# Coordination Sequence:
#
# PCOD9055130 Si02
#       8
#     2   2   2   2   2   2   2   2
#     4   9  19  37  65  97 138 176 221 280 336 404
#     4   9  18  40  65  96 133 178 227 273 339 407
#     4  11  21  40  68 103 137 180 229 279 347 403
#     4  11  24  47  71  95 137 184 226 281 343 413
#     4  11  23  43  69 100 135 176 230 285 346 407
#     4  11  24  44  65 100 139 176 228 289 336 408
#     4   9  17  32  65  96 128 175 226 278 331 403
#     4   9  17  34  65  96 127 173 224 279 339 395
#
# _framework density 24.190618000000001
#
# number of rings (size 3 to 8) (size 9 to 14) (size 15 to 20)
#    0.000    2.000    2.500    1.125    3.500    1.000 
#   15.750    1.875    0.000    0.000    0.000    0.000 
#    0.000    0.000    0.000    0.000    0.000    0.000 
#
# Total GULP energy -89313.395929 kJ/mol
# GULP energy per Si atom -5582.087246 kJ/mol
# Density = 2.413556 g / cm^3
# Si number density = 24.190618 Si / 1000 Ang^3
#
#
#
# Elastic Constant Matrix: (Units=GPa)
#
#
# Indices 1 2 3 4 5 6 
#
# 1 155.1207 67.2968 11.0696 29.1973 9.0907 9.7030
# 2 67.2968 74.3973 19.7023 14.0962 -9.1386 16.7733
# 3 11.0696 19.7023 102.8115 8.3330 14.1605 -9.4679
# 4 29.1973 14.0962 8.3330 26.7202 -1.4633 -7.3656
# 5 9.0907 -9.1386 14.1605 -1.4633 40.0879 6.6261
# 6 9.7030 16.7733 -9.4679 -7.3656 6.6261 42.1958
#
#
#
# Elastic Compliance Matrix: (Units=1/GPa)
#
#
# Indices 1 2 3 4 5 6 
#
# 1 0.014039 -0.013366 0.003121 -0.009021 -0.008072 0.002478
# 2 -0.013366 0.034064 -0.008422 -0.004159 0.016203 -0.015627
# 3 0.003121 -0.008422 0.012886 -0.001638 -0.008321 0.006542
# 4 -0.009021 -0.004159 -0.001638 0.053506 0.001571 0.012453
# 5 -0.008072 0.016203 -0.008321 0.001571 0.035406 -0.011737
# 6 0.002478 -0.015627 0.006542 0.012453 -0.011737 0.034826
#
#
# Mechanical properties :
#
#
# Convention : Reuss Voigt Hill
#
# Bulk Modulus (GPa) = 42.27789 58.71857 50.49823
# Shear Modulus (GPa) = 21.74424 37.41818 29.58121
#
# Velocity S-wave (km/s) = 3.00137 3.93721 3.50070
# Velocity P-wave (km/s) = 5.43377 6.70782 6.10413
#
# Compressibility (1/GPa) = 0.02365303
#
# Stress axis : x y z
#
# Youngs Moduli (GPa) = 71.23187 29.35642 77.60481
#
# Poissons Ratio (x) = 0.39239 -0.24221
# Poissons Ratio (y) = 0.95212 0.65362
# Poissons Ratio (z) = -0.22232 0.24725
#
# Static dielectric constant tensor:
#      x y z
#    x 1.953780 -0.060730 -0.010480 
#    y -0.060730 1.943080 -0.031150 
#    z -0.010480 -0.031150 2.131530 
# 
# From -- ./inp_files/439583.got.cif
#   From: 2010.05.17/outbox.cif.g08.bks.cpg/sg2_220_cif.got.tgz:439583.got - 2010.06.03 11:33:40.
