data_PCOD9055881
_publ_section_title
;
Structure prediction by ZEFSAII (Michael W. Deem and Ramdas Pophale) SiO2 
 PCOD9055881
Probable space group: P -1
;
_chemical_formula_sum "Si O2"
_cell_formula_units_Z 12
_cell_length_a 8.214768
_cell_length_b 12.117440
_cell_length_c 8.986153
_cell_angle_alpha 142.190103
_cell_angle_beta 119.109657
_cell_angle_gamma 57.957463
_cell_volume 460.908281
_symmetry_space_group_name_H-M "P -1"
_symmetry_group_IT_number 2
_symmetry_cell_setting 'triclinic'
loop_
_space_group_symop_operation_xyz
x,y,z
-x,-y,-z
loop_
_atom_site_type_symbol
_atom_site_label
_atom_site_fract_x
_atom_site_fract_y
_atom_site_fract_z
Si Si1 0.593555 0.965635 0.224126
Si Si2 0.873312 0.858101 0.514760
Si Si3 0.250971 0.337932 0.485943
Si Si4 0.536731 0.398422 0.246891
Si Si5 0.851459 0.378539 0.832074
Si Si6 0.964019 0.831323 0.029382
O O1 0.702019 0.932627 0.397908
O O2 0.764759 0.915550 0.125420
O O3 0.453755 0.174309 0.379375
O O4 0.467170 0.816882 0.982216
O O5 0.820926 0.702070 0.426303
O O6 0.068454 0.781803 0.424701
O O7 0.928826 0.014062 0.806907
O O8 0.288727 0.535219 0.674958
O O9 0.104442 0.290177 0.252779
O O10 0.500000 0.500000 0.500000
O O11 0.356923 0.496023 0.165573
O O12 0.886584 0.287795 0.910872
O O13 0.000000 0.500000 0.000000
#
# Coordination Sequence:
#
# PCOD9055881 Si02
#       6
#     2   2   2   2   2   2
#     4  11  23  44  70  95 128 179 221 260 327 393
#     4  11  24  42  66  98 131 174 213 274 332 374
#     4  12  25  43  65 103 137 163 218 277 330 381
#     4  12  24  44  71  97 128 174 224 269 320 393
#     4  11  21  44  68  92 129 169 228 260 313 402
#     4  11  22  43  68  95 125 181 219 260 323 392
#
# _framework density 26.035549
#
# number of rings (size 3 to 8) (size 9 to 14) (size 15 to 20)
#    0.000    0.667    5.000    5.500    2.333    0.667 
#    3.000    1.667    0.000    0.000    0.000    0.000 
#    0.000    0.000    0.000    0.000    0.000    0.000 
#
# Total GULP energy -67304.066265 kJ/mol
# GULP energy per Si atom -5608.672189 kJ/mol
# Density = 2.597629 g / cm^3
# Si number density = 26.035549 Si / 1000 Ang^3
#
#
#
# Elastic Constant Matrix: (Units=GPa)
#
#
# Indices 1 2 3 4 5 6 
#
# 1 111.4682 32.8024 45.3182 -1.7646 9.5551 9.7849
# 2 32.8024 63.1697 5.0727 -5.8654 0.8596 6.8169
# 3 45.3182 5.0727 132.7951 8.7527 45.0766 17.5104
# 4 -1.7646 -5.8654 8.7527 50.8321 16.0692 3.0238
# 5 9.5551 0.8596 45.0766 16.0692 48.5789 15.8486
# 6 9.7849 6.8169 17.5104 3.0238 15.8486 43.3903
#
#
#
# Elastic Compliance Matrix: (Units=1/GPa)
#
#
# Indices 1 2 3 4 5 6 
#
# 1 0.012557 -0.006099 -0.004730 -0.000145 0.002339 -0.000809
# 2 -0.006099 0.019302 0.001746 0.002075 -0.000716 -0.002245
# 3 -0.004730 0.001746 0.012915 0.001455 -0.011456 -0.000337
# 4 -0.000145 0.002075 0.001455 0.022474 -0.009076 0.000868
# 5 0.002339 -0.000716 -0.011456 -0.009076 0.036545 -0.008508
# 6 -0.000809 -0.002245 -0.000337 0.000868 -0.008508 0.026765
#
#
# Mechanical properties :
#
#
# Convention : Reuss Voigt Hill
#
# Bulk Modulus (GPa) = 37.58106 52.64661 45.11383
# Shear Modulus (GPa) = 31.72749 43.50959 37.61854
#
# Velocity S-wave (km/s) = 3.49466 4.09242 3.80530
# Velocity P-wave (km/s) = 5.54522 6.52652 6.05578
#
# Compressibility (1/GPa) = 0.02660915
#
# Stress axis : x y z
#
# Youngs Moduli (GPa) = 79.63595 51.80894 77.42928
#
# Poissons Ratio (x) = 0.31597 0.36624
# Poissons Ratio (y) = 0.48568 -0.13522
# Poissons Ratio (z) = 0.37668 -0.09048
#
# Static dielectric constant tensor:
#      x y z
#    x 2.172400 -0.073470 -0.148100 
#    y -0.073470 2.023240 0.093140 
#    z -0.148100 0.093140 2.171590 
# 
# From -- ./inp_files/144854.got.cif
#   From: 2010.05.17/outbox.cif.g08.bks.cpg/sg2_73_cif.got.tgz:144854.got - 2010.06.03 11:33:40.
