data_PCOD9055814
_publ_section_title
;
Structure prediction by ZEFSAII (Michael W. Deem and Ramdas Pophale) SiO2 
 PCOD9055814
Probable space group: P -1
;
_chemical_formula_sum "Si O2"
_cell_formula_units_Z 14
_cell_length_a 13.001464
_cell_length_b 10.347929
_cell_length_c 8.286255
_cell_angle_alpha 60.140965
_cell_angle_beta 125.823553
_cell_angle_gamma 141.806968
_cell_volume 557.308894
_symmetry_space_group_name_H-M "P -1"
_symmetry_group_IT_number 2
_symmetry_cell_setting 'triclinic'
loop_
_space_group_symop_operation_xyz
x,y,z
-x,-y,-z
loop_
_atom_site_type_symbol
_atom_site_label
_atom_site_fract_x
_atom_site_fract_y
_atom_site_fract_z
Si Si1 0.331379 0.414004 0.719505
Si Si2 0.443429 0.182501 0.847410
Si Si3 0.848535 0.246948 0.002349
Si Si4 0.352327 0.190249 0.405602
Si Si5 0.899173 0.798745 0.646835
Si Si6 0.225503 0.542822 0.792439
Si Si7 0.806440 0.233168 0.625250
O O1 0.360041 0.262118 0.807929
O O2 0.521724 0.646778 0.720801
O O3 0.212749 0.377885 0.483988
O O4 0.246152 0.398093 0.817326
O O5 0.454994 0.228733 0.640258
O O6 0.304382 0.931142 0.900320
O O7 0.635494 0.324531 0.018014
O O8 0.970151 0.199605 0.139460
O O9 0.741159 0.184179 0.778385
O O10 0.000000 0.500000 0.000000
O O11 0.226198 0.218362 0.334654
O O12 0.242517 0.959864 0.386505
O O13 0.000000 0.000000 0.500000
O O14 0.268600 0.695175 0.594607
O O15 0.021869 0.414167 0.725617
#
# Coordination Sequence:
#
# PCOD9055814 Si02
#       7
#     2   2   2   2   2   2   2
#     4  11  23  44  74 103 143 188 235 294 353 418
#     4  11  25  46  72 106 139 185 239 292 354 418
#     4  12  27  45  74 106 141 189 237 289 362 420
#     4  11  25  44  74 107 142 186 238 289 356 420
#     4  11  21  43  73 104 147 184 233 294 347 418
#     4  11  26  47  70 101 148 186 236 295 350 423
#     4  11  28  46  69 105 142 191 234 289 362 417
#
# _framework density 25.120721
#
# number of rings (size 3 to 8) (size 9 to 14) (size 15 to 20)
#    0.000    0.857    2.857    4.714    8.000    4.571 
#    0.000    0.000    0.000    0.000    0.000    0.000 
#    0.000    0.000    0.000    0.000    0.000    0.000 
#
# Total GULP energy -78421.850168 kJ/mol
# GULP energy per Si atom -5601.560726 kJ/mol
# Density = 2.506354 g / cm^3
# Si number density = 25.120721 Si / 1000 Ang^3
#
#
#
# Elastic Constant Matrix: (Units=GPa)
#
#
# Indices 1 2 3 4 5 6 
#
# 1 69.8277 9.9914 -1.5360 -1.0967 3.3396 -6.0036
# 2 9.9914 104.9724 26.6377 4.2099 13.9367 -4.0682
# 3 -1.5360 26.6377 93.2827 1.4628 16.4046 -8.4337
# 4 -1.0967 4.2099 1.4628 39.9184 7.2718 -5.9809
# 5 3.3396 13.9367 16.4046 7.2718 24.0442 4.2933
# 6 -6.0036 -4.0682 -8.4337 -5.9809 4.2933 38.8122
#
#
#
# Elastic Compliance Matrix: (Units=1/GPa)
#
#
# Indices 1 2 3 4 5 6 
#
# 1 0.014992 -0.001294 0.001465 0.001575 -0.003364 0.003116
# 2 -0.001294 0.010883 -0.002199 -0.000086 -0.004776 0.000978
# 3 0.001465 -0.002199 0.013394 0.002151 -0.009483 0.004287
# 4 0.001575 -0.000086 0.002151 0.028007 -0.011224 0.006259
# 5 -0.003364 -0.004776 -0.009483 -0.011224 0.056669 -0.011080
# 6 0.003116 0.000978 0.004287 0.006259 -0.011080 0.029471
#
#
# Mechanical properties :
#
#
# Convention : Reuss Voigt Hill
#
# Bulk Modulus (GPa) = 28.39969 37.58546 32.99257
# Shear Modulus (GPa) = 29.54896 36.08762 32.81829
#
# Velocity S-wave (km/s) = 3.43341 3.79432 3.61837
# Velocity P-wave (km/s) = 5.20073 5.84724 5.53344
#
# Compressibility (1/GPa) = 0.03521165
#
# Stress axis : x y z
#
# Youngs Moduli (GPa) = 66.70227 91.88551 74.66138
#
# Poissons Ratio (x) = 0.11894 -0.10940
# Poissons Ratio (y) = 0.08634 0.16421
# Poissons Ratio (z) = -0.09773 0.20209
#
# Static dielectric constant tensor:
#      x y z
#    x 1.989870 0.011470 0.018380 
#    y 0.011470 2.037620 0.021560 
#    z 0.018380 0.021560 1.949850 
# 
# From -- ./inp_files/167180.got.cif
#   From: 2010.05.17/outbox.cif.g08.bks.cpg/sg2_84_cif.got.tgz:167180.got - 2010.06.03 11:33:40.
