data_PCOD9055068
_publ_section_title
;
Structure prediction by ZEFSAII (Michael W. Deem and Ramdas Pophale) SiO2 
 PCOD9055068
Probable space group: P -1
;
_chemical_formula_sum "Si O2"
_cell_formula_units_Z 16
_cell_length_a 11.644814
_cell_length_b 18.845407
_cell_length_c 9.856557
_cell_angle_alpha 151.699432
_cell_angle_beta 132.198088
_cell_angle_gamma 50.052154
_cell_volume 751.758320
_symmetry_space_group_name_H-M "P -1"
_symmetry_group_IT_number 2
_symmetry_cell_setting 'triclinic'
loop_
_space_group_symop_operation_xyz
x,y,z
-x,-y,-z
loop_
_atom_site_type_symbol
_atom_site_label
_atom_site_fract_x
_atom_site_fract_y
_atom_site_fract_z
Si Si1 0.817434 0.650343 0.903757
Si Si2 0.473795 0.373432 0.556723
Si Si3 0.995529 0.820807 0.701621
Si Si4 0.936148 0.566332 0.415562
Si Si5 0.435646 0.801256 0.125023
Si Si6 0.434978 0.337408 0.744448
Si Si7 0.709666 0.383760 0.515681
Si Si8 0.732852 0.902009 0.436930
O O1 0.688978 0.643908 0.673207
O O2 0.754223 0.550227 0.806183
O O3 0.983226 0.560342 0.838972
O O4 0.815751 0.822483 0.237160
O O5 0.497753 0.269818 0.535864
O O6 0.609880 0.362983 0.535008
O O7 0.471599 0.533138 0.901367
O O8 0.995505 0.722600 0.674767
O O9 0.830640 0.812474 0.483945
O O10 0.132826 0.734534 0.571406
O O11 0.000000 0.000000 0.000000
O O12 0.748250 0.597174 0.308979
O O13 0.000000 0.500000 0.500000
O O14 0.529855 0.778324 0.300429
O O15 0.553675 0.870735 0.235614
O O16 0.284301 0.920966 0.244386
O O17 0.387467 0.659212 0.766693
#
# Coordination Sequence:
#
# PCOD9055068 Si02
#       8
#     2   2   2   2   2   2   2   2
#     4  11  22  38  64  96 126 165 215 278 318 379
#     4  11  22  37  62  95 128 162 213 269 323 385
#     4  11  24  41  65  95 131 173 218 265 327 390
#     4  11  24  42  66  94 131 170 214 272 330 385
#     4  11  21  40  65  90 126 169 212 267 320 392
#     4  11  23  40  63  95 129 170 214 263 336 386
#     4  11  22  38  66  93 129 166 217 272 322 376
#     4  11  23  38  63  94 128 165 217 267 323 378
#
# _framework density 21.283435000000001
#
# number of rings (size 3 to 8) (size 9 to 14) (size 15 to 20)
#    0.000    1.000    6.250    1.125    1.750    1.000 
#    0.000    1.875    0.000    1.500    0.000    0.000 
#    0.000    0.000    0.000    0.000    0.000    0.000 
#
# Total GULP energy -89166.120417 kJ/mol
# GULP energy per Si atom -5572.882526 kJ/mol
# Density = 2.123499 g / cm^3
# Si number density = 21.283435 Si / 1000 Ang^3
#
#
#
# Elastic Constant Matrix: (Units=GPa)
#
#
# Indices 1 2 3 4 5 6 
#
# 1 115.3213 44.5114 23.4089 -4.0090 -22.5287 -0.0357
# 2 44.5114 108.0992 23.8624 -14.4950 -16.4213 -2.4978
# 3 23.4089 23.8624 71.0847 9.6309 -14.3430 9.6797
# 4 -4.0090 -14.4950 9.6309 27.1521 -1.9542 -6.8330
# 5 -22.5287 -16.4213 -14.3430 -1.9542 29.2649 -2.6452
# 6 -0.0357 -2.4978 9.6797 -6.8330 -2.6452 31.5154
#
#
#
# Elastic Compliance Matrix: (Units=1/GPa)
#
#
# Indices 1 2 3 4 5 6 
#
# 1 0.011568 -0.003174 -0.001792 0.001404 0.006445 0.001157
# 2 -0.003174 0.013706 -0.004809 0.010126 0.004027 0.005093
# 3 -0.001792 -0.004809 0.019878 -0.011777 0.004092 -0.008698
# 4 0.001404 0.010126 -0.011777 0.051062 0.005845 0.015983
# 5 0.006445 0.004027 0.004092 0.005845 0.044153 0.004043
# 6 0.001157 0.005093 -0.008698 0.015983 0.004043 0.038612
#
#
# Mechanical properties :
#
#
# Convention : Reuss Voigt Hill
#
# Bulk Modulus (GPa) = 39.05618 53.11895 46.08756
# Shear Modulus (GPa) = 24.14726 31.10131 27.62429
#
# Velocity S-wave (km/s) = 3.37197 3.82683 3.60658
# Velocity P-wave (km/s) = 5.79229 6.67370 6.24855
#
# Compressibility (1/GPa) = 0.02560414
#
# Stress axis : x y z
#
# Youngs Moduli (GPa) = 86.44267 72.95875 50.30775
#
# Poissons Ratio (x) = 0.23156 0.09013
# Poissons Ratio (y) = 0.27436 0.24191
# Poissons Ratio (z) = 0.15487 0.35084
#
# Static dielectric constant tensor:
#      x y z
#    x 1.880830 0.085650 0.049320 
#    y 0.085650 1.893330 0.040490 
#    z 0.049320 0.040490 1.836340 
# 
# From -- ./inp_files/206405.got.cif
#   From: 2010.05.17/outbox.cif.g08.bks.cpg/sg2_104_cif.got.tgz:206405.got - 2010.06.03 11:33:40.
