data_PCOD9055686
_publ_section_title
;
Structure prediction by ZEFSAII (Michael W. Deem and Ramdas Pophale) SiO2 
 PCOD9055686
Probable space group: P -1
;
_chemical_formula_sum "Si O2"
_cell_formula_units_Z 12
_cell_length_a 11.736906
_cell_length_b 7.998438
_cell_length_c 7.405491
_cell_angle_alpha 64.108385
_cell_angle_beta 52.315543
_cell_angle_gamma 81.297939
_cell_volume 488.378395
_symmetry_space_group_name_H-M "P -1"
_symmetry_group_IT_number 2
_symmetry_cell_setting 'triclinic'
loop_
_space_group_symop_operation_xyz
x,y,z
-x,-y,-z
loop_
_atom_site_type_symbol
_atom_site_label
_atom_site_fract_x
_atom_site_fract_y
_atom_site_fract_z
Si Si1 0.588598 0.600257 0.699889
Si Si2 0.848969 0.111568 0.915054
Si Si3 0.037737 0.222923 0.181779
Si Si4 0.148422 0.185301 0.463140
Si Si5 0.611201 0.168402 0.398522
Si Si6 0.758939 0.283078 0.548345
O O1 0.701548 0.769490 0.601180
O O2 0.470451 0.657599 0.650981
O O3 0.689430 0.465011 0.580662
O O4 0.500000 0.500000 0.000000
O O5 0.778802 0.176008 0.768271
O O6 0.013221 0.227538 0.696145
O O7 0.865212 0.887551 0.995115
O O8 0.759794 0.166312 0.143974
O O9 0.139963 0.278585 0.230964
O O10 0.912700 0.354406 0.259707
O O11 0.912790 0.032644 0.419928
O O12 0.644761 0.165847 0.577291
O O13 0.500000 0.000000 0.500000
#
# Coordination Sequence:
#
# PCOD9055686 Si02
#       6
#     2   2   2   2   2   2
#     4  12  25  42  66  98 140 179 206 271 346 391
#     4   9  20  43  70  94 125 174 217 276 321 381
#     4   8  17  39  70  97 122 167 232 267 309 386
#     4   8  17  38  68  93 125 172 227 252 323 391
#     4  12  27  42  68  99 132 176 224 271 322 399
#     4  11  21  43  65  94 140 161 226 267 330 385
#
# _framework density 24.571110999999998
#
# number of rings (size 3 to 8) (size 9 to 14) (size 15 to 20)
#    1.000    1.000    3.333    1.500    0.000    5.333 
#    0.000    0.833    0.000    0.000    0.000    0.000 
#    0.000    0.000    0.000    0.000    0.000    0.000 
#
# Total GULP energy -66846.234875 kJ/mol
# GULP energy per Si atom -5570.519573 kJ/mol
# Density = 2.451519 g / cm^3
# Si number density = 24.571111 Si / 1000 Ang^3
#
#
#
# Elastic Constant Matrix: (Units=GPa)
#
#
# Indices 1 2 3 4 5 6 
#
# 1 152.3251 27.4488 26.0666 16.5096 10.3478 3.2124
# 2 27.4488 95.4257 23.4889 36.1743 -3.7074 -13.2999
# 3 26.0666 23.4889 54.1764 8.1398 -3.3814 0.9836
# 4 16.5096 36.1743 8.1398 26.1891 -3.5995 -16.8141
# 5 10.3478 -3.7074 -3.3814 -3.5995 28.0738 9.2704
# 6 3.2124 -13.2999 0.9836 -16.8141 9.2704 45.9189
#
#
#
# Elastic Compliance Matrix: (Units=1/GPa)
#
#
# Indices 1 2 3 4 5 6 
#
# 1 0.008020 0.000616 -0.003300 -0.006678 -0.003448 -0.002061
# 2 0.000616 0.024753 -0.005382 -0.036943 -0.000286 -0.006228
# 3 -0.003300 -0.005382 0.022390 0.001866 0.004085 -0.001949
# 4 -0.006678 -0.036943 0.001866 0.112777 0.002168 0.030585
# 5 -0.003448 -0.000286 0.004085 0.002168 0.040005 -0.007212
# 6 -0.002061 -0.006228 -0.001949 0.030585 -0.007212 0.032815
#
#
# Mechanical properties :
#
#
# Convention : Reuss Voigt Hill
#
# Bulk Modulus (GPa) = 25.62221 50.65953 38.14087
# Shear Modulus (GPa) = 18.52525 35.03123 26.77824
#
# Velocity S-wave (km/s) = 2.74878 3.77995 3.30483
# Velocity P-wave (km/s) = 4.53043 6.30182 5.48807
#
# Compressibility (1/GPa) = 0.03902864
#
# Stress axis : x y z
#
# Youngs Moduli (GPa) = 124.68553 40.39986 44.66361
#
# Poissons Ratio (x) = -0.02487 0.14740
# Poissons Ratio (y) = -0.07675 0.24039
# Poissons Ratio (z) = 0.41149 0.21744
#
# Static dielectric constant tensor:
#      x y z
#    x 1.991670 -0.175620 -0.017690 
#    y -0.175620 2.171810 0.030490 
#    z -0.017690 0.030490 2.038780 
# 
# From -- ./inp_files/233733.got.cif
#   From: 2010.05.17/outbox.cif.g08.bks.cpg/sg2_117_cif.got.tgz:233733.got - 2010.06.03 11:33:40.
