data_PCOD9055464
_publ_section_title
;
Structure prediction by ZEFSAII (Michael W. Deem and Ramdas Pophale) SiO2 
 PCOD9055464
Probable space group: P -1
;
_chemical_formula_sum "Si O2"
_cell_formula_units_Z 16
_cell_length_a 8.999874
_cell_length_b 26.084482
_cell_length_c 5.814880
_cell_angle_alpha 91.675773
_cell_angle_beta 90.819653
_cell_angle_gamma 28.749525
_cell_volume 656.116999
_symmetry_space_group_name_H-M "P -1"
_symmetry_group_IT_number 2
_symmetry_cell_setting 'triclinic'
loop_
_space_group_symop_operation_xyz
x,y,z
-x,-y,-z
loop_
_atom_site_type_symbol
_atom_site_label
_atom_site_fract_x
_atom_site_fract_y
_atom_site_fract_z
Si Si1 0.123895 0.996870 0.296755
Si Si2 0.042237 0.710042 0.731883
Si Si3 0.288308 0.111869 0.596584
Si Si4 0.090121 0.448126 0.743601
Si Si5 0.438545 0.757598 0.761643
Si Si6 0.975727 0.637825 0.434467
Si Si7 0.728718 0.280361 0.938928
Si Si8 0.404121 0.206019 0.937229
O O1 0.446080 0.928988 0.330305
O O2 0.251898 0.915551 0.115046
O O3 0.000000 0.000000 0.500000
O O4 0.868912 0.117324 0.274264
O O5 0.930925 0.790191 0.574101
O O6 0.161300 0.620863 0.603491
O O7 0.725844 0.786090 0.852599
O O8 0.238506 0.672917 0.945082
O O9 0.056625 0.167828 0.809057
O O10 0.500000 0.000000 0.500000
O O11 0.918189 0.444290 0.715570
O O12 0.460891 0.347273 0.760344
O O13 0.000000 0.500000 0.500000
O O14 0.000000 0.500000 0.000000
O O15 0.692966 0.695017 0.571346
O O16 0.349704 0.728690 0.835566
O O17 0.584843 0.737847 0.990782
O O18 0.822615 0.725288 0.272298
#
# Coordination Sequence:
#
# PCOD9055464 Si02
#       8
#     2   2   2   2   2   2   2   2
#     4  12  22  39  61 106 151 207 268 307 353 463
#     4  11  24  45  73 104 156 207 253 314 391 465
#     4  12  28  42  65 110 164 209 261 312 380 459
#     4  12  30  55  88 120 148 197 271 342 416 495
#     4  11  24  37  72 104 153 206 261 308 377 455
#     4  11  23  49  76 108 148 196 257 326 394 475
#     4  12  27  48  76 109 156 206 255 328 408 462
#     4  11  21  42  65 102 145 204 255 310 372 455
#
# _framework density 24.385894
#
# number of rings (size 3 to 8) (size 9 to 14) (size 15 to 20)
#    0.000    0.500    5.000    2.625   10.500    1.000 
#    0.000    1.250    0.000    0.000    0.000    0.000 
#    0.000    0.000    0.000    0.000    0.000    0.000 
#
# Total GULP energy -89120.612276 kJ/mol
# GULP energy per Si atom -5570.038267 kJ/mol
# Density = 2.433039 g / cm^3
# Si number density = 24.385894 Si / 1000 Ang^3
#
#
#
# Elastic Constant Matrix: (Units=GPa)
#
#
# Indices 1 2 3 4 5 6 
#
# 1 100.8497 13.9314 38.1106 11.3474 7.6098 12.6622
# 2 13.9314 58.5468 26.4832 14.1852 -5.9323 5.6829
# 3 38.1106 26.4832 88.0181 10.2512 0.0987 7.0320
# 4 11.3474 14.1852 10.2512 45.4534 2.8069 -1.8303
# 5 7.6098 -5.9323 0.0987 2.8069 51.0009 8.1799
# 6 12.6622 5.6829 7.0320 -1.8303 8.1799 38.8568
#
#
#
# Elastic Compliance Matrix: (Units=1/GPa)
#
#
# Indices 1 2 3 4 5 6 
#
# 1 0.012480 -0.000104 -0.004896 -0.002021 -0.001273 -0.002993
# 2 -0.000104 0.021670 -0.005553 -0.005818 0.003366 -0.003113
# 3 -0.004896 -0.005553 0.015244 -0.000508 0.000148 -0.000406
# 4 -0.002021 -0.005818 -0.000508 0.024705 -0.002253 0.003239
# 5 -0.001273 0.003366 0.000148 -0.002253 0.021058 -0.004643
# 6 -0.002993 -0.003113 -0.000406 0.003239 -0.004643 0.028370
#
#
# Mechanical properties :
#
#
# Convention : Reuss Voigt Hill
#
# Bulk Modulus (GPa) = 35.35159 44.94055 40.14607
# Shear Modulus (GPa) = 32.45508 38.32151 35.38829
#
# Velocity S-wave (km/s) = 3.65210 3.96847 3.81357
# Velocity P-wave (km/s) = 5.68436 6.28230 5.99079
#
# Compressibility (1/GPa) = 0.02828727
#
# Stress axis : x y z
#
# Youngs Moduli (GPa) = 80.13083 46.14773 65.60156
#
# Poissons Ratio (x) = 0.00478 0.32121
# Poissons Ratio (y) = 0.00831 0.36426
# Poissons Ratio (z) = 0.39236 0.25624
#
# Static dielectric constant tensor:
#      x y z
#    x 2.167270 0.070550 0.239710 
#    y 0.070550 1.996400 0.065930 
#    z 0.239710 0.065930 2.122990 
# 
# From -- ./inp_files/56424.got.cif
#   From: 2010.05.17/outbox.cif.g08.bks.cpg/sg2_29_cif.got.tgz:56424.got - 2010.06.03 11:33:40.
