data_PCOD9055790
_publ_section_title
;
Structure prediction by ZEFSAII (Michael W. Deem and Ramdas Pophale) SiO2 
 PCOD9055790
Probable space group: P -1
;
_chemical_formula_sum "Si O2"
_cell_formula_units_Z 16
_cell_length_a 21.054810
_cell_length_b 8.729337
_cell_length_c 11.422681
_cell_angle_alpha 70.988968
_cell_angle_beta 159.569363
_cell_angle_gamma 109.505675
_cell_volume 690.266506
_symmetry_space_group_name_H-M "P -1"
_symmetry_group_IT_number 2
_symmetry_cell_setting 'triclinic'
loop_
_space_group_symop_operation_xyz
x,y,z
-x,-y,-z
loop_
_atom_site_type_symbol
_atom_site_label
_atom_site_fract_x
_atom_site_fract_y
_atom_site_fract_z
Si Si1 0.959386 0.548576 0.577927
Si Si2 0.953285 0.658827 0.806043
Si Si3 0.254216 0.779532 0.688585
Si Si4 0.497915 0.065133 0.610285
Si Si5 0.229208 0.901653 0.356282
Si Si6 0.907204 0.132355 0.385261
Si Si7 0.669907 0.611187 0.717957
Si Si8 0.330297 0.232188 0.555418
O O1 0.975441 0.698607 0.480428
O O2 0.960117 0.623135 0.690554
O O3 0.794963 0.409243 0.315767
O O4 0.142808 0.457261 0.908048
O O5 0.754770 0.708084 0.488415
O O6 0.000000 0.500000 0.000000
O O7 0.091579 0.808179 0.051660
O O8 0.224047 0.800096 0.493294
O O9 0.131382 0.881338 0.537944
O O10 0.468324 0.824027 0.068750
O O11 0.361383 0.207320 0.340651
O O12 0.500000 0.000000 0.500000
O O13 0.417746 0.932807 0.600005
O O14 0.700702 0.136630 0.978200
O O15 0.203648 0.082520 0.316840
O O16 0.000000 0.000000 0.500000
O O17 0.500000 0.500000 0.500000
O O18 0.663847 0.623298 0.563862
#
# Coordination Sequence:
#
# PCOD9055790 Si02
#       8
#     2   2   2   2   2   2   2   2
#     4  12  26  47  72 104 145 190 234 296 356 425
#     4  12  24  45  68 106 136 175 243 289 350 415
#     4  12  25  48  69 104 146 187 235 282 368 433
#     4  11  25  46  72 108 136 186 240 292 346 411
#     4  11  24  45  74 100 142 184 233 293 353 418
#     4  12  28  48  68 104 145 186 238 292 356 428
#     4  11  21  43  71  97 137 186 238 285 344 411
#     4  11  24  43  70 101 139 186 232 293 355 416
#
# _framework density 23.179451
#
# number of rings (size 3 to 8) (size 9 to 14) (size 15 to 20)
#    0.000    0.500    6.250    1.875    3.500    1.500 
#    2.250    0.000    0.000    0.000    0.000    0.000 
#    0.000    0.000    0.000    0.000    0.000    0.000 
#
# Total GULP energy -89517.188237 kJ/mol
# GULP energy per Si atom -5594.824265 kJ/mol
# Density = 2.312669 g / cm^3
# Si number density = 23.179451 Si / 1000 Ang^3
#
#
#
# Elastic Constant Matrix: (Units=GPa)
#
#
# Indices 1 2 3 4 5 6 
#
# 1 184.8985 50.4079 34.1357 5.5825 14.0940 -23.6777
# 2 50.4079 85.2524 34.3734 9.1109 16.6529 0.1499
# 3 34.1357 34.3734 60.5995 9.1583 20.0521 -15.4809
# 4 5.5825 9.1109 9.1583 36.3418 -6.8508 3.8640
# 5 14.0940 16.6529 20.0521 -6.8508 36.1381 -0.2916
# 6 -23.6777 0.1499 -15.4809 3.8640 -0.2916 47.0435
#
#
#
# Elastic Compliance Matrix: (Units=1/GPa)
#
#
# Indices 1 2 3 4 5 6 
#
# 1 0.007046 -0.003698 -0.000706 -0.000469 -0.000714 0.003360
# 2 -0.003698 0.017892 -0.007968 -0.001968 -0.002790 -0.004396
# 3 -0.000706 -0.007968 0.030283 -0.009365 -0.014548 0.010315
# 4 -0.000469 -0.001968 -0.009365 0.033449 0.012579 -0.005981
# 5 -0.000714 -0.002790 -0.014548 0.012579 0.039645 -0.005925
# 6 0.003360 -0.004396 0.010315 -0.005981 -0.005925 0.026811
#
#
# Mechanical properties :
#
#
# Convention : Reuss Voigt Hill
#
# Bulk Modulus (GPa) = 32.81108 63.17604 47.99356
# Shear Modulus (GPa) = 26.31181 38.02690 32.16936
#
# Velocity S-wave (km/s) = 3.37283 4.05476 3.72941
# Velocity P-wave (km/s) = 5.41793 7.01682 6.26856
#
# Compressibility (1/GPa) = 0.03047751
#
# Stress axis : x y z
#
# Youngs Moduli (GPa) = 141.93286 55.89108 33.02129
#
# Poissons Ratio (x) = 0.20666 0.02331
# Poissons Ratio (y) = 0.52480 0.26312
# Poissons Ratio (z) = 0.10020 0.44535
#
# Static dielectric constant tensor:
#      x y z
#    x 1.903850 0.009540 0.026050 
#    y 0.009540 1.902710 -0.022730 
#    z 0.026050 -0.022730 1.861020 
# 
# From -- ./inp_files/469968.got.cif
#   From: 2010.05.17/outbox.cif.g08.bks.cpg/sg2_235_cif.got.tgz:469968.got - 2010.06.03 11:33:40.
