data_PCOD9055728
_publ_section_title
;
Structure prediction by ZEFSAII (Michael W. Deem and Ramdas Pophale) SiO2 
 PCOD9055728
Probable space group: P -1
;
_chemical_formula_sum "Si O2"
_cell_formula_units_Z 14
_cell_length_a 8.559589
_cell_length_b 9.235869
_cell_length_c 7.444703
_cell_angle_alpha 79.182977
_cell_angle_beta 94.672668
_cell_angle_gamma 69.413455
_cell_volume 534.166441
_symmetry_space_group_name_H-M "P -1"
_symmetry_group_IT_number 2
_symmetry_cell_setting 'triclinic'
loop_
_space_group_symop_operation_xyz
x,y,z
-x,-y,-z
loop_
_atom_site_type_symbol
_atom_site_label
_atom_site_fract_x
_atom_site_fract_y
_atom_site_fract_z
Si Si1 0.692698 0.153783 0.722239
Si Si2 0.703384 0.727755 0.296659
Si Si3 0.507045 0.382862 0.191729
Si Si4 0.059513 0.132436 0.327604
Si Si5 0.791178 0.389618 0.490804
Si Si6 0.182830 0.365310 0.074248
Si Si7 0.756232 0.049070 0.160169
O O1 0.491479 0.214863 0.675833
O O2 0.760735 0.297281 0.682609
O O3 0.740009 0.067265 0.938683
O O4 0.784854 0.035913 0.593978
O O5 0.801891 0.562695 0.448322
O O6 0.730632 0.677225 0.102110
O O7 0.754292 0.881908 0.268452
O O8 0.622587 0.411996 0.350677
O O9 0.600239 0.199923 0.184062
O O10 0.500000 0.500000 0.000000
O O11 0.314236 0.406618 0.200153
O O12 0.951351 0.261066 0.433013
O O13 0.923440 0.077550 0.227202
O O14 0.144549 0.223770 0.190561
O O15 0.000000 0.500000 0.000000
#
# Coordination Sequence:
#
# PCOD9055728 Si02
#       7
#     2   2   2   2   2   2   2
#     4  12  23  41  68 101 135 171 214 287 330 382
#     4  12  23  42  68 100 128 174 223 273 326 392
#     4  11  21  43  68  98 127 181 225 267 318 411
#     4  11  24  43  69  97 131 182 222 268 321 406
#     4  11  25  45  66  97 141 173 216 268 346 391
#     4  12  21  39  72  97 128 167 236 270 315 387
#     4  11  23  42  72  98 130 172 234 266 323 390
#
# _framework density 26.209060000000001
#
# number of rings (size 3 to 8) (size 9 to 14) (size 15 to 20)
#    0.000    0.571    5.714    3.429    0.000    0.000 
#    0.000    8.571    0.000    0.000    0.000    0.000 
#    0.000    0.000    0.000    0.000    0.000    0.000 
#
# Total GULP energy -78482.626041 kJ/mol
# GULP energy per Si atom -5605.901860 kJ/mol
# Density = 2.614941 g / cm^3
# Si number density = 26.209060 Si / 1000 Ang^3
#
#
#
# Elastic Constant Matrix: (Units=GPa)
#
#
# Indices 1 2 3 4 5 6 
#
# 1 172.4627 83.9489 50.5151 -16.5162 -6.4741 -11.2075
# 2 83.9489 197.4211 57.8615 -36.8557 -4.9637 13.1634
# 3 50.5151 57.8615 102.1290 -28.6209 -23.4227 6.2730
# 4 -16.5162 -36.8557 -28.6209 49.2512 13.5575 -12.5893
# 5 -6.4741 -4.9637 -23.4227 13.5575 40.5260 -21.2798
# 6 -11.2075 13.1634 6.2730 -12.5893 -21.2798 52.8141
#
#
#
# Elastic Compliance Matrix: (Units=1/GPa)
#
#
# Indices 1 2 3 4 5 6 
#
# 1 0.008193 -0.003076 -0.002303 -0.000463 0.001467 0.003259
# 2 -0.003076 0.007935 -0.002646 0.003663 -0.003845 -0.002993
# 3 -0.002303 -0.002646 0.015429 0.004682 0.008083 0.002711
# 4 -0.000463 0.003663 0.004682 0.027668 -0.004484 0.003221
# 5 0.001467 -0.003845 0.008083 -0.004484 0.038319 0.014680
# 6 0.003259 -0.002993 0.002711 0.003221 0.014680 0.026733
#
#
# Mechanical properties :
#
#
# Convention : Reuss Voigt Hill
#
# Bulk Modulus (GPa) = 64.48735 95.18485 79.83610
# Shear Modulus (GPa) = 34.36523 47.16409 40.76466
#
# Velocity S-wave (km/s) = 3.62497 4.24669 3.94809
# Velocity P-wave (km/s) = 6.49453 7.77446 7.16314
#
# Compressibility (1/GPa) = 0.01550692
#
# Stress axis : x y z
#
# Youngs Moduli (GPa) = 122.06113 126.01871 64.81219
#
# Poissons Ratio (x) = 0.38759 0.14928
# Poissons Ratio (y) = 0.37541 0.17151
# Poissons Ratio (z) = 0.28114 0.33347
#
# Static dielectric constant tensor:
#      x y z
#    x 1.998270 -0.002880 0.006170 
#    y -0.002880 2.171880 -0.003920 
#    z 0.006170 -0.003920 2.063590 
# 
# From -- ./inp_files/157407.got.cif
#   From: 2010.05.17/outbox.cif.g08.bks.cpg/sg2_79_cif.got.tgz:157407.got - 2010.06.03 11:33:40.
