data_PCOD9055183
_publ_section_title
;
Structure prediction by ZEFSAII (Michael W. Deem and Ramdas Pophale) SiO2 
 PCOD9055183
Probable space group: P -1
;
_chemical_formula_sum "Si O2"
_cell_formula_units_Z 14
_cell_length_a 10.433637
_cell_length_b 13.890532
_cell_length_c 9.668569
_cell_angle_alpha 90.193193
_cell_angle_beta 137.644591
_cell_angle_gamma 120.699272
_cell_volume 611.932861
_symmetry_space_group_name_H-M "P -1"
_symmetry_group_IT_number 2
_symmetry_cell_setting 'triclinic'
loop_
_space_group_symop_operation_xyz
x,y,z
-x,-y,-z
loop_
_atom_site_type_symbol
_atom_site_label
_atom_site_fract_x
_atom_site_fract_y
_atom_site_fract_z
Si Si1 0.502060 0.230086 0.807518
Si Si2 0.531611 0.751131 0.546317
Si Si3 0.613375 0.020853 0.242732
Si Si4 0.842008 0.575565 0.655090
Si Si5 0.495207 0.553754 0.140124
Si Si6 0.858415 0.240557 0.649301
Si Si7 0.934467 0.169060 0.987721
O O1 0.520996 0.246762 0.656543
O O2 0.408333 0.297958 0.787848
O O3 0.309767 0.062294 0.687969
O O4 0.829586 0.331248 0.122668
O O5 0.336905 0.585296 0.437337
O O6 0.418615 0.797715 0.544144
O O7 0.865388 0.846923 0.833400
O O8 0.150162 0.814139 0.506578
O O9 0.346149 0.934509 0.137478
O O10 0.500000 0.000000 0.000000
O O11 0.681355 0.567632 0.401871
O O12 0.877984 0.667179 0.806473
O O13 0.500000 0.500000 0.000000
O O14 0.149910 0.416255 0.903985
O O15 0.861986 0.160608 0.770656
#
# Coordination Sequence:
#
# PCOD9055183 Si02
#       7
#     2   2   2   2   2   2   2
#     4  11  24  44  74  98 140 188 227 286 353 408
#     4  12  21  39  74 111 132 176 234 290 346 402
#     4  11  28  50  70  96 149 191 225 287 355 415
#     4  11  21  40  70 108 138 176 228 287 353 402
#     4  12  27  43  72 107 144 180 233 288 347 423
#     4  12  25  46  72 106 140 181 236 291 339 411
#     4  11  23  42  74 102 139 180 239 284 338 417
#
# _framework density 22.878328
#
# number of rings (size 3 to 8) (size 9 to 14) (size 15 to 20)
#    0.000    0.571    7.143    2.143    4.000    2.286 
#    0.000    1.429    0.000    0.000    0.000    0.000 
#    0.000    0.000    0.000    0.000    0.000    0.000 
#
# Total GULP energy -78403.016911 kJ/mol
# GULP energy per Si atom -5600.215494 kJ/mol
# Density = 2.282626 g / cm^3
# Si number density = 22.878328 Si / 1000 Ang^3
#
#
#
# Elastic Constant Matrix: (Units=GPa)
#
#
# Indices 1 2 3 4 5 6 
#
# 1 104.4343 38.2555 34.9076 -18.6948 -17.1503 -26.6585
# 2 38.2555 98.3294 41.6393 -15.0096 -11.2908 -37.5264
# 3 34.9076 41.6393 107.5271 -25.3516 -9.7150 -18.1768
# 4 -18.6948 -15.0096 -25.3516 37.1888 -0.3104 5.0655
# 5 -17.1503 -11.2908 -9.7150 -0.3104 50.4148 3.8387
# 6 -26.6585 -37.5264 -18.1768 5.0655 3.8387 34.5230
#
#
#
# Elastic Compliance Matrix: (Units=1/GPa)
#
#
# Indices 1 2 3 4 5 6 
#
# 1 0.013788 -0.000437 -0.001472 0.004652 0.003705 0.008303
# 2 -0.000437 0.019492 -0.003438 0.002818 0.002172 0.018385
# 3 -0.001472 -0.003438 0.012905 0.006567 0.001194 0.000825
# 4 0.004652 0.002818 0.006567 0.034227 0.003330 0.004720
# 5 0.003705 0.002172 0.001194 0.003330 0.021608 0.002959
# 6 0.008303 0.018385 0.000825 0.004720 0.002959 0.054774
#
#
# Mechanical properties :
#
#
# Convention : Reuss Voigt Hill
#
# Bulk Modulus (GPa) = 28.17607 59.98841 44.08224
# Shear Modulus (GPa) = 27.88356 37.45787 32.67071
#
# Velocity S-wave (km/s) = 3.49488 4.05070 3.78302
# Velocity P-wave (km/s) = 5.35051 6.93939 6.19609
#
# Compressibility (1/GPa) = 0.03549111
#
# Stress axis : x y z
#
# Youngs Moduli (GPa) = 72.52684 51.30430 77.49078
#
# Poissons Ratio (x) = 0.02241 0.11407
# Poissons Ratio (y) = 0.03168 0.26640
# Poissons Ratio (z) = 0.10676 0.17637
#
# Static dielectric constant tensor:
#      x y z
#    x 1.829460 -0.010250 0.027940 
#    y -0.010250 1.895470 0.087370 
#    z 0.027940 0.087370 1.874680 
# 
# From -- ./inp_files/430017.got.cif
#   From: 2010.05.17/outbox.cif.g08.bks.cpg/sg2_216_cif.got.tgz:430017.got - 2010.06.03 11:33:40.
