data_PCOD9055769
_publ_section_title
;
Structure prediction by ZEFSAII (Michael W. Deem and Ramdas Pophale) SiO2 
 PCOD9055769
Probable space group: P -1
;
_chemical_formula_sum "Si O2"
_cell_formula_units_Z 16
_cell_length_a 7.183696
_cell_length_b 14.153647
_cell_length_c 12.633573
_cell_angle_alpha 150.005812
_cell_angle_beta 105.257830
_cell_angle_gamma 81.823229
_cell_volume 609.657579
_symmetry_space_group_name_H-M "P -1"
_symmetry_group_IT_number 2
_symmetry_cell_setting 'triclinic'
loop_
_space_group_symop_operation_xyz
x,y,z
-x,-y,-z
loop_
_atom_site_type_symbol
_atom_site_label
_atom_site_fract_x
_atom_site_fract_y
_atom_site_fract_z
Si Si1 0.017016 0.696100 0.260522
Si Si2 0.877130 0.800791 0.077267
Si Si3 0.279117 0.696566 0.777178
Si Si4 0.117472 0.508284 0.759059
Si Si5 0.064397 0.921271 0.821981
Si Si6 0.479903 0.524890 0.289701
Si Si7 0.790757 0.989698 0.545496
Si Si8 0.357905 0.063965 0.302913
O O1 0.017652 0.644635 0.335793
O O2 0.811865 0.780936 0.302342
O O3 0.198157 0.838378 0.369803
O O4 0.000000 0.500000 0.000000
O O5 0.708240 0.628893 0.916223
O O6 0.064400 0.702680 0.985797
O O7 0.824989 0.910628 0.072187
O O8 0.982395 0.960266 0.327107
O O9 0.102778 0.559319 0.681727
O O10 0.204628 0.775223 0.734961
O O11 0.441951 0.562407 0.675506
O O12 0.353957 0.882154 0.047199
O O13 0.345316 0.492454 0.784277
O O14 0.850154 0.860393 0.676990
O O15 0.000000 0.000000 0.000000
O O16 0.479489 0.750003 0.517420
O O17 0.646120 0.980491 0.614860
#
# Coordination Sequence:
#
# PCOD9055769 Si02
#       8
#     2   2   2   2   2   2   2   2
#     4  11  19  33  62  85 108 146 191 230 280 338
#     4  11  20  38  60  83 117 149 189 232 276 339
#     4   9  18  36  55  80 113 151 186 226 283 325
#     4  10  19  38  58  81 117 149 183 235 287 323
#     4   9  16  33  61  80 112 153 187 230 280 326
#     4  10  22  36  56  85 116 148 189 232 279 332
#     4  10  19  34  60  85 107 151 188 224 284 338
#     4  10  17  36  59  81 112 154 184 230 284 329
#
# _framework density 26.244240999999999
#
# number of rings (size 3 to 8) (size 9 to 14) (size 15 to 20)
#    0.750    1.250    6.250    0.000    0.000    1.000 
#    2.250    3.125    0.000    1.500    0.000    0.000 
#    0.000    0.000    0.000    0.000    0.000    0.000 
#
# Total GULP energy -89076.898824 kJ/mol
# GULP energy per Si atom -5567.306177 kJ/mol
# Density = 2.618451 g / cm^3
# Si number density = 26.244241 Si / 1000 Ang^3
#
#
#
# Elastic Constant Matrix: (Units=GPa)
#
#
# Indices 1 2 3 4 5 6 
#
# 1 68.5518 19.7213 36.3028 2.5082 21.9319 16.6810
# 2 19.7213 150.0817 33.4850 26.5538 19.2925 17.7882
# 3 36.3028 33.4850 127.4389 23.6380 17.3811 18.0409
# 4 2.5082 26.5538 23.6380 42.2149 7.4504 -2.6573
# 5 21.9319 19.2925 17.3811 7.4504 33.9908 10.7298
# 6 16.6810 17.7882 18.0409 -2.6573 10.7298 22.6434
#
#
#
# Elastic Compliance Matrix: (Units=1/GPa)
#
#
# Indices 1 2 3 4 5 6 
#
# 1 0.021797 -0.000185 -0.004184 0.002447 -0.009967 -0.007569
# 2 -0.000185 0.008650 -0.000061 -0.005550 -0.001470 -0.006565
# 3 -0.004184 -0.000061 0.011136 -0.006483 0.000604 -0.006790
# 4 0.002447 -0.005550 -0.006483 0.032840 -0.007016 0.014901
# 5 -0.009967 -0.001470 0.000604 -0.007016 0.041913 -0.012668
# 6 -0.007569 -0.006565 -0.006790 0.014901 -0.012668 0.068057
#
#
# Mechanical properties :
#
#
# Convention : Reuss Voigt Hill
#
# Bulk Modulus (GPa) = 30.55902 58.34339 44.45120
# Shear Modulus (GPa) = 24.49056 36.87402 30.68229
#
# Velocity S-wave (km/s) = 3.05811 3.75244 3.42293
# Velocity P-wave (km/s) = 4.91312 6.40731 5.70931
#
# Compressibility (1/GPa) = 0.03272356
#
# Stress axis : x y z
#
# Youngs Moduli (GPa) = 45.87735 115.60800 89.80016
#
# Poissons Ratio (x) = 0.02144 0.37568
# Poissons Ratio (y) = 0.00851 0.00545
# Poissons Ratio (z) = 0.19193 0.00702
#
# Static dielectric constant tensor:
#      x y z
#    x 2.100470 -0.047020 -0.062310 
#    y -0.047020 2.164820 -0.002720 
#    z -0.062310 -0.002720 2.256230 
# 
# From -- ./inp_files/504709.got.cif
#   From: 2010.05.17/outbox.cif.g08.bks.cpg/sg2_253_cif.got.tgz:504709.got - 2010.06.03 11:33:40.
