data_PCOD9055807
_publ_section_title
;
Structure prediction by ZEFSAII (Michael W. Deem and Ramdas Pophale) SiO2 
 PCOD9055807
Probable space group: P -1
;
_chemical_formula_sum "Si O2"
_cell_formula_units_Z 14
_cell_length_a 11.830339
_cell_length_b 6.782087
_cell_length_c 14.315232
_cell_angle_alpha 71.289105
_cell_angle_beta 48.720830
_cell_angle_gamma 45.047493
_cell_volume 587.605061
_symmetry_space_group_name_H-M "P -1"
_symmetry_group_IT_number 2
_symmetry_cell_setting 'triclinic'
loop_
_space_group_symop_operation_xyz
x,y,z
-x,-y,-z
loop_
_atom_site_type_symbol
_atom_site_label
_atom_site_fract_x
_atom_site_fract_y
_atom_site_fract_z
Si Si1 0.801364 0.636863 0.523394
Si Si2 0.476977 0.706511 0.405199
Si Si3 0.740051 0.225962 0.010647
Si Si4 0.933896 0.385943 0.127681
Si Si5 0.380214 0.604792 0.282434
Si Si6 0.905173 0.782405 0.727205
Si Si7 0.413749 0.232990 0.093095
O O1 0.665087 0.593807 0.655490
O O2 0.000000 0.500000 0.500000
O O3 0.887831 0.445502 0.411310
O O4 0.662203 0.972282 0.527858
O O5 0.500000 0.500000 0.500000
O O6 0.694676 0.585047 0.261204
O O7 0.359901 0.725241 0.376368
O O8 0.612109 0.412465 0.144188
O O9 0.597377 0.171862 0.057146
O O10 0.718789 0.448493 0.924069
O O11 0.971554 0.914061 0.925474
O O12 0.047976 0.312726 0.176444
O O13 0.000000 0.500000 0.000000
O O14 0.208971 0.885298 0.268778
O O15 0.741580 0.776913 0.771597
O O16 0.500000 0.000000 0.000000
#
# Coordination Sequence:
#
# PCOD9055807 Si02
#       7
#     2   2   2   2   2   2   2
#     4  12  27  49  83 110 146 203 263 316 377 457
#     4  12  31  53  75 113 161 199 256 324 384 459
#     4  11  24  42  74 108 149 191 248 304 382 446
#     4  12  29  48  73 112 161 202 251 314 393 458
#     4  12  26  48  79 113 148 197 261 315 376 462
#     4  12  25  45  83 107 150 199 263 312 378 455
#     4  11  21  43  72 111 142 188 246 317 360 440
#
# _framework density 23.825524999999999
#
# number of rings (size 3 to 8) (size 9 to 14) (size 15 to 20)
#    0.000    0.286    4.286    3.857    8.000    4.000 
#    0.000    0.000    0.000    0.000    0.000    0.000 
#    0.000    0.000    0.000    0.000    0.000    0.000 
#
# Total GULP energy -78341.655500 kJ/mol
# GULP energy per Si atom -5595.832536 kJ/mol
# Density = 2.377130 g / cm^3
# Si number density = 23.825525 Si / 1000 Ang^3
#
#
#
# Elastic Constant Matrix: (Units=GPa)
#
#
# Indices 1 2 3 4 5 6 
#
# 1 58.0957 30.3886 8.9810 -9.0318 11.3278 -0.1265
# 2 30.3886 172.2448 68.5090 3.8503 -2.5129 -12.2161
# 3 8.9810 68.5090 130.7899 7.5358 8.9226 -12.6805
# 4 -9.0318 3.8503 7.5358 53.6854 2.0375 2.0995
# 5 11.3278 -2.5129 8.9226 2.0375 43.1454 1.0006
# 6 -0.1265 -12.2161 -12.6805 2.0995 1.0006 31.3006
#
#
#
# Elastic Compliance Matrix: (Units=1/GPa)
#
#
# Indices 1 2 3 4 5 6 
#
# 1 0.021185 -0.004367 0.000891 0.004038 -0.006161 -0.001332
# 2 -0.004367 0.008351 -0.004036 -0.000923 0.002474 0.001589
# 3 0.000891 -0.004036 0.010196 -0.000999 -0.002593 0.002709
# 4 0.004038 -0.000923 -0.000999 0.019659 -0.001789 -0.002010
# 5 -0.006161 0.002474 -0.002593 -0.001789 0.025579 -0.000808
# 6 -0.001332 0.001589 0.002709 -0.002010 -0.000808 0.033821
#
#
# Mechanical properties :
#
#
# Convention : Reuss Voigt Hill
#
# Bulk Modulus (GPa) = 40.47093 64.09859 52.28476
# Shear Modulus (GPa) = 35.19875 42.50975 38.85425
#
# Velocity S-wave (km/s) = 3.84781 4.22857 4.04268
# Velocity P-wave (km/s) = 6.06334 7.12761 6.61691
#
# Compressibility (1/GPa) = 0.02470909
#
# Stress axis : x y z
#
# Youngs Moduli (GPa) = 47.20223 119.74924 98.07931
#
# Poissons Ratio (x) = 0.52291 -0.08740
# Poissons Ratio (y) = 0.20612 0.39584
# Poissons Ratio (z) = -0.04206 0.48329
#
# Static dielectric constant tensor:
#      x y z
#    x 1.952900 -0.024750 -0.005590 
#    y -0.024750 1.876560 0.048280 
#    z -0.005590 0.048280 1.995690 
# 
# From -- ./inp_files/510800.got.cif
#   From: 2010.05.17/outbox.cif.g08.bks.cpg/sg2_256_cif.got.tgz:510800.got - 2010.06.03 11:33:40.
