data_PCOD9055413
_publ_section_title
;
Structure prediction by ZEFSAII (Michael W. Deem and Ramdas Pophale) SiO2 
 PCOD9055413
Probable space group: P -1
;
_chemical_formula_sum "Si O2"
_cell_formula_units_Z 16
_cell_length_a 13.741232
_cell_length_b 11.174523
_cell_length_c 5.508514
_cell_angle_alpha 61.042750
_cell_angle_beta 105.638202
_cell_angle_gamma 113.070020
_cell_volume 677.550356
_symmetry_space_group_name_H-M "P -1"
_symmetry_group_IT_number 2
_symmetry_cell_setting 'triclinic'
loop_
_space_group_symop_operation_xyz
x,y,z
-x,-y,-z
loop_
_atom_site_type_symbol
_atom_site_label
_atom_site_fract_x
_atom_site_fract_y
_atom_site_fract_z
Si Si1 0.286710 0.197109 0.354823
Si Si2 0.325250 0.419902 0.525749
Si Si3 0.479437 0.338812 0.039682
Si Si4 0.125154 0.254314 0.872215
Si Si5 0.096761 0.522170 0.859000
Si Si6 0.777383 0.080518 0.133948
Si Si7 0.902777 0.188602 0.615857
Si Si8 0.326735 0.690904 0.066351
O O1 0.300744 0.357831 0.300601
O O2 0.393611 0.217474 0.256033
O O3 0.269766 0.087652 0.672696
O O4 0.180690 0.158209 0.158176
O O5 0.219595 0.349848 0.674899
O O6 0.354957 0.590763 0.388333
O O7 0.417192 0.358036 0.736391
O O8 0.500000 0.500000 0.000000
O O9 0.584560 0.298879 0.087380
O O10 0.092479 0.367509 0.907828
O O11 0.020451 0.174748 0.729337
O O12 0.089021 0.641368 0.540710
O O13 0.209812 0.595985 0.991804
O O14 0.000000 0.500000 0.000000
O O15 0.851108 0.138374 0.366199
O O16 0.836873 0.117351 0.880880
O O17 0.687543 0.160500 0.004506
#
# Coordination Sequence:
#
# PCOD9055413 Si02
#       8
#     2   2   2   2   2   2   2   2
#     4  11  26  44  66  97 138 180 228 287 340 418
#     4  11  22  41  69 100 132 173 234 288 347 400
#     4  11  23  42  70 105 129 169 237 292 344 407
#     4  11  22  39  70  97 134 181 231 285 347 398
#     4  11  21  41  71 107 141 172 234 291 346 401
#     4  11  28  46  66 101 145 184 232 277 349 418
#     4  11  25  44  68 101 142 185 231 285 337 422
#     4  11  21  42  70  98 134 180 222 288 349 407
#
# _framework density 23.614481000000001
#
# number of rings (size 3 to 8) (size 9 to 14) (size 15 to 20)
#    0.000    1.000    2.500    4.500    5.250    2.500 
#    0.000    0.625    0.000    0.000    0.000    0.000 
#    0.000    0.000    0.000    0.000    0.000    0.000 
#
# Total GULP energy -89482.261185 kJ/mol
# GULP energy per Si atom -5592.641324 kJ/mol
# Density = 2.356073 g / cm^3
# Si number density = 23.614481 Si / 1000 Ang^3
#
#
#
# Elastic Constant Matrix: (Units=GPa)
#
#
# Indices 1 2 3 4 5 6 
#
# 1 169.4292 20.7352 48.4621 -2.4621 -11.2896 -10.4827
# 2 20.7352 68.6826 19.9643 -3.5164 4.4425 -7.6251
# 3 48.4621 19.9643 121.4855 -22.9062 -25.3921 2.1231
# 4 -2.4621 -3.5164 -22.9062 44.0095 5.2359 -0.5869
# 5 -11.2896 4.4425 -25.3921 5.2359 24.4798 3.5697
# 6 -10.4827 -7.6251 2.1231 -0.5869 3.5697 23.5446
#
#
#
# Elastic Compliance Matrix: (Units=1/GPa)
#
#
# Indices 1 2 3 4 5 6 
#
# 1 0.007030 -0.001045 -0.002841 -0.001165 0.000300 0.002973
# 2 -0.001045 0.017604 -0.004538 0.000206 -0.009461 0.007084
# 3 -0.002841 -0.004538 0.014078 0.005072 0.013904 -0.005986
# 4 -0.001165 0.000206 0.005072 0.025397 -0.000722 -0.000167
# 5 0.000300 -0.009461 0.013904 -0.000722 0.059203 -0.013178
# 6 0.002973 0.007084 -0.005986 -0.000167 -0.013178 0.048624
#
#
# Mechanical properties :
#
#
# Convention : Reuss Voigt Hill
#
# Bulk Modulus (GPa) = 45.74432 59.76896 52.75664
# Shear Modulus (GPa) = 25.50074 36.43584 30.96829
#
# Velocity S-wave (km/s) = 3.28971 3.93229 3.62527
# Velocity P-wave (km/s) = 5.81747 6.78104 6.31765
#
# Compressibility (1/GPa) = 0.02186064
#
# Stress axis : x y z
#
# Youngs Moduli (GPa) = 142.25039 56.80668 71.03454
#
# Poissons Ratio (x) = 0.05938 0.20184
# Poissons Ratio (y) = 0.14871 0.32238
# Poissons Ratio (z) = 0.40420 0.25781
#
# Static dielectric constant tensor:
#      x y z
#    x 1.886570 0.030580 0.043600 
#    y 0.030580 1.967810 0.047270 
#    z 0.043600 0.047270 1.955960 
# 
# From -- ./inp_files/68664.got.cif
#   From: 2010.05.17/outbox.cif.g08.bks.cpg/sg2_35_cif.got.tgz:68664.got - 2010.06.03 11:33:40.
