data_PCOD9055934
_publ_section_title
;
Structure prediction by ZEFSAII (Michael W. Deem and Ramdas Pophale) SiO2 
 PCOD9055934
Probable space group: P -1
;
_chemical_formula_sum "Si O2"
_cell_formula_units_Z 14
_cell_length_a 19.824458
_cell_length_b 9.314227
_cell_length_c 12.961634
_cell_angle_alpha 109.486187
_cell_angle_beta 159.013371
_cell_angle_gamma 59.271508
_cell_volume 651.899933
_symmetry_space_group_name_H-M "P -1"
_symmetry_group_IT_number 2
_symmetry_cell_setting 'triclinic'
loop_
_space_group_symop_operation_xyz
x,y,z
-x,-y,-z
loop_
_atom_site_type_symbol
_atom_site_label
_atom_site_fract_x
_atom_site_fract_y
_atom_site_fract_z
Si Si1 0.062722 0.507636 0.710990
Si Si2 0.401318 0.589239 0.711359
Si Si3 0.506429 0.480418 0.626831
Si Si4 0.078681 0.222015 0.818856
Si Si5 0.388475 0.837686 0.077333
Si Si6 0.250950 0.304171 0.281074
Si Si7 0.443909 0.181150 0.906587
O O1 0.128626 0.324218 0.826193
O O2 0.000000 0.500000 0.500000
O O3 0.829751 0.680232 0.474696
O O4 0.257344 0.545620 0.008040
O O5 0.330655 0.634743 0.500312
O O6 0.576343 0.361235 0.913664
O O7 0.190889 0.649561 0.501963
O O8 0.506841 0.696179 0.923285
O O9 0.500000 0.500000 0.500000
O O10 0.437722 0.337144 0.510847
O O11 0.208037 0.205228 0.105755
O O12 0.163674 0.017729 0.852339
O O13 0.614282 0.805803 0.448945
O O14 0.401058 0.877369 0.986862
O O15 0.000000 0.500000 0.000000
O O16 0.500000 0.000000 0.000000
#
# Coordination Sequence:
#
# PCOD9055934 Si02
#       7
#     2   2   2   2   2   2   2
#     4  12  24  43  71 104 148 193 234 305 368 424
#     4  11  25  47  71 101 146 187 245 297 360 431
#     4  11  23  40  73 104 142 190 239 293 375 424
#     4  12  24  44  74 102 143 193 247 294 363 436
#     4  11  25  42  71 105 139 190 246 299 356 435
#     4  11  21  44  72 100 141 194 240 299 361 429
#     4  12  26  45  70 107 149 188 246 302 368 431
#
# _framework density 21.475688000000002
#
# number of rings (size 3 to 8) (size 9 to 14) (size 15 to 20)
#    0.000    0.571    7.143    1.714    0.000    2.857 
#    0.000    0.000    0.000    6.857    0.000    0.000 
#    0.000    0.000    0.000    0.000    0.000    0.000 
#
# Total GULP energy -78116.201777 kJ/mol
# GULP energy per Si atom -5579.728698 kJ/mol
# Density = 2.142681 g / cm^3
# Si number density = 21.475688 Si / 1000 Ang^3
#
#
#
# Elastic Constant Matrix: (Units=GPa)
#
#
# Indices 1 2 3 4 5 6 
#
# 1 149.0494 57.7549 16.4888 7.6295 -5.5367 -17.1327
# 2 57.7549 149.4563 43.7995 4.1366 6.6584 -7.7854
# 3 16.4888 43.7995 59.8284 19.2796 10.4641 -0.1264
# 4 7.6295 4.1366 19.2796 39.4773 -2.0824 3.7494
# 5 -5.5367 6.6584 10.4641 -2.0824 36.1541 -0.0273
# 6 -17.1327 -7.7854 -0.1264 3.7494 -0.0273 35.5740
#
#
#
# Elastic Compliance Matrix: (Units=1/GPa)
#
#
# Indices 1 2 3 4 5 6 
#
# 1 0.008478 -0.003193 0.000246 -0.001672 0.001722 0.003563
# 2 -0.003193 0.010054 -0.007516 0.003207 0.000020 0.000298
# 3 0.000246 -0.007516 0.027674 -0.013158 -0.007346 -0.000047
# 4 -0.001672 0.003207 -0.013158 0.032336 0.004822 -0.003554
# 5 0.001722 0.000020 -0.007346 0.004822 0.030323 0.000323
# 6 0.003563 0.000298 -0.000047 -0.003554 0.000323 0.030266
#
#
# Mechanical properties :
#
#
# Convention : Reuss Voigt Hill
#
# Bulk Modulus (GPa) = 39.55810 66.04672 52.80241
# Shear Modulus (GPa) = 29.67625 38.26045 33.96835
#
# Velocity S-wave (km/s) = 3.72136 4.22544 3.98139
# Velocity P-wave (km/s) = 6.07656 7.39099 6.76578
#
# Compressibility (1/GPa) = 0.02527927
#
# Stress axis : x y z
#
# Youngs Moduli (GPa) = 117.94705 99.46781 36.13482
#
# Poissons Ratio (x) = 0.31764 -0.00890
# Poissons Ratio (y) = 0.37665 0.27160
# Poissons Ratio (z) = -0.02905 0.74763
#
# Static dielectric constant tensor:
#      x y z
#    x 1.859710 0.021420 -0.015110 
#    y 0.021420 1.796610 0.004650 
#    z -0.015110 0.004650 1.850610 
# 
# From -- ./inp_files/540520.got.cif
#   From: 2010.05.17/outbox.cif.g08.bks.cpg/sg2_271_cif.got.tgz:540520.got - 2010.06.03 11:33:40.
