data_PCOD9055525
_publ_section_title
;
Structure prediction by ZEFSAII (Michael W. Deem and Ramdas Pophale) SiO2 
 PCOD9055525
Probable space group: P -1
;
_chemical_formula_sum "Si O2"
_cell_formula_units_Z 14
_cell_length_a 8.188414
_cell_length_b 9.968937
_cell_length_c 19.310546
_cell_angle_alpha 38.130419
_cell_angle_beta 44.986881
_cell_angle_gamma 72.171435
_cell_volume 563.851358
_symmetry_space_group_name_H-M "P -1"
_symmetry_group_IT_number 2
_symmetry_cell_setting 'triclinic'
loop_
_space_group_symop_operation_xyz
x,y,z
-x,-y,-z
loop_
_atom_site_type_symbol
_atom_site_label
_atom_site_fract_x
_atom_site_fract_y
_atom_site_fract_z
Si Si1 0.921675 0.479908 0.813369
Si Si2 0.057830 0.308727 0.143474
Si Si3 0.557859 0.718910 0.497346
Si Si4 0.275480 0.600588 0.487171
Si Si5 0.297735 0.448595 0.870614
Si Si6 0.911564 0.764180 0.569779
Si Si7 0.221879 0.925388 0.072246
O O1 0.858634 0.549972 0.729487
O O2 0.785694 0.172844 0.964067
O O3 0.824205 0.592092 0.855661
O O4 0.260301 0.628203 0.657134
O O5 0.904982 0.458904 0.117841
O O6 0.822295 0.995784 0.333676
O O7 0.279359 0.399878 0.978833
O O8 0.500400 0.755590 0.418700
O O9 0.602851 0.482490 0.576961
O O10 0.130020 0.758009 0.456007
O O11 0.042271 0.309188 0.708678
O O12 0.617126 0.670090 0.662825
O O13 0.206707 0.176147 0.974183
O O14 0.000000 0.000000 0.500000
O O15 0.500000 0.000000 0.000000
#
# Coordination Sequence:
#
# PCOD9055525 Si02
#       7
#     2   2   2   2   2   2   2
#     4  10  22  36  58  85 112 150 187 232 282 321
#     4  11  23  35  55  88 116 145 186 238 280 323
#     4   9  17  33  55  80 111 143 183 228 271 334
#     4   9  17  30  57  84 101 149 189 218 273 333
#     4  11  21  36  59  81 112 152 186 228 282 335
#     4  10  20  37  59  83 108 148 189 230 273 339
#     4  10  17  36  58  79 109 149 190 226 277 338
#
# _framework density 24.829239999999999
#
# number of rings (size 3 to 8) (size 9 to 14) (size 15 to 20)
#    0.000    2.286    4.286    2.143    0.000    1.143 
#    0.000    0.000    0.000    1.714    0.000    0.000 
#    0.000    0.000    0.000    0.000    0.000    0.000 
#
# Total GULP energy -78152.862333 kJ/mol
# GULP energy per Si atom -5582.347309 kJ/mol
# Density = 2.477273 g / cm^3
# Si number density = 24.829240 Si / 1000 Ang^3
#
#
#
# Elastic Constant Matrix: (Units=GPa)
#
#
# Indices 1 2 3 4 5 6 
#
# 1 35.1103 2.7069 9.4052 5.6543 -12.8174 -2.4574
# 2 2.7069 142.7302 38.2362 -22.9215 -7.2269 -3.9333
# 3 9.4052 38.2362 52.9348 -0.6156 -13.0214 -5.4328
# 4 5.6543 -22.9215 -0.6156 44.4190 -3.6428 -4.5548
# 5 -12.8174 -7.2269 -13.0214 -3.6428 26.0912 5.5161
# 6 -2.4574 -3.9333 -5.4328 -4.5548 5.5161 50.4783
#
#
#
# Elastic Compliance Matrix: (Units=1/GPa)
#
#
# Indices 1 2 3 4 5 6 
#
# 1 0.035428 0.000348 -0.002750 -0.003129 0.015808 -0.000554
# 2 0.000348 0.009654 -0.006939 0.004887 -0.000035 0.000467
# 3 -0.002750 -0.006939 0.026842 -0.001967 0.009640 0.000983
# 4 -0.003129 0.004887 -0.001967 0.025786 0.001985 0.002127
# 5 0.015808 -0.000035 0.009640 0.001985 0.051952 -0.003694
# 6 -0.000554 0.000467 0.000983 0.002127 -0.003694 0.020521
#
#
# Mechanical properties :
#
#
# Convention : Reuss Voigt Hill
#
# Bulk Modulus (GPa) = 18.78304 36.83022 27.80663
# Shear Modulus (GPa) = 24.19971 36.22617 30.21294
#
# Velocity S-wave (km/s) = 3.12532 3.82385 3.49209
# Velocity P-wave (km/s) = 4.53925 5.86185 5.24243
#
# Compressibility (1/GPa) = 0.05323952
#
# Stress axis : x y z
#
# Youngs Moduli (GPa) = 28.22666 103.57903 37.25555
#
# Poissons Ratio (x) = -0.03600 0.10247
# Poissons Ratio (y) = -0.00981 0.25852
# Poissons Ratio (z) = 0.07763 0.71876
#
# Static dielectric constant tensor:
#      x y z
#    x 2.134390 -0.138310 0.084300 
#    y -0.138310 2.392300 -0.044400 
#    z 0.084300 -0.044400 1.997080 
# 
# From -- ./inp_files/358749.got.cif
#   From: 2010.05.17/outbox.cif.g08.bks.cpg/sg2_180_cif.got.tgz:358749.got - 2010.06.03 11:33:40.
