data_PCOD9055257
_publ_section_title
;
Structure prediction by ZEFSAII (Michael W. Deem and Ramdas Pophale) SiO2 
 PCOD9055257
Probable space group: P -1
;
_chemical_formula_sum "Si O2"
_cell_formula_units_Z 16
_cell_length_a 6.843206
_cell_length_b 14.139252
_cell_length_c 12.602259
_cell_angle_alpha 127.343383
_cell_angle_beta 133.591235
_cell_angle_gamma 66.685098
_cell_volume 701.590295
_symmetry_space_group_name_H-M "P -1"
_symmetry_group_IT_number 2
_symmetry_cell_setting 'triclinic'
loop_
_space_group_symop_operation_xyz
x,y,z
-x,-y,-z
loop_
_atom_site_type_symbol
_atom_site_label
_atom_site_fract_x
_atom_site_fract_y
_atom_site_fract_z
Si Si1 0.196893 0.609053 0.184505
Si Si2 0.425964 0.053859 0.823130
Si Si3 0.614792 0.953862 0.624276
Si Si4 0.128981 0.830668 0.646711
Si Si5 0.495662 0.706422 0.849660
Si Si6 0.243070 0.475039 0.315147
Si Si7 0.365907 0.499941 0.833256
Si Si8 0.939090 0.172416 0.620798
O O1 0.268185 0.579256 0.310059
O O2 0.481358 0.612867 0.233960
O O3 0.024870 0.723997 0.207833
O O4 0.000000 0.500000 0.000000
O O5 0.630909 0.043122 0.792734
O O6 0.143003 0.076303 0.672726
O O7 0.369793 0.930558 0.781157
O O8 0.476536 0.165229 0.995370
O O9 0.500000 0.000000 0.500000
O O10 0.375547 0.863217 0.510692
O O11 0.895537 0.895061 0.666645
O O12 0.246503 0.724685 0.687197
O O13 0.012174 0.796429 0.462871
O O14 0.725016 0.650137 0.821572
O O15 0.446177 0.607992 0.856396
O O16 0.500000 0.500000 0.500000
O O17 0.952669 0.490013 0.268302
O O18 0.500000 0.500000 0.000000
#
# Coordination Sequence:
#
# PCOD9055257 Si02
#       8
#     2   2   2   2   2   2   2   2
#     4  11  23  42  66 100 134 175 228 284 337 403
#     4  11  23  40  66  98 132 173 219 275 327 406
#     4  11  21  41  64  99 133 171 226 277 327 403
#     4  11  23  44  65  96 137 173 223 275 335 401
#     4  11  27  43  68  98 135 179 223 274 351 396
#     4  11  25  46  69  96 141 175 226 286 343 407
#     4  11  25  45  70 100 135 175 234 284 340 413
#     4  11  22  38  69  94 129 176 221 271 340 393
#
# _framework density 22.805333999999998
#
# number of rings (size 3 to 8) (size 9 to 14) (size 15 to 20)
#    0.000    1.000    3.750    3.375    0.000    9.500 
#    0.000    0.000    0.000    0.000    0.000    0.000 
#    0.000    0.000    0.000    0.000    0.000    0.000 
#
# Total GULP energy -89278.259279 kJ/mol
# GULP energy per Si atom -5579.891205 kJ/mol
# Density = 2.275343 g / cm^3
# Si number density = 22.805334 Si / 1000 Ang^3
#
#
#
# Elastic Constant Matrix: (Units=GPa)
#
#
# Indices 1 2 3 4 5 6 
#
# 1 161.0620 35.3961 34.0950 -2.6105 -8.7198 -30.8322
# 2 35.3961 91.9795 13.8754 -19.4690 -13.5252 -11.0053
# 3 34.0950 13.8754 84.6839 -3.1819 -13.0450 -3.6799
# 4 -2.6105 -19.4690 -3.1819 46.7186 -12.3976 -11.6742
# 5 -8.7198 -13.5252 -13.0450 -12.3976 26.5324 -0.7503
# 6 -30.8322 -11.0053 -3.6799 -11.6742 -0.7503 43.0710
#
#
#
# Elastic Compliance Matrix: (Units=1/GPa)
#
#
# Indices 1 2 3 4 5 6 
#
# 1 0.008302 -0.001592 -0.002544 0.001463 0.001512 0.005742
# 2 -0.001592 0.017060 0.000906 0.012755 0.014777 0.007012
# 3 -0.002544 0.000906 0.014122 0.003571 0.008258 0.000729
# 4 0.001463 0.012755 0.003571 0.038043 0.026950 0.015393
# 5 0.001512 0.014777 0.008258 0.026950 0.062767 0.013962
# 6 0.005742 0.007012 0.000729 0.015393 0.013962 0.033597
#
#
# Mechanical properties :
#
#
# Convention : Reuss Voigt Hill
#
# Bulk Modulus (GPa) = 30.28133 56.05093 43.16613
# Shear Modulus (GPa) = 26.12883 40.22166 33.17525
#
# Velocity S-wave (km/s) = 3.38854 4.20419 3.81821
# Velocity P-wave (km/s) = 5.34945 6.94250 6.19738
#
# Compressibility (1/GPa) = 0.03302365
#
# Stress axis : x y z
#
# Youngs Moduli (GPa) = 120.45358 58.61786 70.80906
#
# Poissons Ratio (x) = 0.09332 0.18015
# Poissons Ratio (y) = 0.19176 -0.06415
# Poissons Ratio (z) = 0.30646 -0.05311
#
# Static dielectric constant tensor:
#      x y z
#    x 1.868430 -0.010630 -0.059870 
#    y -0.010630 1.872260 0.093800 
#    z -0.059870 0.093800 1.953200 
# 
# From -- ./inp_files/369556.got.cif
#   From: 2010.05.17/outbox.cif.g08.bks.cpg/sg2_185_cif.got.tgz:369556.got - 2010.06.03 11:33:40.
