data_PCOD9055225
_publ_section_title
;
Structure prediction by ZEFSAII (Michael W. Deem and Ramdas Pophale) SiO2 
 PCOD9055225
Probable space group: P -1
;
_chemical_formula_sum "Si O2"
_cell_formula_units_Z 16
_cell_length_a 10.441542
_cell_length_b 27.357199
_cell_length_c 5.881121
_cell_angle_alpha 49.947594
_cell_angle_beta 128.183236
_cell_angle_gamma 148.672184
_cell_volume 658.617914
_symmetry_space_group_name_H-M "P -1"
_symmetry_group_IT_number 2
_symmetry_cell_setting 'triclinic'
loop_
_space_group_symop_operation_xyz
x,y,z
-x,-y,-z
loop_
_atom_site_type_symbol
_atom_site_label
_atom_site_fract_x
_atom_site_fract_y
_atom_site_fract_z
Si Si1 0.188012 0.847990 0.690681
Si Si2 0.019606 0.118915 0.942261
Si Si3 0.434645 0.054704 0.822660
Si Si4 0.733437 0.726959 0.875092
Si Si5 0.867365 0.480403 0.661335
Si Si6 0.498088 0.268787 0.758435
Si Si7 0.199640 0.752211 0.651688
Si Si8 0.731557 0.581215 0.343673
O O1 0.201069 0.913119 0.349353
O O2 0.071399 0.759410 0.671546
O O3 0.990444 0.809609 0.772991
O O4 0.422284 0.888643 0.954392
O O5 0.236957 0.161234 0.885378
O O6 0.172970 0.218859 0.945779
O O7 0.862156 0.028385 0.212582
O O8 0.570578 0.140148 0.532139
O O9 0.500000 0.000000 0.000000
O O10 0.540135 0.719324 0.576673
O O11 0.660069 0.631921 0.031566
O O12 0.608967 0.363962 0.721505
O O13 0.793237 0.533818 0.418656
O O14 0.000000 0.500000 0.500000
O O15 0.000000 0.500000 0.000000
O O16 0.703075 0.277983 0.010236
O O17 0.996415 0.672808 0.483013
O O18 0.500000 0.500000 0.500000
#
# Coordination Sequence:
#
# PCOD9055225 Si02
#       8
#     2   2   2   2   2   2   2   2
#     4  11  21  40  74 103 138 189 245 303 372 450
#     4  11  23  44  70 105 146 189 247 302 377 450
#     4  12  22  41  73 107 143 189 247 311 371 451
#     4  11  24  45  71 106 143 189 242 314 367 454
#     4  12  30  52  81 114 159 209 261 325 402 470
#     4  11  29  46  72 104 154 194 241 312 389 454
#     4  12  26  46  70 108 145 194 248 305 382 458
#     4  12  26  49  80 112 150 198 268 317 388 466
#
# _framework density 24.293295000000001
#
# number of rings (size 3 to 8) (size 9 to 14) (size 15 to 20)
#    0.000    0.500    6.250    1.125    7.000    2.000 
#    0.000    1.250    0.000    0.000    0.000    0.000 
#    0.000    0.000    0.000    0.000    0.000    0.000 
#
# Total GULP energy -89169.065039 kJ/mol
# GULP energy per Si atom -5573.066565 kJ/mol
# Density = 2.423800 g / cm^3
# Si number density = 24.293295 Si / 1000 Ang^3
#
#
#
# Elastic Constant Matrix: (Units=GPa)
#
#
# Indices 1 2 3 4 5 6 
#
# 1 57.6619 10.9626 24.1608 -13.5473 -17.0947 11.7730
# 2 10.9626 80.9104 25.9073 -10.1864 -9.8389 7.9275
# 3 24.1608 25.9073 119.7600 -2.8282 12.5511 -1.5126
# 4 -13.5473 -10.1864 -2.8282 32.2990 0.3765 -7.6021
# 5 -17.0947 -9.8389 12.5511 0.3765 34.8168 -8.0601
# 6 11.7730 7.9275 -1.5126 -7.6021 -8.0601 31.4608
#
#
#
# Elastic Compliance Matrix: (Units=1/GPa)
#
#
# Indices 1 2 3 4 5 6 
#
# 1 0.028453 0.002430 -0.007774 0.010677 0.016209 -0.004901
# 2 0.002430 0.015011 -0.004327 0.004809 0.006461 -0.002083
# 3 -0.007774 -0.004327 0.011731 -0.003134 -0.008880 0.001531
# 4 0.010677 0.004809 -0.003134 0.038006 0.008723 0.006061
# 5 0.016209 0.006461 -0.008880 0.008723 0.042757 0.004941
# 6 -0.004901 -0.002083 0.001531 0.006061 0.004941 0.036948
#
#
# Mechanical properties :
#
#
# Convention : Reuss Voigt Hill
#
# Bulk Modulus (GPa) = 27.89379 42.26598 35.07989
# Shear Modulus (GPa) = 24.48597 32.86876 28.67737
#
# Velocity S-wave (km/s) = 3.17824 3.68230 3.43952
# Velocity P-wave (km/s) = 4.99753 5.95946 5.49956
#
# Compressibility (1/GPa) = 0.03585028
#
# Stress axis : x y z
#
# Youngs Moduli (GPa) = 35.14629 66.61864 85.24772
#
# Poissons Ratio (x) = -0.16186 0.66273
# Poissons Ratio (y) = -0.08539 0.36889
# Poissons Ratio (z) = 0.27323 0.28828
#
# Static dielectric constant tensor:
#      x y z
#    x 1.952370 -0.030170 -0.017910 
#    y -0.030170 2.016210 -0.020300 
#    z -0.017910 -0.020300 2.037330 
# 
# From -- ./inp_files/85004.got.cif
#   From: 2010.05.17/outbox.cif.g08.bks.cpg/sg2_43_cif.got.tgz:85004.got - 2010.06.03 11:33:40.
