data_PCOD9055577
_publ_section_title
;
Structure prediction by ZEFSAII (Michael W. Deem and Ramdas Pophale) SiO2 
 PCOD9055577
Probable space group: P -1
;
_chemical_formula_sum "Si O2"
_cell_formula_units_Z 12
_cell_length_a 9.795834
_cell_length_b 15.305912
_cell_length_c 18.156332
_cell_angle_alpha 19.616403
_cell_angle_beta 139.727096
_cell_angle_gamma 140.566388
_cell_volume 572.433327
_symmetry_space_group_name_H-M "P -1"
_symmetry_group_IT_number 2
_symmetry_cell_setting 'triclinic'
loop_
_space_group_symop_operation_xyz
x,y,z
-x,-y,-z
loop_
_atom_site_type_symbol
_atom_site_label
_atom_site_fract_x
_atom_site_fract_y
_atom_site_fract_z
Si Si1 0.467801 0.768299 0.112301
Si Si2 0.604128 0.797233 0.656862
Si Si3 0.620796 0.842477 0.447473
Si Si4 0.075240 0.803577 0.817022
Si Si5 0.937728 0.775258 0.239270
Si Si6 0.297844 0.208685 0.016567
O O1 0.403039 0.455630 0.356462
O O2 0.705973 0.794554 0.157126
O O3 0.281339 0.815813 0.943743
O O4 0.500000 0.000000 0.000000
O O5 0.595728 0.821182 0.543913
O O6 0.472314 0.495259 0.867473
O O7 0.864719 0.858970 0.726804
O O8 0.500000 0.000000 0.500000
O O9 0.840632 0.016714 0.362595
O O10 0.437409 0.992772 0.226558
O O11 0.000000 0.500000 0.000000
O O12 0.879854 0.750790 0.147942
O O13 0.000000 0.500000 0.500000
O O14 0.126277 0.026583 0.147550
#
# Coordination Sequence:
#
# PCOD9055577 Si02
#       6
#     2   2   2   2   2   2
#     4  12  27  44  70 110 140 187 244 293 357 427
#     4  12  27  45  72 110 138 185 246 298 356 423
#     4  12  22  47  75  99 146 191 233 299 363 421
#     4  12  24  48  74 102 145 191 241 291 363 434
#     4  11  21  42  70  97 140 187 227 287 358 421
#     4  11  22  41  72  97 137 184 236 284 357 418
#
# _framework density 20.963139999999999
#
# number of rings (size 3 to 8) (size 9 to 14) (size 15 to 20)
#    0.000    0.333    8.333    0.500    0.000    5.333 
#    0.000    0.000    0.000    0.000    0.000    0.000 
#    0.000    0.000    0.000    0.000    0.000    0.000 
#
# Total GULP energy -66826.061264 kJ/mol
# GULP energy per Si atom -5568.838439 kJ/mol
# Density = 2.091543 g / cm^3
# Si number density = 20.963140 Si / 1000 Ang^3
#
#
#
# Elastic Constant Matrix: (Units=GPa)
#
#
# Indices 1 2 3 4 5 6 
#
# 1 100.1547 68.4374 62.1744 -22.0492 13.1700 32.3933
# 2 68.4374 125.2769 75.1469 -4.9447 0.9510 23.0401
# 3 62.1744 75.1469 158.3412 -9.1254 10.5814 5.3704
# 4 -22.0492 -4.9447 -9.1254 51.5295 16.6568 2.0642
# 5 13.1700 0.9510 10.5814 16.6568 36.4840 -6.6185
# 6 32.3933 23.0401 5.3704 2.0642 -6.6185 49.9846
#
#
#
# Elastic Compliance Matrix: (Units=1/GPa)
#
#
# Indices 1 2 3 4 5 6 
#
# 1 0.037208 -0.012065 -0.005017 0.023301 -0.026375 -0.022467
# 2 -0.012065 0.016240 -0.004055 -0.007267 0.008831 0.002238
# 3 -0.005017 -0.004055 0.009998 -0.001002 0.000221 0.004117
# 4 0.023301 -0.007267 -0.001002 0.038414 -0.028555 -0.017010
# 5 -0.026375 0.008831 0.000221 -0.028555 0.053530 0.021266
# 6 -0.022467 0.002238 0.004117 -0.017010 0.021266 0.036611
#
#
# Mechanical properties :
#
#
# Convention : Reuss Voigt Hill
#
# Bulk Modulus (GPa) = 47.23129 88.36557 67.79843
# Shear Modulus (GPa) = 20.71854 39.46723 30.09289
#
# Velocity S-wave (km/s) = 3.14719 4.34371 3.79293
# Velocity P-wave (km/s) = 5.98213 8.20984 7.18287
#
# Compressibility (1/GPa) = 0.02117240
#
# Stress axis : x y z
#
# Youngs Moduli (GPa) = 26.87624 61.57638 100.02467
#
# Poissons Ratio (x) = 0.74292 0.50179
# Poissons Ratio (y) = 0.32426 0.40558
# Poissons Ratio (z) = 0.13483 0.24968
#
# Static dielectric constant tensor:
#      x y z
#    x 1.758880 0.066100 -0.069000 
#    y 0.066100 1.739180 -0.016760 
#    z -0.069000 -0.016760 1.802030 
# 
# From -- ./inp_files/21662.got.cif
#   From: 2010.05.17/outbox.cif.g08.bks.cpg/sg2_11_cif.got.tgz:21662.got - 2010.06.03 11:33:40.
