data_PCOD9055018
_publ_section_title
;
Structure prediction by ZEFSAII (Michael W. Deem and Ramdas Pophale) SiO2 
 PCOD9055018
Probable space group: P -1
;
_chemical_formula_sum "Si O2"
_cell_formula_units_Z 14
_cell_length_a 11.632292
_cell_length_b 11.910361
_cell_length_c 18.328236
_cell_angle_alpha 151.174542
_cell_angle_beta 39.006103
_cell_angle_gamma 122.962171
_cell_volume 687.954860
_symmetry_space_group_name_H-M "P -1"
_symmetry_group_IT_number 2
_symmetry_cell_setting 'triclinic'
loop_
_space_group_symop_operation_xyz
x,y,z
-x,-y,-z
loop_
_atom_site_type_symbol
_atom_site_label
_atom_site_fract_x
_atom_site_fract_y
_atom_site_fract_z
Si Si1 0.806253 0.349601 0.948849
Si Si2 0.222412 0.277589 0.107191
Si Si3 0.763537 0.170851 0.563965
Si Si4 0.626907 0.784820 0.164129
Si Si5 0.422618 0.994716 0.117627
Si Si6 0.132875 0.527223 0.518454
Si Si7 0.461006 0.714375 0.412318
O O1 0.650621 0.222324 0.953631
O O2 0.763667 0.539581 0.009108
O O3 0.705508 0.537844 0.176703
O O4 0.029637 0.102149 0.696077
O O5 0.206545 0.566149 0.298013
O O6 0.025848 0.262579 0.229304
O O7 0.264438 0.238817 0.979506
O O8 0.405817 0.060513 0.939355
O O9 0.599459 0.200479 0.724555
O O10 0.638975 0.178396 0.556212
O O11 0.585377 0.051499 0.376796
O O12 0.227605 0.268584 0.372706
O O13 0.500000 0.000000 0.000000
O O14 0.322831 0.575358 0.427441
O O15 0.000000 0.500000 0.500000
#
# Coordination Sequence:
#
# PCOD9055018 Si02
#       7
#     2   2   2   2   2   2   2
#     4  11  21  39  71  93 120 167 214 261 304 368
#     4  12  24  40  65  95 128 166 206 265 311 366
#     4  11  21  40  68  91 122 168 216 254 302 371
#     4  11  27  42  56  97 140 162 200 254 327 379
#     4  12  20  37  66  97 117 156 217 267 299 355
#     4  12  21  40  67  95 118 161 220 260 304 363
#     4  11  23  42  64  93 130 164 207 264 306 379
#
# _framework density 20.350173000000002
#
# number of rings (size 3 to 8) (size 9 to 14) (size 15 to 20)
#    0.000    0.571    8.571    2.143    0.000    4.571 
#    0.000    0.714    0.000    0.000    0.000    0.000 
#    0.000    0.000    0.000    0.000    0.000    0.000 
#
# Total GULP energy -78045.893801 kJ/mol
# GULP energy per Si atom -5574.706700 kJ/mol
# Density = 2.030386 g / cm^3
# Si number density = 20.350173 Si / 1000 Ang^3
#
#
#
# Elastic Constant Matrix: (Units=GPa)
#
#
# Indices 1 2 3 4 5 6 
#
# 1 36.8188 15.4863 38.7411 3.7240 -1.2498 -18.0171
# 2 15.4863 75.6021 17.8456 -9.2393 5.7485 -17.6525
# 3 38.7411 17.8456 119.0173 -2.6269 -16.3176 -18.5020
# 4 3.7240 -9.2393 -2.6269 42.8653 -6.9009 1.8425
# 5 -1.2498 5.7485 -16.3176 -6.9009 33.2843 -2.6645
# 6 -18.0171 -17.6525 -18.5020 1.8425 -2.6645 28.2830
#
#
#
# Elastic Compliance Matrix: (Units=1/GPa)
#
#
# Indices 1 2 3 4 5 6 
#
# 1 0.057102 -0.003039 -0.015083 -0.008323 -0.004471 0.024733
# 2 -0.003039 0.016239 -0.000471 0.003106 -0.001904 0.007510
# 3 -0.015083 -0.000471 0.014457 0.003266 0.007282 0.000028
# 4 -0.008323 0.003106 0.003266 0.025981 0.005950 -0.002359
# 5 -0.004471 -0.001904 0.007282 0.005950 0.035302 0.003665
# 6 0.024733 0.007510 0.000028 -0.002359 0.003665 0.056317
#
#
# Mechanical properties :
#
#
# Convention : Reuss Voigt Hill
#
# Bulk Modulus (GPa) = 19.75803 41.73159 30.74481
# Shear Modulus (GPa) = 19.27114 31.51085 25.39099
#
# Velocity S-wave (km/s) = 3.08064 3.93928 3.53612
# Velocity P-wave (km/s) = 4.73116 6.42198 5.64029
#
# Compressibility (1/GPa) = 0.05061234
#
# Stress axis : x y z
#
# Youngs Moduli (GPa) = 17.51246 61.58194 69.16854
#
# Poissons Ratio (x) = 0.18712 1.04330
# Poissons Ratio (y) = 0.05321 0.03257
# Poissons Ratio (z) = 0.26415 0.02900
#
# Static dielectric constant tensor:
#      x y z
#    x 1.729000 0.040410 0.061880 
#    y 0.040410 1.787400 0.008980 
#    z 0.061880 0.008980 1.973030 
# 
# From -- ./inp_files/278784.got.cif
#   From: 2010.05.17/outbox.cif.g08.bks.cpg/sg2_140_cif.got.tgz:278784.got - 2010.06.03 11:33:40.
