data_PCOD9055303
_publ_section_title
;
Structure prediction by ZEFSAII (Michael W. Deem and Ramdas Pophale) SiO2 
 PCOD9055303
Probable space group: P -1
;
_chemical_formula_sum "Si O2"
_cell_formula_units_Z 16
_cell_length_a 7.203505
_cell_length_b 16.227037
_cell_length_c 12.271338
_cell_angle_alpha 136.087756
_cell_angle_beta 127.568345
_cell_angle_gamma 39.735657
_cell_volume 630.910886
_symmetry_space_group_name_H-M "P -1"
_symmetry_group_IT_number 2
_symmetry_cell_setting 'triclinic'
loop_
_space_group_symop_operation_xyz
x,y,z
-x,-y,-z
loop_
_atom_site_type_symbol
_atom_site_label
_atom_site_fract_x
_atom_site_fract_y
_atom_site_fract_z
Si Si1 0.044506 0.945098 0.797665
Si Si2 0.662397 0.744109 0.562587
Si Si3 0.280328 0.551911 0.715565
Si Si4 0.392679 0.897811 0.383641
Si Si5 0.584068 0.002486 0.874698
Si Si6 0.452051 0.400621 0.316692
Si Si7 0.440472 0.368074 0.967962
Si Si8 0.891715 0.663432 0.981541
O O1 0.930893 0.994532 0.681661
O O2 0.766925 0.991699 0.820870
O O3 0.279616 0.769081 0.728584
O O4 0.204150 0.010474 0.968437
O O5 0.638077 0.610388 0.410975
O O6 0.496246 0.842669 0.490683
O O7 0.551570 0.870765 0.734836
O O8 0.007803 0.648704 0.627468
O O9 0.552680 0.532339 0.736374
O O10 0.271581 0.644736 0.903357
O O11 0.511123 0.746526 0.215905
O O12 0.500000 0.000000 0.500000
O O13 0.270838 0.162201 0.922517
O O14 0.500000 0.500000 0.500000
O O15 0.175204 0.398058 0.208739
O O16 0.222267 0.538400 0.012408
O O17 0.289157 0.334813 0.977220
#
# Coordination Sequence:
#
# PCOD9055303 Si02
#       8
#     2   2   2   2   2   2   2   2
#     4  10  19  33  60  86 113 146 189 245 291 330
#     4  11  22  36  62  84 117 150 199 240 283 341
#     4  10  22  41  56  85 113 165 189 228 297 353
#     4  12  21  32  58  92 114 141 193 253 280 323
#     4  10  17  36  57  82 112 154 193 231 287 346
#     4  10  20  35  62  88 115 142 194 243 286 339
#     4  10  20  36  54  81 124 148 190 232 291 349
#     4   9  19  32  57  84 110 157 183 237 293 335
#
# _framework density 25.360158999999999
#
# number of rings (size 3 to 8) (size 9 to 14) (size 15 to 20)
#    0.000    1.750    3.750    0.750    3.500    0.500 
#    2.250    0.625    0.000    1.500    0.000    0.000 
#    0.000    0.000    0.000    0.000    0.000    0.000 
#
# Total GULP energy -89149.289655 kJ/mol
# GULP energy per Si atom -5571.830603 kJ/mol
# Density = 2.530244 g / cm^3
# Si number density = 25.360159 Si / 1000 Ang^3
#
#
#
# Elastic Constant Matrix: (Units=GPa)
#
#
# Indices 1 2 3 4 5 6 
#
# 1 47.1212 31.8323 25.2647 4.2439 16.1287 -1.5112
# 2 31.8323 151.3961 68.3888 4.0465 32.2179 10.9118
# 3 25.2647 68.3888 199.7267 9.0896 22.1032 -9.7181
# 4 4.2439 4.0465 9.0896 52.7156 2.4611 -3.6060
# 5 16.1287 32.2179 22.1032 2.4611 14.0223 -4.6434
# 6 -1.5112 10.9118 -9.7181 -3.6060 -4.6434 24.9211
#
#
#
# Elastic Compliance Matrix: (Units=1/GPa)
#
#
# Indices 1 2 3 4 5 6 
#
# 1 0.037781 0.006039 -0.000739 -0.001403 -0.059897 -0.012004
# 2 0.006039 0.019125 -0.002300 -0.000356 -0.053465 -0.018918
# 3 -0.000739 -0.002300 0.006368 -0.000534 -0.002871 0.002833
# 4 -0.001403 -0.000356 -0.000534 0.019357 0.000806 0.002814
# 5 -0.059897 -0.053465 -0.002871 0.000806 0.291650 0.073117
# 6 -0.012004 -0.018918 0.002833 0.002814 0.073117 0.062817
#
#
# Mechanical properties :
#
#
# Convention : Reuss Voigt Hill
#
# Bulk Modulus (GPa) = 14.43530 72.13508 43.28519
# Shear Modulus (GPa) = 11.00862 36.51568 23.76215
#
# Velocity S-wave (km/s) = 2.08575 3.79870 3.06435
# Velocity P-wave (km/s) = 3.39189 6.90986 5.44293
#
# Compressibility (1/GPa) = 0.06927464
#
# Stress axis : x y z
#
# Youngs Moduli (GPa) = 26.46811 52.28714 157.04114
#
# Poissons Ratio (x) = -0.31576 0.11600
# Poissons Ratio (y) = -0.15984 0.36120
# Poissons Ratio (z) = 0.01955 0.12026
#
# Static dielectric constant tensor:
#      x y z
#    x 2.356720 0.175070 -0.437090 
#    y 0.175070 2.126930 -0.384660 
#    z -0.437090 -0.384660 2.861620 
# 
# From -- ./inp_files/523823.got.cif
#   From: 2010.05.17/outbox.cif.g08.bks.cpg/sg2_262_cif.got.tgz:523823.got - 2010.06.03 11:33:40.
