data_PCOD9055556
_publ_section_title
;
Structure prediction by ZEFSAII (Michael W. Deem and Ramdas Pophale) SiO2 
 PCOD9055556
Probable space group: P -1
;
_chemical_formula_sum "Si O2"
_cell_formula_units_Z 14
_cell_length_a 21.938371
_cell_length_b 8.534787
_cell_length_c 14.074567
_cell_angle_alpha 43.841564
_cell_angle_beta 159.114700
_cell_angle_gamma 135.510893
_cell_volume 642.363376
_symmetry_space_group_name_H-M "P -1"
_symmetry_group_IT_number 2
_symmetry_cell_setting 'triclinic'
loop_
_space_group_symop_operation_xyz
x,y,z
-x,-y,-z
loop_
_atom_site_type_symbol
_atom_site_label
_atom_site_fract_x
_atom_site_fract_y
_atom_site_fract_z
Si Si1 0.848898 0.541315 0.188170
Si Si2 0.146695 0.424341 0.181411
Si Si3 0.651149 0.561541 0.269763
Si Si4 0.519327 0.277695 0.391253
Si Si5 0.293300 0.002626 0.582054
Si Si6 0.939283 0.319198 0.734979
Si Si7 0.668459 0.092140 0.112076
O O1 0.000000 0.500000 0.500000
O O2 0.947084 0.706458 0.180526
O O3 0.805507 0.293108 0.182279
O O4 0.669846 0.635135 0.913777
O O5 0.326456 0.602442 0.366007
O O6 0.183540 0.185417 0.380835
O O7 0.000000 0.500000 0.000000
O O8 0.064038 0.350710 0.991860
O O9 0.600469 0.387123 0.360989
O O10 0.829475 0.524589 0.496303
O O11 0.671149 0.827380 0.212090
O O12 0.500000 0.500000 0.000000
O O13 0.500000 0.000000 0.500000
O O14 0.318881 0.852893 0.779077
O O15 0.217278 0.887328 0.425214
O O16 0.484944 0.132601 0.787452
#
# Coordination Sequence:
#
# PCOD9055556 Si02
#       7
#     2   2   2   2   2   2   2
#     4  12  26  47  73 111 146 191 248 313 366 433
#     4  12  25  46  70 101 147 193 240 291 373 444
#     4  12  24  47  75 107 141 195 250 299 368 448
#     4  12  28  48  75 108 156 194 242 315 379 429
#     4  11  21  42  70 102 135 193 236 293 357 447
#     4  12  26  41  74 107 143 188 245 296 365 452
#     4  11  21  43  77  96 143 190 242 297 367 434
#
# _framework density 21.794516000000002
#
# number of rings (size 3 to 8) (size 9 to 14) (size 15 to 20)
#    0.000    0.286    7.143    2.143    2.000    4.571 
#    0.000    0.000    0.000    0.000    0.000    0.000 
#    0.000    0.000    0.000    0.000    0.000    0.000 
#
# Total GULP energy -77950.940827 kJ/mol
# GULP energy per Si atom -5567.924345 kJ/mol
# Density = 2.174491 g / cm^3
# Si number density = 21.794516 Si / 1000 Ang^3
#
#
#
# Elastic Constant Matrix: (Units=GPa)
#
#
# Indices 1 2 3 4 5 6 
#
# 1 47.2267 18.0088 41.4774 7.7148 9.6363 -15.7503
# 2 18.0088 129.4846 61.5520 1.6361 -3.1355 -17.2834
# 3 41.4774 61.5520 165.1458 22.0425 0.7035 -21.0815
# 4 7.7148 1.6361 22.0425 48.2129 -16.4949 2.8587
# 5 9.6363 -3.1355 0.7035 -16.4949 50.5215 5.2458
# 6 -15.7503 -17.2834 -21.0815 2.8587 5.2458 28.9653
#
#
#
# Elastic Compliance Matrix: (Units=1/GPa)
#
#
# Indices 1 2 3 4 5 6 
#
# 1 0.035747 -0.000106 -0.005471 -0.008166 -0.011310 0.018247
# 2 -0.000106 0.009763 -0.003410 0.001340 0.000799 0.003009
# 3 -0.005471 -0.003410 0.009518 -0.003773 -0.000785 0.002432
# 4 -0.008166 0.001340 -0.003773 0.028582 0.012211 -0.011420
# 5 -0.011310 0.000799 -0.000785 0.012211 0.027285 -0.012391
# 6 0.018247 0.003009 0.002432 -0.011420 -0.012391 0.051383
#
#
# Mechanical properties :
#
#
# Convention : Reuss Voigt Hill
#
# Bulk Modulus (GPa) = 26.98840 64.88148 45.93494
# Shear Modulus (GPa) = 25.96013 40.26122 33.11068
#
# Velocity S-wave (km/s) = 3.45502 4.30270 3.90195
# Velocity P-wave (km/s) = 5.32224 7.38367 6.43602
#
# Compressibility (1/GPa) = 0.03705295
#
# Stress axis : x y z
#
# Youngs Moduli (GPa) = 27.97426 102.42990 105.06671
#
# Poissons Ratio (x) = 0.01086 0.57483
# Poissons Ratio (y) = 0.00297 0.35830
# Poissons Ratio (z) = 0.15305 0.34930
#
# Static dielectric constant tensor:
#      x y z
#    x 1.829820 0.032460 -0.001760 
#    y 0.032460 1.431760 -0.136390 
#    z -0.001760 -0.136390 1.861040 
# 
# From -- ./inp_files/542494.got.cif
#   From: 2010.05.17/outbox.cif.g08.bks.cpg/sg2_272_cif.got.tgz:542494.got - 2010.06.03 11:33:40.
