data_PCOD9055899
_publ_section_title
;
Structure prediction by ZEFSAII (Michael W. Deem and Ramdas Pophale) SiO2 
 PCOD9055899
Probable space group: P -1
;
_chemical_formula_sum "Si O2"
_cell_formula_units_Z 14
_cell_length_a 9.492279
_cell_length_b 9.329185
_cell_length_c 21.477564
_cell_angle_alpha 129.032173
_cell_angle_beta 149.430334
_cell_angle_gamma 50.327345
_cell_volume 728.790934
_symmetry_space_group_name_H-M "P -1"
_symmetry_group_IT_number 2
_symmetry_cell_setting 'triclinic'
loop_
_space_group_symop_operation_xyz
x,y,z
-x,-y,-z
loop_
_atom_site_type_symbol
_atom_site_label
_atom_site_fract_x
_atom_site_fract_y
_atom_site_fract_z
Si Si1 0.176974 0.481319 0.997910
Si Si2 0.748394 0.191834 0.298267
Si Si3 0.224405 0.517621 0.714830
Si Si4 0.807410 0.932682 0.130485
Si Si5 0.182685 0.096917 0.549994
Si Si6 0.129931 0.180826 0.113573
Si Si7 0.810237 0.837198 0.722008
O O1 0.504065 0.464932 0.136053
O O2 0.134678 0.289594 0.898929
O O3 0.000000 0.500000 0.000000
O O4 0.064496 0.650893 0.954376
O O5 0.730904 0.391557 0.310645
O O6 0.452039 0.170678 0.209796
O O7 0.000577 0.149915 0.432486
O O8 0.813984 0.039573 0.226365
O O9 0.220470 0.297762 0.646699
O O10 0.948405 0.655784 0.681085
O O11 0.024835 0.999738 0.186093
O O12 0.500000 0.000000 0.000000
O O13 0.481702 0.941434 0.612793
O O14 0.000000 0.000000 0.500000
O O15 0.135585 0.214196 0.198916
O O16 0.000000 0.000000 0.000000
#
# Coordination Sequence:
#
# PCOD9055899 Si02
#       7
#     2   2   2   2   2   2   2
#     4  12  22  40  71 100 134 177 217 278 351 404
#     4  11  24  45  68  97 135 181 225 277 333 410
#     4  11  25  45  70  98 133 178 232 278 334 411
#     4  11  21  44  70 100 137 167 224 285 338 410
#     4  12  26  47  69  95 139 184 230 282 337 390
#     4  12  24  40  67 101 139 176 221 280 351 401
#     4  11  25  45  68 100 138 179 225 286 334 403
#
# _framework density 19.209897999999999
#
# number of rings (size 3 to 8) (size 9 to 14) (size 15 to 20)
#    0.000    0.571    5.714    3.857    0.000    4.571 
#    2.571    0.000    0.000    0.000    0.000    0.000 
#    0.000    0.000    0.000    0.000    0.000    0.000 
#
# Total GULP energy -78241.225373 kJ/mol
# GULP energy per Si atom -5588.658955 kJ/mol
# Density = 1.916618 g / cm^3
# Si number density = 19.209898 Si / 1000 Ang^3
#
#
#
# Elastic Constant Matrix: (Units=GPa)
#
#
# Indices 1 2 3 4 5 6 
#
# 1 116.5063 43.5586 42.2841 -6.5609 12.5899 12.8259
# 2 43.5586 124.6247 32.6920 1.2073 8.4280 7.2374
# 3 42.2841 32.6920 76.8694 -17.2431 9.8107 0.1939
# 4 -6.5609 1.2073 -17.2431 49.2440 -0.5058 0.3708
# 5 12.5899 8.4280 9.8107 -0.5058 38.6366 -8.7819
# 6 12.8259 7.2374 0.1939 0.3708 -8.7819 33.1356
#
#
#
# Elastic Compliance Matrix: (Units=1/GPa)
#
#
# Indices 1 2 3 4 5 6 
#
# 1 0.012331 -0.002379 -0.005378 -0.000177 -0.003294 -0.005093
# 2 -0.002379 0.009837 -0.003123 -0.001651 -0.000926 -0.001436
# 3 -0.005378 -0.003123 0.018849 0.005926 -0.001795 0.002112
# 4 -0.000177 -0.001651 0.005926 0.022391 -0.000810 -0.000071
# 5 -0.003294 -0.000926 -0.001795 -0.000810 0.029734 0.009377
# 6 -0.005093 -0.001436 0.002112 -0.000071 0.009377 0.034938
#
#
# Mechanical properties :
#
#
# Convention : Reuss Voigt Hill
#
# Bulk Modulus (GPa) = 51.93160 61.67444 56.80302
# Shear Modulus (GPa) = 31.99831 37.50097 34.74964
#
# Velocity S-wave (km/s) = 4.08575 4.42313 4.25778
# Velocity P-wave (km/s) = 7.02497 7.63287 7.33522
#
# Compressibility (1/GPa) = 0.01925610
#
# Stress axis : x y z
#
# Youngs Moduli (GPa) = 81.09615 101.65776 53.05410
#
# Poissons Ratio (x) = 0.24184 0.28532
# Poissons Ratio (y) = 0.19293 0.16571
# Poissons Ratio (z) = 0.43612 0.31752
#
# Static dielectric constant tensor:
#      x y z
#    x 1.697120 -0.003150 0.009050 
#    y -0.003150 1.722380 -0.012550 
#    z 0.009050 -0.012550 1.653350 
# 
# From -- ./inp_files/157866.got.cif
#   From: 2010.05.17/outbox.cif.g08.bks.cpg/sg2_79_cif.got.tgz:157866.got - 2010.06.03 11:33:40.
