data_PCOD9055611
_publ_section_title
;
Structure prediction by ZEFSAII (Michael W. Deem and Ramdas Pophale) SiO2 
 PCOD9055611
Probable space group: P -1
;
_chemical_formula_sum "Si O2"
_cell_formula_units_Z 16
_cell_length_a 9.890075
_cell_length_b 18.357401
_cell_length_c 17.141358
_cell_angle_alpha 36.342460
_cell_angle_beta 149.235660
_cell_angle_gamma 153.271751
_cell_volume 706.112540
_symmetry_space_group_name_H-M "P -1"
_symmetry_group_IT_number 2
_symmetry_cell_setting 'triclinic'
loop_
_space_group_symop_operation_xyz
x,y,z
-x,-y,-z
loop_
_atom_site_type_symbol
_atom_site_label
_atom_site_fract_x
_atom_site_fract_y
_atom_site_fract_z
Si Si1 0.823681 0.886125 0.085408
Si Si2 0.286478 0.330209 0.199648
Si Si3 0.262014 0.604629 0.941223
Si Si4 0.588561 0.573103 0.653142
Si Si5 0.718215 0.339606 0.268914
Si Si6 0.452869 0.999579 0.885322
Si Si7 0.986379 0.786809 0.391449
Si Si8 0.467189 0.704230 0.339774
O O1 0.066278 0.896770 0.262007
O O2 0.540657 0.705460 0.062382
O O3 0.622943 0.935189 0.984933
O O4 0.000000 0.000000 0.000000
O O5 0.483959 0.398075 0.321617
O O6 0.512209 0.357697 0.213999
O O7 0.963945 0.137825 0.217915
O O8 0.151959 0.428030 0.033105
O O9 0.423058 0.693075 0.860849
O O10 0.937438 0.595511 0.805552
O O11 0.264543 0.394082 0.615264
O O12 0.635609 0.694517 0.507940
O O13 0.731616 0.206237 0.426414
O O14 0.118019 0.517674 0.306738
O O15 0.616767 0.179739 0.786401
O O16 0.500000 0.000000 0.000000
O O17 0.741845 0.781253 0.337951
#
# Coordination Sequence:
#
# PCOD9055611 Si02
#       8
#     2   2   2   2   2   2   2   2
#     4  12  28  44  70 101 134 180 225 279 341 398
#     4  12  26  41  67 105 135 176 226 282 332 390
#     4  12  22  45  69  96 132 175 233 273 321 404
#     4  11  21  42  71  98 127 180 228 273 331 400
#     4  11  25  42  74 102 132 178 232 276 326 400
#     4  12  26  43  66  96 141 179 216 277 347 393
#     4  11  21  47  70  97 134 180 224 275 339 398
#     4  11  23  42  72  98 138 178 224 274 341 399
#
# _framework density 22.659276999999999
#
# number of rings (size 3 to 8) (size 9 to 14) (size 15 to 20)
#    0.000    0.500    6.250    3.000    3.500    3.500 
#    2.250    1.250    0.000    0.000    0.000    0.000 
#    0.000    0.000    0.000    0.000    0.000    0.000 
#
# Total GULP energy -89537.602014 kJ/mol
# GULP energy per Si atom -5596.100126 kJ/mol
# Density = 2.260770 g / cm^3
# Si number density = 22.659277 Si / 1000 Ang^3
#
#
#
# Elastic Constant Matrix: (Units=GPa)
#
#
# Indices 1 2 3 4 5 6 
#
# 1 143.3901 4.9764 33.3131 -2.7883 -25.1817 -8.4349
# 2 4.9764 39.9604 17.7814 -9.3471 -4.1184 -11.6176
# 3 33.3131 17.7814 136.0013 -19.8219 -26.9616 -4.5115
# 4 -2.7883 -9.3471 -19.8219 33.6640 -0.5475 -9.0073
# 5 -25.1817 -4.1184 -26.9616 -0.5475 41.2488 -2.3575
# 6 -8.4349 -11.6176 -4.5115 -9.0073 -2.3575 26.6030
#
#
#
# Elastic Compliance Matrix: (Units=1/GPa)
#
#
# Indices 1 2 3 4 5 6 
#
# 1 0.008259 0.001482 -0.000847 0.001790 0.004898 0.004163
# 2 0.001482 0.035655 -0.001062 0.015228 0.005200 0.021477
# 3 -0.000847 -0.001062 0.010030 0.006652 0.006237 0.003774
# 4 0.001790 0.015228 0.006652 0.044633 0.008940 0.024250
# 5 0.004898 0.005200 0.006237 0.008940 0.032565 0.010794
# 6 0.004163 0.021477 0.003774 0.024250 0.010794 0.058096
#
#
# Mechanical properties :
#
#
# Convention : Reuss Voigt Hill
#
# Bulk Modulus (GPa) = 18.83549 47.94372 33.38961
# Shear Modulus (GPa) = 24.06300 37.85523 30.95911
#
# Velocity S-wave (km/s) = 3.26229 4.09177 3.70034
# Velocity P-wave (km/s) = 4.74559 6.59757 5.74667
#
# Compressibility (1/GPa) = 0.05309126
#
# Stress axis : x y z
#
# Youngs Moduli (GPa) = 121.07778 28.04678 99.69751
#
# Poissons Ratio (x) = -0.04157 0.08442
# Poissons Ratio (y) = -0.17944 0.10586
# Poissons Ratio (z) = 0.10252 0.02978
#
# Static dielectric constant tensor:
#      x y z
#    x 1.792100 -0.013520 -0.016180 
#    y -0.013520 1.869720 -0.004160 
#    z -0.016180 -0.004160 1.876620 
# 
# From -- ./inp_files/189911.got.cif
#   From: 2010.05.17/outbox.cif.g08.bks.cpg/sg2_95_cif.got.tgz:189911.got - 2010.06.03 11:33:40.
