data_PCOD9055923
_publ_section_title
;
Structure prediction by ZEFSAII (Michael W. Deem and Ramdas Pophale) SiO2 
 PCOD9055923
Probable space group: P -1
;
_chemical_formula_sum "Si O2"
_cell_formula_units_Z 16
_cell_length_a 12.312907
_cell_length_b 31.267081
_cell_length_c 25.132737
_cell_angle_alpha 170.661851
_cell_angle_beta 151.970159
_cell_angle_gamma 27.989449
_cell_volume 728.557380
_symmetry_space_group_name_H-M "P -1"
_symmetry_group_IT_number 2
_symmetry_cell_setting 'triclinic'
loop_
_space_group_symop_operation_xyz
x,y,z
-x,-y,-z
loop_
_atom_site_type_symbol
_atom_site_label
_atom_site_fract_x
_atom_site_fract_y
_atom_site_fract_z
Si Si1 0.894421 0.576854 0.918800
Si Si2 0.860631 0.020376 0.195297
Si Si3 0.163516 0.694793 0.836471
Si Si4 0.529325 0.808796 0.613601
Si Si5 0.495631 0.761689 0.782450
Si Si6 0.004218 0.794109 0.343421
Si Si7 0.686418 0.277250 0.780915
Si Si8 0.568202 0.023113 0.784382
O O1 0.924007 0.259925 0.553504
O O2 0.626151 0.716526 0.966772
O O3 0.980615 0.748801 0.214692
O O4 0.074767 0.610119 0.990740
O O5 0.680929 0.195127 0.290684
O O6 0.738064 0.816660 0.927738
O O7 0.049950 0.856594 0.037051
O O8 0.393678 0.497176 0.712989
O O9 0.000000 0.500000 0.500000
O O10 0.236120 0.885860 0.056758
O O11 0.252742 0.872593 0.561354
O O12 0.652153 0.885146 0.706615
O O13 0.584781 0.990469 0.909022
O O14 0.500000 0.500000 0.500000
O O15 0.783683 0.012908 0.532507
O O16 0.000000 0.500000 0.000000
O O17 0.561154 0.176867 0.551757
O O18 0.500000 0.500000 0.000000
#
# Coordination Sequence:
#
# PCOD9055923 Si02
#       8
#     2   2   2   2   2   2   2   2
#     4  11  21  44  71  96 137 177 223 275 351 414
#     4  11  25  46  63 101 137 177 232 290 344 407
#     4  12  27  45  67  98 142 185 228 295 348 395
#     4  12  23  45  69 101 133 184 235 275 349 419
#     4  11  25  42  71  95 132 184 235 284 342 412
#     4  11  22  41  69 102 134 181 228 278 346 426
#     4  11  22  43  70 105 140 179 224 285 353 412
#     4  11  23  44  71  99 139 184 229 282 345 420
#
# _framework density 21.961206000000001
#
# number of rings (size 3 to 8) (size 9 to 14) (size 15 to 20)
#    0.000    0.750    3.750    5.250    3.500    1.500 
#    4.500    1.250    0.000    0.000    0.000    0.000 
#    0.000    0.000    0.000    0.000    0.000    0.000 
#
# Total GULP energy -89393.678215 kJ/mol
# GULP energy per Si atom -5587.104888 kJ/mol
# Density = 2.191122 g / cm^3
# Si number density = 21.961206 Si / 1000 Ang^3
#
#
#
# Elastic Constant Matrix: (Units=GPa)
#
#
# Indices 1 2 3 4 5 6 
#
# 1 120.9481 11.2979 41.9851 15.5571 11.6499 -2.0413
# 2 11.2979 48.9507 13.6656 11.5975 -7.9399 0.6839
# 3 41.9851 13.6656 99.1794 15.6737 -9.1465 -9.9229
# 4 15.5571 11.5975 15.6737 38.0905 -1.4034 -2.3261
# 5 11.6499 -7.9399 -9.1465 -1.4034 51.6532 10.1443
# 6 -2.0413 0.6839 -9.9229 -2.3261 10.1443 33.7335
#
#
#
# Elastic Compliance Matrix: (Units=1/GPa)
#
#
# Indices 1 2 3 4 5 6 
#
# 1 0.010464 -0.001267 -0.004181 -0.002275 -0.003416 0.000299
# 2 -0.001267 0.023249 -0.001634 -0.005904 0.003924 -0.002616
# 3 -0.004181 -0.001634 0.013026 -0.002903 0.002391 0.002693
# 4 -0.002275 -0.005904 -0.002903 0.030242 -0.000345 0.001317
# 5 -0.003416 0.003924 0.002391 -0.000345 0.022393 -0.006341
# 6 0.000299 -0.002616 0.002693 0.001317 -0.006341 0.032505
#
#
# Mechanical properties :
#
#
# Convention : Reuss Voigt Hill
#
# Bulk Modulus (GPa) = 30.69718 44.77502 37.73610
# Shear Modulus (GPa) = 31.86709 38.17076 35.01892
#
# Velocity S-wave (km/s) = 3.81341 4.17357 3.99755
# Velocity P-wave (km/s) = 5.77908 6.60738 6.20706
#
# Compressibility (1/GPa) = 0.03257628
#
# Stress axis : x y z
#
# Youngs Moduli (GPa) = 95.56228 43.01250 76.76809
#
# Poissons Ratio (x) = 0.05451 0.32094
# Poissons Ratio (y) = 0.12110 0.12542
# Poissons Ratio (z) = 0.39952 0.07027
#
# Static dielectric constant tensor:
#      x y z
#    x 1.823520 0.034150 0.015820 
#    y 0.034150 1.869220 -0.030080 
#    z 0.015820 -0.030080 1.853550 
# 
# From -- ./inp_files/519519.got.cif
#   From: 2010.05.17/outbox.cif.g08.bks.cpg/sg2_260_cif.got.tgz:519519.got - 2010.06.03 11:33:40.
