data_PCOD9055114
_publ_section_title
;
Structure prediction by ZEFSAII (Michael W. Deem and Ramdas Pophale) SiO2 
 PCOD9055114
Probable space group: P -1
;
_chemical_formula_sum "Si O2"
_cell_formula_units_Z 14
_cell_length_a 6.696707
_cell_length_b 13.434535
_cell_length_c 17.617656
_cell_angle_alpha 26.793684
_cell_angle_beta 50.109486
_cell_angle_gamma 57.736292
_cell_volume 544.773655
_symmetry_space_group_name_H-M "P -1"
_symmetry_group_IT_number 2
_symmetry_cell_setting 'triclinic'
loop_
_space_group_symop_operation_xyz
x,y,z
-x,-y,-z
loop_
_atom_site_type_symbol
_atom_site_label
_atom_site_fract_x
_atom_site_fract_y
_atom_site_fract_z
Si Si1 0.124672 0.400204 0.140157
Si Si2 0.243266 0.755549 0.416315
Si Si3 0.302278 0.979955 0.956459
Si Si4 0.597081 0.231687 0.454407
Si Si5 0.630124 0.288448 0.017491
Si Si6 0.141737 0.897013 0.779181
Si Si7 0.166048 0.570334 0.336938
O O1 0.245209 0.473780 0.144192
O O2 0.846926 0.275879 0.310219
O O3 0.898535 0.361166 0.056399
O O4 0.339459 0.274848 0.131771
O O5 0.323297 0.781576 0.467216
O O6 0.056719 0.525131 0.605685
O O7 0.067548 0.948184 0.302024
O O8 0.503248 0.809072 0.263089
O O9 0.381355 0.780346 0.018503
O O10 0.277793 0.830952 0.139881
O O11 0.000000 0.000000 0.000000
O O12 0.408475 0.426643 0.367100
O O13 0.424737 0.017621 0.608328
O O14 0.818464 0.125943 0.123413
O O15 0.000000 0.500000 0.500000
#
# Coordination Sequence:
#
# PCOD9055114 Si02
#       7
#     2   2   2   2   2   2   2
#     4   9  19  39  68  90 136 172 201 274 319 369
#     4  11  23  42  68  94 131 169 210 268 319 377
#     4  12  25  44  70  93 127 175 216 263 324 385
#     4  11  21  40  67  94 131 169 211 263 320 384
#     4   9  20  42  65  95 131 166 219 261 319 385
#     4   9  20  40  64  94 130 164 216 255 315 387
#     4  11  27  43  64  99 128 166 225 266 316 383
#
# _framework density 25.698747000000001
#
# number of rings (size 3 to 8) (size 9 to 14) (size 15 to 20)
#    0.857    0.857    1.429    2.571    2.000    4.571 
#    0.000    3.571    0.000    0.000    0.000    0.000 
#    0.000    0.000    0.000    0.000    0.000    0.000 
#
# Total GULP energy -78154.480066 kJ/mol
# GULP energy per Si atom -5582.462862 kJ/mol
# Density = 2.564026 g / cm^3
# Si number density = 25.698747 Si / 1000 Ang^3
#
#
#
# Elastic Constant Matrix: (Units=GPa)
#
#
# Indices 1 2 3 4 5 6 
#
# 1 102.6171 19.4308 42.5736 2.7738 -5.2019 -20.7695
# 2 19.4308 69.2969 6.2166 13.7685 0.0936 -16.8028
# 3 42.5736 6.2166 143.1054 8.2691 -25.6604 -16.7228
# 4 2.7738 13.7685 8.2691 39.1936 -8.3184 -1.6728
# 5 -5.2019 0.0936 -25.6604 -8.3184 51.0152 -4.3987
# 6 -20.7695 -16.8028 -16.7228 -1.6728 -4.3987 46.4033
#
#
#
# Elastic Compliance Matrix: (Units=1/GPa)
#
#
# Indices 1 2 3 4 5 6 
#
# 1 0.012203 -0.002463 -0.003147 0.000835 0.000102 0.003476
# 2 -0.002463 0.017526 0.000873 -0.006018 -0.000368 0.005307
# 3 -0.003147 0.000873 0.009002 -0.000971 0.004264 0.002521
# 4 0.000835 -0.006018 -0.000971 0.028638 0.004215 -0.000723
# 5 0.000102 -0.000368 0.004264 0.004215 0.022769 0.003759
# 6 0.003476 0.005307 0.002521 -0.000723 0.003759 0.026266
#
#
# Mechanical properties :
#
#
# Convention : Reuss Voigt Hill
#
# Bulk Modulus (GPa) = 34.17991 50.16236 42.17113
# Shear Modulus (GPa) = 36.86498 43.77564 40.32031
#
# Velocity S-wave (km/s) = 3.79159 4.13172 3.96531
# Velocity P-wave (km/s) = 5.70064 6.50563 6.11640
#
# Compressibility (1/GPa) = 0.02925695
#
# Stress axis : x y z
#
# Youngs Moduli (GPa) = 81.94652 57.05836 111.09235
#
# Poissons Ratio (x) = 0.14052 0.34964
# Poissons Ratio (y) = 0.20181 -0.09701
# Poissons Ratio (z) = 0.25791 -0.04983
#
# Static dielectric constant tensor:
#      x y z
#    x 2.149760 0.086940 0.069230 
#    y 0.086940 1.983200 -0.023100 
#    z 0.069230 -0.023100 2.205530 
# 
# From -- ./inp_files/289266.got.cif
#   From: 2010.05.17/outbox.cif.g08.bks.cpg/sg2_145_cif.got.tgz:289266.got - 2010.06.03 11:33:40.
