data_PCOD9055765
_publ_section_title
;
Structure prediction by ZEFSAII (Michael W. Deem and Ramdas Pophale) SiO2 
 PCOD9055765
Probable space group: P -1
;
_chemical_formula_sum "Si O2"
_cell_formula_units_Z 16
_cell_length_a 8.428915
_cell_length_b 13.139255
_cell_length_c 9.617526
_cell_angle_alpha 122.130219
_cell_angle_beta 70.422563
_cell_angle_gamma 120.135649
_cell_volume 776.710975
_symmetry_space_group_name_H-M "P -1"
_symmetry_group_IT_number 2
_symmetry_cell_setting 'triclinic'
loop_
_space_group_symop_operation_xyz
x,y,z
-x,-y,-z
loop_
_atom_site_type_symbol
_atom_site_label
_atom_site_fract_x
_atom_site_fract_y
_atom_site_fract_z
Si Si1 0.685006 0.208362 0.290147
Si Si2 0.957081 0.002059 0.178854
Si Si3 0.992965 0.725522 0.537618
Si Si4 0.534431 0.959002 0.305454
Si Si5 0.968411 0.240549 0.988347
Si Si6 0.679079 0.512105 0.870017
Si Si7 0.643108 0.467247 0.523801
Si Si8 0.180872 0.695391 0.192419
O O1 0.808020 0.201835 0.121230
O O2 0.623250 0.325619 0.375289
O O3 0.824035 0.251191 0.411593
O O4 0.531834 0.068100 0.275990
O O5 0.738534 0.961588 0.234985
O O6 0.053888 0.150776 0.317194
O O7 0.012931 0.893614 0.156237
O O8 0.000000 0.000000 0.000000
O O9 0.840733 0.584031 0.519351
O O10 0.049259 0.725460 0.362097
O O11 0.376387 0.819074 0.217914
O O12 0.500000 0.000000 0.500000
O O13 0.162799 0.339910 0.067883
O O14 0.914793 0.315408 0.935372
O O15 0.619664 0.466609 0.696465
O O16 0.773648 0.423021 0.848054
O O17 0.500000 0.500000 0.000000
O O18 0.500000 0.500000 0.500000
#
# Coordination Sequence:
#
# PCOD9055765 Si02
#       8
#     2   2   2   2   2   2   2   2
#     4  11  22  45  70  94 132 182 222 270 343 397
#     4  11  21  43  70  97 132 178 226 275 335 393
#     4  11  22  45  70  94 132 182 222 270 343 397
#     4  11  21  43  70  97 132 178 226 275 335 393
#     4  12  26  43  69 100 136 180 221 278 337 405
#     4  12  26  46  66  98 137 174 221 281 342 395
#     4  12  26  43  72  98 129 175 230 282 330 407
#     4  12  26  43  69 100 136 180 221 278 337 405
#
# _framework density 20.599682999999999
#
# number of rings (size 3 to 8) (size 9 to 14) (size 15 to 20)
#    0.000    0.500    7.500    2.250    3.500    2.000 
#    0.000    0.000    0.000    0.000    0.000    0.000 
#    0.000    0.000    0.000    0.000    0.000    0.000 
#
# Total GULP energy -89459.683595 kJ/mol
# GULP energy per Si atom -5591.230225 kJ/mol
# Density = 2.055280 g / cm^3
# Si number density = 20.599683 Si / 1000 Ang^3
#
#
#
# Elastic Constant Matrix: (Units=GPa)
#
#
# Indices 1 2 3 4 5 6 
#
# 1 53.4144 20.6793 25.2748 -4.8126 -9.9987 -20.0851
# 2 20.6793 123.8701 37.1589 1.6379 -21.4176 -14.3743
# 3 25.2748 37.1589 93.0009 -17.4941 -28.3135 1.9211
# 4 -4.8126 1.6379 -17.4941 35.7297 -2.0862 -14.8832
# 5 -9.9987 -21.4176 -28.3135 -2.0862 32.8475 1.1219
# 6 -20.0851 -14.3743 1.9211 -14.8832 1.1219 35.4938
#
#
#
# Elastic Compliance Matrix: (Units=1/GPa)
#
#
# Indices 1 2 3 4 5 6 
#
# 1 0.031958 -0.000389 -0.005383 0.011500 0.004783 0.022889
# 2 -0.000389 0.010115 -0.002844 -0.000066 0.003888 0.003879
# 3 -0.005383 -0.002844 0.019215 0.008786 0.013696 -0.001987
# 4 0.011500 -0.000066 0.008786 0.044749 0.013041 0.024358
# 5 0.004783 0.003888 0.013696 0.013041 0.046811 0.007528
# 6 0.022889 0.003879 -0.001987 0.024358 0.007528 0.052780
#
#
# Mechanical properties :
#
#
# Convention : Reuss Voigt Hill
#
# Bulk Modulus (GPa) = 22.69947 48.50128 35.60037
# Shear Modulus (GPa) = 21.04860 33.29237 27.17048
#
# Velocity S-wave (km/s) = 3.20002 4.02451 3.63571
# Velocity P-wave (km/s) = 4.96958 6.72245 5.91135
#
# Compressibility (1/GPa) = 0.04405389
#
# Stress axis : x y z
#
# Youngs Moduli (GPa) = 31.29154 98.86778 52.04222
#
# Poissons Ratio (x) = 0.03849 0.28014
# Poissons Ratio (y) = 0.01218 0.14802
# Poissons Ratio (z) = 0.16844 0.28121
#
# Static dielectric constant tensor:
#      x y z
#    x 1.659910 -0.131580 -0.031820 
#    y -0.131580 1.549470 -0.030710 
#    z -0.031820 -0.030710 1.714060 
# 
# From -- ./inp_files/189919.got.cif
#   From: 2010.05.17/outbox.cif.g08.bks.cpg/sg2_95_cif.got.tgz:189919.got - 2010.06.03 11:33:40.
