data_PCOD9055908
_publ_section_title
;
Structure prediction by ZEFSAII (Michael W. Deem and Ramdas Pophale) SiO2 
 PCOD9055908
Probable space group: P -1
;
_chemical_formula_sum "Si O2"
_cell_formula_units_Z 14
_cell_length_a 9.436738
_cell_length_b 6.698501
_cell_length_c 21.322459
_cell_angle_alpha 116.630817
_cell_angle_beta 38.540409
_cell_angle_gamma 92.022708
_cell_volume 618.825446
_symmetry_space_group_name_H-M "P -1"
_symmetry_group_IT_number 2
_symmetry_cell_setting 'triclinic'
loop_
_space_group_symop_operation_xyz
x,y,z
-x,-y,-z
loop_
_atom_site_type_symbol
_atom_site_label
_atom_site_fract_x
_atom_site_fract_y
_atom_site_fract_z
Si Si1 0.562669 0.730674 0.518848
Si Si2 0.309565 0.299666 0.387076
Si Si3 0.816682 0.256333 0.177478
Si Si4 0.665142 0.764468 0.961701
Si Si5 0.378014 0.856092 0.207195
Si Si6 0.045478 0.214002 0.699473
Si Si7 0.151918 0.649753 0.965818
O O1 0.500000 0.500000 0.500000
O O2 0.660803 0.751951 0.556548
O O3 0.799868 0.692449 0.384907
O O4 0.274631 0.011430 0.641288
O O5 0.500592 0.411984 0.327382
O O6 0.000000 0.500000 0.500000
O O7 0.412021 0.041128 0.270290
O O8 0.813017 0.295533 0.110030
O O9 0.029211 0.309684 0.140489
O O10 0.959618 0.943818 0.103767
O O11 0.762491 0.468250 0.862673
O O12 0.498554 0.859871 0.098139
O O13 0.500000 0.000000 0.000000
O O14 0.560067 0.552142 0.128865
O O15 0.065477 0.943452 0.320846
O O16 0.000000 0.500000 0.000000
#
# Coordination Sequence:
#
# PCOD9055908 Si02
#       7
#     2   2   2   2   2   2   2
#     4  11  27  54  77 103 149 200 255 303 364 449
#     4  12  28  45  76 107 147 198 246 308 364 434
#     4  11  24  43  70 106 146 190 242 300 374 434
#     4  12  27  45  78 110 153 198 247 311 382 447
#     4  12  26  46  74 112 150 184 252 308 376 445
#     4  11  28  48  77 106 146 202 248 304 377 441
#     4  11  21  44  70 103 148 183 226 309 373 435
#
# _framework density 22.623504000000001
#
# number of rings (size 3 to 8) (size 9 to 14) (size 15 to 20)
#    0.000    0.571    2.857    3.857   12.000    1.714 
#    0.000    0.000    0.000    0.000    0.000    0.000 
#    0.000    0.000    0.000    0.000    0.000    0.000 
#
# Total GULP energy -78257.200290 kJ/mol
# GULP energy per Si atom -5589.800021 kJ/mol
# Density = 2.257201 g / cm^3
# Si number density = 22.623504 Si / 1000 Ang^3
#
#
#
# Elastic Constant Matrix: (Units=GPa)
#
#
# Indices 1 2 3 4 5 6 
#
# 1 175.1477 49.0862 58.2553 -5.4875 -15.6884 -20.2087
# 2 49.0862 90.8933 43.2970 -8.4954 8.8515 -16.6506
# 3 58.2553 43.2970 107.2018 -4.0629 -6.1332 -18.5901
# 4 -5.4875 -8.4954 -4.0629 27.7452 5.0156 -7.6276
# 5 -15.6884 8.8515 -6.1332 5.0156 49.9543 -2.6349
# 6 -20.2087 -16.6506 -18.5901 -7.6276 -2.6349 50.6234
#
#
#
# Elastic Compliance Matrix: (Units=1/GPa)
#
#
# Indices 1 2 3 4 5 6 
#
# 1 0.007828 -0.002967 -0.002665 0.000125 0.002715 0.001330
# 2 -0.002967 0.016284 -0.004493 0.005452 -0.004753 0.003096
# 3 -0.002665 -0.004493 0.013120 0.000384 0.001659 0.002421
# 4 0.000125 0.005452 0.000384 0.040786 -0.004559 0.007892
# 5 0.002715 -0.004753 0.001659 -0.004559 0.022407 0.000609
# 6 0.001330 0.003096 0.002421 0.007892 0.000609 0.023413
#
#
# Mechanical properties :
#
#
# Convention : Reuss Voigt Hill
#
# Bulk Modulus (GPa) = 58.88402 74.94665 66.91534
# Shear Modulus (GPa) = 33.38951 40.50486 36.94718
#
# Velocity S-wave (km/s) = 3.84588 4.23589 4.04559
# Velocity P-wave (km/s) = 6.76797 7.55800 7.17387
#
# Compressibility (1/GPa) = 0.01698254
#
# Stress axis : x y z
#
# Youngs Moduli (GPa) = 127.74875 61.41020 76.21860
#
# Poissons Ratio (x) = 0.18221 0.20310
# Poissons Ratio (y) = 0.37903 0.34245
# Poissons Ratio (z) = 0.34041 0.27591
#
# Static dielectric constant tensor:
#      x y z
#    x 1.775980 0.099520 0.010510 
#    y 0.099520 1.853520 -0.017840 
#    z 0.010510 -0.017840 1.937180 
# 
# From -- ./inp_files/585760.got.cif
#   From: 2010.05.17/outbox.cif.g08.bks.cpg/sg2_293_cif.got.tgz:585760.got - 2010.06.03 11:33:40.
