data_PCOD9055910
_publ_section_title
;
Structure prediction by ZEFSAII (Michael W. Deem and Ramdas Pophale) SiO2 
 PCOD9055910
Probable space group: P -1
;
_chemical_formula_sum "Si O2"
_cell_formula_units_Z 16
_cell_length_a 11.900238
_cell_length_b 11.445448
_cell_length_c 15.057445
_cell_angle_alpha 151.134749
_cell_angle_beta 61.107360
_cell_angle_gamma 133.809853
_cell_volume 668.388470
_symmetry_space_group_name_H-M "P -1"
_symmetry_group_IT_number 2
_symmetry_cell_setting 'triclinic'
loop_
_space_group_symop_operation_xyz
x,y,z
-x,-y,-z
loop_
_atom_site_type_symbol
_atom_site_label
_atom_site_fract_x
_atom_site_fract_y
_atom_site_fract_z
Si Si1 0.853972 0.493885 0.515267
Si Si2 0.948290 0.452500 0.779918
Si Si3 0.180326 0.331637 0.168533
Si Si4 0.582901 0.770178 0.073452
Si Si5 0.316130 0.827002 0.169973
Si Si6 0.986902 0.961118 0.611747
Si Si7 0.248450 0.654255 0.895118
Si Si8 0.380180 0.389324 0.556644
O O1 0.790333 0.555972 0.667316
O O2 0.940040 0.783947 0.606382
O O3 0.000000 0.500000 0.500000
O O4 0.714111 0.141847 0.296712
O O5 0.844955 0.475366 0.760716
O O6 0.863235 0.428759 0.888197
O O7 0.937455 0.166451 0.559664
O O8 0.148374 0.694303 0.886700
O O9 0.316618 0.300208 0.069712
O O10 0.000000 0.000000 0.000000
O O11 0.429519 0.727356 0.060879
O O12 0.500000 0.500000 0.000000
O O13 0.388740 0.119214 0.404511
O O14 0.311255 0.889863 0.109787
O O15 0.806603 0.813164 0.545175
O O16 0.112420 0.326684 0.782727
O O17 0.376971 0.616460 0.775547
O O18 0.500000 0.500000 0.500000
#
# Coordination Sequence:
#
# PCOD9055910 Si02
#       8
#     2   2   2   2   2   2   2   2
#     4  12  26  46  74 107 141 193 243 293 363 430
#     4  11  21  44  70 104 138 181 243 295 342 434
#     4  12  26  46  75 107 146 190 241 301 359 426
#     4  12  28  47  69 107 147 192 242 300 360 425
#     4  12  25  43  70 104 143 179 242 289 358 421
#     4  11  22  44  72 101 140 181 245 288 356 436
#     4  11  25  43  75 107 132 191 239 291 361 428
#     4  11  24  44  68 100 145 181 225 305 362 412
#
# _framework density 23.938174
#
# number of rings (size 3 to 8) (size 9 to 14) (size 15 to 20)
#    0.000    0.500    6.250    1.875    3.500    4.000 
#    0.000    0.000    0.000    0.000    0.000    0.000 
#    0.000    0.000    0.000    0.000    0.000    0.000 
#
# Total GULP energy -89217.538645 kJ/mol
# GULP energy per Si atom -5576.096165 kJ/mol
# Density = 2.388369 g / cm^3
# Si number density = 23.938174 Si / 1000 Ang^3
#
#
#
# Elastic Constant Matrix: (Units=GPa)
#
#
# Indices 1 2 3 4 5 6 
#
# 1 102.0741 27.6107 28.5809 -23.2528 -31.8189 4.9651
# 2 27.6107 146.4552 55.9647 -32.4252 -13.5557 7.2242
# 3 28.5809 55.9647 133.0166 -36.0727 -17.5272 12.0199
# 4 -23.2528 -32.4252 -36.0727 51.6884 7.4241 -9.0922
# 5 -31.8189 -13.5557 -17.5272 7.4241 33.8016 -16.0418
# 6 4.9651 7.2242 12.0199 -9.0922 -16.0418 44.4740
#
#
#
# Elastic Compliance Matrix: (Units=1/GPa)
#
#
# Indices 1 2 3 4 5 6 
#
# 1 0.015940 -0.000553 -0.000094 0.005373 0.016030 0.005216
# 2 -0.000553 0.008729 -0.002528 0.003375 0.001129 0.000424
# 3 -0.000094 -0.002528 0.010428 0.005168 0.003056 -0.000238
# 4 0.005373 0.003375 0.005168 0.027598 0.005429 0.005055
# 5 0.016030 0.001129 0.003056 0.005429 0.053953 0.017772
# 6 0.005216 0.000424 -0.000238 0.005055 0.017772 0.029342
#
#
# Mechanical properties :
#
#
# Convention : Reuss Voigt Hill
#
# Bulk Modulus (GPa) = 34.78753 67.31760 51.05257
# Shear Modulus (GPa) = 30.87907 43.95213 37.41560
#
# Velocity S-wave (km/s) = 3.59549 4.28959 3.95778
# Velocity P-wave (km/s) = 5.63919 7.26062 6.50065
#
# Compressibility (1/GPa) = 0.02874593
#
# Stress axis : x y z
#
# Youngs Moduli (GPa) = 62.73560 114.55770 95.90015
#
# Poissons Ratio (x) = 0.06336 0.00904
# Poissons Ratio (y) = 0.03470 0.24244
# Poissons Ratio (z) = 0.00591 0.28961
#
# Static dielectric constant tensor:
#      x y z
#    x 4.519650 -0.499370 -1.033560 
#    y -0.499370 2.041260 0.278800 
#    z -1.033560 0.278800 2.441740 
# 
# From -- ./inp_files/519365.got.cif
#   From: 2010.05.17/outbox.cif.g08.bks.cpg/sg2_260_cif.got.tgz:519365.got - 2010.06.03 11:33:40.
