data_PCOD9055849
_publ_section_title
;
Structure prediction by ZEFSAII (Michael W. Deem and Ramdas Pophale) SiO2 
 PCOD9055849
Probable space group: P -1
;
_chemical_formula_sum "Si O2"
_cell_formula_units_Z 14
_cell_length_a 11.877648
_cell_length_b 11.595258
_cell_length_c 7.825790
_cell_angle_alpha 55.702697
_cell_angle_beta 68.968345
_cell_angle_gamma 46.886163
_cell_volume 649.373734
_symmetry_space_group_name_H-M "P -1"
_symmetry_group_IT_number 2
_symmetry_cell_setting 'triclinic'
loop_
_space_group_symop_operation_xyz
x,y,z
-x,-y,-z
loop_
_atom_site_type_symbol
_atom_site_label
_atom_site_fract_x
_atom_site_fract_y
_atom_site_fract_z
Si Si1 0.163488 0.327958 0.612004
Si Si2 0.563936 0.826239 0.998729
Si Si3 0.416302 0.633407 0.771523
Si Si4 0.382899 0.963214 0.651428
Si Si5 0.670460 0.528877 0.466064
Si Si6 0.100605 0.787640 0.636996
Si Si7 0.880467 0.704407 0.941658
O O1 0.271391 0.387882 0.510349
O O2 0.000000 0.500000 0.500000
O O3 0.223693 0.159759 0.601755
O O4 0.155202 0.278230 0.852092
O O5 0.603951 0.665318 0.228348
O O6 0.444223 0.873937 0.879201
O O7 0.721163 0.777258 0.876833
O O8 0.500000 0.000000 0.000000
O O9 0.385185 0.821605 0.659570
O O10 0.538422 0.539454 0.627254
O O11 0.248069 0.693782 0.763552
O O12 0.500000 0.500000 0.000000
O O13 0.500000 0.000000 0.500000
O O14 0.813370 0.333839 0.479382
O O15 0.969773 0.776678 0.780963
O O16 0.000000 0.000000 0.500000
O O17 0.000000 0.500000 0.000000
#
# Coordination Sequence:
#
# PCOD9055849 Si02
#       7
#     2   2   2   2   2   2   2
#     4  11  25  40  72 104 139 172 235 299 340 396
#     4  11  21  43  76 103 131 179 246 286 333 406
#     4  12  29  48  71 104 149 187 226 293 362 423
#     4  12  25  43  74 106 135 184 240 285 342 417
#     4  11  24  49  70 101 136 192 231 290 344 425
#     4  12  29  46  72 105 143 189 231 288 354 427
#     4  11  24  44  73  99 134 184 236 283 340 409
#
# _framework density 21.559235000000001
#
# number of rings (size 3 to 8) (size 9 to 14) (size 15 to 20)
#    0.000    0.571    7.143    1.286   10.000    1.143 
#    0.000    1.429    0.000    0.000    0.000    0.000 
#    0.000    0.000    0.000    0.000    0.000    0.000 
#
# Total GULP energy -78249.985063 kJ/mol
# GULP energy per Si atom -5589.284647 kJ/mol
# Density = 2.151017 g / cm^3
# Si number density = 21.559235 Si / 1000 Ang^3
#
#
#
# Elastic Constant Matrix: (Units=GPa)
#
#
# Indices 1 2 3 4 5 6 
#
# 1 71.6114 16.8426 25.9699 -11.2190 -7.3715 -15.2807
# 2 16.8426 155.3570 36.6484 -16.2164 -11.1933 -4.4581
# 3 25.9699 36.6484 97.6734 -10.4818 -16.2996 -12.5465
# 4 -11.2190 -16.2164 -10.4818 38.3185 -0.2490 -1.0709
# 5 -7.3715 -11.1933 -16.2996 -0.2490 38.3022 -5.6887
# 6 -15.2807 -4.4581 -12.5465 -1.0709 -5.6887 46.9314
#
#
#
# Elastic Compliance Matrix: (Units=1/GPa)
#
#
# Indices 1 2 3 4 5 6 
#
# 1 0.017147 -0.000401 -0.002817 0.004245 0.002788 0.005227
# 2 -0.000401 0.007333 -0.002164 0.002407 0.001188 0.000186
# 3 -0.002817 -0.002164 0.013227 0.001995 0.004921 0.003055
# 4 0.004245 0.002407 0.001995 0.029012 0.003029 0.003173
# 5 0.002788 0.001188 0.004921 0.003029 0.030003 0.006042
# 6 0.005227 0.000186 0.003055 0.003173 0.006042 0.024649
#
#
# Mechanical properties :
#
#
# Convention : Reuss Voigt Hill
#
# Bulk Modulus (GPa) = 37.11419 53.72931 45.42175
# Shear Modulus (GPa) = 35.43174 41.05580 38.24377
#
# Velocity S-wave (km/s) = 4.05836 4.36859 4.21633
# Velocity P-wave (km/s) = 6.26201 7.10084 6.69458
#
# Compressibility (1/GPa) = 0.02694387
#
# Stress axis : x y z
#
# Youngs Moduli (GPa) = 58.31833 136.37004 75.60304
#
# Poissons Ratio (x) = 0.05463 0.21295
# Poissons Ratio (y) = 0.02336 0.16364
# Poissons Ratio (z) = 0.16426 0.29516
#
# Static dielectric constant tensor:
#      x y z
#    x 1.849210 0.035450 0.015210 
#    y 0.035450 1.777930 -0.000930 
#    z 0.015210 -0.000930 1.772590 
# 
# From -- ./inp_files/155269.got.cif
#   From: 2010.05.17/outbox.cif.g08.bks.cpg/sg2_78_cif.got.tgz:155269.got - 2010.06.03 11:33:40.
