data_PCOD9055379
_publ_section_title
;
Structure prediction by ZEFSAII (Michael W. Deem and Ramdas Pophale) SiO2 
 PCOD9055379
Probable space group: P -1
;
_chemical_formula_sum "Si O2"
_cell_formula_units_Z 14
_cell_length_a 9.573388
_cell_length_b 21.930938
_cell_length_c 9.672904
_cell_angle_alpha 27.767542
_cell_angle_beta 45.189381
_cell_angle_gamma 43.232942
_cell_volume 636.485803
_symmetry_space_group_name_H-M "P -1"
_symmetry_group_IT_number 2
_symmetry_cell_setting 'triclinic'
loop_
_space_group_symop_operation_xyz
x,y,z
-x,-y,-z
loop_
_atom_site_type_symbol
_atom_site_label
_atom_site_fract_x
_atom_site_fract_y
_atom_site_fract_z
Si Si1 0.041884 0.917630 0.493664
Si Si2 0.321830 0.928045 0.772422
Si Si3 0.840570 0.702797 0.139063
Si Si4 0.371528 0.828345 0.230074
Si Si5 0.586820 0.488189 0.119151
Si Si6 0.360071 0.630502 0.250627
Si Si7 0.021485 0.438683 0.380257
O O1 0.262074 0.895780 0.311888
O O2 0.000000 0.000000 0.500000
O O3 0.867817 0.990655 0.355753
O O4 0.013126 0.771488 0.842091
O O5 0.500000 0.000000 0.500000
O O6 0.262569 0.913053 0.002871
O O7 0.403428 0.770618 0.976801
O O8 0.613439 0.812909 0.079906
O O9 0.880290 0.635152 0.397798
O O10 0.861361 0.585143 0.247002
O O11 0.366992 0.670415 0.547931
O O12 0.416898 0.589339 0.134433
O O13 0.500000 0.500000 0.000000
O O14 0.794262 0.532741 0.889886
O O15 0.500000 0.500000 0.500000
O O16 0.119369 0.644986 0.418000
#
# Coordination Sequence:
#
# PCOD9055379 Si02
#       7
#     2   2   2   2   2   2   2
#     4  12  28  46  73 104 145 198 253 298 364 450
#     4  12  27  52  74 103 156 200 240 307 374 441
#     4  11  21  41  70 104 143 185 237 301 366 427
#     4  12  24  47  73 102 146 196 240 300 371 435
#     4  12  23  42  77 109 142 188 240 309 373 432
#     4  12  26  47  72 108 147 185 251 306 364 443
#     4  11  22  39  72 109 143 181 239 309 368 421
#
# _framework density 21.995775999999999
#
# number of rings (size 3 to 8) (size 9 to 14) (size 15 to 20)
#    0.000    0.286    7.143    2.143    2.000    1.143 
#    7.714    0.000    0.000    0.000    0.000    0.000 
#    0.000    0.000    0.000    0.000    0.000    0.000 
#
# Total GULP energy -78352.347643 kJ/mol
# GULP energy per Si atom -5596.596260 kJ/mol
# Density = 2.194571 g / cm^3
# Si number density = 21.995776 Si / 1000 Ang^3
#
#
#
# Elastic Constant Matrix: (Units=GPa)
#
#
# Indices 1 2 3 4 5 6 
#
# 1 70.4066 15.1929 17.5904 10.5556 -14.1038 -4.9801
# 2 15.1929 84.4190 13.1202 17.7857 -8.1491 5.8363
# 3 17.5904 13.1202 106.2411 9.7282 -13.4555 7.8837
# 4 10.5556 17.7857 9.7282 37.2226 3.5630 -4.7277
# 5 -14.1038 -8.1491 -13.4555 3.5630 37.9549 0.5146
# 6 -4.9801 5.8363 7.8837 -4.7277 0.5146 37.1087
#
#
#
# Elastic Compliance Matrix: (Units=1/GPa)
#
#
# Indices 1 2 3 4 5 6 
#
# 1 0.016834 -0.001574 -0.001699 -0.003826 0.005643 0.002302
# 2 -0.001574 0.014160 -0.000212 -0.006981 0.003081 -0.003325
# 3 -0.001699 -0.000212 0.010627 -0.002884 0.003400 -0.002867
# 4 -0.003826 -0.006981 -0.002884 0.033431 -0.007157 0.005556
# 5 0.005643 0.003081 0.003400 -0.007157 0.031007 -0.001791
# 6 0.002302 -0.003325 -0.002867 0.005556 -0.001791 0.029122
#
#
# Mechanical properties :
#
#
# Convention : Reuss Voigt Hill
#
# Bulk Modulus (GPa) = 28.85798 39.20820 34.03309
# Shear Modulus (GPa) = 32.53073 36.80145 34.66609
#
# Velocity S-wave (km/s) = 3.84989 4.09481 3.97424
# Velocity P-wave (km/s) = 5.73676 6.34198 6.04695
#
# Compressibility (1/GPa) = 0.03465246
#
# Stress axis : x y z
#
# Youngs Moduli (GPa) = 59.40331 70.62118 94.09562
#
# Poissons Ratio (x) = 0.11116 0.15984
# Poissons Ratio (y) = 0.09350 0.01994
# Poissons Ratio (z) = 0.10091 0.01496
#
# Static dielectric constant tensor:
#      x y z
#    x 1.845460 0.010380 0.001240 
#    y 0.010380 1.807310 -0.010800 
#    z 0.001240 -0.010800 1.799920 
# 
# From -- ./inp_files/222808.got.cif
#   From: 2010.05.17/outbox.cif.g08.bks.cpg/sg2_112_cif.got.tgz:222808.got - 2010.06.03 11:33:40.
