data_PCOD9055874
_publ_section_title
;
Structure prediction by ZEFSAII (Michael W. Deem and Ramdas Pophale) SiO2 
 PCOD9055874
Probable space group: P -1
;
_chemical_formula_sum "Si O2"
_cell_formula_units_Z 14
_cell_length_a 20.547827
_cell_length_b 20.301052
_cell_length_c 11.548064
_cell_angle_alpha 25.531504
_cell_angle_beta 20.622801
_cell_angle_gamma 19.815389
_cell_volume 565.450655
_symmetry_space_group_name_H-M "P -1"
_symmetry_group_IT_number 2
_symmetry_cell_setting 'triclinic'
loop_
_space_group_symop_operation_xyz
x,y,z
-x,-y,-z
loop_
_atom_site_type_symbol
_atom_site_label
_atom_site_fract_x
_atom_site_fract_y
_atom_site_fract_z
Si Si1 0.258190 0.198910 0.140194
Si Si2 0.154161 0.071017 0.739038
Si Si3 0.453673 0.600763 0.290568
Si Si4 0.938312 0.357134 0.231331
Si Si5 0.235911 0.272282 0.469338
Si Si6 0.661709 0.731902 0.448553
Si Si7 0.337268 0.593155 0.005877
O O1 0.220130 0.403580 0.877172
O O2 0.248951 0.142082 0.374320
O O3 0.018058 0.262450 0.375341
O O4 0.500000 0.000000 0.000000
O O5 0.166644 0.156869 0.701008
O O6 0.879972 0.171368 0.010821
O O7 0.382104 0.841503 0.728910
O O8 0.500000 0.500000 0.500000
O O9 0.177301 0.710935 0.547814
O O10 0.558904 0.717011 0.933441
O O11 0.553467 0.475189 0.199251
O O12 0.196088 0.269690 0.889790
O O13 0.303653 0.191224 0.615305
O O14 0.000000 0.500000 0.500000
O O15 0.790082 0.504353 0.618016
O O16 0.500000 0.500000 0.000000
#
# Coordination Sequence:
#
# PCOD9055874 Si02
#       7
#     2   2   2   2   2   2   2
#     4  11  22  39  66  97 130 171 215 266 326 393
#     4  12  22  41  70  94 126 175 224 263 326 399
#     4  11  23  40  69  96 129 172 217 272 331 382
#     4  11  23  41  67  96 132 169 214 271 332 385
#     4  11  21  44  67  91 129 173 215 269 328 389
#     4  11  23  41  70  94 127 174 216 269 329 395
#     4  11  25  44  67  96 134 173 218 273 326 393
#
# _framework density 24.759012999999999
#
# number of rings (size 3 to 8) (size 9 to 14) (size 15 to 20)
#    0.000    0.857    5.714    3.000    2.000    0.571 
#    0.000    3.571    0.000    0.000    0.000    0.000 
#    0.000    0.000    0.000    0.000    0.000    0.000 
#
# Total GULP energy -78031.004049 kJ/mol
# GULP energy per Si atom -5573.643146 kJ/mol
# Density = 2.470266 g / cm^3
# Si number density = 24.759013 Si / 1000 Ang^3
#
#
#
# Elastic Constant Matrix: (Units=GPa)
#
#
# Indices 1 2 3 4 5 6 
#
# 1 150.0442 23.7450 23.3127 9.7076 -11.3452 -10.9694
# 2 23.7450 104.3675 2.8817 18.1672 5.7616 -1.3985
# 3 23.3127 2.8817 51.5293 8.1919 2.1881 4.6898
# 4 9.7076 18.1672 8.1919 29.6688 4.6763 0.5864
# 5 -11.3452 5.7616 2.1881 4.6763 45.4967 6.2719
# 6 -10.9694 -1.3985 4.6898 0.5864 6.2719 25.5406
#
#
#
# Elastic Compliance Matrix: (Units=1/GPa)
#
#
# Indices 1 2 3 4 5 6 
#
# 1 0.007978 -0.001604 -0.003775 -0.000969 0.001982 0.003567
# 2 -0.001604 0.011098 0.001161 -0.006402 -0.001224 0.000153
# 3 -0.003775 0.001161 0.022435 -0.005427 -0.000874 -0.005338
# 4 -0.000969 -0.006402 -0.005427 0.039958 -0.003294 0.000121
# 5 0.001982 -0.001224 -0.000874 -0.003294 0.023670 -0.004792
# 6 0.003567 0.000153 -0.005338 0.000121 -0.004792 0.042848
#
#
# Mechanical properties :
#
#
# Convention : Reuss Voigt Hill
#
# Bulk Modulus (GPa) = 30.23337 45.09109 37.66223
# Shear Modulus (GPa) = 29.85992 37.20800 33.53396
#
# Velocity S-wave (km/s) = 3.47655 3.88081 3.68423
# Velocity P-wave (km/s) = 5.32473 6.19132 5.77431
#
# Compressibility (1/GPa) = 0.03307604
#
# Stress axis : x y z
#
# Youngs Moduli (GPa) = 125.33902 90.10333 44.57339
#
# Poissons Ratio (x) = 0.14452 0.16825
# Poissons Ratio (y) = 0.20103 -0.05174
# Poissons Ratio (z) = 0.47311 -0.10458
#
# Static dielectric constant tensor:
#      x y z
#    x 2.035600 0.052690 0.002870 
#    y 0.052690 2.043120 0.112750 
#    z 0.002870 0.112750 1.996240 
# 
# From -- ./inp_files/333951.got.cif
#   From: 2010.05.17/outbox.cif.g08.bks.cpg/sg2_167_cif.got.tgz:333951.got - 2010.06.03 11:33:40.
