data_PCOD9055086
_publ_section_title
;
Structure prediction by ZEFSAII (Michael W. Deem and Ramdas Pophale) SiO2 
 PCOD9055086
Probable space group: P -1
;
_chemical_formula_sum "Si O2"
_cell_formula_units_Z 12
_cell_length_a 14.048668
_cell_length_b 9.928488
_cell_length_c 17.914342
_cell_angle_alpha 46.530782
_cell_angle_beta 21.085165
_cell_angle_gamma 56.627011
_cell_volume 610.722767
_symmetry_space_group_name_H-M "P -1"
_symmetry_group_IT_number 2
_symmetry_cell_setting 'triclinic'
loop_
_space_group_symop_operation_xyz
x,y,z
-x,-y,-z
loop_
_atom_site_type_symbol
_atom_site_label
_atom_site_fract_x
_atom_site_fract_y
_atom_site_fract_z
Si Si1 0.831585 0.459047 0.215246
Si Si2 0.864149 0.778760 0.656407
Si Si3 0.338064 0.801736 0.944811
Si Si4 0.107926 0.495168 0.507545
Si Si5 0.288264 0.486395 0.986041
Si Si6 0.739096 0.841300 0.206870
O O1 0.805911 0.665849 0.182514
O O2 0.527121 0.284787 0.499050
O O3 0.000000 0.500000 0.000000
O O4 0.020305 0.400850 0.161324
O O5 0.620193 0.773812 0.779227
O O6 0.078914 0.686527 0.496945
O O7 0.732804 0.648493 0.874589
O O8 0.000000 0.000000 0.500000
O O9 0.281022 0.689770 0.949675
O O10 0.358975 0.024988 0.830780
O O11 0.096089 0.688457 0.224704
O O12 0.421528 0.490185 0.276656
O O13 0.000000 0.500000 0.500000
O O14 0.000000 0.000000 0.000000
#
# Coordination Sequence:
#
# PCOD9055086 Si02
#       6
#     2   2   2   2   2   2
#     4  11  27  45  69 101 132 173 231 279 325 391
#     4  11  23  39  63  95 133 167 212 274 333 388
#     4  11  22  41  68  95 130 174 218 266 333 395
#     4  11  21  40  66  94 127 174 218 260 330 397
#     4  11  22  42  65  94 133 170 217 274 327 394
#     4  11  25  47  70  95 135 179 221 274 338 394
#
# _framework density 19.648851000000001
#
# number of rings (size 3 to 8) (size 9 to 14) (size 15 to 20)
#    0.000    1.000    5.000    2.000    2.333    5.333 
#    3.000    0.000    0.000    0.000    0.000    0.000 
#    0.000    0.000    0.000    0.000    0.000    0.000 
#
# Total GULP energy -67031.042117 kJ/mol
# GULP energy per Si atom -5585.920176 kJ/mol
# Density = 1.960413 g / cm^3
# Si number density = 19.648851 Si / 1000 Ang^3
#
#
#
# Elastic Constant Matrix: (Units=GPa)
#
#
# Indices 1 2 3 4 5 6 
#
# 1 70.6261 24.6692 31.7751 -0.6282 -1.1366 0.0247
# 2 24.6692 98.2556 78.4447 -7.0805 17.1761 -8.3923
# 3 31.7751 78.4447 137.4943 8.3208 1.8075 16.9551
# 4 -0.6282 -7.0805 8.3208 36.2652 6.3603 1.7971
# 5 -1.1366 17.1761 1.8075 6.3603 29.1057 -1.1243
# 6 0.0247 -8.3923 16.9551 1.7971 -1.1243 34.5542
#
#
#
# Elastic Compliance Matrix: (Units=1/GPa)
#
#
# Indices 1 2 3 4 5 6 
#
# 1 0.016149 -0.002447 -0.002444 -0.000068 0.002267 0.000671
# 2 -0.002447 0.034889 -0.022151 0.014799 -0.021853 0.017864
# 3 -0.002444 -0.022151 0.022901 -0.011199 0.013399 -0.015597
# 4 -0.000068 0.014799 -0.011199 0.035420 -0.015520 0.006742
# 5 0.002267 -0.021853 0.013399 -0.015520 0.049536 -0.009465
# 6 0.000671 0.017864 -0.015597 0.006742 -0.009465 0.040272
#
#
# Mechanical properties :
#
#
# Convention : Reuss Voigt Hill
#
# Bulk Modulus (GPa) = 50.36741 64.01710 57.19226
# Shear Modulus (GPa) = 19.24041 31.41750 25.32895
#
# Velocity S-wave (km/s) = 3.13263 4.00302 3.59427
# Velocity P-wave (km/s) = 6.22687 7.34962 6.81142
#
# Compressibility (1/GPa) = 0.01985411
#
# Stress axis : x y z
#
# Youngs Moduli (GPa) = 61.92259 28.66243 43.66711
#
# Poissons Ratio (x) = 0.07013 0.10674
# Poissons Ratio (y) = 0.15152 0.96726
# Poissons Ratio (z) = 0.15137 0.63490
#
# Static dielectric constant tensor:
#      x y z
#    x 1.672930 -0.028240 -0.006700 
#    y -0.028240 1.687330 0.008040 
#    z -0.006700 0.008040 1.663130 
# 
# From -- ./inp_files/28619.got.cif
#   From: 2010.05.17/outbox.cif.g08.bks.cpg/sg2_15_cif.got.tgz:28619.got - 2010.06.03 11:33:40.
