data_PCOD9055000
_publ_section_title
;
Structure prediction by ZEFSAII (Michael W. Deem and Ramdas Pophale) SiO2 
 PCOD9055000
Probable space group: P -1
;
_chemical_formula_sum "Si O2"
_cell_formula_units_Z 14
_cell_length_a 5.426617
_cell_length_b 29.226919
_cell_length_c 12.714920
_cell_angle_alpha 18.891448
_cell_angle_beta 104.412022
_cell_angle_gamma 105.929932
_cell_volume 627.485441
_symmetry_space_group_name_H-M "P -1"
_symmetry_group_IT_number 2
_symmetry_cell_setting 'triclinic'
loop_
_space_group_symop_operation_xyz
x,y,z
-x,-y,-z
loop_
_atom_site_type_symbol
_atom_site_label
_atom_site_fract_x
_atom_site_fract_y
_atom_site_fract_z
Si Si1 0.364395 0.870784 0.695842
Si Si2 0.909653 0.291495 0.788289
Si Si3 0.014948 0.986442 0.728869
Si Si4 0.283071 0.440999 0.902132
Si Si5 0.253419 0.288761 0.008097
Si Si6 0.208966 0.939091 0.079331
Si Si7 0.858240 0.384339 0.155977
O O1 0.468282 0.751365 0.894582
O O2 0.500000 0.000000 0.500000
O O3 0.270529 0.768074 0.006912
O O4 0.266238 0.972304 0.372891
O O5 0.775269 0.397156 0.471941
O O6 0.982738 0.157698 0.021202
O O7 0.154993 0.356034 0.744622
O O8 0.101413 0.126394 0.360477
O O9 0.158913 0.981725 0.861856
O O10 0.232387 0.370971 0.934098
O O11 0.575609 0.424239 0.004641
O O12 0.062200 0.376104 0.100540
O O13 0.181426 0.769405 0.459498
O O14 0.500000 0.000000 0.000000
O O15 0.000000 0.000000 0.000000
O O16 0.000000 0.500000 0.000000
#
# Coordination Sequence:
#
# PCOD9055000 Si02
#       7
#     2   2   2   2   2   2   2
#     4  11  21  39  70 103 141 185 238 297 356 438
#     4  11  24  42  67 105 141 190 240 285 361 457
#     4  11  23  41  69 101 137 187 238 299 365 424
#     4  12  29  46  75 107 147 196 239 302 371 427
#     4  11  23  43  67 104 147 178 234 299 362 433
#     4  12  28  48  77 110 142 186 253 313 365 421
#     4  12  28  54  74 106 149 197 251 304 364 441
#
# _framework density 22.311274999999998
#
# number of rings (size 3 to 8) (size 9 to 14) (size 15 to 20)
#    0.000    0.571    2.857    5.143   10.000    2.857 
#    0.000    0.000    0.000    0.000    0.000    0.000 
#    0.000    0.000    0.000    0.000    0.000    0.000 
#
# Total GULP energy -78000.400474 kJ/mol
# GULP energy per Si atom -5571.457177 kJ/mol
# Density = 2.226049 g / cm^3
# Si number density = 22.311275 Si / 1000 Ang^3
#
#
#
# Elastic Constant Matrix: (Units=GPa)
#
#
# Indices 1 2 3 4 5 6 
#
# 1 136.0428 18.3087 5.7056 13.2673 10.9742 12.2226
# 2 18.3087 80.0895 -16.2231 12.7880 8.1465 16.8950
# 3 5.7056 -16.2231 90.7428 10.3940 6.3126 22.0738
# 4 13.2673 12.7880 10.3940 44.1684 1.8661 10.8031
# 5 10.9742 8.1465 6.3126 1.8661 33.6152 5.7244
# 6 12.2226 16.8950 22.0738 10.8031 5.7244 43.8631
#
#
#
# Elastic Compliance Matrix: (Units=1/GPa)
#
#
# Indices 1 2 3 4 5 6 
#
# 1 0.007930 -0.001145 -0.000119 -0.001685 -0.002020 -0.001030
# 2 -0.001145 0.016315 0.005426 -0.003721 -0.003137 -0.007370
# 3 -0.000119 0.005426 0.014521 -0.002806 -0.002424 -0.008357
# 4 -0.001685 -0.003721 -0.002806 0.025605 0.001091 -0.003134
# 5 -0.002020 -0.003137 -0.002424 0.001091 0.031806 -0.001428
# 6 -0.001030 -0.007370 -0.008357 -0.003134 -0.001428 0.031087
#
#
# Mechanical properties :
#
#
# Convention : Reuss Voigt Hill
#
# Bulk Modulus (GPa) = 21.23664 35.82860 28.53262
# Shear Modulus (GPa) = 37.13708 44.26826 40.70267
#
# Velocity S-wave (km/s) = 4.08425 4.45918 4.27583
# Velocity P-wave (km/s) = 5.63742 6.52731 6.09862
#
# Compressibility (1/GPa) = 0.04708842
#
# Stress axis : x y z
#
# Youngs Moduli (GPa) = 126.11081 61.29361 68.86772
#
# Poissons Ratio (x) = 0.07019 0.00821
# Poissons Ratio (y) = 0.14441 -0.37368
# Poissons Ratio (z) = 0.01504 -0.33258
#
# Static dielectric constant tensor:
#      x y z
#    x -2.936810 -5.721200 -0.200040 
#    y -5.721200 -5.266630 -0.204820 
#    z -0.200040 -0.204820 1.781140 
# 
# From -- ./inp_files/36306.got.cif
#   From: 2010.05.17/outbox.cif.g08.bks.cpg/sg2_19_cif.got.tgz:36306.got - 2010.06.03 11:33:40.
