data_PCOD9055777
_publ_section_title
;
Structure prediction by ZEFSAII (Michael W. Deem and Ramdas Pophale) SiO2 
 PCOD9055777
Probable space group: P -1
;
_chemical_formula_sum "Si O2"
_cell_formula_units_Z 13
_cell_length_a 9.443394
_cell_length_b 12.782172
_cell_length_c 9.478820
_cell_angle_alpha 56.515290
_cell_angle_beta 43.621053
_cell_angle_gamma 49.009046
_cell_volume 589.277256
_symmetry_space_group_name_H-M "P -1"
_symmetry_group_IT_number 2
_symmetry_cell_setting 'triclinic'
loop_
_space_group_symop_operation_xyz
x,y,z
-x,-y,-z
loop_
_atom_site_type_symbol
_atom_site_label
_atom_site_fract_x
_atom_site_fract_y
_atom_site_fract_z
Si Si1 0.872234 0.660353 0.527199
Si Si2 0.412621 0.664723 0.926402
Si Si3 0.749672 0.277649 0.696439
Si Si4 0.273893 0.004910 0.089352
Si Si5 0.760876 0.214843 0.343895
Si Si6 0.500000 0.500000 0.500000
Si Si7 0.414077 0.089817 0.639196
O O1 0.639661 0.686303 0.752489
O O2 0.786378 0.761184 0.378077
O O3 0.000000 0.500000 0.500000
O O4 0.024465 0.698341 0.497992
O O5 0.291297 0.725144 0.822181
O O6 0.500000 0.500000 0.000000
O O7 0.260626 0.732216 0.120004
O O8 0.746963 0.136258 0.754501
O O9 0.542930 0.418319 0.682743
O O10 0.034011 0.128362 0.223093
O O11 0.500000 0.000000 0.000000
O O12 0.315061 0.024885 0.878394
O O13 0.651891 0.344983 0.432157
O O14 0.622478 0.120188 0.523884
O O15 0.500000 0.000000 0.500000
#
# Coordination Sequence:
#
# PCOD9055777 Si02
#       7
#     2   2   2   2   2   1   2
#     4  11  22  38  70 102 134 174 225 291 352 406
#     4  11  21  43  71 106 136 175 232 294 359 416
#     4  12  25  45  69 102 142 183 238 294 354 423
#     4  12  28  47  70 104 147 199 241 286 358 435
#     4  11  25  47  73 103 147 185 240 303 354 429
#     4  12  26  46  70 100 144 194 236 292 364 422
#     4  11  24  45  71 106 138 184 239 292 361 421
#
# _framework density 22.060922999999999
#
# number of rings (size 3 to 8) (size 9 to 14) (size 15 to 20)
#    0.000    0.615    3.077    5.538    0.000    6.769 
#    0.000    3.846    0.000    0.000    0.000    0.000 
#    0.000    0.000    0.000    0.000    0.000    0.000 
#
# Total GULP energy -72432.857526 kJ/mol
# GULP energy per Si atom -5571.758271 kJ/mol
# Density = 2.201071 g / cm^3
# Si number density = 22.060923 Si / 1000 Ang^3
#
#
#
# Elastic Constant Matrix: (Units=GPa)
#
#
# Indices 1 2 3 4 5 6 
#
# 1 93.4092 70.9877 32.2744 3.8335 -26.0201 14.7513
# 2 70.9877 152.7199 45.6137 -4.4180 -21.5925 -0.9866
# 3 32.2744 45.6137 84.0517 -8.1431 -4.2968 -1.9794
# 4 3.8335 -4.4180 -8.1431 48.2247 -0.7605 8.6788
# 5 -26.0201 -21.5925 -4.2968 -0.7605 42.1028 -1.2791
# 6 14.7513 -0.9866 -1.9794 8.6788 -1.2791 26.6783
#
#
#
# Elastic Compliance Matrix: (Units=1/GPa)
#
#
# Indices 1 2 3 4 5 6 
#
# 1 0.023032 -0.008235 -0.004290 -0.000892 0.009173 -0.012628
# 2 -0.008235 0.011341 -0.002815 0.000388 0.000588 0.004666
# 3 -0.004290 -0.002815 0.015217 0.002150 -0.002425 0.002581
# 4 -0.000892 0.000388 0.002150 0.022397 0.000070 -0.006615
# 5 0.009173 0.000588 -0.002425 0.000070 0.029359 -0.003846
# 6 -0.012628 0.004666 0.002581 -0.006615 -0.003846 0.046798
#
#
# Mechanical properties :
#
#
# Convention : Reuss Voigt Hill
#
# Bulk Modulus (GPa) = 52.87913 69.77026 61.32470
# Shear Modulus (GPa) = 27.00814 35.48815 31.24815
#
# Velocity S-wave (km/s) = 3.50273 4.01514 3.76766
# Velocity P-wave (km/s) = 6.35456 7.29315 6.83997
#
# Compressibility (1/GPa) = 0.01891105
#
# Stress axis : x y z
#
# Youngs Moduli (GPa) = 43.41713 88.17469 65.71398
#
# Poissons Ratio (x) = 0.72613 0.28190
# Poissons Ratio (y) = 0.35754 0.18498
# Poissons Ratio (z) = 0.18625 0.24821
#
# Static dielectric constant tensor:
#      x y z
#    x 1.825340 0.025650 0.015730 
#    y 0.025650 1.804230 -0.008180 
#    z 0.015730 -0.008180 1.822120 
# 
# From -- ./inp_files/174692.got.cif
#   From: 2010.05.17/outbox.cif.g08.bks.cpg/sg2_88_cif.got.tgz:174692.got - 2010.06.03 11:33:40.
