data_PCOD9055646
_publ_section_title
;
Structure prediction by ZEFSAII (Michael W. Deem and Ramdas Pophale) SiO2 
 PCOD9055646
Probable space group: P -1
;
_chemical_formula_sum "Si O2"
_cell_formula_units_Z 16
_cell_length_a 5.335846
_cell_length_b 19.188400
_cell_length_c 14.868463
_cell_angle_alpha 30.366071
_cell_angle_beta 87.417059
_cell_angle_gamma 77.354492
_cell_volume 718.276955
_symmetry_space_group_name_H-M "P -1"
_symmetry_group_IT_number 2
_symmetry_cell_setting 'triclinic'
loop_
_space_group_symop_operation_xyz
x,y,z
-x,-y,-z
loop_
_atom_site_type_symbol
_atom_site_label
_atom_site_fract_x
_atom_site_fract_y
_atom_site_fract_z
Si Si1 0.427660 0.648397 0.214657
Si Si2 0.467221 0.174270 0.477622
Si Si3 0.124336 0.599192 0.444445
Si Si4 0.075425 0.038702 0.554077
Si Si5 0.241218 0.500025 0.061264
Si Si6 0.809571 0.914199 0.068996
Si Si7 0.096694 0.741067 0.947810
Si Si8 0.377320 0.092969 0.111880
O O1 0.313878 0.639544 0.324756
O O2 0.701993 0.506189 0.363769
O O3 0.243570 0.645034 0.137641
O O4 0.466438 0.803812 0.037197
O O5 0.291538 0.118656 0.470524
O O6 0.332647 0.349851 0.285576
O O7 0.783858 0.132481 0.496636
O O8 0.464276 0.075234 0.675258
O O9 0.000000 0.500000 0.500000
O O10 0.902693 0.756413 0.293093
O O11 0.194580 0.878741 0.777685
O O12 0.000000 0.000000 0.500000
O O13 0.500000 0.500000 0.000000
O O14 0.141543 0.641546 0.970207
O O15 0.000000 0.500000 0.000000
O O16 0.820863 0.898074 0.978289
O O17 0.500000 0.000000 0.000000
O O18 0.000000 0.000000 0.000000
O O19 0.791597 0.824603 0.890418
#
# Coordination Sequence:
#
# PCOD9055646 Si02
#       8
#     2   2   2   2   2   2   2   2
#     4  11  21  42  74 101 142 179 258 293 347 419
#     4  11  24  43  69  97 138 179 223 294 351 413
#     4  11  23  42  73 101 142 195 241 297 351 438
#     4  11  22  40  69 102 130 181 235 277 347 431
#     4  12  28  49  69 106 150 182 232 301 369 422
#     4  12  27  45  70 103 146 186 229 298 364 414
#     4  11  24  42  76  97 140 191 235 298 350 429
#     4  11  24  46  69 104 139 184 248 288 350 436
#
# _framework density 22.27553
#
# number of rings (size 3 to 8) (size 9 to 14) (size 15 to 20)
#    0.000    0.750    3.750    3.375    3.500    2.000 
#    2.250    0.000    0.000    0.000    0.000    0.000 
#    0.000    0.000    0.000    0.000    0.000    0.000 
#
# Total GULP energy -89430.785154 kJ/mol
# GULP energy per Si atom -5589.424072 kJ/mol
# Density = 2.222483 g / cm^3
# Si number density = 22.275530 Si / 1000 Ang^3
#
#
#
# Elastic Constant Matrix: (Units=GPa)
#
#
# Indices 1 2 3 4 5 6 
#
# 1 116.4353 29.5304 33.1955 -13.6360 5.5081 6.8512
# 2 29.5304 70.2250 0.9617 -14.7098 0.5414 -2.9307
# 3 33.1955 0.9617 148.9366 -13.6994 14.9717 -6.0118
# 4 -13.6360 -14.7098 -13.6994 38.6928 2.6985 3.9614
# 5 5.5081 0.5414 14.9717 2.6985 47.2869 1.0422
# 6 6.8512 -2.9307 -6.0118 3.9614 1.0422 30.1060
#
#
#
# Elastic Compliance Matrix: (Units=1/GPa)
#
#
# Indices 1 2 3 4 5 6 
#
# 1 0.010766 -0.004273 -0.002304 0.001751 -0.000498 -0.003539
# 2 -0.004273 0.017241 0.001479 0.005378 -0.000525 0.002257
# 3 -0.002304 0.001479 0.007765 0.002464 -0.002391 0.001977
# 4 0.001751 0.005378 0.002464 0.029896 -0.002681 -0.003224
# 5 -0.000498 -0.000525 -0.002391 -0.002681 0.022140 -0.000829
# 6 -0.003539 0.002257 0.001977 -0.003224 -0.000829 0.035089
#
#
# Mechanical properties :
#
#
# Convention : Reuss Voigt Hill
#
# Bulk Modulus (GPa) = 39.09563 51.44135 45.26849
# Shear Modulus (GPa) = 35.30673 41.34442 38.32558
#
# Velocity S-wave (km/s) = 3.98553 4.31286 4.15242
# Velocity P-wave (km/s) = 6.22642 6.92419 6.58455
#
# Compressibility (1/GPa) = 0.02557831
#
# Stress axis : x y z
#
# Youngs Moduli (GPa) = 92.88747 58.00079 128.78261
#
# Poissons Ratio (x) = 0.24782 0.29667
# Poissons Ratio (y) = 0.39687 -0.19053
# Poissons Ratio (z) = 0.21398 -0.08581
#
# Static dielectric constant tensor:
#      x y z
#    x 1.876290 -0.047180 0.024610 
#    y -0.047180 1.841400 0.046330 
#    z 0.024610 0.046330 1.879480 
# 
# From -- ./inp_files/485143.got.cif
#   From: 2010.05.17/outbox.cif.g08.bks.cpg/sg2_243_cif.got.tgz:485143.got - 2010.06.03 11:33:40.
