data_PCOD9055321
_publ_section_title
;
Structure prediction by ZEFSAII (Michael W. Deem and Ramdas Pophale) SiO2 
 PCOD9055321
Probable space group: P -1
;
_chemical_formula_sum "Si O2"
_cell_formula_units_Z 16
_cell_length_a 10.542776
_cell_length_b 10.061578
_cell_length_c 11.031229
_cell_angle_alpha 71.495177
_cell_angle_beta 55.111353
_cell_angle_gamma 51.896653
_cell_volume 754.149749
_symmetry_space_group_name_H-M "P -1"
_symmetry_group_IT_number 2
_symmetry_cell_setting 'triclinic'
loop_
_space_group_symop_operation_xyz
x,y,z
-x,-y,-z
loop_
_atom_site_type_symbol
_atom_site_label
_atom_site_fract_x
_atom_site_fract_y
_atom_site_fract_z
Si Si1 0.455971 0.496364 0.384560
Si Si2 0.560333 0.039357 0.300340
Si Si3 0.274039 0.668940 0.211297
Si Si4 0.972387 0.493090 0.830836
Si Si5 0.417471 0.315233 0.102359
Si Si6 0.130787 0.656420 0.860636
Si Si7 0.704559 0.727086 0.434292
Si Si8 0.058845 0.002549 0.827932
O O1 0.500000 0.500000 0.500000
O O2 0.295795 0.656301 0.348758
O O3 0.647213 0.432288 0.226955
O O4 0.394155 0.367597 0.456665
O O5 0.514682 0.142956 0.173475
O O6 0.369462 0.141707 0.453104
O O7 0.627254 0.845007 0.322283
O O8 0.734603 0.035272 0.266332
O O9 0.334615 0.483179 0.183880
O O10 0.081349 0.822340 0.215435
O O11 0.429461 0.692762 0.063901
O O12 0.762239 0.648819 0.880199
O O13 0.085474 0.559057 0.816359
O O14 0.079945 0.405471 0.673133
O O15 0.953260 0.364885 0.963082
O O16 0.056130 0.848791 0.815215
O O17 0.000000 0.000000 0.000000
#
# Coordination Sequence:
#
# PCOD9055321 Si02
#       8
#     2   2   2   2   2   2   2   2
#     4  12  23  47  69  92 136 182 221 268 335 396
#     4  11  23  40  66 100 134 171 213 283 329 389
#     4  11  23  39  68 102 127 173 226 273 327 396
#     4  11  24  41  65  95 132 178 220 268 326 399
#     4  11  21  41  67  99 133 166 225 276 328 390
#     4  11  23  43  65  93 132 177 225 265 324 403
#     4  11  23  42  63  98 132 175 214 267 338 385
#     4  12  22  41  70  99 131 168 222 278 333 383
#
# _framework density 21.215945999999999
#
# number of rings (size 3 to 8) (size 9 to 14) (size 15 to 20)
#    0.000    0.750    6.250    2.250    0.000    0.500 
#    6.750    1.250    0.000    0.000    0.000    0.000 
#    0.000    0.000    0.000    0.000    0.000    0.000 
#
# Total GULP energy -89310.614951 kJ/mol
# GULP energy per Si atom -5581.913434 kJ/mol
# Density = 2.116766 g / cm^3
# Si number density = 21.215946 Si / 1000 Ang^3
#
#
#
# Elastic Constant Matrix: (Units=GPa)
#
#
# Indices 1 2 3 4 5 6 
#
# 1 60.3392 31.1602 27.9880 -14.3426 -20.5824 -14.2811
# 2 31.1602 89.8424 22.6140 -31.5802 -4.3162 -17.7294
# 3 27.9880 22.6140 92.2581 -11.1026 -17.0168 -3.3637
# 4 -14.3426 -31.5802 -11.1026 46.2803 -5.6077 -0.7020
# 5 -20.5824 -4.3162 -17.0168 -5.6077 39.9803 -6.3697
# 6 -14.2811 -17.7294 -3.3637 -0.7020 -6.3697 30.8692
#
#
#
# Elastic Compliance Matrix: (Units=1/GPa)
#
#
# Indices 1 2 3 4 5 6 
#
# 1 0.032719 -0.002431 -0.003952 0.010113 0.019104 0.017482
# 2 -0.002431 0.018985 -0.001346 0.012486 0.003677 0.010675
# 3 -0.003952 -0.001346 0.013187 0.001447 0.003573 -0.000394
# 4 0.010113 0.012486 0.001447 0.035629 0.014693 0.015849
# 5 0.019104 0.003677 0.003573 0.014693 0.042069 0.020354
# 6 0.017482 0.010675 -0.000394 0.015849 0.020354 0.051131
#
#
# Mechanical properties :
#
#
# Convention : Reuss Voigt Hill
#
# Bulk Modulus (GPa) = 20.22939 45.10713 32.66826
# Shear Modulus (GPa) = 22.15770 34.13779 28.14775
#
# Velocity S-wave (km/s) = 3.23521 4.01566 3.64638
# Velocity P-wave (km/s) = 4.84883 6.54277 5.75843
#
# Compressibility (1/GPa) = 0.04943303
#
# Stress axis : x y z
#
# Youngs Moduli (GPa) = 30.56287 52.67436 75.83326
#
# Poissons Ratio (x) = 0.12804 0.29970
# Poissons Ratio (y) = 0.07429 0.10207
# Poissons Ratio (z) = 0.12079 0.07090
#
# Static dielectric constant tensor:
#      x y z
#    x 1.785530 0.016930 0.042780 
#    y 0.016930 1.793120 0.003420 
#    z 0.042780 0.003420 1.794770 
# 
# From -- ./inp_files/416365.got.cif
#   From: 2010.05.17/outbox.cif.g08.bks.cpg/sg2_209_cif.got.tgz:416365.got - 2010.06.03 11:33:40.
