data_PCOD9055889
_publ_section_title
;
Structure prediction by ZEFSAII (Michael W. Deem and Ramdas Pophale) SiO2 
 PCOD9055889
Probable space group: P -1
;
_chemical_formula_sum "Si O2"
_cell_formula_units_Z 14
_cell_length_a 15.221696
_cell_length_b 21.745829
_cell_length_c 8.707551
_cell_angle_alpha 130.151781
_cell_angle_beta 31.458026
_cell_angle_gamma 149.796672
_cell_volume 708.287851
_symmetry_space_group_name_H-M "P -1"
_symmetry_group_IT_number 2
_symmetry_cell_setting 'triclinic'
loop_
_space_group_symop_operation_xyz
x,y,z
-x,-y,-z
loop_
_atom_site_type_symbol
_atom_site_label
_atom_site_fract_x
_atom_site_fract_y
_atom_site_fract_z
Si Si1 0.685195 0.759066 0.822586
Si Si2 0.721978 0.055125 0.883865
Si Si3 0.769929 0.386377 0.532376
Si Si4 0.130142 0.748307 0.780424
Si Si5 0.484437 0.501795 0.707433
Si Si6 0.574097 0.192016 0.878974
Si Si7 0.910549 0.544956 0.300475
O O1 0.550708 0.620577 0.819142
O O2 0.002117 0.865428 0.490272
O O3 0.543747 0.745317 0.159692
O O4 0.567188 0.774837 0.893648
O O5 0.786952 0.149579 0.063680
O O6 0.500000 0.000000 0.000000
O O7 0.616743 0.940771 0.958182
O O8 0.866100 0.333434 0.259435
O O9 0.775615 0.455895 0.508800
O O10 0.000000 0.500000 0.500000
O O11 0.315624 0.804412 0.441554
O O12 0.816922 0.637631 0.014573
O O13 0.500000 0.500000 0.500000
O O14 0.705676 0.526953 0.492358
O O15 0.829930 0.307678 0.791530
O O16 0.000000 0.500000 0.000000
#
# Coordination Sequence:
#
# PCOD9055889 Si02
#       7
#     2   2   2   2   2   2   2
#     4  11  22  43  70  94 135 175 216 277 336 394
#     4  12  27  43  66  96 134 184 233 270 321 406
#     4  11  21  44  69 102 138 166 216 282 343 391
#     4  11  23  44  69  94 138 176 218 280 337 389
#     4  12  22  38  67 102 133 167 221 279 338 391
#     4  11  24  46  65  97 134 181 222 268 342 396
#     4  12  25  39  72 104 134 172 222 279 341 404
#
# _framework density 19.765974
#
# number of rings (size 3 to 8) (size 9 to 14) (size 15 to 20)
#    0.000    0.571    5.714    3.429    2.000    3.429 
#    0.000    2.857    0.000    0.000    0.000    0.000 
#    0.000    0.000    0.000    0.000    0.000    0.000 
#
# Total GULP energy -78105.187972 kJ/mol
# GULP energy per Si atom -5578.941998 kJ/mol
# Density = 1.972099 g / cm^3
# Si number density = 19.765974 Si / 1000 Ang^3
#
#
#
# Elastic Constant Matrix: (Units=GPa)
#
#
# Indices 1 2 3 4 5 6 
#
# 1 135.1066 54.1754 57.7570 -3.2336 -28.8345 -10.7712
# 2 54.1754 122.5212 48.6657 -4.0375 -12.2902 -12.3221
# 3 57.7570 48.6657 144.1184 -16.8300 -18.5330 9.5687
# 4 -3.2336 -4.0375 -16.8300 31.5574 -9.4500 -3.3499
# 5 -28.8345 -12.2902 -18.5330 -9.4500 39.8746 -3.0017
# 6 -10.7712 -12.3221 9.5687 -3.3499 -3.0017 25.0474
#
#
#
# Elastic Compliance Matrix: (Units=1/GPa)
#
#
# Indices 1 2 3 4 5 6 
#
# 1 0.011868 -0.002592 -0.003112 0.002062 0.007290 0.006167
# 2 -0.002592 0.011132 -0.002959 0.000386 0.000696 0.005627
# 3 -0.003112 -0.002959 0.010472 0.005002 0.002451 -0.005832
# 4 0.002062 0.000386 0.005002 0.039371 0.013723 0.006076
# 5 0.007290 0.000696 0.002451 0.013723 0.035607 0.008644
# 6 0.006167 0.005627 -0.005832 0.006076 0.008644 0.049421
#
#
# Mechanical properties :
#
#
# Convention : Reuss Voigt Hill
#
# Bulk Modulus (GPa) = 61.93900 80.32693 71.13296
# Shear Modulus (GPa) = 27.68862 35.37241 31.53051
#
# Velocity S-wave (km/s) = 3.74682 4.23491 3.99832
# Velocity P-wave (km/s) = 7.07972 8.03989 7.57503
#
# Compressibility (1/GPa) = 0.01614492
#
# Stress axis : x y z
#
# Youngs Moduli (GPa) = 84.25879 89.83152 95.49515
#
# Poissons Ratio (x) = 0.23286 0.29720
# Poissons Ratio (y) = 0.21842 0.28258
# Poissons Ratio (z) = 0.26223 0.26582
#
# Static dielectric constant tensor:
#      x y z
#    x 1.711390 -0.005780 -0.026920 
#    y -0.005780 1.404270 -0.121680 
#    z -0.026920 -0.121680 1.934510 
# 
# From -- ./inp_files/182877.got.cif
#   From: 2010.05.17/outbox.cif.g08.bks.cpg/sg2_92_cif.got.tgz:182877.got - 2010.06.03 11:33:40.
