data_PCOD9055658
_publ_section_title
;
Structure prediction by ZEFSAII (Michael W. Deem and Ramdas Pophale) SiO2 
 PCOD9055658
Probable space group: P -1
;
_chemical_formula_sum "Si O2"
_cell_formula_units_Z 15
_cell_length_a 14.515677
_cell_length_b 11.543616
_cell_length_c 9.583933
_cell_angle_alpha 140.187013
_cell_angle_beta 140.077845
_cell_angle_gamma 37.322593
_cell_volume 570.827126
_symmetry_space_group_name_H-M "P -1"
_symmetry_group_IT_number 2
_symmetry_cell_setting 'triclinic'
loop_
_space_group_symop_operation_xyz
x,y,z
-x,-y,-z
loop_
_atom_site_type_symbol
_atom_site_label
_atom_site_fract_x
_atom_site_fract_y
_atom_site_fract_z
Si Si1 0.000000 0.500000 0.500000
Si Si2 0.562630 0.255151 0.878708
Si Si3 0.827389 0.752938 0.151612
Si Si4 0.269088 0.151340 0.460085
Si Si5 0.184802 0.378553 0.283964
Si Si6 0.223101 0.567394 0.031983
Si Si7 0.600422 0.434353 0.332750
Si Si8 0.152142 0.869268 0.449240
O O1 0.883541 0.735938 0.509993
O O2 0.860208 0.437578 0.214309
O O3 0.425773 0.185569 0.693027
O O4 0.673173 0.080619 0.733222
O O5 0.500000 0.500000 0.000000
O O6 0.663271 0.237951 0.119302
O O7 0.024896 0.596778 0.258956
O O8 0.773112 0.980984 0.353651
O O9 0.792941 0.763892 0.954728
O O10 0.751375 0.627128 0.022227
O O11 0.162593 0.316548 0.358927
O O12 0.344639 0.403507 0.504835
O O13 0.404318 0.538648 0.205146
O O14 0.106981 0.779409 0.179174
O O15 0.700647 0.337327 0.499344
O O16 0.000000 0.000000 0.500000
#
# Coordination Sequence:
#
# PCOD9055658 Si02
#       8
#     1   2   2   2   2   2   2   2
#     4  12  26  48  74 102 152 196 240 300 376 430
#     4  11  24  44  70 102 140 187 248 294 363 432
#     4  11  23  43  71 105 137 193 240 295 363 435
#     4  11  24  45  70 101 141 195 241 301 353 446
#     4  11  21  42  75 101 141 188 244 295 360 438
#     4  12  27  48  68 107 153 184 245 311 365 437
#     4  12  24  44  72 107 147 185 241 313 365 431
#     4  12  25  45  75 106 141 194 248 302 368 438
#
# _framework density 26.277656
#
# number of rings (size 3 to 8) (size 9 to 14) (size 15 to 20)
#    0.000    0.533    6.667    2.000    1.867    0.533 
#    4.800    1.333    0.000    0.000    0.000    0.000 
#    0.000    0.000    0.000    0.000    0.000    0.000 
#
# Total GULP energy -83694.105528 kJ/mol
# GULP energy per Si atom -5579.607035 kJ/mol
# Density = 2.621785 g / cm^3
# Si number density = 26.277656 Si / 1000 Ang^3
#
#
#
# Elastic Constant Matrix: (Units=GPa)
#
#
# Indices 1 2 3 4 5 6 
#
# 1 80.3049 17.2896 36.0486 -1.1121 10.0544 -3.1859
# 2 17.2896 87.5014 37.7058 12.6994 1.5800 -12.4470
# 3 36.0486 37.7058 172.0969 3.4941 -16.3078 -3.3124
# 4 -1.1121 12.6994 3.4941 56.1899 -8.0008 3.3278
# 5 10.0544 1.5800 -16.3078 -8.0008 52.0998 -2.7498
# 6 -3.1859 -12.4470 -3.3124 3.3278 -2.7498 41.3031
#
#
#
# Elastic Compliance Matrix: (Units=1/GPa)
#
#
# Indices 1 2 3 4 5 6 
#
# 1 0.014637 -0.001515 -0.003087 0.000289 -0.003692 0.000156
# 2 -0.001515 0.014007 -0.002726 -0.003453 -0.001301 0.004077
# 3 -0.003087 -0.002726 0.007325 0.000551 0.003039 -0.000314
# 4 0.000289 -0.003453 0.000551 0.019118 0.003035 -0.002312
# 5 -0.003692 -0.001301 0.003039 0.003035 0.021403 0.000747
# 6 0.000156 0.004077 -0.000314 -0.002312 0.000747 0.025663
#
#
# Mechanical properties :
#
#
# Convention : Reuss Voigt Hill
#
# Bulk Modulus (GPa) = 46.91942 57.99901 52.45922
# Shear Modulus (GPa) = 40.35081 46.50917 43.42999
#
# Velocity S-wave (km/s) = 3.92287 4.21160 4.06979
# Velocity P-wave (km/s) = 6.19779 6.76532 6.48776
#
# Compressibility (1/GPa) = 0.02131314
#
# Stress axis : x y z
#
# Youngs Moduli (GPa) = 68.32082 71.39214 136.51283
#
# Poissons Ratio (x) = 0.10817 0.42138
# Poissons Ratio (y) = 0.10352 0.37217
# Poissons Ratio (z) = 0.21089 0.19463
#
# Static dielectric constant tensor:
#      x y z
#    x 1.896070 0.265510 0.052270 
#    y 0.265510 1.860500 -0.068210 
#    z 0.052270 -0.068210 2.032010 
# 
# From -- ./inp_files/465987.got.cif
#   From: 2010.05.17/outbox.cif.g08.bks.cpg/sg2_233_cif.got.tgz:465987.got - 2010.06.03 11:33:40.
