data_PCOD9055274
_publ_section_title
;
Structure prediction by ZEFSAII (Michael W. Deem and Ramdas Pophale) SiO2 
 PCOD9055274
Probable space group: P -1
;
_chemical_formula_sum "Si O2"
_cell_formula_units_Z 15
_cell_length_a 11.462713
_cell_length_b 12.155185
_cell_length_c 9.237970
_cell_angle_alpha 47.182366
_cell_angle_beta 92.148860
_cell_angle_gamma 56.901289
_cell_volume 590.692287
_symmetry_space_group_name_H-M "P -1"
_symmetry_group_IT_number 2
_symmetry_cell_setting 'triclinic'
loop_
_space_group_symop_operation_xyz
x,y,z
-x,-y,-z
loop_
_atom_site_type_symbol
_atom_site_label
_atom_site_fract_x
_atom_site_fract_y
_atom_site_fract_z
Si Si1 0.106359 0.952302 0.230381
Si Si2 0.414329 0.419790 0.077954
Si Si3 0.777248 0.473689 0.730934
Si Si4 0.909057 0.330161 0.375268
Si Si5 0.790637 0.908421 0.640368
Si Si6 0.893527 0.650819 0.145829
Si Si7 0.445345 0.878471 0.138519
Si Si8 0.500000 0.500000 0.500000
O O1 0.023144 0.884733 0.352086
O O2 0.300232 0.723792 0.366587
O O3 0.158803 0.007283 0.320967
O O4 0.933202 0.205057 0.916239
O O5 0.285600 0.527829 0.116945
O O6 0.587263 0.134564 0.363500
O O7 0.500000 0.500000 0.000000
O O8 0.281471 0.517018 0.851842
O O9 0.588903 0.680933 0.448320
O O10 0.893834 0.509551 0.712047
O O11 0.059507 0.235037 0.350785
O O12 0.877970 0.497279 0.334582
O O13 0.807860 0.750052 0.890634
O O14 0.765089 0.884959 0.027864
O O15 0.457920 0.705718 0.211060
O O16 0.500000 0.000000 0.000000
#
# Coordination Sequence:
#
# PCOD9055274 Si02
#       8
#     2   2   2   2   2   2   2   1
#     4  11  22  44  68 101 139 182 238 293 348 427
#     4  12  22  36  71 104 144 190 229 287 359 431
#     4  11  24  47  72  99 145 186 230 300 366 417
#     4  12  24  40  70 107 142 187 234 285 363 431
#     4  11  21  41  65  99 144 179 228 290 346 429
#     4  11  24  46  66 102 145 182 236 296 358 428
#     4  12  27  51  75 102 143 187 250 310 353 430
#     4  12  24  50  76  98 140 190 236 308 362 412
#
# _framework density 25.393930999999998
#
# number of rings (size 3 to 8) (size 9 to 14) (size 15 to 20)
#    0.000    0.533    8.000    2.400    0.000    2.667 
#    2.400    0.000    0.000    0.000    0.000    0.000 
#    0.000    0.000    0.000    0.000    0.000    0.000 
#
# Total GULP energy -83653.374546 kJ/mol
# GULP energy per Si atom -5576.891636 kJ/mol
# Density = 2.533613 g / cm^3
# Si number density = 25.393931 Si / 1000 Ang^3
#
#
#
# Elastic Constant Matrix: (Units=GPa)
#
#
# Indices 1 2 3 4 5 6 
#
# 1 91.9375 14.1493 29.3682 -18.1453 0.5705 -9.6007
# 2 14.1493 80.3662 15.4702 -31.9367 2.9174 -11.8841
# 3 29.3682 15.4702 103.1149 -18.7291 3.9646 4.7182
# 4 -18.1453 -31.9367 -18.7291 42.7799 0.2148 -1.2444
# 5 0.5705 2.9174 3.9646 0.2148 57.6482 -3.2154
# 6 -9.6007 -11.8841 4.7182 -1.2444 -3.2154 25.6453
#
#
#
# Elastic Compliance Matrix: (Units=1/GPa)
#
#
# Indices 1 2 3 4 5 6 
#
# 1 0.013519 0.001435 -0.003383 0.005516 0.000377 0.006663
# 2 0.001435 0.020173 -0.001097 0.015504 -0.000416 0.010787
# 3 -0.003383 -0.001097 0.011527 0.002685 -0.000930 -0.003882
# 4 0.005516 0.015504 0.002685 0.038775 -0.000579 0.010565
# 5 0.000377 -0.000416 -0.000930 -0.000579 0.017558 0.002293
# 6 0.006663 0.010787 -0.003882 0.010565 0.002293 0.048001
#
#
# Mechanical properties :
#
#
# Convention : Reuss Voigt Hill
#
# Bulk Modulus (GPa) = 25.55660 43.71043 34.63352
# Shear Modulus (GPa) = 29.64084 39.64341 34.64213
#
# Velocity S-wave (km/s) = 3.42020 3.95541 3.69750
# Velocity P-wave (km/s) = 5.06783 6.17338 5.64772
#
# Compressibility (1/GPa) = 0.03912884
#
# Stress axis : x y z
#
# Youngs Moduli (GPa) = 73.96995 49.57125 86.75285
#
# Poissons Ratio (x) = -0.07112 0.29349
# Poissons Ratio (y) = -0.10613 0.09514
# Poissons Ratio (z) = 0.25025 0.05436
#
# Static dielectric constant tensor:
#      x y z
#    x 2.675130 0.578770 -0.156130 
#    y 0.578770 2.567360 -0.006980 
#    z -0.156130 -0.006980 2.035870 
# 
# From -- ./inp_files/430931.got.cif
#   From: 2010.05.17/outbox.cif.g08.bks.cpg/sg2_216_cif.got.tgz:430931.got - 2010.06.03 11:33:40.
