data_PCOD9055019
_publ_section_title
;
Structure prediction by ZEFSAII (Michael W. Deem and Ramdas Pophale) SiO2 
 PCOD9055019
Probable space group: P -1
;
_chemical_formula_sum "Si O2"
_cell_formula_units_Z 14
_cell_length_a 24.155477
_cell_length_b 8.273983
_cell_length_c 16.028735
_cell_angle_alpha 146.090572
_cell_angle_beta 158.555550
_cell_angle_gamma 33.087209
_cell_volume 618.924233
_symmetry_space_group_name_H-M "P -1"
_symmetry_group_IT_number 2
_symmetry_cell_setting 'triclinic'
loop_
_space_group_symop_operation_xyz
x,y,z
-x,-y,-z
loop_
_atom_site_type_symbol
_atom_site_label
_atom_site_fract_x
_atom_site_fract_y
_atom_site_fract_z
Si Si1 0.376749 0.387796 0.673735
Si Si2 0.451995 0.098647 0.882037
Si Si3 0.889294 0.581525 0.798329
Si Si4 0.084716 0.052358 0.725606
Si Si5 0.137576 0.432168 0.518044
Si Si6 0.607090 0.789922 0.808135
Si Si7 0.130438 0.792473 0.030691
O O1 0.278418 0.468454 0.483493
O O2 0.247781 0.439230 0.592170
O O3 0.475796 0.024921 0.665195
O O4 0.486583 0.608969 0.928464
O O5 0.263463 0.168756 0.633556
O O6 0.536389 0.840157 0.822857
O O7 0.500000 0.000000 0.000000
O O8 0.003110 0.353186 0.792219
O O9 0.000000 0.500000 0.000000
O O10 0.841813 0.946200 0.875644
O O11 0.103399 0.730522 0.656471
O O12 0.255021 0.058827 0.940662
O O13 0.000000 0.000000 0.500000
O O14 0.972007 0.386682 0.239280
O O15 0.712338 0.430098 0.797122
O O16 0.000000 0.000000 0.000000
#
# Coordination Sequence:
#
# PCOD9055019 Si02
#       7
#     2   2   2   2   2   2   2
#     4  11  21  43  67  95 132 178 222 272 336 397
#     4  11  24  39  63 104 138 165 222 293 334 379
#     4  12  28  44  65 100 147 172 212 284 353 392
#     4  12  18  41  73  96 121 178 231 264 321 403
#     4  11  21  40  73  97 125 174 236 274 316 404
#     4  11  21  39  71  94 125 176 232 270 320 399
#     4  12  23  43  68 103 130 175 228 274 329 409
#
# _framework density 22.619893999999999
#
# number of rings (size 3 to 8) (size 9 to 14) (size 15 to 20)
#    0.000    0.571    8.571    0.857    2.000    1.714 
#    0.000    2.143    0.000    0.000    0.000    0.000 
#    0.000    0.000    0.000    0.000    0.000    0.000 
#
# Total GULP energy -77938.177034 kJ/mol
# GULP energy per Si atom -5567.012645 kJ/mol
# Density = 2.256841 g / cm^3
# Si number density = 22.619894 Si / 1000 Ang^3
#
#
#
# Elastic Constant Matrix: (Units=GPa)
#
#
# Indices 1 2 3 4 5 6 
#
# 1 37.6777 21.8288 2.1002 -15.5519 -23.8353 8.5585
# 2 21.8288 152.9753 12.0097 -16.5246 -7.5720 -4.8698
# 3 2.1002 12.0097 73.7431 -5.8366 -8.0491 2.7772
# 4 -15.5519 -16.5246 -5.8366 49.9282 12.7980 -2.4762
# 5 -23.8353 -7.5720 -8.0491 12.7980 28.6928 -7.0022
# 6 8.5585 -4.8698 2.7772 -2.4762 -7.0022 21.5639
#
#
#
# Elastic Compliance Matrix: (Units=1/GPa)
#
#
# Indices 1 2 3 4 5 6 
#
# 1 0.067207 -0.007326 0.005645 0.005765 0.049936 -0.012178
# 2 -0.007326 0.007760 -0.001542 0.001360 -0.004185 0.003656
# 3 0.005645 -0.001542 0.014616 0.000940 0.007492 -0.001930
# 4 0.005765 0.001360 0.000940 0.023725 -0.005450 -0.001148
# 5 0.049936 -0.004185 0.007492 -0.005450 0.080702 0.003850
# 6 -0.012178 0.003656 -0.001930 -0.001148 0.003850 0.053400
#
#
# Mechanical properties :
#
#
# Convention : Reuss Voigt Hill
#
# Bulk Modulus (GPa) = 12.02870 37.36372 24.69621
# Shear Modulus (GPa) = 17.75774 35.26748 26.51261
#
# Velocity S-wave (km/s) = 2.80491 3.95287 3.42730
# Velocity P-wave (km/s) = 3.97735 6.11454 5.15785
#
# Compressibility (1/GPa) = 0.08313452
#
# Stress axis : x y z
#
# Youngs Moduli (GPa) = 14.87950 128.87241 68.41915
#
# Poissons Ratio (x) = 0.94416 -0.38620
# Poissons Ratio (y) = 0.10901 0.10550
# Poissons Ratio (z) = -0.08399 0.19871
#
# Static dielectric constant tensor:
#      x y z
#    x 1.902070 0.087550 -0.009160 
#    y 0.087550 2.067820 0.001080 
#    z -0.009160 0.001080 1.871300 
# 
# From -- ./inp_files/180553.got.cif
#   From: 2010.05.17/outbox.cif.g08.bks.cpg/sg2_91_cif.got.tgz:180553.got - 2010.06.03 11:33:40.
