data_PCOD9055113
_publ_section_title
;
Structure prediction by ZEFSAII (Michael W. Deem and Ramdas Pophale) SiO2 
 PCOD9055113
Probable space group: P -1
;
_chemical_formula_sum "Si O2"
_cell_formula_units_Z 12
_cell_length_a 15.086150
_cell_length_b 13.457241
_cell_length_c 19.112268
_cell_angle_alpha 18.404096
_cell_angle_beta 29.606751
_cell_angle_gamma 30.037721
_cell_volume 584.219856
_symmetry_space_group_name_H-M "P -1"
_symmetry_group_IT_number 2
_symmetry_cell_setting 'triclinic'
loop_
_space_group_symop_operation_xyz
x,y,z
-x,-y,-z
loop_
_atom_site_type_symbol
_atom_site_label
_atom_site_fract_x
_atom_site_fract_y
_atom_site_fract_z
Si Si1 0.583040 0.192175 0.754963
Si Si2 0.563406 0.142418 0.037416
Si Si3 0.979095 0.884827 0.741304
Si Si4 0.372932 0.831526 0.655468
Si Si5 0.380564 0.926102 0.427782
Si Si6 0.030931 0.845208 0.275064
O O1 0.525183 0.573104 0.556707
O O2 0.486210 0.145207 0.780020
O O3 0.803131 0.031523 0.714964
O O4 0.500000 0.000000 0.000000
O O5 0.458179 0.170346 0.164484
O O6 0.474208 0.453437 0.842661
O O7 0.781207 0.106489 0.919573
O O8 0.174274 0.909284 0.559111
O O9 0.945662 0.090519 0.700325
O O10 0.000000 0.500000 0.000000
O O11 0.363376 0.985472 0.482431
O O12 0.500000 0.000000 0.500000
O O13 0.162618 0.897082 0.782851
O O14 0.000000 0.500000 0.500000
#
# Coordination Sequence:
#
# PCOD9055113 Si02
#       6
#     2   2   2   2   2   2
#     4  12  20  39  69  92 129 168 207 259 324 382
#     4  12  24  42  66  98 128 165 214 268 317 376
#     4  11  21  40  67  94 128 172 213 258 325 383
#     4  11  23  43  65  86 129 175 208 255 323 378
#     4  11  25  40  65 101 126 161 218 268 311 381
#     4  11  22  40  66  94 127 173 214 259 323 385
#
# _framework density 20.540213000000001
#
# number of rings (size 3 to 8) (size 9 to 14) (size 15 to 20)
#    0.000    0.667    6.667    1.500    0.000    2.667 
#    0.000    0.833    0.000    0.000    0.000    0.000 
#    0.000    0.000    0.000    0.000    0.000    0.000 
#
# Total GULP energy -67004.251002 kJ/mol
# GULP energy per Si atom -5583.687584 kJ/mol
# Density = 2.049346 g / cm^3
# Si number density = 20.540213 Si / 1000 Ang^3
#
#
#
# Elastic Constant Matrix: (Units=GPa)
#
#
# Indices 1 2 3 4 5 6 
#
# 1 89.4004 39.8391 39.5494 21.7151 -23.3359 -19.5814
# 2 39.8391 100.3739 30.9958 27.1809 -16.4857 -25.8619
# 3 39.5494 30.9958 54.3780 26.3628 -14.7734 3.0993
# 4 21.7151 27.1809 26.3628 47.9561 4.3315 -15.2499
# 5 -23.3359 -16.4857 -14.7734 4.3315 32.2101 9.3450
# 6 -19.5814 -25.8619 3.0993 -15.2499 9.3450 43.7540
#
#
#
# Elastic Compliance Matrix: (Units=1/GPa)
#
#
# Indices 1 2 3 4 5 6 
#
# 1 0.021155 -0.001033 -0.014737 0.001630 0.005098 0.009380
# 2 -0.001033 0.015489 -0.007032 -0.002049 0.001887 0.008074
# 3 -0.014737 -0.007032 0.059219 -0.034793 0.027098 -0.032861
# 4 0.001630 -0.002049 -0.034793 0.051564 -0.030435 0.026455
# 5 0.005098 0.001887 0.027098 -0.030435 0.058501 -0.021625
# 6 0.009380 0.008074 -0.032861 0.026455 -0.021625 0.047992
#
#
# Mechanical properties :
#
#
# Convention : Reuss Voigt Hill
#
# Bulk Modulus (GPa) = 19.89704 51.65788 35.77746
# Shear Modulus (GPa) = 15.80893 33.70189 24.75541
#
# Velocity S-wave (km/s) = 2.77728 4.05504 3.47539
# Velocity P-wave (km/s) = 4.47127 6.86504 5.79314
#
# Compressibility (1/GPa) = 0.05025874
#
# Stress axis : x y z
#
# Youngs Moduli (GPa) = 47.27099 64.56082 16.88642
#
# Poissons Ratio (x) = 0.06668 0.24886
# Poissons Ratio (y) = 0.04882 0.11875
# Poissons Ratio (z) = 0.69664 0.45400
#
# Static dielectric constant tensor:
#      x y z
#    x 1.739270 0.001490 0.048470 
#    y 0.001490 1.738130 0.059680 
#    z 0.048470 0.059680 1.629990 
# 
# From -- ./inp_files/168947.got.cif
#   From: 2010.05.17/outbox.cif.g08.bks.cpg/sg2_85_cif.got.tgz:168947.got - 2010.06.03 11:33:40.
