data_PCOD9055863
_publ_section_title
;
Structure prediction by ZEFSAII (Michael W. Deem and Ramdas Pophale) SiO2 
 PCOD9055863
Probable space group: P -1
;
_chemical_formula_sum "Si O2"
_cell_formula_units_Z 16
_cell_length_a 14.865088
_cell_length_b 5.655595
_cell_length_c 9.218359
_cell_angle_alpha 75.026208
_cell_angle_beta 117.938788
_cell_angle_gamma 101.456714
_cell_volume 658.682837
_symmetry_space_group_name_H-M "P -1"
_symmetry_group_IT_number 2
_symmetry_cell_setting 'triclinic'
loop_
_space_group_symop_operation_xyz
x,y,z
-x,-y,-z
loop_
_atom_site_type_symbol
_atom_site_label
_atom_site_fract_x
_atom_site_fract_y
_atom_site_fract_z
Si Si1 0.095731 0.155852 0.977489
Si Si2 0.766699 0.587332 0.455814
Si Si3 0.689015 0.903904 0.782261
Si Si4 0.398069 0.183307 0.562903
Si Si5 0.605739 0.338192 0.835321
Si Si6 0.337084 0.748003 0.807350
Si Si7 0.858427 0.041450 0.265451
Si Si8 0.983407 0.538529 0.654161
O O1 0.049717 0.401262 0.843747
O O2 0.143845 0.065493 0.878989
O O3 0.192038 0.124726 0.159215
O O4 0.000000 0.000000 0.000000
O O5 0.692871 0.639251 0.521963
O O6 0.692331 0.467844 0.294371
O O7 0.863936 0.451301 0.601122
O O8 0.826350 0.827982 0.389868
O O9 0.620032 0.948979 0.582644
O O10 0.652028 0.621226 0.841072
O O11 0.668522 0.124489 0.843401
O O12 0.504688 0.325098 0.663204
O O13 0.374026 0.981764 0.701994
O O14 0.585533 0.272703 0.999429
O O15 0.227928 0.775468 0.798300
O O16 0.970572 0.181208 0.336862
O O17 0.000000 0.500000 0.500000
#
# Coordination Sequence:
#
# PCOD9055863 Si02
#       8
#     2   2   2   2   2   2   2   2
#     4  12  29  44  69 107 146 196 246 307 373 450
#     4  11  25  42  74 106 148 186 254 310 367 442
#     4  12  29  52  77 109 158 200 248 310 384 452
#     4  11  29  46  77 112 145 196 254 315 370 448
#     4  12  27  52  82 108 151 204 250 312 382 449
#     4  11  24  45  75 109 148 189 252 314 373 446
#     4  11  21  44  66 102 140 195 240 303 375 440
#     4  12  24  41  70  97 141 195 244 296 370 443
#
# _framework density 24.290899
#
# number of rings (size 3 to 8) (size 9 to 14) (size 15 to 20)
#    0.000    0.500    3.750    3.000    8.750    1.000 
#    0.000    0.000    0.000    0.000    0.000    0.000 
#    0.000    0.000    0.000    0.000    0.000    0.000 
#
# Total GULP energy -89321.630372 kJ/mol
# GULP energy per Si atom -5582.601898 kJ/mol
# Density = 2.423561 g / cm^3
# Si number density = 24.290899 Si / 1000 Ang^3
#
#
#
# Elastic Constant Matrix: (Units=GPa)
#
#
# Indices 1 2 3 4 5 6 
#
# 1 11.7104 43.5012 -20.9182 -4.2295 27.7127 -8.7886
# 2 43.5012 72.8960 20.6140 -9.1233 1.4836 8.2514
# 3 -20.9182 20.6140 65.5791 -3.4533 23.3033 -8.5673
# 4 -4.2295 -9.1233 -3.4533 37.2543 6.8139 -6.9738
# 5 27.7127 1.4836 23.3033 6.8139 36.7929 8.2754
# 6 -8.7886 8.2514 -8.5673 -6.9738 8.2754 29.8794
#
#
#
# Elastic Compliance Matrix: (Units=1/GPa)
#
#
# Indices 1 2 3 4 5 6 
#
# 1 -0.005736 0.006996 -0.011053 -0.004883 0.014638 -0.011982
# 2 0.006996 0.008721 0.004330 0.006291 -0.010727 0.005330
# 3 -0.011053 0.004330 0.008724 -0.000576 0.003412 -0.003025
# 4 -0.004883 0.006291 -0.000576 0.029007 -0.002511 0.004127
# 5 0.014638 -0.010727 0.003412 -0.002511 0.014042 0.003771
# 6 -0.011982 0.005330 -0.003025 0.004127 0.003771 0.027523
#
#
# Mechanical properties :
#
#
# Convention : Reuss Voigt Hill
#
# Bulk Modulus (GPa) = 81.60172 26.28661 53.94416
# Shear Modulus (GPa) = 58.26111 27.91786 43.08948
#
# Velocity S-wave (km/s) = 4.90274 3.39383 4.21633
# Velocity P-wave (km/s) = 8.10651 5.11884 6.77931
#
# Compressibility (1/GPa) = 0.01225464
#
# Stress axis : x y z
#
# Youngs Moduli (GPa) = -174.33372 114.66291 114.62484
#
# Poissons Ratio (x) = -0.80218 1.26695
# Poissons Ratio (y) = 1.21964 -0.49629
# Poissons Ratio (z) = -1.92691 -0.49646
#
# Static dielectric constant tensor:
#      x y z
#    x 1.963350 -0.060600 0.100580 
#    y -0.060600 1.895390 -0.162720 
#    z 0.100580 -0.162720 1.851330 
# 
# From -- ./inp_files/49277.got.cif
#   From: 2010.05.17/outbox.cif.g08.bks.cpg/sg2_25_cif.got.tgz:49277.got - 2010.06.03 11:33:40.
