data_PCOD9055295
_publ_section_title
;
Structure prediction by ZEFSAII (Michael W. Deem and Ramdas Pophale) SiO2 
 PCOD9055295
Probable space group: P -1
;
_chemical_formula_sum "Si O2"
_cell_formula_units_Z 14
_cell_length_a 28.896730
_cell_length_b 28.611040
_cell_length_c 11.444497
_cell_angle_alpha 21.743372
_cell_angle_beta 22.476700
_cell_angle_gamma 9.906564
_cell_volume 596.949155
_symmetry_space_group_name_H-M "P -1"
_symmetry_group_IT_number 2
_symmetry_cell_setting 'triclinic'
loop_
_space_group_symop_operation_xyz
x,y,z
-x,-y,-z
loop_
_atom_site_type_symbol
_atom_site_label
_atom_site_fract_x
_atom_site_fract_y
_atom_site_fract_z
Si Si1 0.446127 0.815955 0.075617
Si Si2 0.583633 0.756145 0.163269
Si Si3 0.999308 0.113444 0.141879
Si Si4 0.446535 0.264308 0.238999
Si Si5 0.777928 0.315796 0.766875
Si Si6 0.112652 0.775566 0.537870
Si Si7 0.112872 0.369245 0.910857
O O1 0.502501 0.811609 0.085926
O O2 0.598818 0.537118 0.359073
O O3 0.556849 0.782079 0.780431
O O4 0.128469 0.085726 0.173004
O O5 0.691878 0.535737 0.501037
O O6 0.843613 0.605293 0.911706
O O7 0.312723 0.062271 0.145960
O O8 0.040685 0.989207 0.219631
O O9 0.246996 0.979539 0.883474
O O10 0.000000 0.000000 0.500000
O O11 0.727048 0.445681 0.016379
O O12 0.305888 0.298614 0.574421
O O13 0.865102 0.278465 0.522363
O O14 0.500000 0.500000 0.000000
O O15 0.000000 0.000000 0.000000
O O16 0.000000 0.500000 0.000000
#
# Coordination Sequence:
#
# PCOD9055295 Si02
#       7
#     2   2   2   2   2   2   2
#     4  11  21  41  66  99 129 167 225 272 346 403
#     4  11  25  46  72  93 137 181 219 296 344 381
#     4  12  22  40  65 100 138 173 216 275 352 398
#     4  12  25  41  68 100 134 184 230 274 334 413
#     4  11  23  41  66 100 130 170 227 270 334 410
#     4  11  22  37  63  97 138 170 204 282 338 400
#     4  12  28  49  68  97 138 184 239 282 325 405
#
# _framework density 23.452584999999999
#
# number of rings (size 3 to 8) (size 9 to 14) (size 15 to 20)
#    0.000    0.571    2.857    6.857    0.000    4.571 
#    0.000    0.000    0.000    0.000    0.000    0.000 
#    0.000    0.000    0.000    0.000    0.000    0.000 
#
# Total GULP energy -78077.507832 kJ/mol
# GULP energy per Si atom -5576.964845 kJ/mol
# Density = 2.339921 g / cm^3
# Si number density = 23.452585 Si / 1000 Ang^3
#
#
#
# Elastic Constant Matrix: (Units=GPa)
#
#
# Indices 1 2 3 4 5 6 
#
# 1 81.3816 36.2896 19.9236 7.7753 -11.1868 20.5171
# 2 36.2896 137.6669 13.3505 3.7863 0.3128 22.9406
# 3 19.9236 13.3505 79.9059 16.0206 8.8997 12.3948
# 4 7.7753 3.7863 16.0206 51.1983 1.9888 -7.5747
# 5 -11.1868 0.3128 8.8997 1.9888 25.5279 8.2285
# 6 20.5171 22.9406 12.3948 -7.5747 8.2285 35.1038
#
#
#
# Elastic Compliance Matrix: (Units=1/GPa)
#
#
# Indices 1 2 3 4 5 6 
#
# 1 0.019990 -0.002683 -0.003249 -0.004323 0.014489 -0.013112
# 2 -0.002683 0.008722 0.000055 -0.000912 0.000184 -0.004391
# 3 -0.003249 0.000055 0.015343 -0.004590 -0.005355 -0.003290
# 4 -0.004323 -0.000912 -0.004590 0.023567 -0.005719 0.011169
# 5 0.014489 0.000184 -0.005355 -0.005719 0.054508 -0.020709
# 6 -0.013112 -0.004391 -0.003290 0.011169 -0.020709 0.047446
#
#
# Mechanical properties :
#
#
# Convention : Reuss Voigt Hill
#
# Bulk Modulus (GPa) = 30.95921 48.67575 39.81748
# Shear Modulus (GPa) = 26.02848 37.65870 31.84359
#
# Velocity S-wave (km/s) = 3.33503 4.01151 3.68881
# Velocity P-wave (km/s) = 5.29711 6.50049 5.92940
#
# Compressibility (1/GPa) = 0.03230057
#
# Stress axis : x y z
#
# Youngs Moduli (GPa) = 50.02447 114.64845 65.17785
#
# Poissons Ratio (x) = 0.30766 0.21176
# Poissons Ratio (y) = 0.13424 -0.00359
# Poissons Ratio (z) = 0.16253 -0.00632
#
# Static dielectric constant tensor:
#      x y z
#    x 2.066470 0.057810 -0.059940 
#    y 0.057810 1.918220 -0.115630 
#    z -0.059940 -0.115630 1.972570 
# 
# From -- ./inp_files/477831.got.cif
#   From: 2010.05.17/outbox.cif.g08.bks.cpg/sg2_239_cif.got.tgz:477831.got - 2010.06.03 11:33:40.
