data_PCOD9055565
_publ_section_title
;
Structure prediction by ZEFSAII (Michael W. Deem and Ramdas Pophale) SiO2 
 PCOD9055565
Probable space group: P -1
;
_chemical_formula_sum "Si O2"
_cell_formula_units_Z 15
_cell_length_a 9.346258
_cell_length_b 13.418840
_cell_length_c 7.801089
_cell_angle_alpha 134.912093
_cell_angle_beta 117.735842
_cell_angle_gamma 59.476421
_cell_volume 587.641291
_symmetry_space_group_name_H-M "P -1"
_symmetry_group_IT_number 2
_symmetry_cell_setting 'triclinic'
loop_
_space_group_symop_operation_xyz
x,y,z
-x,-y,-z
loop_
_atom_site_type_symbol
_atom_site_label
_atom_site_fract_x
_atom_site_fract_y
_atom_site_fract_z
Si Si1 0.379464 0.948249 0.004026
Si Si2 0.000000 0.000000 0.000000
Si Si3 0.252551 0.721614 0.039420
Si Si4 0.162729 0.496285 0.200107
Si Si5 0.591973 0.749849 0.116711
Si Si6 0.638429 0.289171 0.556497
Si Si7 0.270675 0.390101 0.629347
Si Si8 0.007513 0.258543 0.336786
O O1 0.362017 0.802271 0.723445
O O2 0.495284 0.911531 0.195169
O O3 0.500000 0.000000 0.000000
O O4 0.187490 0.023803 0.044825
O O5 0.025645 0.124421 0.313938
O O6 0.217287 0.563520 0.846127
O O7 0.108913 0.815448 0.944737
O O8 0.430878 0.693023 0.009091
O O9 0.266668 0.788745 0.313450
O O10 0.279629 0.582002 0.277792
O O11 0.102683 0.591770 0.452113
O O12 0.286679 0.332032 0.068502
O O13 0.000000 0.500000 0.000000
O O14 0.704211 0.705162 0.295392
O O15 0.446548 0.352581 0.587068
O O16 0.137510 0.321903 0.383095
#
# Coordination Sequence:
#
# PCOD9055565 Si02
#       8
#     2   1   2   2   2   2   2   2
#     4  12  28  52  75 106 147 206 262 307 366 451
#     4  12  26  52  72 100 154 202 258 298 368 434
#     4  11  21  42  70 109 146 190 232 308 390 439
#     4  12  22  42  73 112 145 184 243 311 381 447
#     4  11  22  45  73 105 148 189 239 314 388 432
#     4  11  22  44  69 101 146 183 245 302 362 451
#     4  11  22  42  71 110 149 183 239 310 383 449
#     4  12  25  43  70 106 152 196 246 307 368 449
#
# _framework density 25.525777000000001
#
# number of rings (size 3 to 8) (size 9 to 14) (size 15 to 20)
#    0.000    0.533    6.667    2.000    1.867    1.067 
#    7.200    2.667    0.000    0.000    0.000    0.000 
#    0.000    0.000    0.000    0.000    0.000    0.000 
#
# Total GULP energy -83521.842272 kJ/mol
# GULP energy per Si atom -5568.122818 kJ/mol
# Density = 2.546768 g / cm^3
# Si number density = 25.525777 Si / 1000 Ang^3
#
#
#
# Elastic Constant Matrix: (Units=GPa)
#
#
# Indices 1 2 3 4 5 6 
#
# 1 145.1295 12.3792 -7.8779 9.3899 16.8084 4.6249
# 2 12.3792 60.9099 -6.2929 -3.5730 0.4479 1.5785
# 3 -7.8779 -6.2929 37.7271 0.7646 6.7728 6.9190
# 4 9.3899 -3.5730 0.7646 36.7013 6.8851 2.3115
# 5 16.8084 0.4479 6.7728 6.8851 28.3981 0.7187
# 6 4.6249 1.5785 6.9190 2.3115 0.7187 36.2470
#
#
#
# Elastic Compliance Matrix: (Units=1/GPa)
#
#
# Indices 1 2 3 4 5 6 
#
# 1 0.007826 -0.001329 0.002546 -0.001187 -0.004899 -0.001254
# 2 -0.001329 0.017150 0.002888 0.002153 -0.000663 -0.001253
# 3 0.002546 0.002888 0.030208 0.001047 -0.008856 -0.006108
# 4 -0.001187 0.002153 0.001047 0.029092 -0.006587 -0.001867
# 5 -0.004899 -0.000663 -0.008856 -0.006587 0.041784 0.001936
# 6 -0.001254 -0.001253 -0.006108 -0.001867 0.001936 0.029050
#
#
# Mechanical properties :
#
#
# Convention : Reuss Voigt Hill
#
# Bulk Modulus (GPa) = 15.77391 26.68703 21.23047
# Shear Modulus (GPa) = 29.75664 36.63983 33.19823
#
# Velocity S-wave (km/s) = 3.41801 3.79278 3.61026
# Velocity P-wave (km/s) = 4.66584 5.44591 5.07090
#
# Compressibility (1/GPa) = 0.06339580
#
# Stress axis : x y z
#
# Youngs Moduli (GPa) = 127.77862 58.30991 33.10336
#
# Poissons Ratio (x) = 0.07747 -0.08428
# Poissons Ratio (y) = 0.16977 -0.09561
# Poissons Ratio (z) = -0.32533 -0.16842
#
# Static dielectric constant tensor:
#      x y z
#    x 2.134160 -0.213810 -0.146150 
#    y -0.213810 2.471080 0.210090 
#    z -0.146150 0.210090 2.179790 
# 
# From -- ./inp_files/204833.got.cif
#   From: 2010.05.17/outbox.cif.g08.bks.cpg/sg2_103_cif.got.tgz:204833.got - 2010.06.03 11:33:40.
