data_PCOD9055621
_publ_section_title
;
Structure prediction by ZEFSAII (Michael W. Deem and Ramdas Pophale) SiO2 
 PCOD9055621
Probable space group: P -1
;
_chemical_formula_sum "Si O2"
_cell_formula_units_Z 16
_cell_length_a 21.151391
_cell_length_b 7.186262
_cell_length_c 11.948098
_cell_angle_alpha 66.908566
_cell_angle_beta 21.978492
_cell_angle_gamma 64.628065
_cell_volume 614.061632
_symmetry_space_group_name_H-M "P -1"
_symmetry_group_IT_number 2
_symmetry_cell_setting 'triclinic'
loop_
_space_group_symop_operation_xyz
x,y,z
-x,-y,-z
loop_
_atom_site_type_symbol
_atom_site_label
_atom_site_fract_x
_atom_site_fract_y
_atom_site_fract_z
Si Si1 0.930419 0.058855 0.223399
Si Si2 0.760397 0.115584 0.110692
Si Si3 0.574328 0.747960 0.234467
Si Si4 0.794656 0.515099 0.341180
Si Si5 0.538067 0.362143 0.249378
Si Si6 0.736226 0.421063 0.696132
Si Si7 0.655280 0.995383 0.829787
Si Si8 0.928422 0.517392 0.742811
O O1 0.796101 0.272893 0.374397
O O2 0.820081 0.912223 0.501478
O O3 0.089482 0.065295 0.046191
O O4 0.000000 0.000000 0.000000
O O5 0.587591 0.130518 0.462825
O O6 0.678746 0.166484 0.107712
O O7 0.853720 0.310476 0.936434
O O8 0.529983 0.530183 0.320021
O O9 0.614163 0.864829 0.031437
O O10 0.760496 0.692698 0.998306
O O11 0.656966 0.652527 0.455087
O O12 0.726449 0.561966 0.568667
O O13 0.000000 0.500000 0.000000
O O14 0.607448 0.462654 0.001802
O O15 0.921886 0.425422 0.441139
O O16 0.701073 0.202639 0.759845
O O17 0.500000 0.000000 0.000000
O O18 0.000000 0.500000 0.500000
#
# Coordination Sequence:
#
# PCOD9055621 Si02
#       8
#     2   2   2   2   2   2   2   2
#     4  11  25  45  70 102 140 186 239 288 358 423
#     4  11  24  43  73 107 141 185 239 292 356 422
#     4  11  23  40  72 100 143 187 231 287 359 417
#     4  11  27  44  67 102 142 185 233 296 348 421
#     4  11  23  45  71 103 140 181 242 286 351 427
#     4  11  25  44  71 105 138 182 241 287 360 422
#     4  11  25  46  68  99 144 189 234 290 355 425
#     4  11  21  42  72 107 137 184 229 299 352 425
#
# _framework density 26.056018000000002
#
# number of rings (size 3 to 8) (size 9 to 14) (size 15 to 20)
#    0.000    1.000    2.500    5.625    5.250    2.500 
#    2.250    1.250    0.000    0.000    0.000    0.000 
#    0.000    0.000    0.000    0.000    0.000    0.000 
#
# Total GULP energy -89462.248882 kJ/mol
# GULP energy per Si atom -5591.390555 kJ/mol
# Density = 2.599671 g / cm^3
# Si number density = 26.056018 Si / 1000 Ang^3
#
#
#
# Elastic Constant Matrix: (Units=GPa)
#
#
# Indices 1 2 3 4 5 6 
#
# 1 150.7167 19.7650 74.4586 -1.1927 -35.9633 -10.1136
# 2 19.7650 73.4868 19.2683 -0.7257 -22.2064 5.4841
# 3 74.4586 19.2683 200.0872 -0.7898 -21.5410 -12.0612
# 4 -1.1927 -0.7257 -0.7898 40.9860 -5.0840 -7.4390
# 5 -35.9633 -22.2064 -21.5410 -5.0840 83.5203 7.2362
# 6 -10.1136 5.4841 -12.0612 -7.4390 7.2362 36.1218
#
#
#
# Elastic Compliance Matrix: (Units=1/GPa)
#
#
# Indices 1 2 3 4 5 6 
#
# 1 0.008922 -0.000892 -0.002852 0.000769 0.002805 0.001277
# 2 -0.000892 0.015532 -0.000975 0.000034 0.003816 -0.003691
# 3 -0.002852 -0.000975 0.006246 0.000292 0.000012 0.001493
# 4 0.000769 0.000034 0.000292 0.025572 0.001515 0.005270
# 5 0.002805 0.003816 0.000012 0.001515 0.014497 -0.002382
# 6 0.001277 -0.003691 0.001493 0.005270 -0.002382 0.030663
#
#
# Mechanical properties :
#
#
# Convention : Reuss Voigt Hill
#
# Bulk Modulus (GPa) = 47.03445 72.36384 59.69914
# Shear Modulus (GPa) = 42.38771 52.84554 47.61663
#
# Velocity S-wave (km/s) = 4.03773 4.50839 4.27953
# Velocity P-wave (km/s) = 6.31095 7.41171 6.88337
#
# Compressibility (1/GPa) = 0.02126101
#
# Stress axis : x y z
#
# Youngs Moduli (GPa) = 112.07980 64.38140 160.11302
#
# Poissons Ratio (x) = 0.05742 0.45669
# Poissons Ratio (y) = 0.09997 0.15617
# Poissons Ratio (z) = 0.31969 0.06280
#
# Static dielectric constant tensor:
#      x y z
#    x 2.090330 -0.037400 0.027800 
#    y -0.037400 2.152450 -0.034520 
#    z 0.027800 -0.034520 2.083660 
# 
# From -- ./inp_files/469933.got.cif
#   From: 2010.05.17/outbox.cif.g08.bks.cpg/sg2_235_cif.got.tgz:469933.got - 2010.06.03 11:33:40.
