data_PCOD9055955
_publ_section_title
;
Structure prediction by ZEFSAII (Michael W. Deem and Ramdas Pophale) SiO2 
 PCOD9055955
Probable space group: P -1
;
_chemical_formula_sum "Si O2"
_cell_formula_units_Z 14
_cell_length_a 11.719097
_cell_length_b 13.963199
_cell_length_c 19.498420
_cell_angle_alpha 32.295734
_cell_angle_beta 23.206787
_cell_angle_gamma 32.568205
_cell_volume 638.052834
_symmetry_space_group_name_H-M "P -1"
_symmetry_group_IT_number 2
_symmetry_cell_setting 'triclinic'
loop_
_space_group_symop_operation_xyz
x,y,z
-x,-y,-z
loop_
_atom_site_type_symbol
_atom_site_label
_atom_site_fract_x
_atom_site_fract_y
_atom_site_fract_z
Si Si1 0.108710 0.609131 0.935076
Si Si2 0.835522 0.854614 0.205990
Si Si3 0.723952 0.199534 0.530327
Si Si4 0.287871 0.589748 0.211486
Si Si5 0.931788 0.296677 0.593441
Si Si6 0.628889 0.068158 0.456235
Si Si7 0.435936 0.421886 0.685418
O O1 0.353524 0.479247 0.931740
O O2 0.258341 0.756239 0.731180
O O3 0.000000 0.500000 0.000000
O O4 0.797990 0.691790 0.099145
O O5 0.599870 0.827257 0.296010
O O6 0.612155 0.906899 0.364477
O O7 0.122793 0.680443 0.178379
O O8 0.000000 0.000000 0.000000
O O9 0.663624 0.312242 0.566926
O O10 0.747323 0.363136 0.365455
O O11 0.000000 0.000000 0.500000
O O12 0.157594 0.728535 0.263884
O O13 0.174676 0.408855 0.394527
O O14 0.638757 0.424489 0.638078
O O15 0.068786 0.105860 0.591614
O O16 0.500000 0.000000 0.500000
#
# Coordination Sequence:
#
# PCOD9055955 Si02
#       7
#     2   2   2   2   2   2   2
#     4  12  25  44  74 108 146 184 243 307 368 425
#     4  12  27  46  71 102 144 191 240 297 366 441
#     4  11  26  49  70 101 156 194 240 298 366 438
#     4  11  22  42  70 101 146 187 229 303 369 426
#     4  11  21  44  73 100 142 188 236 300 367 427
#     4  12  24  44  73 106 143 182 245 302 360 437
#     4  11  25  45  73 107 141 199 245 294 369 439
#
# _framework density 21.941756999999999
#
# number of rings (size 3 to 8) (size 9 to 14) (size 15 to 20)
#    0.000    0.571    5.714    2.571    4.000    0.571 
#    0.000    1.429    0.000    0.000    0.000    0.000 
#    0.000    0.000    0.000    0.000    0.000    0.000 
#
# Total GULP energy -78134.203496 kJ/mol
# GULP energy per Si atom -5581.014535 kJ/mol
# Density = 2.189182 g / cm^3
# Si number density = 21.941757 Si / 1000 Ang^3
#
#
#
# Elastic Constant Matrix: (Units=GPa)
#
#
# Indices 1 2 3 4 5 6 
#
# 1 79.0301 26.0161 21.6220 -2.5491 -26.6212 -21.5996
# 2 26.0161 116.1131 26.2476 -0.0681 -3.6811 -18.6264
# 3 21.6220 26.2476 133.3914 -13.7137 -13.4788 -4.8465
# 4 -2.5491 -0.0681 -13.7137 29.2036 -4.3912 -6.9852
# 5 -26.6212 -3.6811 -13.4788 -4.3912 35.8507 4.8621
# 6 -21.5996 -18.6264 -4.8465 -6.9852 4.8621 33.9267
#
#
#
# Elastic Compliance Matrix: (Units=1/GPa)
#
#
# Indices 1 2 3 4 5 6 
#
# 1 0.022239 -0.002478 -0.000425 0.006901 0.015322 0.011962
# 2 -0.002478 0.010119 -0.001684 -0.000340 -0.002012 0.003956
# 3 -0.000425 -0.001684 0.008731 0.004685 0.003294 0.000545
# 4 0.006901 -0.000340 0.004685 0.041448 0.010309 0.011933
# 5 0.015322 -0.002012 0.003294 0.010309 0.040835 0.005391
# 6 0.011962 0.003956 0.000545 0.011933 0.005391 0.041025
#
#
# Mechanical properties :
#
#
# Convention : Reuss Voigt Hill
#
# Bulk Modulus (GPa) = 31.33312 52.92288 42.12800
# Shear Modulus (GPa) = 27.14323 36.77278 31.95800
#
# Velocity S-wave (km/s) = 3.52100 4.09825 3.82054
# Velocity P-wave (km/s) = 5.55347 6.82395 6.22123
#
# Compressibility (1/GPa) = 0.03191511
#
# Stress axis : x y z
#
# Youngs Moduli (GPa) = 44.96683 98.82677 114.53118
#
# Poissons Ratio (x) = 0.24489 0.04865
# Poissons Ratio (y) = 0.11143 0.19287
# Poissons Ratio (z) = 0.01910 0.16642
#
# Static dielectric constant tensor:
#      x y z
#    x 1.836310 -0.039210 0.018360 
#    y -0.039210 1.905120 0.023200 
#    z 0.018360 0.023200 1.820310 
# 
# From -- ./inp_files/343899.got.cif
#   From: 2010.05.17/outbox.cif.g08.bks.cpg/sg2_172_cif.got.tgz:343899.got - 2010.06.03 11:33:40.
