data_PCOD9055659
_publ_section_title
;
Structure prediction by ZEFSAII (Michael W. Deem and Ramdas Pophale) SiO2 
 PCOD9055659
Probable space group: P -1
;
_chemical_formula_sum "Si O2"
_cell_formula_units_Z 16
_cell_length_a 17.629151
_cell_length_b 7.596385
_cell_length_c 11.656701
_cell_angle_alpha 126.009024
_cell_angle_beta 33.087816
_cell_angle_gamma 127.236149
_cell_volume 666.616787
_symmetry_space_group_name_H-M "P -1"
_symmetry_group_IT_number 2
_symmetry_cell_setting 'triclinic'
loop_
_space_group_symop_operation_xyz
x,y,z
-x,-y,-z
loop_
_atom_site_type_symbol
_atom_site_label
_atom_site_fract_x
_atom_site_fract_y
_atom_site_fract_z
Si Si1 0.541647 0.800160 0.802736
Si Si2 0.609741 0.348632 0.276925
Si Si3 0.336353 0.853893 0.637620
Si Si4 0.624268 0.554662 0.954807
Si Si5 0.192054 0.680006 0.523073
Si Si6 0.879318 0.439926 0.802365
Si Si7 0.855269 0.017168 0.498525
Si Si8 0.157536 0.105766 0.090521
O O1 0.496625 0.831404 0.740882
O O2 0.709152 0.824405 0.625090
O O3 0.445006 0.566002 0.886434
O O4 0.500000 0.000000 0.000000
O O5 0.500000 0.500000 0.500000
O O6 0.670906 0.306524 0.306208
O O7 0.752773 0.418934 0.045687
O O8 0.295819 0.742417 0.523702
O O9 0.500000 0.000000 0.500000
O O10 0.217717 0.993067 0.865621
O O11 0.737122 0.437875 0.709632
O O12 0.705102 0.815176 0.969747
O O13 0.500000 0.500000 0.000000
O O14 0.164397 0.893399 0.571263
O O15 0.037816 0.514823 0.684569
O O16 0.861577 0.216101 0.660753
O O17 0.871589 0.655968 0.817402
O O18 0.011216 0.966394 0.280117
#
# Coordination Sequence:
#
# PCOD9055659 Si02
#       8
#     2   2   2   2   2   2   2   2
#     4  12  23  43  71 101 129 176 233 281 329 393
#     4  12  27  46  67  96 140 184 224 274 344 410
#     4  12  28  43  66  99 143 177 225 284 333 404
#     4  12  24  40  70 100 132 178 228 278 334 397
#     4  11  22  42  69  98 134 182 223 274 346 399
#     4  11  21  44  73  96 136 179 228 281 338 404
#     4  11  21  42  75 103 134 174 233 285 331 401
#     4  11  22  44  68 103 133 179 223 278 344 391
#
# _framework density 24.001792999999999
#
# number of rings (size 3 to 8) (size 9 to 14) (size 15 to 20)
#    0.000    0.500    6.250    3.000    3.500    3.500 
#    2.250    1.250    0.000    0.000    0.000    0.000 
#    0.000    0.000    0.000    0.000    0.000    0.000 
#
# Total GULP energy -89423.007193 kJ/mol
# GULP energy per Si atom -5588.937950 kJ/mol
# Density = 2.394716 g / cm^3
# Si number density = 24.001793 Si / 1000 Ang^3
#
#
#
# Elastic Constant Matrix: (Units=GPa)
#
#
# Indices 1 2 3 4 5 6 
#
# 1 129.4866 36.2433 23.1563 -15.1415 19.9799 21.6534
# 2 36.2433 54.3547 46.3821 -24.4243 -2.8601 23.0935
# 3 23.1563 46.3821 151.2244 -35.3714 -7.1076 19.1449
# 4 -15.1415 -24.4243 -35.3714 48.3608 13.7143 -7.7273
# 5 19.9799 -2.8601 -7.1076 13.7143 35.7615 0.2850
# 6 21.6534 23.0935 19.1449 -7.7273 0.2850 29.8873
#
#
#
# Elastic Compliance Matrix: (Units=1/GPa)
#
#
# Indices 1 2 3 4 5 6 
#
# 1 0.011314 -0.006002 0.000808 0.002751 -0.007669 -0.003292
# 2 -0.006002 0.041892 -0.006727 0.010586 0.001475 -0.020989
# 3 0.000808 -0.006727 0.009493 0.003894 -0.000593 -0.000456
# 4 0.002751 0.010586 0.003894 0.032585 -0.012380 -0.004124
# 5 -0.007669 0.001475 -0.000593 -0.012380 0.036986 0.001243
# 6 -0.003292 -0.020989 -0.000456 -0.004124 0.001243 0.051276
#
#
# Mechanical properties :
#
#
# Convention : Reuss Voigt Hill
#
# Bulk Modulus (GPa) = 25.73567 60.73657 43.23612
# Shear Modulus (GPa) = 22.69214 38.08754 30.38984
#
# Velocity S-wave (km/s) = 3.07813 3.98787 3.56216
# Velocity P-wave (km/s) = 4.83517 6.82378 5.91367
#
# Compressibility (1/GPa) = 0.03885657
#
# Stress axis : x y z
#
# Youngs Moduli (GPa) = 88.38674 23.87076 105.34217
#
# Poissons Ratio (x) = 0.14328 -0.08515
# Poissons Ratio (y) = 0.53054 0.70865
# Poissons Ratio (z) = -0.07145 0.16058
#
# Static dielectric constant tensor:
#      x y z
#    x 1.961520 -0.024980 -0.100590 
#    y -0.024980 1.994530 -0.048070 
#    z -0.100590 -0.048070 2.002450 
# 
# From -- ./inp_files/462408.got.cif
#   From: 2010.05.17/outbox.cif.g08.bks.cpg/sg2_232_cif.got.tgz:462408.got - 2010.06.03 11:33:40.
