data_PCOD9055406
_publ_section_title
;
Structure prediction by ZEFSAII (Michael W. Deem and Ramdas Pophale) SiO2 
 PCOD9055406
Probable space group: P -1
;
_chemical_formula_sum "Si O2"
_cell_formula_units_Z 16
_cell_length_a 9.893608
_cell_length_b 23.695849
_cell_length_c 8.571847
_cell_angle_alpha 121.098516
_cell_angle_beta 86.413434
_cell_angle_gamma 42.485698
_cell_volume 746.034649
_symmetry_space_group_name_H-M "P -1"
_symmetry_group_IT_number 2
_symmetry_cell_setting 'triclinic'
loop_
_space_group_symop_operation_xyz
x,y,z
-x,-y,-z
loop_
_atom_site_type_symbol
_atom_site_label
_atom_site_fract_x
_atom_site_fract_y
_atom_site_fract_z
Si Si1 0.111057 0.882987 0.392356
Si Si2 0.776023 0.152524 0.303453
Si Si3 0.936143 0.562887 0.310286
Si Si4 0.934325 0.638547 0.092331
Si Si5 0.625039 0.013072 0.438057
Si Si6 0.427642 0.407339 0.232715
Si Si7 0.876459 0.233849 0.222018
Si Si8 0.493496 0.493221 0.805874
O O1 0.213364 0.847491 0.511456
O O2 0.392414 0.732447 0.055216
O O3 0.000000 0.000000 0.500000
O O4 0.832032 0.955007 0.477098
O O5 0.431571 0.287986 0.459937
O O6 0.899239 0.166936 0.250237
O O7 0.000000 0.000000 0.000000
O O8 0.004943 0.580337 0.180107
O O9 0.071180 0.544018 0.420810
O O10 0.077200 0.426939 0.089017
O O11 0.630523 0.819432 0.357278
O O12 0.216790 0.561217 0.903776
O O13 0.500000 0.000000 0.500000
O O14 0.845515 0.896120 0.108107
O O15 0.560311 0.360083 0.326036
O O16 0.548994 0.417841 0.144459
O O17 0.806803 0.329282 0.464242
O O18 0.500000 0.500000 0.000000
#
# Coordination Sequence:
#
# PCOD9055406 Si02
#       8
#     2   2   2   2   2   2   2   2
#     4  11  22  44  70  97 136 188 229 281 354 412
#     4  12  24  43  66 100 142 182 230 292 354 414
#     4  11  22  40  68 103 133 174 239 286 343 411
#     4  11  21  41  71 101 134 178 233 289 338 420
#     4  11  25  47  72 100 139 185 239 289 351 421
#     4  11  23  41  69  97 133 181 231 283 347 410
#     4  11  25  45  66 101 143 182 228 289 352 420
#     4  12  23  45  69  99 139 184 224 280 358 415
#
# _framework density 21.446725000000001
#
# number of rings (size 3 to 8) (size 9 to 14) (size 15 to 20)
#    0.000    0.750    2.500    7.875    0.000    0.500 
#    4.500    1.250    0.000    0.000    0.000    0.000 
#    0.000    0.000    0.000    0.000    0.000    0.000 
#
# Total GULP energy -89352.101586 kJ/mol
# GULP energy per Si atom -5584.506349 kJ/mol
# Density = 2.139791 g / cm^3
# Si number density = 21.446725 Si / 1000 Ang^3
#
#
#
# Elastic Constant Matrix: (Units=GPa)
#
#
# Indices 1 2 3 4 5 6 
#
# 1 109.4647 27.1869 35.7017 18.1303 -5.3855 4.1036
# 2 27.1869 85.4434 42.7733 5.5596 9.9751 5.2187
# 3 35.7017 42.7733 133.2663 8.0759 11.6626 -2.4543
# 4 18.1303 5.5596 8.0759 32.2162 1.9381 8.2705
# 5 -5.3855 9.9751 11.6626 1.9381 33.8187 1.8528
# 6 4.1036 5.2187 -2.4543 8.2705 1.8528 27.0699
#
#
#
# Elastic Compliance Matrix: (Units=1/GPa)
#
#
# Indices 1 2 3 4 5 6 
#
# 1 0.011668 -0.002649 -0.002252 -0.005782 0.003745 0.000048
# 2 -0.002649 0.015026 -0.003919 0.000821 -0.003392 -0.002869
# 3 -0.002252 -0.003919 0.009698 -0.000958 -0.002626 0.002449
# 4 -0.005782 0.000821 -0.000958 0.037254 -0.002387 -0.010587
# 5 0.003745 -0.003392 -0.002626 -0.002387 0.032298 -0.001633
# 6 0.000048 -0.002869 0.002449 -0.010587 -0.001633 0.041056
#
#
# Mechanical properties :
#
#
# Convention : Reuss Voigt Hill
#
# Bulk Modulus (GPa) = 53.32718 59.94424 56.63571
# Shear Modulus (GPa) = 29.25840 33.45513 31.35677
#
# Velocity S-wave (km/s) = 3.69756 3.95386 3.82786
# Velocity P-wave (km/s) = 6.56873 6.98964 6.78245
#
# Compressibility (1/GPa) = 0.01875216
#
# Stress axis : x y z
#
# Youngs Moduli (GPa) = 85.70513 66.55032 103.11563
#
# Poissons Ratio (x) = 0.17630 0.23221
# Poissons Ratio (y) = 0.22704 0.40409
# Poissons Ratio (z) = 0.19301 0.26080
#
# Static dielectric constant tensor:
#      x y z
#    x 1.676030 -0.190480 -0.078550 
#    y -0.190480 1.684240 -0.056360 
#    z -0.078550 -0.056360 1.738970 
# 
# From -- ./inp_files/223809.got.cif
#   From: 2010.05.17/outbox.cif.g08.bks.cpg/sg2_112_cif.got.tgz:223809.got - 2010.06.03 11:33:40.
