data_PCOD9055082
_publ_section_title
;
Structure prediction by ZEFSAII (Michael W. Deem and Ramdas Pophale) SiO2 
 PCOD9055082
Probable space group: P -1
;
_chemical_formula_sum "Si O2"
_cell_formula_units_Z 16
_cell_length_a 17.234969
_cell_length_b 9.403644
_cell_length_c 9.867546
_cell_angle_alpha 41.759657
_cell_angle_beta 127.862868
_cell_angle_gamma 113.081267
_cell_volume 834.274627
_symmetry_space_group_name_H-M "P -1"
_symmetry_group_IT_number 2
_symmetry_cell_setting 'triclinic'
loop_
_space_group_symop_operation_xyz
x,y,z
-x,-y,-z
loop_
_atom_site_type_symbol
_atom_site_label
_atom_site_fract_x
_atom_site_fract_y
_atom_site_fract_z
Si Si1 0.410655 0.925303 0.249460
Si Si2 0.263345 0.661383 0.114006
Si Si3 0.910484 0.512746 0.784561
Si Si4 0.079896 0.902923 0.046899
Si Si5 0.394685 0.407707 0.963344
Si Si6 0.099887 0.027141 0.665731
Si Si7 0.294970 0.853228 0.445297
Si Si8 0.633918 0.745211 0.652013
O O1 0.342685 0.794581 0.175889
O O2 0.377925 0.874372 0.403823
O O3 0.524893 0.833154 0.418249
O O4 0.394744 0.186229 0.034730
O O5 0.189033 0.560646 0.207790
O O6 0.314966 0.461400 0.226556
O O7 0.185854 0.847220 0.831540
O O8 0.880339 0.738558 0.521981
O O9 0.945559 0.336490 0.836029
O O10 0.000000 0.500000 0.000000
O O11 0.084006 0.003417 0.827821
O O12 0.188711 0.898287 0.229467
O O13 0.000000 0.000000 0.000000
O O14 0.315198 0.610218 0.694348
O O15 0.500000 0.500000 0.000000
O O16 0.377159 0.336647 0.148259
O O17 0.000000 0.000000 0.500000
O O18 0.307448 0.045213 0.427606
#
# Coordination Sequence:
#
# PCOD9055082 Si02
#       8
#     2   2   2   2   2   2   2   2
#     4  11  21  43  64  92 132 172 220 268 323 398
#     4  11  25  41  64 101 130 173 222 274 330 383
#     4  11  23  45  68  88 133 180 215 270 335 397
#     4  11  26  42  67 105 132 166 227 283 325 391
#     4  11  21  40  66  91 127 180 215 262 338 392
#     4  11  23  45  70  93 132 181 221 264 340 401
#     4  11  22  42  64  93 132 172 216 267 335 386
#     4  11  24  39  66  94 134 171 219 276 321 400
#
# _framework density 19.178336999999999
#
# number of rings (size 3 to 8) (size 9 to 14) (size 15 to 20)
#    0.000    1.000    7.500    1.125    3.500    2.500 
#    0.000    0.625    0.000    0.000    0.000    0.000 
#    0.000    0.000    0.000    0.000    0.000    0.000 
#
# Total GULP energy -89255.010996 kJ/mol
# GULP energy per Si atom -5578.438187 kJ/mol
# Density = 1.913469 g / cm^3
# Si number density = 19.178337 Si / 1000 Ang^3
#
#
#
# Elastic Constant Matrix: (Units=GPa)
#
#
# Indices 1 2 3 4 5 6 
#
# 1 72.6379 63.1220 49.3669 -7.4227 22.9024 -12.6909
# 2 63.1220 187.1633 81.6714 -20.6855 30.8376 -10.3096
# 3 49.3669 81.6714 141.7422 -20.8421 21.1113 6.1098
# 4 -7.4227 -20.6855 -20.8421 45.4522 9.1425 8.2343
# 5 22.9024 30.8376 21.1113 9.1425 25.0160 -9.1053
# 6 -12.6909 -10.3096 6.1098 8.2343 -9.1053 37.2157
#
#
#
# Elastic Compliance Matrix: (Units=1/GPa)
#
#
# Indices 1 2 3 4 5 6 
#
# 1 0.025637 -0.003844 -0.004383 0.002541 -0.014392 0.004314
# 2 -0.003844 0.009380 -0.002019 0.004729 -0.008628 -0.001538
# 3 -0.004383 -0.002019 0.012758 0.007768 -0.010142 -0.008349
# 4 0.002541 0.004729 0.007768 0.037920 -0.034356 -0.015894
# 5 -0.014392 -0.008628 -0.010142 -0.034356 0.093988 0.024964
# 6 0.004314 -0.001538 -0.008349 -0.015894 0.024964 0.038910
#
#
# Mechanical properties :
#
#
# Convention : Reuss Voigt Hill
#
# Bulk Modulus (GPa) = 36.65305 87.76268 62.20787
# Shear Modulus (GPa) = 20.14670 35.36232 27.75451
#
# Velocity S-wave (km/s) = 3.24465 4.29869 3.80831
# Velocity P-wave (km/s) = 5.76109 8.39637 7.20032
#
# Compressibility (1/GPa) = 0.02728286
#
# Stress axis : x y z
#
# Youngs Moduli (GPa) = 39.00575 106.61058 78.38418
#
# Poissons Ratio (x) = 0.40981 0.34355
# Poissons Ratio (y) = 0.14994 0.15826
# Poissons Ratio (z) = 0.17096 0.21526
#
# Static dielectric constant tensor:
#      x y z
#    x 1.669700 0.019550 0.001540 
#    y 0.019550 1.725620 -0.023600 
#    z 0.001540 -0.023600 1.704090 
# 
# From -- ./inp_files/328506.got.cif
#   From: 2010.05.17/outbox.cif.g08.bks.cpg/sg2_165_cif.got.tgz:328506.got - 2010.06.03 11:33:40.
