data_PCOD9055665
_publ_section_title
;
Structure prediction by ZEFSAII (Michael W. Deem and Ramdas Pophale) SiO2 
 PCOD9055665
Probable space group: P -1
;
_chemical_formula_sum "Si O2"
_cell_formula_units_Z 14
_cell_length_a 11.281443
_cell_length_b 14.412680
_cell_length_c 19.991748
_cell_angle_alpha 159.345519
_cell_angle_beta 30.858516
_cell_angle_gamma 149.210460
_cell_volume 559.441329
_symmetry_space_group_name_H-M "P -1"
_symmetry_group_IT_number 2
_symmetry_cell_setting 'triclinic'
loop_
_space_group_symop_operation_xyz
x,y,z
-x,-y,-z
loop_
_atom_site_type_symbol
_atom_site_label
_atom_site_fract_x
_atom_site_fract_y
_atom_site_fract_z
Si Si1 0.601116 0.450469 0.610899
Si Si2 0.750750 0.112584 0.544450
Si Si3 0.047216 0.922445 0.717338
Si Si4 0.327995 0.871910 0.769386
Si Si5 0.874387 0.374987 0.046204
Si Si6 0.871007 0.067233 0.671895
Si Si7 0.815714 0.703995 0.969430
O O1 0.841330 0.655290 0.665691
O O2 0.390303 0.592662 0.800822
O O3 0.467056 0.168309 0.524804
O O4 0.674955 0.354198 0.438643
O O5 0.798122 0.152156 0.468607
O O6 0.717171 0.376097 0.778597
O O7 0.985279 0.039933 0.412514
O O8 0.885720 0.083747 0.865886
O O9 0.185298 0.135791 0.851889
O O10 0.584494 0.939613 0.727830
O O11 0.102220 0.770365 0.859284
O O12 0.295999 0.136499 0.924213
O O13 0.064427 0.605978 0.153479
O O14 0.000000 0.500000 0.000000
O O15 0.000000 0.000000 0.500000
#
# Coordination Sequence:
#
# PCOD9055665 Si02
#       7
#     2   2   2   2   2   2   2
#     4  11  24  45  74 102 151 193 240 314 366 438
#     4  11  24  49  75 114 144 188 260 310 368 448
#     4  12  25  46  74 109 151 194 247 308 374 442
#     4  11  25  49  73 108 150 198 253 302 370 451
#     4  11  22  41  68 111 150 179 244 310 374 440
#     4  11  21  42  76 103 143 189 243 312 368 432
#     4  11  28  48  75 107 153 203 249 300 373 451
#
# _framework density 25.024964000000001
#
# number of rings (size 3 to 8) (size 9 to 14) (size 15 to 20)
#    0.000    0.857    7.143    1.286    2.000    2.857 
#    0.000    0.714    0.000    0.000    0.000    0.000 
#    0.000    0.000    0.000    0.000    0.000    0.000 
#
# Total GULP energy -78250.772637 kJ/mol
# GULP energy per Si atom -5589.340903 kJ/mol
# Density = 2.496801 g / cm^3
# Si number density = 25.024964 Si / 1000 Ang^3
#
#
#
# Elastic Constant Matrix: (Units=GPa)
#
#
# Indices 1 2 3 4 5 6 
#
# 1 109.7263 49.5846 43.3480 -1.1361 -1.4967 11.5740
# 2 49.5846 134.9483 30.6473 10.1231 18.5830 21.8787
# 3 43.3480 30.6473 106.5346 7.9169 6.1041 19.9683
# 4 -1.1361 10.1231 7.9169 48.5864 -0.1606 4.2595
# 5 -1.4967 18.5830 6.1041 -0.1606 49.4745 -6.8392
# 6 11.5740 21.8787 19.9683 4.2595 -6.8392 22.8157
#
#
#
# Elastic Compliance Matrix: (Units=1/GPa)
#
#
# Indices 1 2 3 4 5 6 
#
# 1 0.012850 -0.004641 -0.004697 0.001813 0.003081 0.002628
# 2 -0.004641 0.011700 0.001153 -0.001753 -0.006262 -0.011424
# 3 -0.004697 0.001153 0.013421 -0.001557 -0.003801 -0.011317
# 4 0.001813 -0.001753 -0.001557 0.021390 0.000748 -0.001645
# 5 0.003081 -0.006262 -0.003801 0.000748 0.025229 0.015191
# 6 0.002628 -0.011424 -0.011317 -0.001645 0.015191 0.068216
#
#
# Mechanical properties :
#
#
# Convention : Reuss Voigt Hill
#
# Bulk Modulus (GPa) = 46.29635 66.48545 56.39090
# Shear Modulus (GPa) = 28.34846 39.35061 33.84953
#
# Velocity S-wave (km/s) = 3.36937 3.96972 3.68180
# Velocity P-wave (km/s) = 5.80320 6.90195 6.37628
#
# Compressibility (1/GPa) = 0.02159997
#
# Stress axis : x y z
#
# Youngs Moduli (GPa) = 77.82026 85.47330 74.51048
#
# Poissons Ratio (x) = 0.39669 0.34999
# Poissons Ratio (y) = 0.36117 -0.08591
# Poissons Ratio (z) = 0.36554 -0.09855
#
# Static dielectric constant tensor:
#      x y z
#    x 2.023100 0.034300 0.081080 
#    y 0.034300 1.930330 0.011850 
#    z 0.081080 0.011850 1.956910 
# 
# From -- ./inp_files/595687.got.cif
#   From: 2010.05.17/outbox.cif.g08.bks.cpg/sg2_298_cif.got.tgz:595687.got - 2010.06.03 11:33:40.
