data_PCOD9055098
_publ_section_title
;
Structure prediction by ZEFSAII (Michael W. Deem and Ramdas Pophale) SiO2 
 PCOD9055098
Probable space group: P -1
;
_chemical_formula_sum "Si O2"
_cell_formula_units_Z 14
_cell_length_a 6.019996
_cell_length_b 8.973048
_cell_length_c 11.104364
_cell_angle_alpha 88.982828
_cell_angle_beta 75.978019
_cell_angle_gamma 83.192496
_cell_volume 577.818782
_symmetry_space_group_name_H-M "P -1"
_symmetry_group_IT_number 2
_symmetry_cell_setting 'triclinic'
loop_
_space_group_symop_operation_xyz
x,y,z
-x,-y,-z
loop_
_atom_site_type_symbol
_atom_site_label
_atom_site_fract_x
_atom_site_fract_y
_atom_site_fract_z
Si Si1 0.258576 0.424209 0.011057
Si Si2 0.039463 0.220926 0.405574
Si Si3 0.692285 0.900991 0.050783
Si Si4 0.038868 0.730946 0.322289
Si Si5 0.969594 0.016988 0.193021
Si Si6 0.342333 0.415575 0.268127
Si Si7 0.304778 0.498833 0.628720
O O1 0.330021 0.273264 0.928770
O O2 0.238033 0.378336 0.154460
O O3 0.500000 0.500000 0.000000
O O4 0.000000 0.500000 0.000000
O O5 0.979535 0.110182 0.311344
O O6 0.894943 0.381508 0.396677
O O7 0.980938 0.182549 0.549408
O O8 0.292471 0.274921 0.359567
O O9 0.912158 0.904640 0.933063
O O10 0.500000 0.000000 0.000000
O O11 0.726344 0.984111 0.170545
O O12 0.800616 0.656774 0.338835
O O13 0.226235 0.585624 0.307138
O O14 0.085744 0.847531 0.210943
O O15 0.607028 0.437285 0.258162
O O16 0.500000 0.500000 0.500000
#
# Coordination Sequence:
#
# PCOD9055098 Si02
#       7
#     2   2   2   2   2   2   2
#     4  12  30  49  80 113 145 193 262 313 368 443
#     4  11  22  42  67  98 136 186 234 290 371 442
#     4  11  28  49  70 102 144 196 241 310 382 438
#     4  11  23  41  67 102 134 182 237 293 368 443
#     4  11  26  45  68  93 149 181 244 289 382 439
#     4  11  23  41  70  98 138 180 233 303 367 422
#     4  11  21  40  66  97 136 178 232 303 357 430
#
# _framework density 24.229047000000001
#
# number of rings (size 3 to 8) (size 9 to 14) (size 15 to 20)
#    0.000    0.857    4.286    2.143   14.000    0.000 
#    0.000    0.714    0.000    0.000    0.000    0.000 
#    0.000    0.000    0.000    0.000    0.000    0.000 
#
# Total GULP energy -78077.606271 kJ/mol
# GULP energy per Si atom -5576.971876 kJ/mol
# Density = 2.417390 g / cm^3
# Si number density = 24.229047 Si / 1000 Ang^3
#
#
#
# Elastic Constant Matrix: (Units=GPa)
#
#
# Indices 1 2 3 4 5 6 
#
# 1 82.3197 27.9549 8.3963 8.9925 22.0120 15.3331
# 2 27.9549 100.7309 9.9126 5.1812 8.3261 24.5471
# 3 8.3963 9.9126 71.6281 6.5719 23.6335 21.8603
# 4 8.9925 5.1812 6.5719 45.0076 10.0644 10.2951
# 5 22.0120 8.3261 23.6335 10.0644 46.8202 3.2546
# 6 15.3331 24.5471 21.8603 10.2951 3.2546 31.4627
#
#
#
# Elastic Compliance Matrix: (Units=1/GPa)
#
#
# Indices 1 2 3 4 5 6 
#
# 1 0.016281 -0.002261 0.003613 0.000194 -0.008572 -0.007858
# 2 -0.002261 0.013106 0.002352 0.001584 -0.002026 -0.011066
# 3 0.003613 0.002352 0.023152 0.002971 -0.013100 -0.019298
# 4 0.000194 0.001584 0.002971 0.025574 -0.006599 -0.011080
# 5 -0.008572 -0.002026 -0.013100 -0.006599 0.032833 0.013623
# 6 -0.007858 -0.011066 -0.019298 -0.011080 0.013623 0.059872
#
#
# Mechanical properties :
#
#
# Convention : Reuss Voigt Hill
#
# Bulk Modulus (GPa) = 16.68120 38.57848 27.62984
# Shear Modulus (GPa) = 27.26407 38.55240 32.90824
#
# Velocity S-wave (km/s) = 3.35813 3.99327 3.68939
# Velocity P-wave (km/s) = 4.68357 6.10070 5.43849
#
# Compressibility (1/GPa) = 0.05994774
#
# Stress axis : x y z
#
# Youngs Moduli (GPa) = 61.41963 76.30010 43.19374
#
# Poissons Ratio (x) = 0.17248 -0.15606
# Poissons Ratio (y) = 0.13884 -0.10159
# Poissons Ratio (z) = -0.22191 -0.17945
#
# Static dielectric constant tensor:
#      x y z
#    x 2.098800 0.097320 -0.116060 
#    y 0.097320 1.927520 -0.037660 
#    z -0.116060 -0.037660 2.122440 
# 
# From -- ./inp_files/28260.got.cif
#   From: 2010.05.17/outbox.cif.g08.bks.cpg/sg2_15_cif.got.tgz:28260.got - 2010.06.03 11:33:40.
