data_PCOD9055871
_publ_section_title
;
Structure prediction by ZEFSAII (Michael W. Deem and Ramdas Pophale) SiO2 
 PCOD9055871
Probable space group: P -1
;
_chemical_formula_sum "Si O2"
_cell_formula_units_Z 14
_cell_length_a 14.953858
_cell_length_b 7.775797
_cell_length_c 11.140520
_cell_angle_alpha 68.655799
_cell_angle_beta 150.584080
_cell_angle_gamma 101.225681
_cell_volume 570.995407
_symmetry_space_group_name_H-M "P -1"
_symmetry_group_IT_number 2
_symmetry_cell_setting 'triclinic'
loop_
_space_group_symop_operation_xyz
x,y,z
-x,-y,-z
loop_
_atom_site_type_symbol
_atom_site_label
_atom_site_fract_x
_atom_site_fract_y
_atom_site_fract_z
Si Si1 0.083594 0.713377 0.218621
Si Si2 0.692231 0.847921 0.797891
Si Si3 0.260657 0.928279 0.572631
Si Si4 0.548783 0.443905 0.436318
Si Si5 0.311399 0.226404 0.933333
Si Si6 0.308420 0.643480 0.921617
Si Si7 0.929119 0.708053 0.604258
O O1 0.169871 0.819723 0.395092
O O2 0.235758 0.677017 0.298713
O O3 0.070989 0.505635 0.302554
O O4 0.865582 0.829540 0.915207
O O5 0.608905 0.665353 0.750407
O O6 0.500000 0.000000 0.500000
O O7 0.770841 0.851817 0.024253
O O8 0.283999 0.807711 0.753780
O O9 0.141742 0.141455 0.410635
O O10 0.475369 0.904715 0.789285
O O11 0.500000 0.500000 0.500000
O O12 0.499729 0.605440 0.234113
O O13 0.307433 0.449525 0.895680
O O14 0.203777 0.225980 0.684205
O O15 0.135943 0.701455 0.798260
#
# Coordination Sequence:
#
# PCOD9055871 Si02
#       7
#     2   2   2   2   2   2   2
#     4  12  24  50  76 102 150 188 228 310 366 408
#     4  11  26  47  72 102 141 194 242 288 355 430
#     4  12  24  40  75 112 141 186 238 295 364 429
#     4  11  26  47  72 102 141 194 242 288 355 430
#     4  11  21  44  67 103 151 183 232 297 359 420
#     4  11  21  44  67 103 151 183 232 297 359 420
#     4  12  24  40  75 112 141 186 238 295 364 429
#
# _framework density 24.518585999999999
#
# number of rings (size 3 to 8) (size 9 to 14) (size 15 to 20)
#    0.000    0.571    7.143    3.429    0.000    4.571 
#    2.571    0.000    0.000    0.000    0.000    0.000 
#    0.000    0.000    0.000    0.000    0.000    0.000 
#
# Total GULP energy -78383.141208 kJ/mol
# GULP energy per Si atom -5598.795801 kJ/mol
# Density = 2.446278 g / cm^3
# Si number density = 24.518586 Si / 1000 Ang^3
#
#
#
# Elastic Constant Matrix: (Units=GPa)
#
#
# Indices 1 2 3 4 5 6 
#
# 1 117.0156 32.6214 40.0474 -11.7692 31.5246 -19.3514
# 2 32.6214 71.1776 14.2121 -20.9941 -7.9468 -24.3415
# 3 40.0474 14.2121 109.3531 -19.8310 34.7484 -4.6150
# 4 -11.7692 -20.9941 -19.8310 16.6389 1.6306 12.0700
# 5 31.5246 -7.9468 34.7484 1.6306 58.9270 -8.7186
# 6 -19.3514 -24.3415 -4.6150 12.0700 -8.7186 27.9527
#
#
#
# Elastic Compliance Matrix: (Units=1/GPa)
#
#
# Indices 1 2 3 4 5 6 
#
# 1 0.012723 -0.005844 -0.002503 -0.002810 -0.005632 0.002762
# 2 -0.005844 0.028873 0.000031 0.020718 0.008625 0.014846
# 3 -0.002503 0.000031 0.021248 0.039652 -0.015254 -0.020078
# 4 -0.002810 0.020718 0.039652 0.183692 -0.034128 -0.067320
# 5 -0.005632 0.008625 -0.015254 -0.034128 0.035046 0.026761
# 6 0.002762 0.014846 -0.020078 -0.067320 0.026761 0.084715
#
#
# Mechanical properties :
#
#
# Convention : Reuss Voigt Hill
#
# Bulk Modulus (GPa) = 21.63995 52.36757 37.00376
# Shear Modulus (GPa) = 12.55225 34.74808 23.65016
#
# Velocity S-wave (km/s) = 2.26508 3.76867 3.10914
# Velocity P-wave (km/s) = 3.96054 6.35153 5.29282
#
# Compressibility (1/GPa) = 0.04621082
#
# Stress axis : x y z
#
# Youngs Moduli (GPa) = 78.59485 34.63463 47.06292
#
# Poissons Ratio (x) = 0.20242 0.11781
# Poissons Ratio (y) = 0.45934 -0.00145
# Poissons Ratio (z) = 0.19674 -0.00107
#
# Static dielectric constant tensor:
#      x y z
#    x 2.060290 0.048510 -0.095320 
#    y 0.048510 2.115430 -0.062510 
#    z -0.095320 -0.062510 2.043500 
# 
# From -- ./inp_files/178453.got.cif
#   From: 2010.05.17/outbox.cif.g08.bks.cpg/sg2_90_cif.got.tgz:178453.got - 2010.06.03 11:33:40.
