data_PCOD9055302
_publ_section_title
;
Structure prediction by ZEFSAII (Michael W. Deem and Ramdas Pophale) SiO2 
 PCOD9055302
Probable space group: P -1
;
_chemical_formula_sum "Si O2"
_cell_formula_units_Z 16
_cell_length_a 14.009672
_cell_length_b 7.993327
_cell_length_c 21.000966
_cell_angle_alpha 77.824378
_cell_angle_beta 158.879191
_cell_angle_gamma 112.258670
_cell_volume 709.145674
_symmetry_space_group_name_H-M "P -1"
_symmetry_group_IT_number 2
_symmetry_cell_setting 'triclinic'
loop_
_space_group_symop_operation_xyz
x,y,z
-x,-y,-z
loop_
_atom_site_type_symbol
_atom_site_label
_atom_site_fract_x
_atom_site_fract_y
_atom_site_fract_z
Si Si1 0.911398 0.254712 0.256807
Si Si2 0.603265 0.708423 0.011866
Si Si3 0.163468 0.376374 0.268745
Si Si4 0.168003 0.697940 0.169439
Si Si5 0.832287 0.036797 0.582555
Si Si6 0.288741 0.633416 0.554377
Si Si7 0.412690 0.317051 0.142136
Si Si8 0.005100 0.151826 0.071173
O O1 0.950257 0.328188 0.201729
O O2 0.115754 0.448777 0.413258
O O3 0.568514 0.186175 0.072255
O O4 0.030278 0.097401 0.348243
O O5 0.968432 0.853823 0.239626
O O6 0.500000 0.500000 0.000000
O O7 0.505304 0.661761 0.881823
O O8 0.500000 0.500000 0.500000
O O9 0.204498 0.512266 0.221815
O O10 0.027787 0.175663 0.159862
O O11 0.466949 0.881885 0.373728
O O12 0.851589 0.631860 0.014428
O O13 0.132696 0.750318 0.071065
O O14 0.852235 0.222415 0.541920
O O15 0.317124 0.567697 0.648153
O O16 0.643727 0.764491 0.739577
O O17 0.229983 0.082980 0.065957
#
# Coordination Sequence:
#
# PCOD9055302 Si02
#       8
#     2   2   2   2   2   2   2   2
#     4  12  26  46  66 101 139 179 228 278 326 402
#     4  12  27  46  68  95 137 184 230 277 327 400
#     4  12  23  38  67 103 135 176 220 277 342 394
#     4  11  22  40  66 103 137 169 219 281 341 397
#     4  12  23  44  72  96 135 177 222 282 336 389
#     4  11  22  45  72  99 141 167 225 284 336 399
#     4  11  24  42  71  99 129 184 221 272 346 401
#     4  11  21  41  67 102 139 168 219 279 342 408
#
# _framework density 22.562358
#
# number of rings (size 3 to 8) (size 9 to 14) (size 15 to 20)
#    0.000    0.500    6.250    3.000    0.000    2.000 
#    0.000    0.625    0.000    0.000    0.000    0.000 
#    0.000    0.000    0.000    0.000    0.000    0.000 
#
# Total GULP energy -89262.298418 kJ/mol
# GULP energy per Si atom -5578.893651 kJ/mol
# Density = 2.251101 g / cm^3
# Si number density = 22.562358 Si / 1000 Ang^3
#
#
#
# Elastic Constant Matrix: (Units=GPa)
#
#
# Indices 1 2 3 4 5 6 
#
# 1 97.0709 4.1102 26.1480 2.5909 -31.1504 4.9191
# 2 4.1102 83.7954 33.9015 -15.1414 -12.4116 -8.2803
# 3 26.1480 33.9015 88.6123 -0.1909 -24.5762 5.9516
# 4 2.5909 -15.1414 -0.1909 34.1070 -8.9529 -2.1907
# 5 -31.1504 -12.4116 -24.5762 -8.9529 35.1600 2.0203
# 6 4.9191 -8.2803 5.9516 -2.1907 2.0203 31.1139
#
#
#
# Elastic Compliance Matrix: (Units=1/GPa)
#
#
# Indices 1 2 3 4 5 6 
#
# 1 0.015183 0.002286 -0.001188 0.003503 0.014449 -0.002256
# 2 0.002286 0.017436 -0.006029 0.009489 0.006055 0.005707
# 3 -0.001188 -0.006029 0.016687 -0.000560 0.008640 -0.005209
# 4 0.003503 0.009489 -0.000560 0.037547 0.015409 0.003722
# 5 0.014449 0.006055 0.008640 0.015409 0.053614 -0.004722
# 6 -0.002256 0.005707 -0.005209 0.003722 -0.004722 0.035581
#
#
# Mechanical properties :
#
#
# Convention : Reuss Voigt Hill
#
# Bulk Modulus (GPa) = 25.35235 44.19980 34.77608
# Shear Modulus (GPa) = 25.11829 33.76411 29.44120
#
# Velocity S-wave (km/s) = 3.34021 3.87263 3.61623
# Velocity P-wave (km/s) = 5.11243 6.29515 5.73437
#
# Compressibility (1/GPa) = 0.03944407
#
# Stress axis : x y z
#
# Youngs Moduli (GPa) = 65.86436 57.35158 59.92590
#
# Poissons Ratio (x) = -0.13112 0.07121
# Poissons Ratio (y) = -0.15058 0.36130
# Poissons Ratio (z) = 0.07827 0.34578
#
# Static dielectric constant tensor:
#      x y z
#    x 1.854610 -0.092980 0.018550 
#    y -0.092980 2.028530 0.026380 
#    z 0.018550 0.026380 1.919630 
# 
# From -- ./inp_files/244392.got.cif
#   From: 2010.05.17/outbox.cif.g08.bks.cpg/sg2_123_cif.got.tgz:244392.got - 2010.06.03 11:33:40.
