data_PCOD9055591
_publ_section_title
;
Structure prediction by ZEFSAII (Michael W. Deem and Ramdas Pophale) SiO2 
 PCOD9055591
Probable space group: P -1
;
_chemical_formula_sum "Si O2"
_cell_formula_units_Z 12
_cell_length_a 8.207226
_cell_length_b 9.590375
_cell_length_c 9.614417
_cell_angle_alpha 135.738893
_cell_angle_beta 72.065004
_cell_angle_gamma 99.665806
_cell_volume 500.914754
_symmetry_space_group_name_H-M "P -1"
_symmetry_group_IT_number 2
_symmetry_cell_setting 'triclinic'
loop_
_space_group_symop_operation_xyz
x,y,z
-x,-y,-z
loop_
_atom_site_type_symbol
_atom_site_label
_atom_site_fract_x
_atom_site_fract_y
_atom_site_fract_z
Si Si1 0.202323 0.977660 0.175594
Si Si2 0.814413 0.078576 0.432105
Si Si3 0.330730 0.227102 0.528707
Si Si4 0.782464 0.846463 0.004606
Si Si5 0.591645 0.467685 0.804125
Si Si6 0.081426 0.579910 0.894215
O O1 0.352088 0.089231 0.289209
O O2 0.180303 0.052436 0.077933
O O3 0.019984 0.035824 0.342754
O O4 0.219607 0.738671 0.009405
O O5 0.756424 0.303996 0.653745
O O6 0.729076 0.924338 0.446154
O O7 0.747506 0.016508 0.252783
O O8 0.475678 0.353215 0.645680
O O9 0.176821 0.395218 0.658671
O O10 0.644180 0.684976 0.902650
O O11 0.941505 0.707397 0.929942
O O12 0.500000 0.500000 0.000000
O O13 0.000000 0.500000 0.000000
#
# Coordination Sequence:
#
# PCOD9055591 Si02
#       6
#     2   2   2   2   2   2
#     4  11  26  43  71 106 140 170 226 290 344 391
#     4  11  23  44  73  98 133 182 230 279 339 400
#     4  12  25  39  70 105 132 181 230 278 333 409
#     4  11  25  46  70 102 141 180 217 289 343 397
#     4  12  26  44  70  99 139 183 233 272 337 413
#     4  11  21  42  71 101 132 173 235 276 327 401
#
# _framework density 23.956171000000001
#
# number of rings (size 3 to 8) (size 9 to 14) (size 15 to 20)
#    0.000    0.667    5.000    4.000    4.667    4.667 
#    0.000    1.667    0.000    0.000    0.000    0.000 
#    0.000    0.000    0.000    0.000    0.000    0.000 
#
# Total GULP energy -67193.659735 kJ/mol
# GULP energy per Si atom -5599.471645 kJ/mol
# Density = 2.390165 g / cm^3
# Si number density = 23.956171 Si / 1000 Ang^3
#
#
#
# Elastic Constant Matrix: (Units=GPa)
#
#
# Indices 1 2 3 4 5 6 
#
# 1 75.4913 14.8581 17.8929 5.9546 33.4161 7.2177
# 2 14.8581 112.4102 25.3492 4.2248 11.3466 12.6960
# 3 17.8929 25.3492 98.1182 30.9637 21.5074 2.5262
# 4 5.9546 4.2248 30.9637 44.5413 -3.5458 16.7684
# 5 33.4161 11.3466 21.5074 -3.5458 53.7854 10.2944
# 6 7.2177 12.6960 2.5262 16.7684 10.2944 30.2590
#
#
#
# Elastic Compliance Matrix: (Units=1/GPa)
#
#
# Indices 1 2 3 4 5 6 
#
# 1 0.019251 -0.001808 0.001774 -0.006237 -0.013477 0.004060
# 2 -0.001808 0.010511 -0.004379 0.005243 0.002407 -0.007338
# 3 0.001774 -0.004379 0.019657 -0.020152 -0.012260 0.015111
# 4 -0.006237 0.005243 -0.020152 0.051509 0.020859 -0.034671
# 5 -0.013477 0.002407 -0.012260 0.020859 0.036721 -0.020824
# 6 0.004060 -0.007338 0.015111 -0.034671 -0.020824 0.060194
#
#
# Mechanical properties :
#
#
# Convention : Reuss Voigt Hill
#
# Bulk Modulus (GPa) = 24.63481 44.69112 34.66297
# Shear Modulus (GPa) = 22.70642 40.91176 31.80909
#
# Velocity S-wave (km/s) = 3.08203 4.13701 3.64786
# Velocity P-wave (km/s) = 4.79279 6.44326 5.67831
#
# Compressibility (1/GPa) = 0.04059296
#
# Stress axis : x y z
#
# Youngs Moduli (GPa) = 51.94484 95.13581 50.87157
#
# Poissons Ratio (x) = 0.17205 -0.09026
# Poissons Ratio (y) = 0.09394 0.22278
# Poissons Ratio (z) = -0.09216 0.41662
#
# Static dielectric constant tensor:
#      x y z
#    x 2.060560 0.010500 0.014270 
#    y 0.010500 1.825330 0.006950 
#    z 0.014270 0.006950 1.896230 
# 
# From -- ./inp_files/157758.got.cif
#   From: 2010.05.17/outbox.cif.g08.bks.cpg/sg2_79_cif.got.tgz:157758.got - 2010.06.03 11:33:40.
