data_PCOD9055929
_publ_section_title
;
Structure prediction by ZEFSAII (Michael W. Deem and Ramdas Pophale) SiO2 
 PCOD9055929
Probable space group: P -1
;
_chemical_formula_sum "Si O2"
_cell_formula_units_Z 16
_cell_length_a 17.534126
_cell_length_b 5.861273
_cell_length_c 12.396343
_cell_angle_alpha 89.647521
_cell_angle_beta 49.751957
_cell_angle_gamma 123.012427
_cell_volume 675.771544
_symmetry_space_group_name_H-M "P -1"
_symmetry_group_IT_number 2
_symmetry_cell_setting 'triclinic'
loop_
_space_group_symop_operation_xyz
x,y,z
-x,-y,-z
loop_
_atom_site_type_symbol
_atom_site_label
_atom_site_fract_x
_atom_site_fract_y
_atom_site_fract_z
Si Si1 0.475017 0.654284 0.935355
Si Si2 0.259146 0.650445 0.212956
Si Si3 0.108135 0.473623 0.155014
Si Si4 0.563503 0.353620 0.470999
Si Si5 0.620800 0.641866 0.627924
Si Si6 0.844417 0.637856 0.116986
Si Si7 0.849405 0.350535 0.313043
Si Si8 0.132631 0.240785 0.524574
O O1 0.497837 0.581245 0.798538
O O2 0.611043 0.042797 0.832913
O O3 0.500000 0.500000 0.000000
O O4 0.328067 0.545094 0.090447
O O5 0.212158 0.730649 0.154776
O O6 0.134113 0.389124 0.413670
O O7 0.001045 0.484037 0.202801
O O8 0.173883 0.456059 0.991017
O O9 0.006556 0.130260 0.314473
O O10 0.500000 0.500000 0.500000
O O11 0.562416 0.357075 0.601703
O O12 0.721570 0.602855 0.273213
O O13 0.500000 0.000000 0.500000
O O14 0.731585 0.707680 0.609839
O O15 0.722730 0.973972 0.464142
O O16 0.835987 0.401646 0.201837
O O17 0.000000 0.000000 0.000000
O O18 0.838890 0.552202 0.399293
#
# Coordination Sequence:
#
# PCOD9055929 Si02
#       8
#     2   2   2   2   2   2   2   2
#     4  11  24  43  70  97 141 197 238 299 370 463
#     4  11  25  43  67 107 144 183 250 305 376 445
#     4  11  26  41  70 108 141 186 244 323 368 447
#     4  12  29  48  76 116 154 199 257 329 387 457
#     4  11  23  45  72 100 142 199 244 297 392 461
#     4  12  24  50  76 107 148 202 260 309 390 465
#     4  11  22  44  74 100 141 201 244 309 383 462
#     4  11  21  44  71  98 140 191 241 296 381 451
#
# _framework density 23.676639000000002
#
# number of rings (size 3 to 8) (size 9 to 14) (size 15 to 20)
#    0.000    0.750    5.000    2.250    1.750    3.500 
#    0.000    0.000    0.000    0.000    0.000    0.000 
#    0.000    0.000    0.000    0.000    0.000    0.000 
#
# Total GULP energy -89477.868455 kJ/mol
# GULP energy per Si atom -5592.366778 kJ/mol
# Density = 2.362275 g / cm^3
# Si number density = 23.676639 Si / 1000 Ang^3
#
#
#
# Elastic Constant Matrix: (Units=GPa)
#
#
# Indices 1 2 3 4 5 6 
#
# 1 91.4670 0.3778 32.9799 5.6692 9.9098 -2.9701
# 2 0.3778 74.1297 20.8364 10.3110 -2.7636 3.2905
# 3 32.9799 20.8364 121.3857 27.1168 1.6306 -0.1714
# 4 5.6692 10.3110 27.1168 35.7716 -1.9604 9.7430
# 5 9.9098 -2.7636 1.6306 -1.9604 44.9444 8.6595
# 6 -2.9701 3.2905 -0.1714 9.7430 8.6595 33.4552
#
#
#
# Elastic Compliance Matrix: (Units=1/GPa)
#
#
# Indices 1 2 3 4 5 6 
#
# 1 0.012570 0.000747 -0.003440 -0.000273 -0.002974 0.001874
# 2 0.000747 0.014499 -0.002180 -0.002347 0.000880 -0.000915
# 3 -0.003440 -0.002180 0.011385 -0.008176 -0.000629 0.002511
# 4 -0.000273 -0.002347 -0.008176 0.038403 0.004221 -0.012112
# 5 -0.002974 0.000880 -0.000629 0.004221 0.024703 -0.007977
# 6 0.001874 -0.000915 0.002511 -0.012112 -0.007977 0.035752
#
#
# Mechanical properties :
#
#
# Convention : Reuss Voigt Hill
#
# Bulk Modulus (GPa) = 34.83418 43.93007 39.38212
# Shear Modulus (GPa) = 31.92262 38.35346 35.13804
#
# Velocity S-wave (km/s) = 3.67587 4.02915 3.85656
# Velocity P-wave (km/s) = 5.72367 6.34349 6.04153
#
# Compressibility (1/GPa) = 0.02870744
#
# Stress axis : x y z
#
# Youngs Moduli (GPa) = 79.55402 68.97102 87.83160
#
# Poissons Ratio (x) = -0.05150 0.30212
# Poissons Ratio (y) = -0.05941 0.19151
# Poissons Ratio (z) = 0.27365 0.15039
#
# Static dielectric constant tensor:
#      x y z
#    x 1.969310 0.038900 -0.009220 
#    y 0.038900 1.971280 -0.047770 
#    z -0.009220 -0.047770 1.880760 
# 
# From -- ./inp_files/109705.got.cif
#   From: 2010.05.17/outbox.cif.g08.bks.cpg/sg2_55_cif.got.tgz:109705.got - 2010.06.03 11:33:40.
