data_PCOD9055038
_publ_section_title
;
Structure prediction by ZEFSAII (Michael W. Deem and Ramdas Pophale) SiO2 
 PCOD9055038
Probable space group: P -1
;
_chemical_formula_sum "Si O2"
_cell_formula_units_Z 12
_cell_length_a 24.431700
_cell_length_b 8.328571
_cell_length_c 24.292424
_cell_angle_alpha 144.443943
_cell_angle_beta 168.116893
_cell_angle_gamma 35.984425
_cell_volume 588.346420
_symmetry_space_group_name_H-M "P -1"
_symmetry_group_IT_number 2
_symmetry_cell_setting 'triclinic'
loop_
_space_group_symop_operation_xyz
x,y,z
-x,-y,-z
loop_
_atom_site_type_symbol
_atom_site_label
_atom_site_fract_x
_atom_site_fract_y
_atom_site_fract_z
Si Si1 0.225553 0.696671 0.790900
Si Si2 0.385617 0.273066 0.088922
Si Si3 0.992752 0.043049 0.235822
Si Si4 0.450733 0.304363 0.294328
Si Si5 0.859223 0.604390 0.617958
Si Si6 0.751564 0.068470 0.732289
O O1 0.120206 0.822560 0.780926
O O2 0.000000 0.500000 0.500000
O O3 0.500000 0.500000 0.000000
O O4 0.294327 0.970445 0.901801
O O5 0.424273 0.290576 0.197832
O O6 0.652563 0.373327 0.353568
O O7 0.139932 0.483153 0.886050
O O8 0.095085 0.279451 0.364944
O O9 0.239699 0.801101 0.418824
O O10 0.738365 0.907017 0.923721
O O11 0.320980 0.611924 0.267719
O O12 0.768613 0.867498 0.640692
O O13 0.500000 0.000000 0.500000
O O14 0.000000 0.000000 0.000000
#
# Coordination Sequence:
#
# PCOD9055038 Si02
#       6
#     2   2   2   2   2   2
#     4  11  23  44  68  92 118 162 212 256 311 397
#     4  11  22  40  67  90 123 170 209 248 319 374
#     4  11  25  40  64  93 131 160 207 264 325 353
#     4  11  21  40  62  91 125 177 213 246 297 375
#     4  12  23  41  61  97 131 164 204 267 307 357
#     4  12  22  37  63  94 127 168 224 246 289 367
#
# _framework density 20.396145000000001
#
# number of rings (size 3 to 8) (size 9 to 14) (size 15 to 20)
#    0.000    0.667    3.333    7.000    0.000    1.333 
#    0.000    5.000    0.000    0.000    0.000    0.000 
#    0.000    0.000    0.000    0.000    0.000    0.000 
#
# Total GULP energy -66973.620134 kJ/mol
# GULP energy per Si atom -5581.135011 kJ/mol
# Density = 2.034972 g / cm^3
# Si number density = 20.396145 Si / 1000 Ang^3
#
#
#
# Elastic Constant Matrix: (Units=GPa)
#
#
# Indices 1 2 3 4 5 6 
#
# 1 54.5576 22.9500 25.3234 10.7354 35.9990 11.0606
# 2 22.9500 82.6024 12.0837 13.3854 33.7292 -8.9330
# 3 25.3234 12.0837 135.0191 -9.3167 17.4936 3.8527
# 4 10.7354 13.3854 -9.3167 88.5501 72.3086 -13.7459
# 5 35.9990 33.7292 17.4936 72.3086 153.7794 -33.3773
# 6 11.0606 -8.9330 3.8527 -13.7459 -33.3773 41.0998
#
#
#
# Elastic Compliance Matrix: (Units=1/GPa)
#
#
# Indices 1 2 3 4 5 6 
#
# 1 0.033294 -0.006578 -0.003456 0.003022 -0.011344 -0.018268
# 2 -0.006578 0.014716 -0.000155 -0.000287 -0.000576 0.004419
# 3 -0.003456 -0.000155 0.008388 0.002302 -0.001217 -0.000108
# 4 0.003022 -0.000287 0.002302 0.019521 -0.010811 -0.003342
# 5 -0.011344 -0.000576 -0.001217 -0.010811 0.017460 0.013605
# 6 -0.018268 0.004419 -0.000108 -0.003342 0.013605 0.040149
#
#
# Mechanical properties :
#
#
# Convention : Reuss Voigt Hill
#
# Bulk Modulus (GPa) = 27.76154 43.65482 35.70818
# Shear Modulus (GPa) = 30.13632 70.80734 50.47183
#
# Velocity S-wave (km/s) = 3.84806 5.89842 4.97991
# Velocity P-wave (km/s) = 5.77790 8.23641 7.11416
#
# Compressibility (1/GPa) = 0.03602105
#
# Stress axis : x y z
#
# Youngs Moduli (GPa) = 30.03502 67.95282 119.21698
#
# Poissons Ratio (x) = 0.44699 0.41205
# Poissons Ratio (y) = 0.19757 0.01842
# Poissons Ratio (z) = 0.10381 0.01050
#
# Static dielectric constant tensor:
#      x y z
#    x 1.699370 0.016210 -0.005010 
#    y 0.016210 1.733880 0.022370 
#    z -0.005010 0.022370 1.720550 
# 
# From -- ./inp_files/33993.got.cif
#   From: 2010.05.17/outbox.cif.g08.bks.cpg/sg2_17_cif.got.tgz:33993.got - 2010.06.03 11:33:40.
