data_PCOD9055848
_publ_section_title
;
Structure prediction by ZEFSAII (Michael W. Deem and Ramdas Pophale) SiO2 
 PCOD9055848
Probable space group: P -1
;
_chemical_formula_sum "Si O2"
_cell_formula_units_Z 13
_cell_length_a 5.538198
_cell_length_b 10.720632
_cell_length_c 22.721477
_cell_angle_alpha 151.965815
_cell_angle_beta 118.305324
_cell_angle_gamma 69.090502
_cell_volume 552.007968
_symmetry_space_group_name_H-M "P -1"
_symmetry_group_IT_number 2
_symmetry_cell_setting 'triclinic'
loop_
_space_group_symop_operation_xyz
x,y,z
-x,-y,-z
loop_
_atom_site_type_symbol
_atom_site_label
_atom_site_fract_x
_atom_site_fract_y
_atom_site_fract_z
Si Si1 0.301157 0.025937 0.155916
Si Si2 0.760957 0.730697 0.625583
Si Si3 0.500000 0.000000 0.500000
Si Si4 0.207573 0.812148 0.884790
Si Si5 0.332372 0.508483 0.885817
Si Si6 0.256306 0.510145 0.645228
Si Si7 0.754674 0.204619 0.736262
O O1 0.250940 0.069582 0.236742
O O2 0.468192 0.304708 0.268245
O O3 0.441064 0.768239 0.047089
O O4 0.020520 0.996505 0.073160
O O5 0.500000 0.500000 0.500000
O O6 0.022593 0.576860 0.601311
O O7 0.756416 0.913365 0.644189
O O8 0.307143 0.213051 0.540920
O O9 0.588244 0.188504 0.648433
O O10 0.191758 0.617887 0.857245
O O11 0.178038 0.631241 0.748304
O O12 0.500000 0.000000 0.000000
O O13 0.581706 0.365695 0.829256
O O14 0.076246 0.330883 0.815574
#
# Coordination Sequence:
#
# PCOD9055848 Si02
#       7
#     2   2   1   2   2   2   2
#     4  11  25  44  79 112 157 206 264 318 403 477
#     4  11  29  53  76 110 157 220 260 325 395 485
#     4  12  26  48  78 114 152 200 270 332 384 464
#     4  11  21  43  75 115 159 200 255 322 398 468
#     4  12  26  47  77 119 157 203 257 332 391 470
#     4  11  25  47  79 112 152 205 269 319 398 474
#     4  12  30  49  80 115 162 205 265 328 402 462
#
# _framework density 23.550386
#
# number of rings (size 3 to 8) (size 9 to 14) (size 15 to 20)
#    0.000    0.615    3.077    3.231    6.462    4.308 
#    0.000    0.000    0.000    0.000    0.000    0.000 
#    0.000    0.000    0.000    0.000    0.000    0.000 
#
# Total GULP energy -72498.399820 kJ/mol
# GULP energy per Si atom -5576.799986 kJ/mol
# Density = 2.349678 g / cm^3
# Si number density = 23.550386 Si / 1000 Ang^3
#
#
#
# Elastic Constant Matrix: (Units=GPa)
#
#
# Indices 1 2 3 4 5 6 
#
# 1 117.1956 21.8056 35.8365 4.9433 -8.6816 -6.5964
# 2 21.8056 121.0087 19.5102 -0.0417 -3.9947 -3.4841
# 3 35.8365 19.5102 54.2108 2.3885 -22.7897 -12.7186
# 4 4.9433 -0.0417 2.3885 32.8227 -1.2185 5.9177
# 5 -8.6816 -3.9947 -22.7897 -1.2185 50.3322 5.4908
# 6 -6.5964 -3.4841 -12.7186 5.9177 5.4908 32.7368
#
#
#
# Elastic Compliance Matrix: (Units=1/GPa)
#
#
# Indices 1 2 3 4 5 6 
#
# 1 0.010929 -0.000799 -0.007669 -0.001079 -0.001634 -0.000393
# 2 -0.000799 0.008871 -0.003097 0.000392 -0.000787 -0.000359
# 3 -0.007669 -0.003097 0.031783 -0.002332 0.011793 0.008917
# 4 -0.001079 0.000392 -0.002332 0.032061 0.000322 -0.006931
# 5 -0.001634 -0.000787 0.011793 0.000322 0.024878 -0.000062
# 6 -0.000393 -0.000359 0.008917 -0.006931 -0.000062 0.035157
#
#
# Mechanical properties :
#
#
# Convention : Reuss Voigt Hill
#
# Bulk Modulus (GPa) = 35.14474 49.63551 42.39013
# Shear Modulus (GPa) = 28.36209 37.52918 32.94563
#
# Velocity S-wave (km/s) = 3.47409 3.99628 3.74430
# Velocity P-wave (km/s) = 5.57207 6.51274 6.06068
#
# Compressibility (1/GPa) = 0.02845376
#
# Stress axis : x y z
#
# Youngs Moduli (GPa) = 91.50303 112.72762 31.46333
#
# Poissons Ratio (x) = 0.09002 0.24128
# Poissons Ratio (y) = 0.07307 0.09745
# Poissons Ratio (z) = 0.70170 0.34915
#
# Static dielectric constant tensor:
#      x y z
#    x 1.860060 0.030870 -0.022900 
#    y 0.030870 1.978460 -0.113080 
#    z -0.022900 -0.113080 1.992830 
# 
# From -- ./inp_files/411357.got.cif
#   From: 2010.05.17/outbox.cif.g08.bks.cpg/sg2_206_cif.got.tgz:411357.got - 2010.06.03 11:33:40.
