data_PCOD9055490
_publ_section_title
;
Structure prediction by ZEFSAII (Michael W. Deem and Ramdas Pophale) SiO2 
 PCOD9055490
Probable space group: P -1
;
_chemical_formula_sum "Si O2"
_cell_formula_units_Z 16
_cell_length_a 14.858555
_cell_length_b 10.853317
_cell_length_c 8.049604
_cell_angle_alpha 81.175586
_cell_angle_beta 114.502921
_cell_angle_gamma 147.064659
_cell_volume 590.401439
_symmetry_space_group_name_H-M "P -1"
_symmetry_group_IT_number 2
_symmetry_cell_setting 'triclinic'
loop_
_space_group_symop_operation_xyz
x,y,z
-x,-y,-z
loop_
_atom_site_type_symbol
_atom_site_label
_atom_site_fract_x
_atom_site_fract_y
_atom_site_fract_z
Si Si1 0.092728 0.913025 0.829529
Si Si2 0.486811 0.166801 0.590835
Si Si3 0.930044 0.256750 0.810127
Si Si4 0.252279 0.447030 0.824455
Si Si5 0.559611 0.688462 0.215756
Si Si6 0.524331 0.075429 0.193374
Si Si7 0.254437 0.343234 0.488049
Si Si8 0.929636 0.496279 0.610933
O O1 0.949818 0.876646 0.719598
O O2 0.013039 0.720036 0.679751
O O3 0.082116 0.834113 0.013233
O O4 0.302986 0.176267 0.866224
O O5 0.407398 0.144471 0.702583
O O6 0.630231 0.421178 0.564183
O O7 0.595950 0.159932 0.741985
O O8 0.294164 0.962013 0.372027
O O9 0.073643 0.336253 0.779672
O O10 0.000217 0.476622 0.811570
O O11 0.440081 0.740570 0.859452
O O12 0.208249 0.331477 0.643870
O O13 0.336690 0.451578 0.033833
O O14 0.623667 0.650492 0.400467
O O15 0.705787 0.266120 0.427066
O O16 0.500000 0.000000 0.000000
O O17 0.000000 0.500000 0.500000
#
# Coordination Sequence:
#
# PCOD9055490 Si02
#       8
#     2   2   2   2   2   2   2   2
#     4  12  25  45  69 102 140 186 236 282 344 412
#     4  11  25  45  71 103 141 180 235 287 350 414
#     4  11  25  43  69 105 141 183 225 288 353 416
#     4  12  24  45  72 101 145 181 231 288 350 412
#     4  12  26  46  72 100 139 189 236 289 339 410
#     4  11  22  41  71 105 137 175 222 280 358 409
#     4  12  26  48  69 102 139 187 239 286 341 412
#     4  11  21  42  67 101 143 178 222 283 347 418
#
# _framework density 27.100204000000002
#
# number of rings (size 3 to 8) (size 9 to 14) (size 15 to 20)
#    0.000    0.500    3.750    5.250    0.000    0.500 
#    2.250    1.875    0.000    0.000    0.000    0.000 
#    0.000    0.000    0.000    0.000    0.000    0.000 
#
# Total GULP energy -89330.680181 kJ/mol
# GULP energy per Si atom -5583.167511 kJ/mol
# Density = 2.703852 g / cm^3
# Si number density = 27.100204 Si / 1000 Ang^3
#
#
#
# Elastic Constant Matrix: (Units=GPa)
#
#
# Indices 1 2 3 4 5 6 
#
# 1 81.2212 13.4697 36.0416 -12.4233 15.8744 7.4953
# 2 13.4697 80.9027 23.0326 -31.8663 24.9368 6.8353
# 3 36.0416 23.0326 174.0567 -34.6393 26.4614 -1.1528
# 4 -12.4233 -31.8663 -34.6393 46.7778 -0.6251 -2.8870
# 5 15.8744 24.9368 26.4614 -0.6251 50.4643 4.3720
# 6 7.4953 6.8353 -1.1528 -2.8870 4.3720 27.4381
#
#
#
# Elastic Compliance Matrix: (Units=1/GPa)
#
#
# Indices 1 2 3 4 5 6 
#
# 1 0.014498 0.000413 -0.002111 0.002315 -0.003337 -0.003377
# 2 0.000413 0.021840 0.001999 0.016194 -0.011603 -0.001917
# 3 -0.002111 0.001999 0.007971 0.006757 -0.004580 0.001854
# 4 0.002315 0.016194 0.006757 0.037962 -0.011935 0.001513
# 5 -0.003337 -0.011603 -0.004580 -0.011935 0.029050 -0.002275
# 6 -0.003377 -0.001917 0.001854 0.001513 -0.002275 0.038445
#
#
# Mechanical properties :
#
#
# Convention : Reuss Voigt Hill
#
# Bulk Modulus (GPa) = 22.26663 53.47426 37.87045
# Shear Modulus (GPa) = 30.46255 42.51182 36.48719
#
# Velocity S-wave (km/s) = 3.35635 3.96497 3.67329
# Velocity P-wave (km/s) = 4.82228 6.38249 5.65644
#
# Compressibility (1/GPa) = 0.04491025
#
# Stress axis : x y z
#
# Youngs Moduli (GPa) = 68.97380 45.78784 125.45130
#
# Poissons Ratio (x) = -0.01891 0.26484
# Poissons Ratio (y) = -0.02848 -0.25073
# Poissons Ratio (z) = 0.14561 -0.09151
#
# Static dielectric constant tensor:
#      x y z
#    x 2.046150 0.046760 -0.035340 
#    y 0.046760 2.276170 0.043970 
#    z -0.035340 0.043970 2.068860 
# 
# From -- ./inp_files/307406.got.cif
#   From: 2010.05.17/outbox.cif.g08.bks.cpg/sg2_154_cif.got.tgz:307406.got - 2010.06.03 11:33:40.
