data_PCOD9055235
_publ_section_title
;
Structure prediction by ZEFSAII (Michael W. Deem and Ramdas Pophale) SiO2 
 PCOD9055235
Probable space group: P -1
;
_chemical_formula_sum "Si O2"
_cell_formula_units_Z 16
_cell_length_a 11.766192
_cell_length_b 8.624424
_cell_length_c 14.678177
_cell_angle_alpha 74.430259
_cell_angle_beta 148.366038
_cell_angle_gamma 88.266731
_cell_volume 646.354677
_symmetry_space_group_name_H-M "P -1"
_symmetry_group_IT_number 2
_symmetry_cell_setting 'triclinic'
loop_
_space_group_symop_operation_xyz
x,y,z
-x,-y,-z
loop_
_atom_site_type_symbol
_atom_site_label
_atom_site_fract_x
_atom_site_fract_y
_atom_site_fract_z
Si Si1 0.566698 0.586711 0.946310
Si Si2 0.561304 0.467101 0.325459
Si Si3 0.358651 0.194141 0.677058
Si Si4 0.955871 0.706841 0.890914
Si Si5 0.530273 0.657303 0.546974
Si Si6 0.773075 0.030873 0.272649
Si Si7 0.988670 0.814469 0.714191
Si Si8 0.740248 0.007329 0.829964
O O1 0.408055 0.612144 0.742517
O O2 0.485306 0.791762 0.892957
O O3 0.500000 0.500000 0.000000
O O4 0.840255 0.414408 0.135066
O O5 0.681856 0.599059 0.389387
O O6 0.629885 0.313652 0.474585
O O7 0.258973 0.603936 0.117153
O O8 0.641891 0.055250 0.857853
O O9 0.214476 0.149145 0.506750
O O10 0.270451 0.143018 0.718218
O O11 0.816354 0.599087 0.777875
O O12 0.891186 0.860853 0.742623
O O13 0.802688 0.811324 0.860736
O O14 0.500000 0.500000 0.500000
O O15 0.439928 0.825772 0.387877
O O16 0.846986 0.094368 0.220075
O O17 0.000000 0.000000 0.500000
O O18 0.000000 0.000000 0.000000
#
# Coordination Sequence:
#
# PCOD9055235 Si02
#       8
#     2   2   2   2   2   2   2   2
#     4   9  20  41  63  92 121 165 218 267 322 385
#     4  11  23  40  63  93 133 170 218 262 327 389
#     4  11  21  41  60  93 133 171 213 272 317 383
#     4  11  22  40  63  91 128 176 210 274 324 387
#     4  12  23  40  61  93 129 171 220 264 323 388
#     4   9  20  38  67  88 120 162 212 263 321 374
#     4   9  19  39  64  89 125 165 222 267 322 376
#     4  12  24  41  62  93 141 169 220 267 326 388
#
# _framework density 24.754208999999999
#
# number of rings (size 3 to 8) (size 9 to 14) (size 15 to 20)
#    0.000    1.500    3.750    0.750    1.750    1.000 
#    4.500   11.250    0.000    0.000    0.000    0.000 
#    0.000    0.000    0.000    0.000    0.000    0.000 
#
# Total GULP energy -89261.318485 kJ/mol
# GULP energy per Si atom -5578.832405 kJ/mol
# Density = 2.469787 g / cm^3
# Si number density = 24.754209 Si / 1000 Ang^3
#
#
#
# Elastic Constant Matrix: (Units=GPa)
#
#
# Indices 1 2 3 4 5 6 
#
# 1 122.9855 31.1772 -22.3594 13.8028 -8.4772 32.5807
# 2 31.1772 71.4007 10.0832 2.9352 6.1766 26.7776
# 3 -22.3594 10.0832 38.5211 6.5360 11.3058 9.5464
# 4 13.8028 2.9352 6.5360 32.0631 3.1564 1.3791
# 5 -8.4772 6.1766 11.3058 3.1564 31.1648 3.0512
# 6 32.5807 26.7776 9.5464 1.3791 3.0512 49.4843
#
#
#
# Elastic Compliance Matrix: (Units=1/GPa)
#
#
# Indices 1 2 3 4 5 6 
#
# 1 0.015742 -0.004768 0.013838 -0.008926 0.002123 -0.010336
# 2 -0.004768 0.019346 -0.005901 0.002002 -0.002598 -0.006087
# 3 0.013838 -0.005901 0.043465 -0.012891 -0.008213 -0.013438
# 4 -0.008926 0.002002 -0.012891 0.037453 -0.002568 0.006395
# 5 0.002123 -0.002598 -0.008213 -0.002568 0.036477 -0.000585
# 6 -0.010336 -0.006087 -0.013438 0.006395 -0.000585 0.032758
#
#
# Mechanical properties :
#
#
# Convention : Reuss Voigt Hill
#
# Bulk Modulus (GPa) = 11.77979 30.07882 20.92930
# Shear Modulus (GPa) = 24.13154 36.80953 30.47054
#
# Velocity S-wave (km/s) = 3.12564 3.86035 3.51226
# Velocity P-wave (km/s) = 4.21844 5.66102 4.99211
#
# Compressibility (1/GPa) = 0.08489117
#
# Stress axis : x y z
#
# Youngs Moduli (GPa) = 63.52472 51.69057 23.00725
#
# Poissons Ratio (x) = 0.24648 -0.31838
# Poissons Ratio (y) = 0.30291 0.13576
# Poissons Ratio (z) = -0.87908 0.30501
#
# Static dielectric constant tensor:
#      x y z
#    x 2.050640 -0.040600 -0.040310 
#    y -0.040600 2.064140 -0.066810 
#    z -0.040310 -0.066810 2.096290 
# 
# From -- ./inp_files/218731.got.cif
#   From: 2010.05.17/outbox.cif.g08.bks.cpg/sg2_110_cif.got.tgz:218731.got - 2010.06.03 11:33:40.
