data_PCOD9055110
_publ_section_title
;
Structure prediction by ZEFSAII (Michael W. Deem and Ramdas Pophale) SiO2 
 PCOD9055110
Probable space group: P -1
;
_chemical_formula_sum "Si O2"
_cell_formula_units_Z 16
_cell_length_a 9.803766
_cell_length_b 10.810290
_cell_length_c 14.836511
_cell_angle_alpha 105.732550
_cell_angle_beta 140.492619
_cell_angle_gamma 55.286916
_cell_volume 778.574772
_symmetry_space_group_name_H-M "P -1"
_symmetry_group_IT_number 2
_symmetry_cell_setting 'triclinic'
loop_
_space_group_symop_operation_xyz
x,y,z
-x,-y,-z
loop_
_atom_site_type_symbol
_atom_site_label
_atom_site_fract_x
_atom_site_fract_y
_atom_site_fract_z
Si Si1 0.771431 0.951853 0.350013
Si Si2 0.609270 0.552891 0.984494
Si Si3 0.143338 0.345220 0.633736
Si Si4 0.140639 0.454344 0.304383
Si Si5 0.433122 0.151721 0.052024
Si Si6 0.140129 0.710702 0.248271
Si Si7 0.731105 0.142837 0.518756
Si Si8 0.604927 0.522374 0.308858
O O1 0.712481 0.823267 0.278772
O O2 0.079283 0.860225 0.460908
O O3 0.600041 0.093532 0.218409
O O4 0.719954 0.007322 0.438999
O O5 0.526444 0.733172 0.964644
O O6 0.518041 0.520133 0.839692
O O7 0.500000 0.500000 0.000000
O O8 0.926904 0.452514 0.136172
O O9 0.348182 0.352138 0.681201
O O10 0.994535 0.493592 0.656003
O O11 0.900827 0.375670 0.457449
O O12 0.152283 0.599835 0.311204
O O13 0.432087 0.296219 0.409131
O O14 0.120011 0.240235 0.929262
O O15 0.500000 0.000000 0.000000
O O16 0.131127 0.855177 0.318302
O O17 0.405530 0.599457 0.305129
#
# Coordination Sequence:
#
# PCOD9055110 Si02
#       8
#     2   2   2   2   2   2   2   2
#     4  11  24  40  64  98 131 167 211 268 330 384
#     4  11  25  42  65  95 129 170 216 269 317 380
#     4  11  22  44  66  95 128 170 213 266 324 389
#     4  11  21  40  67  92 127 166 219 267 312 376
#     4  11  24  41  66  94 131 169 214 263 327 386
#     4  11  22  39  63  97 125 166 219 268 313 381
#     4  11  22  37  64  92 128 163 215 270 316 375
#     4  11  25  39  68  95 128 168 219 267 323 374
#
# _framework density 20.550369
#
# number of rings (size 3 to 8) (size 9 to 14) (size 15 to 20)
#    0.000    1.000    5.000    1.875    7.000    1.000 
#    0.000    2.500    0.000    0.000    0.000    0.000 
#    0.000    0.000    0.000    0.000    0.000    0.000 
#
# Total GULP energy -89154.992036 kJ/mol
# GULP energy per Si atom -5572.187002 kJ/mol
# Density = 2.050360 g / cm^3
# Si number density = 20.550369 Si / 1000 Ang^3
#
#
#
# Elastic Constant Matrix: (Units=GPa)
#
#
# Indices 1 2 3 4 5 6 
#
# 1 79.4864 27.7996 17.3701 5.2590 10.4801 8.9689
# 2 27.7996 73.1589 25.6248 12.6984 0.2439 0.7612
# 3 17.3701 25.6248 116.4987 21.2119 9.6457 -0.1501
# 4 5.2590 12.6984 21.2119 28.3914 -9.9414 -12.7903
# 5 10.4801 0.2439 9.6457 -9.9414 26.0978 2.4697
# 6 8.9689 0.7612 -0.1501 -12.7903 2.4697 26.7048
#
#
#
# Elastic Compliance Matrix: (Units=1/GPa)
#
#
# Indices 1 2 3 4 5 6 
#
# 1 0.017076 -0.005137 0.001061 -0.009194 -0.009845 -0.009076
# 2 -0.005137 0.017360 -0.002049 -0.005798 0.000602 -0.001614
# 3 0.001061 -0.002049 0.012448 -0.015056 -0.010128 -0.006503
# 4 -0.009194 -0.005798 -0.015056 0.080906 0.036483 0.038545
# 5 -0.009845 0.000602 -0.010128 0.036483 0.058458 0.015300
# 6 -0.009076 -0.001614 -0.006503 0.038545 0.015300 0.057550
#
#
# Mechanical properties :
#
#
# Convention : Reuss Voigt Hill
#
# Bulk Modulus (GPa) = 28.87293 45.63701 37.25497
# Shear Modulus (GPa) = 18.68517 29.46208 24.07363
#
# Velocity S-wave (km/s) = 3.01863 3.79047 3.42635
# Velocity P-wave (km/s) = 5.12151 6.43525 5.81559
#
# Compressibility (1/GPa) = 0.03463451
#
# Stress axis : x y z
#
# Youngs Moduli (GPa) = 58.56172 57.60431 80.33647
#
# Poissons Ratio (x) = 0.29594 -0.08528
# Poissons Ratio (y) = 0.30085 0.16457
# Poissons Ratio (z) = -0.06216 0.11801
#
# Static dielectric constant tensor:
#      x y z
#    x 1.710820 0.037250 -0.027620 
#    y 0.037250 1.779970 0.015560 
#    z -0.027620 0.015560 1.807720 
# 
# From -- ./inp_files/500614.got.cif
#   From: 2010.05.17/outbox.cif.g08.bks.cpg/sg2_251_cif.got.tgz:500614.got - 2010.06.03 11:33:40.
