data_PCOD9055601
_publ_section_title
;
Structure prediction by ZEFSAII (Michael W. Deem and Ramdas Pophale) SiO2 
 PCOD9055601
Probable space group: P -1
;
_chemical_formula_sum "Si O2"
_cell_formula_units_Z 14
_cell_length_a 9.186315
_cell_length_b 9.344649
_cell_length_c 21.078707
_cell_angle_alpha 29.400416
_cell_angle_beta 49.027031
_cell_angle_gamma 47.343666
_cell_volume 642.471122
_symmetry_space_group_name_H-M "P -1"
_symmetry_group_IT_number 2
_symmetry_cell_setting 'triclinic'
loop_
_space_group_symop_operation_xyz
x,y,z
-x,-y,-z
loop_
_atom_site_type_symbol
_atom_site_label
_atom_site_fract_x
_atom_site_fract_y
_atom_site_fract_z
Si Si1 0.648789 0.179228 0.860707
Si Si2 0.552914 0.822787 0.355774
Si Si3 0.075490 0.269870 0.508632
Si Si4 0.006644 0.639034 0.255832
Si Si5 0.627751 0.139203 0.337529
Si Si6 0.047012 0.272923 0.133028
Si Si7 0.841444 0.773268 0.748019
O O1 0.518398 0.520844 0.749748
O O2 0.829808 0.172175 0.861194
O O3 0.766138 0.009965 0.831327
O O4 0.500000 0.000000 0.000000
O O5 0.500000 0.500000 0.500000
O O6 0.770190 0.790526 0.274901
O O7 0.556343 0.947302 0.378097
O O8 0.386314 0.073093 0.267445
O O9 0.000000 0.500000 0.500000
O O10 0.067026 0.440467 0.379274
O O11 0.296032 0.055226 0.545824
O O12 0.932094 0.055868 0.622813
O O13 0.046240 0.435718 0.260473
O O14 0.844090 0.176658 0.237845
O O15 0.112439 0.396647 0.132116
O O16 0.000000 0.500000 0.000000
#
# Coordination Sequence:
#
# PCOD9055601 Si02
#       7
#     2   2   2   2   2   2   2
#     4  12  25  45  75 102 136 192 247 294 355 418
#     4  12  23  42  70 106 151 185 224 289 366 428
#     4  11  21  42  71 105 146 192 232 285 353 434
#     4  12  24  43  70 105 151 183 235 295 352 429
#     4  11  23  43  72 105 143 187 241 290 354 424
#     4  11  24  49  75  97 139 187 249 303 341 426
#     4  11  25  42  69 109 140 184 233 291 370 422
#
# _framework density 21.790861
#
# number of rings (size 3 to 8) (size 9 to 14) (size 15 to 20)
#    0.000    0.571    7.143    1.286    0.000    2.857 
#    0.000    3.571    0.000    0.000    0.000    0.000 
#    0.000    0.000    0.000    0.000    0.000    0.000 
#
# Total GULP energy -78295.375397 kJ/mol
# GULP energy per Si atom -5592.526814 kJ/mol
# Density = 2.174126 g / cm^3
# Si number density = 21.790861 Si / 1000 Ang^3
#
#
#
# Elastic Constant Matrix: (Units=GPa)
#
#
# Indices 1 2 3 4 5 6 
#
# 1 161.6923 65.4563 30.9600 2.8693 14.6539 -1.0191
# 2 65.4563 162.6076 15.2325 -6.1323 10.4302 0.5027
# 3 30.9600 15.2325 48.6492 -0.1940 8.0343 -0.9376
# 4 2.8693 -6.1323 -0.1940 25.2472 -3.4583 0.0994
# 5 14.6539 10.4302 8.0343 -3.4583 44.3338 6.0414
# 6 -1.0191 0.5027 -0.9376 0.0994 6.0414 60.8372
#
#
#
# Elastic Compliance Matrix: (Units=1/GPa)
#
#
# Indices 1 2 3 4 5 6 
#
# 1 0.008341 -0.002946 -0.004141 -0.001901 -0.001496 0.000252
# 2 -0.002946 0.007484 -0.000371 0.002075 -0.000549 -0.000066
# 3 -0.004141 -0.000371 0.023802 0.000160 -0.002925 0.000591
# 4 -0.001901 0.002075 0.000160 0.040791 0.003354 -0.000446
# 5 -0.001496 -0.000549 -0.002925 0.003354 0.024310 -0.002485
# 6 0.000252 -0.000066 0.000591 -0.000446 -0.002485 0.016699
#
#
# Mechanical properties :
#
#
# Convention : Reuss Voigt Hill
#
# Bulk Modulus (GPa) = 40.46839 66.24963 53.35901
# Shear Modulus (GPa) = 34.58272 43.50366 39.04319
#
# Velocity S-wave (km/s) = 3.98807 4.47298 4.23747
# Velocity P-wave (km/s) = 6.31014 7.55944 6.96287
#
# Compressibility (1/GPa) = 0.02471064
#
# Stress axis : x y z
#
# Youngs Moduli (GPa) = 119.88718 133.61579 42.01305
#
# Poissons Ratio (x) = 0.39366 0.17399
# Poissons Ratio (y) = 0.35322 0.01558
# Poissons Ratio (z) = 0.49651 0.04954
#
# Static dielectric constant tensor:
#      x y z
#    x 1.805080 -0.025270 0.000640 
#    y -0.025270 1.816360 0.021990 
#    z 0.000640 0.021990 1.898240 
# 
# From -- ./inp_files/203530.got.cif
#   From: 2010.05.17/outbox.cif.g08.bks.cpg/sg2_102_cif.got.tgz:203530.got - 2010.06.03 11:33:40.
