data_PCOD9055883
_publ_section_title
;
Structure prediction by ZEFSAII (Michael W. Deem and Ramdas Pophale) SiO2 
 PCOD9055883
Probable space group: P -1
;
_chemical_formula_sum "Si O2"
_cell_formula_units_Z 16
_cell_length_a 9.905628
_cell_length_b 9.540633
_cell_length_c 11.834745
_cell_angle_alpha 79.821125
_cell_angle_beta 128.768446
_cell_angle_gamma 116.300071
_cell_volume 773.612393
_symmetry_space_group_name_H-M "P -1"
_symmetry_group_IT_number 2
_symmetry_cell_setting 'triclinic'
loop_
_space_group_symop_operation_xyz
x,y,z
-x,-y,-z
loop_
_atom_site_type_symbol
_atom_site_label
_atom_site_fract_x
_atom_site_fract_y
_atom_site_fract_z
Si Si1 0.334359 0.468215 0.510580
Si Si2 0.387562 0.837656 0.141196
Si Si3 0.871648 0.363489 0.763087
Si Si4 0.476820 0.580805 0.819054
Si Si5 0.283338 0.973585 0.377567
Si Si6 0.229063 0.081769 0.104935
Si Si7 0.788975 0.895483 0.448775
Si Si8 0.698765 0.399786 0.052192
O O1 0.500000 0.500000 0.500000
O O2 0.198014 0.534300 0.369042
O O3 0.409132 0.554069 0.658034
O O4 0.241478 0.282391 0.516622
O O5 0.264397 0.701345 0.188448
O O6 0.610512 0.888882 0.280337
O O7 0.318059 0.974042 0.106903
O O8 0.336213 0.765002 0.999873
O O9 0.843627 0.204302 0.705364
O O10 0.091878 0.470575 0.892545
O O11 0.669044 0.742752 0.913304
O O12 0.325257 0.592827 0.826698
O O13 0.534732 0.442967 0.906757
O O14 0.500000 0.000000 0.500000
O O15 0.284783 0.089725 0.263715
O O16 0.221779 0.020899 0.453425
O O17 0.000000 0.000000 0.000000
O O18 0.000000 0.000000 0.500000
#
# Coordination Sequence:
#
# PCOD9055883 Si02
#       8
#     2   2   2   2   2   2   2   2
#     4  12  23  44  69  99 131 174 234 280 328 407
#     4  11  23  45  67  98 139 182 225 285 343 409
#     4  11  23  40  73  96 128 180 230 273 339 406
#     4  11  24  42  65  95 137 181 226 278 341 402
#     4  11  21  44  68  94 136 180 224 281 341 402
#     4  11  24  41  70 100 130 179 235 277 341 418
#     4  12  26  41  69 104 137 178 225 290 350 397
#     4  11  25  43  65  94 142 179 221 280 346 409
#
# _framework density 20.682193999999999
#
# number of rings (size 3 to 8) (size 9 to 14) (size 15 to 20)
#    0.000    0.750    5.000    3.375    1.750    5.000 
#    0.000    0.000    0.000    0.000    0.000    0.000 
#    0.000    0.000    0.000    0.000    0.000    0.000 
#
# Total GULP energy -89438.679732 kJ/mol
# GULP energy per Si atom -5589.917483 kJ/mol
# Density = 2.063512 g / cm^3
# Si number density = 20.682194 Si / 1000 Ang^3
#
#
#
# Elastic Constant Matrix: (Units=GPa)
#
#
# Indices 1 2 3 4 5 6 
#
# 1 128.1124 46.4638 41.3590 20.5539 -15.6874 1.5153
# 2 46.4638 86.9650 2.9576 11.7729 0.8650 1.1591
# 3 41.3590 2.9576 70.1252 8.3265 -13.6221 -6.2105
# 4 20.5539 11.7729 8.3265 34.2500 -5.9773 4.3646
# 5 -15.6874 0.8650 -13.6221 -5.9773 32.2066 9.0250
# 6 1.5153 1.1591 -6.2105 4.3646 9.0250 31.3786
#
#
#
# Elastic Compliance Matrix: (Units=1/GPa)
#
#
# Indices 1 2 3 4 5 6 
#
# 1 0.013317 -0.006469 -0.006656 -0.003156 0.003936 -0.002415
# 2 -0.006469 0.015253 0.003025 -0.002887 -0.003292 0.001696
# 3 -0.006656 0.003025 0.019224 -0.001488 0.003642 0.003174
# 4 -0.003156 -0.002887 -0.001488 0.034353 0.006130 -0.006577
# 5 0.003936 -0.003292 0.003642 0.006130 0.038927 -0.011396
# 6 -0.002415 0.001696 0.003174 -0.006577 -0.011396 0.036744
#
#
# Mechanical properties :
#
#
# Convention : Reuss Voigt Hill
#
# Bulk Modulus (GPa) = 36.23829 51.86261 44.05045
# Shear Modulus (GPa) = 26.70737 32.52851 29.61794
#
# Velocity S-wave (km/s) = 3.59740 3.97013 3.78835
# Velocity P-wave (km/s) = 5.90038 6.79311 6.36242
#
# Compressibility (1/GPa) = 0.02759512
#
# Stress axis : x y z
#
# Youngs Moduli (GPa) = 75.09016 65.56063 52.01965
#
# Poissons Ratio (x) = 0.42409 0.34625
# Poissons Ratio (y) = 0.48573 -0.15738
# Poissons Ratio (z) = 0.49981 -0.19834
#
# Static dielectric constant tensor:
#      x y z
#    x 1.692340 -0.029340 -0.026230 
#    y -0.029340 1.713000 -0.020830 
#    z -0.026230 -0.020830 1.729800 
# 
# From -- ./inp_files/189065.got.cif
#   From: 2010.05.17/outbox.cif.g08.bks.cpg/sg2_95_cif.got.tgz:189065.got - 2010.06.03 11:33:40.
