data_PCOD9055006
_publ_section_title
;
Structure prediction by ZEFSAII (Michael W. Deem and Ramdas Pophale) SiO2 
 PCOD9055006
Probable space group: P -1
;
_chemical_formula_sum "Si O2"
_cell_formula_units_Z 16
_cell_length_a 15.622645
_cell_length_b 16.177689
_cell_length_c 8.493715
_cell_angle_alpha 39.961220
_cell_angle_beta 48.421154
_cell_angle_gamma 29.472326
_cell_volume 678.304482
_symmetry_space_group_name_H-M "P -1"
_symmetry_group_IT_number 2
_symmetry_cell_setting 'triclinic'
loop_
_space_group_symop_operation_xyz
x,y,z
-x,-y,-z
loop_
_atom_site_type_symbol
_atom_site_label
_atom_site_fract_x
_atom_site_fract_y
_atom_site_fract_z
Si Si1 0.995979 0.152851 0.729654
Si Si2 0.275475 0.727132 0.326652
Si Si3 0.154237 0.075805 0.145362
Si Si4 0.520594 0.607893 0.920625
Si Si5 0.915243 0.700427 0.376386
Si Si6 0.343911 0.949768 0.417780
Si Si7 0.618017 0.852525 0.721208
Si Si8 0.253421 0.541763 0.866891
O O1 0.833492 0.287092 0.616614
O O2 0.981674 0.267580 0.719490
O O3 0.169425 0.044101 0.581453
O O4 0.000000 0.000000 0.000000
O O5 0.384602 0.710195 0.084080
O O6 0.340368 0.579939 0.601936
O O7 0.163820 0.929338 0.261677
O O8 0.957479 0.275345 0.154287
O O9 0.295423 0.964147 0.275369
O O10 0.193827 0.145249 0.858786
O O11 0.701609 0.465791 0.996302
O O12 0.500000 0.500000 0.000000
O O13 0.488586 0.748491 0.631621
O O14 0.804083 0.741932 0.594152
O O15 0.000000 0.500000 0.500000
O O16 0.398964 0.049501 0.243125
O O17 0.500000 0.000000 0.500000
O O18 0.646390 0.677237 0.967714
#
# Coordination Sequence:
#
# PCOD9055006 Si02
#       8
#     2   2   2   2   2   2   2   2
#     4  11  21  39  70  98 133 183 233 278 355 409
#     4  12  25  44  72 105 143 183 234 301 354 414
#     4  12  25  43  73 106 143 175 247 294 351 406
#     4  12  27  45  69 102 147 183 233 286 365 426
#     4  11  24  42  69 101 140 184 238 292 348 417
#     4  11  24  44  70 101 138 187 228 290 348 423
#     4  11  24  48  70  93 145 192 229 279 363 422
#     4  12  26  43  72 106 141 186 234 295 351 424
#
# _framework density 23.588227
#
# number of rings (size 3 to 8) (size 9 to 14) (size 15 to 20)
#    0.000    0.500    6.250    2.250    3.500    1.500 
#    0.000    0.625    0.000    0.000    0.000    0.000 
#    0.000    0.000    0.000    0.000    0.000    0.000 
#
# Total GULP energy -89296.918530 kJ/mol
# GULP energy per Si atom -5581.057408 kJ/mol
# Density = 2.353454 g / cm^3
# Si number density = 23.588227 Si / 1000 Ang^3
#
#
#
# Elastic Constant Matrix: (Units=GPa)
#
#
# Indices 1 2 3 4 5 6 
#
# 1 137.0037 22.4135 35.7277 -20.4078 11.3085 34.6771
# 2 22.4135 52.8726 29.4715 -4.5163 -7.1519 20.4977
# 3 35.7277 29.4715 148.2533 -25.7435 3.0368 22.1399
# 4 -20.4078 -4.5163 -25.7435 28.1839 8.8319 -7.0494
# 5 11.3085 -7.1519 3.0368 8.8319 52.1119 -2.4873
# 6 34.6771 20.4977 22.1399 -7.0494 -2.4873 33.9921
#
#
#
# Elastic Compliance Matrix: (Units=1/GPa)
#
#
# Indices 1 2 3 4 5 6 
#
# 1 0.011339 -0.001097 0.000304 0.007183 -0.004320 -0.009931
# 2 -0.001097 0.026913 -0.004050 -0.004838 0.004360 -0.013156
# 3 0.000304 -0.004050 0.009343 0.008345 -0.002696 -0.002420
# 4 0.007183 -0.004838 0.008345 0.051070 -0.011368 -0.000086
# 5 -0.004320 0.004360 -0.002696 -0.011368 0.022945 0.002856
# 6 -0.009931 -0.013156 -0.002420 -0.000086 0.002856 0.049250
#
#
# Mechanical properties :
#
#
# Convention : Reuss Voigt Hill
#
# Bulk Modulus (GPa) = 26.37969 57.03945 41.70957
# Shear Modulus (GPa) = 25.88211 39.55871 32.72041
#
# Velocity S-wave (km/s) = 3.31607 4.09963 3.72849
# Velocity P-wave (km/s) = 5.08620 6.82957 6.02132
#
# Compressibility (1/GPa) = 0.03790795
#
# Stress axis : x y z
#
# Youngs Moduli (GPa) = 88.18787 37.15682 107.03570
#
# Poissons Ratio (x) = 0.04078 -0.03257
# Poissons Ratio (y) = 0.09678 0.43354
# Poissons Ratio (z) = -0.02683 0.15050
#
# Static dielectric constant tensor:
#      x y z
#    x 2.808820 0.193880 0.181830 
#    y 0.193880 2.061020 0.004540 
#    z 0.181830 0.004540 1.922670 
# 
# From -- ./inp_files/312356.got.cif
#   From: 2010.05.17/outbox.cif.g08.bks.cpg/sg2_157_cif.got.tgz:312356.got - 2010.06.03 11:33:40.
