data_PCOD9055139
_publ_section_title
;
Structure prediction by ZEFSAII (Michael W. Deem and Ramdas Pophale) SiO2 
 PCOD9055139
Probable space group: P -1
;
_chemical_formula_sum "Si O2"
_cell_formula_units_Z 16
_cell_length_a 14.384754
_cell_length_b 8.700162
_cell_length_c 15.110732
_cell_angle_alpha 102.792659
_cell_angle_beta 149.917076
_cell_angle_gamma 97.153703
_cell_volume 705.049334
_symmetry_space_group_name_H-M "P -1"
_symmetry_group_IT_number 2
_symmetry_cell_setting 'triclinic'
loop_
_space_group_symop_operation_xyz
x,y,z
-x,-y,-z
loop_
_atom_site_type_symbol
_atom_site_label
_atom_site_fract_x
_atom_site_fract_y
_atom_site_fract_z
Si Si1 0.622215 0.441893 0.840776
Si Si2 0.080493 0.171854 0.006466
Si Si3 0.853508 0.272876 0.391184
Si Si4 0.677202 0.943530 0.049568
Si Si5 0.888606 0.803715 0.681660
Si Si6 0.668782 0.499718 0.614934
Si Si7 0.296485 0.772252 0.267173
Si Si8 0.276498 0.375485 0.869836
O O1 0.758176 0.653633 0.924084
O O2 0.331940 0.314129 0.583973
O O3 0.662597 0.304780 0.798696
O O4 0.699471 0.486989 0.012175
O O5 0.368917 0.365760 0.332248
O O6 0.000000 0.000000 0.000000
O O7 0.900700 0.975769 0.763691
O O8 0.606433 0.196182 0.223645
O O9 0.000000 0.500000 0.500000
O O10 0.031783 0.277658 0.603024
O O11 0.761359 0.110128 0.216084
O O12 0.724543 0.795424 0.106914
O O13 0.847690 0.076023 0.124829
O O14 0.813273 0.626108 0.665714
O O15 0.704631 0.357089 0.671497
O O16 0.054008 0.742174 0.055814
O O17 0.500000 0.000000 0.500000
O O18 0.500000 0.500000 0.000000
#
# Coordination Sequence:
#
# PCOD9055139 Si02
#       8
#     2   2   2   2   2   2   2   2
#     4  11  23  42  71 102 142 190 248 295 367 438
#     4  11  22  44  66  99 142 186 241 295 366 426
#     4  11  25  51  77 108 151 183 246 308 369 447
#     4  11  26  48  76 112 144 195 239 306 372 441
#     4  12  23  43  72 104 143 186 249 297 358 441
#     4  11  21  40  68  95 136 190 237 292 360 415
#     4  11  22  44  67  99 146 188 244 305 349 431
#     4  12  24  48  81 105 147 198 237 301 380 436
#
# _framework density 22.693448
#
# number of rings (size 3 to 8) (size 9 to 14) (size 15 to 20)
#    0.000    0.750    6.250    3.000    0.000    0.000 
#    4.500    1.250    0.000    0.000    0.000    0.000 
#    0.000    0.000    0.000    0.000    0.000    0.000 
#
# Total GULP energy -89192.260887 kJ/mol
# GULP energy per Si atom -5574.516305 kJ/mol
# Density = 2.264180 g / cm^3
# Si number density = 22.693448 Si / 1000 Ang^3
#
#
#
# Elastic Constant Matrix: (Units=GPa)
#
#
# Indices 1 2 3 4 5 6 
#
# 1 122.9299 50.9930 50.5708 2.6648 23.6072 18.8749
# 2 50.9930 138.2819 56.2130 8.2844 25.7917 1.3444
# 3 50.5708 56.2130 117.7027 15.4408 16.8574 5.5333
# 4 2.6648 8.2844 15.4408 46.6701 -5.0445 4.6365
# 5 23.6072 25.7917 16.8574 -5.0445 48.2428 9.7337
# 6 18.8749 1.3444 5.5333 4.6365 9.7337 32.8010
#
#
#
# Elastic Compliance Matrix: (Units=1/GPa)
#
#
# Indices 1 2 3 4 5 6 
#
# 1 0.011877 -0.002638 -0.003473 0.001308 -0.001888 -0.005765
# 2 -0.002638 0.010262 -0.003186 -0.001323 -0.003816 0.002954
# 3 -0.003473 -0.003186 0.012122 -0.003497 -0.001399 0.000994
# 4 0.001308 -0.001323 -0.003497 0.023742 0.004755 -0.004876
# 5 -0.001888 -0.003816 -0.001399 0.004755 0.026077 -0.006932
# 6 -0.005765 0.002954 0.000994 -0.004876 -0.006932 0.036262
#
#
# Mechanical properties :
#
#
# Convention : Reuss Voigt Hill
#
# Bulk Modulus (GPa) = 63.83136 77.16311 70.49723
# Shear Modulus (GPa) = 34.68347 40.28530 37.48439
#
# Velocity S-wave (km/s) = 3.91365 4.21788 4.06861
# Velocity P-wave (km/s) = 6.97215 7.60242 7.29410
#
# Compressibility (1/GPa) = 0.01566628
#
# Stress axis : x y z
#
# Youngs Moduli (GPa) = 84.19424 97.44635 82.49218
#
# Poissons Ratio (x) = 0.25708 0.28652
# Poissons Ratio (y) = 0.22212 0.26285
# Poissons Ratio (z) = 0.29243 0.31049
#
# Static dielectric constant tensor:
#      x y z
#    x 1.936910 -0.044890 -0.112090 
#    y -0.044890 1.822530 0.097890 
#    z -0.112090 0.097890 2.362390 
# 
# From -- ./inp_files/529932.got.cif
#   From: 2010.05.17/outbox.cif.g08.bks.cpg/sg2_265_cif.got.tgz:529932.got - 2010.06.03 11:33:40.
