data_PCOD9055568
_publ_section_title
;
Structure prediction by ZEFSAII (Michael W. Deem and Ramdas Pophale) SiO2 
 PCOD9055568
Probable space group: P -1
;
_chemical_formula_sum "Si O2"
_cell_formula_units_Z 14
_cell_length_a 12.334163
_cell_length_b 7.200277
_cell_length_c 11.350549
_cell_angle_alpha 140.666300
_cell_angle_beta 79.243035
_cell_angle_gamma 110.386497
_cell_volume 593.065373
_symmetry_space_group_name_H-M "P -1"
_symmetry_group_IT_number 2
_symmetry_cell_setting 'triclinic'
loop_
_space_group_symop_operation_xyz
x,y,z
-x,-y,-z
loop_
_atom_site_type_symbol
_atom_site_label
_atom_site_fract_x
_atom_site_fract_y
_atom_site_fract_z
Si Si1 0.030524 0.243623 0.218360
Si Si2 0.768766 0.730337 0.630492
Si Si3 0.190051 0.904670 0.437678
Si Si4 0.435935 0.944548 0.361271
Si Si5 0.480649 0.357494 0.275301
Si Si6 0.221383 0.940631 0.708915
Si Si7 0.427957 0.175463 0.939921
O O1 0.126966 0.178093 0.250886
O O2 0.080888 0.596655 0.332978
O O3 0.911811 0.189452 0.287534
O O4 0.000000 0.000000 0.000000
O O5 0.654060 0.802649 0.734085
O O6 0.734136 0.356863 0.453006
O O7 0.814670 0.884453 0.569957
O O8 0.223475 0.073180 0.641194
O O9 0.299061 0.789191 0.329691
O O10 0.461300 0.312386 0.512332
O O11 0.500000 0.000000 0.500000
O O12 0.484397 0.788142 0.170071
O O13 0.565727 0.155553 0.175808
O O14 0.465836 0.383362 0.149885
O O15 0.304566 0.149230 0.893276
#
# Coordination Sequence:
#
# PCOD9055568 Si02
#       7
#     2   2   2   2   2   2   2
#     4  11  26  46  64  91 133 170 217 277 326 383
#     4  11  21  42  70  93 130 171 219 269 321 389
#     4  11  23  40  69  97 120 175 221 265 327 385
#     4  12  21  40  64  95 137 169 215 267 321 392
#     4  11  23  39  65  98 134 175 210 266 329 384
#     4  11  23  43  66  92 130 173 217 268 327 384
#     4  11  22  40  65  96 131 174 213 261 331 382
#
# _framework density 23.606166000000002
#
# number of rings (size 3 to 8) (size 9 to 14) (size 15 to 20)
#    0.000    0.857    4.286    4.714    0.000    3.429 
#    2.571    1.429    0.000    0.000    0.000    0.000 
#    0.000    0.000    0.000    0.000    0.000    0.000 
#
# Total GULP energy -78289.608837 kJ/mol
# GULP energy per Si atom -5592.114917 kJ/mol
# Density = 2.355244 g / cm^3
# Si number density = 23.606166 Si / 1000 Ang^3
#
#
#
# Elastic Constant Matrix: (Units=GPa)
#
#
# Indices 1 2 3 4 5 6 
#
# 1 82.1053 27.6397 39.8518 -6.0537 27.7273 8.3196
# 2 27.6397 136.2127 31.8678 -34.3442 16.3945 -11.8161
# 3 39.8518 31.8678 131.7924 -17.5118 19.7595 0.0445
# 4 -6.0537 -34.3442 -17.5118 37.2264 -6.4001 5.4293
# 5 27.7273 16.3945 19.7595 -6.4001 44.0529 -12.9564
# 6 8.3196 -11.8161 0.0445 5.4293 -12.9564 53.5905
#
#
#
# Elastic Compliance Matrix: (Units=1/GPa)
#
#
# Indices 1 2 3 4 5 6 
#
# 1 0.019285 -0.002748 -0.003726 -0.002244 -0.011585 -0.006170
# 2 -0.002748 0.010354 -0.000517 0.008578 -0.000112 0.001814
# 3 -0.003726 -0.000517 0.009455 0.003168 -0.001295 -0.000177
# 4 -0.002244 0.008578 0.003168 0.036357 0.001782 -0.001015
# 5 -0.011585 -0.000112 -0.001295 0.001782 0.033741 0.009752
# 6 -0.006170 0.001814 -0.000177 -0.001015 0.009752 0.022479
#
#
# Mechanical properties :
#
#
# Convention : Reuss Voigt Hill
#
# Bulk Modulus (GPa) = 39.82193 60.98099 50.40146
# Shear Modulus (GPa) = 32.46274 43.69070 38.07672
#
# Velocity S-wave (km/s) = 3.71237 4.30678 4.02057
# Velocity P-wave (km/s) = 5.93982 7.11476 6.55368
#
# Compressibility (1/GPa) = 0.02511179
#
# Stress axis : x y z
#
# Youngs Moduli (GPa) = 51.85285 96.58378 105.76935
#
# Poissons Ratio (x) = 0.26543 0.39411
# Poissons Ratio (y) = 0.14250 0.05463
# Poissons Ratio (z) = 0.19321 0.04989
#
# Static dielectric constant tensor:
#      x y z
#    x 1.944100 -0.072750 -0.046280 
#    y -0.072750 2.018830 0.007460 
#    z -0.046280 0.007460 1.919940 
# 
# From -- ./inp_files/260820.got.cif
#   From: 2010.05.17/outbox.cif.g08.bks.cpg/sg2_131_cif.got.tgz:260820.got - 2010.06.03 11:33:40.
