data_PCOD9055153
_publ_section_title
;
Structure prediction by ZEFSAII (Michael W. Deem and Ramdas Pophale) SiO2 
 PCOD9055153
Probable space group: P -1
;
_chemical_formula_sum "Si O2"
_cell_formula_units_Z 16
_cell_length_a 10.723959
_cell_length_b 6.735387
_cell_length_c 20.467230
_cell_angle_alpha 57.474239
_cell_angle_beta 148.568514
_cell_angle_gamma 113.489316
_cell_volume 643.884754
_symmetry_space_group_name_H-M "P -1"
_symmetry_group_IT_number 2
_symmetry_cell_setting 'triclinic'
loop_
_space_group_symop_operation_xyz
x,y,z
-x,-y,-z
loop_
_atom_site_type_symbol
_atom_site_label
_atom_site_fract_x
_atom_site_fract_y
_atom_site_fract_z
Si Si1 0.127727 0.909086 0.505756
Si Si2 0.044354 0.368278 0.959449
Si Si3 0.510212 0.548207 0.274792
Si Si4 0.256871 0.164644 0.764284
Si Si5 0.601824 0.670082 0.436028
Si Si6 0.741095 0.368257 0.098261
Si Si7 0.074864 0.972668 0.139767
Si Si8 0.983330 0.355058 0.727082
O O1 0.339767 0.688540 0.645798
O O2 0.944424 0.843891 0.380565
O O3 0.250500 0.136741 0.500522
O O4 0.000000 0.000000 0.500000
O O5 0.760317 0.466749 0.819382
O O6 0.898299 0.768943 0.921975
O O7 0.203225 0.550592 0.965027
O O8 0.075776 0.151382 0.959584
O O9 0.518907 0.752708 0.188516
O O10 0.649703 0.613633 0.390847
O O11 0.157569 0.350121 0.743391
O O12 0.285761 0.905145 0.854401
O O13 0.712127 0.430520 0.565163
O O14 0.332071 0.805419 0.288874
O O15 0.949145 0.465032 0.218678
O O16 0.500000 0.500000 0.000000
O O17 0.976327 0.909036 0.177050
#
# Coordination Sequence:
#
# PCOD9055153 Si02
#       8
#     2   2   2   2   2   2   2   2
#     4  12  23  40  66 104 143 182 232 284 347 411
#     4   9  22  47  68  99 136 183 238 278 345 423
#     4  11  24  42  72 102 139 186 229 288 345 414
#     4  12  25  42  68 102 140 178 231 289 347 410
#     4  11  21  40  69 102 138 177 229 288 349 406
#     4  11  27  46  73 100 139 181 229 291 348 412
#     4   9  21  41  72  95 138 187 227 282 349 417
#     4  11  23  44  67 104 139 176 232 285 351 414
#
# _framework density 24.849167999999999
#
# number of rings (size 3 to 8) (size 9 to 14) (size 15 to 20)
#    0.000    1.250    3.750    1.500    7.000    1.500 
#    0.000    2.500    0.000    0.000    0.000    0.000 
#    0.000    0.000    0.000    0.000    0.000    0.000 
#
# Total GULP energy -89383.001396 kJ/mol
# GULP energy per Si atom -5586.437587 kJ/mol
# Density = 2.479261 g / cm^3
# Si number density = 24.849168 Si / 1000 Ang^3
#
#
#
# Elastic Constant Matrix: (Units=GPa)
#
#
# Indices 1 2 3 4 5 6 
#
# 1 132.9633 27.1132 42.9236 -12.0625 -4.8099 20.1603
# 2 27.1132 78.3025 19.6437 -12.3219 -11.8401 -0.6149
# 3 42.9236 19.6437 87.9914 -19.2388 -6.7610 13.9872
# 4 -12.0625 -12.3219 -19.2388 42.8654 -3.0018 -12.1122
# 5 -4.8099 -11.8401 -6.7610 -3.0018 45.6720 -10.7508
# 6 20.1603 -0.6149 13.9872 -12.1122 -10.7508 46.2040
#
#
#
# Elastic Compliance Matrix: (Units=1/GPa)
#
#
# Indices 1 2 3 4 5 6 
#
# 1 0.009753 -0.002756 -0.003848 -0.000883 -0.001170 -0.003631
# 2 -0.002756 0.015562 -0.001421 0.004572 0.004813 0.004158
# 3 -0.003848 -0.001421 0.014956 0.004981 0.001481 -0.001217
# 4 -0.000883 0.004572 0.004981 0.029260 0.005616 0.007915
# 5 -0.001170 0.004813 0.001481 0.005616 0.025374 0.007502
# 6 -0.003631 0.004158 -0.001217 0.007915 0.007502 0.027472
#
#
# Mechanical properties :
#
#
# Convention : Reuss Voigt Hill
#
# Bulk Modulus (GPa) = 41.28902 53.17979 47.23441
# Shear Modulus (GPa) = 34.12955 40.92006 37.52480
#
# Velocity S-wave (km/s) = 3.71005 4.06240 3.89022
# Velocity P-wave (km/s) = 5.91647 6.59179 6.26324
#
# Compressibility (1/GPa) = 0.02421951
#
# Stress axis : x y z
#
# Youngs Moduli (GPa) = 102.52910 64.26027 66.86497
#
# Poissons Ratio (x) = 0.17711 0.25731
# Poissons Ratio (y) = 0.28258 0.09503
# Poissons Ratio (z) = 0.39456 0.09133
#
# Static dielectric constant tensor:
#      x y z
#    x 2.012470 0.045200 0.004360 
#    y 0.045200 1.965300 0.014610 
#    z 0.004360 0.014610 2.019030 
# 
# From -- ./inp_files/82639.got.cif
#   From: 2010.05.17/outbox.cif.g08.bks.cpg/sg2_42_cif.got.tgz:82639.got - 2010.06.03 11:33:40.
