data_PCOD9055819
_publ_section_title
;
Structure prediction by ZEFSAII (Michael W. Deem and Ramdas Pophale) SiO2 
 PCOD9055819
Probable space group: P -1
;
_chemical_formula_sum "Si O2"
_cell_formula_units_Z 12
_cell_length_a 5.561610
_cell_length_b 11.748255
_cell_length_c 12.320753
_cell_angle_alpha 50.964539
_cell_angle_beta 125.728739
_cell_angle_gamma 126.506063
_cell_volume 473.545191
_symmetry_space_group_name_H-M "P -1"
_symmetry_group_IT_number 2
_symmetry_cell_setting 'triclinic'
loop_
_space_group_symop_operation_xyz
x,y,z
-x,-y,-z
loop_
_atom_site_type_symbol
_atom_site_label
_atom_site_fract_x
_atom_site_fract_y
_atom_site_fract_z
Si Si1 0.820596 0.626477 0.965476
Si Si2 0.819445 0.067642 0.614980
Si Si3 0.202364 0.389074 0.625394
Si Si4 0.782235 0.820573 0.034481
Si Si5 0.831001 0.603794 0.741609
Si Si6 0.702422 0.093285 0.257158
O O1 0.890524 0.768646 0.981063
O O2 0.050635 0.532564 0.106043
O O3 0.500000 0.500000 0.000000
O O4 0.733092 0.654951 0.802302
O O5 0.624504 0.019890 0.707175
O O6 0.070221 0.991109 0.681216
O O7 0.500000 0.000000 0.500000
O O8 0.042348 0.248873 0.583094
O O9 0.200139 0.296871 0.794734
O O10 0.560293 0.517192 0.637273
O O11 0.000000 0.500000 0.500000
O O12 0.423374 0.817596 0.922698
O O13 0.000000 0.000000 0.000000
O O14 0.106219 0.769810 0.688570
#
# Coordination Sequence:
#
# PCOD9055819 Si02
#       6
#     2   2   2   2   2   2
#     4  11  21  43  73 112 158 197 258 332 397 466
#     4  12  29  53  80 116 164 214 262 330 406 478
#     4  12  28  49  75 117 158 209 267 328 400 477
#     4  12  25  46  80 116 157 206 270 329 396 473
#     4  11  24  43  75 116 151 207 260 328 400 469
#     4  12  26  50  84 118 156 213 267 331 397 477
#
# _framework density 25.340771
#
# number of rings (size 3 to 8) (size 9 to 14) (size 15 to 20)
#    0.000    0.333    5.000    3.500    2.333    2.000 
#    0.000    2.500    0.000    0.000    0.000    0.000 
#    0.000    0.000    0.000    0.000    0.000    0.000 
#
# Total GULP energy -67001.413304 kJ/mol
# GULP energy per Si atom -5583.451109 kJ/mol
# Density = 2.528309 g / cm^3
# Si number density = 25.340771 Si / 1000 Ang^3
#
#
#
# Elastic Constant Matrix: (Units=GPa)
#
#
# Indices 1 2 3 4 5 6 
#
# 1 109.1086 61.2359 51.3601 -9.5982 15.6948 -8.6725
# 2 61.2359 277.6634 64.5856 -0.1224 18.2503 -7.1380
# 3 51.3601 64.5856 136.6726 14.6837 32.4828 -7.0624
# 4 -9.5982 -0.1224 14.6837 52.8948 -1.4951 2.4547
# 5 15.6948 18.2503 32.4828 -1.4951 50.3405 -8.1228
# 6 -8.6725 -7.1380 -7.0624 2.4547 -8.1228 53.4263
#
#
#
# Elastic Compliance Matrix: (Units=1/GPa)
#
#
# Indices 1 2 3 4 5 6 
#
# 1 0.012503 -0.001754 -0.004090 0.003342 -0.000355 0.001047
# 2 -0.001754 0.004313 -0.001350 0.000058 -0.000129 0.000091
# 3 -0.004090 -0.001350 0.011260 -0.004029 -0.005625 -0.000026
# 4 0.003342 0.000058 -0.004029 0.020717 0.002052 -0.000622
# 5 -0.000355 -0.000129 -0.005625 0.002052 0.024158 0.002760
# 6 0.001047 0.000091 -0.000026 -0.000622 0.002760 0.019344
#
#
# Mechanical properties :
#
#
# Convention : Reuss Voigt Hill
#
# Bulk Modulus (GPa) = 73.05722 97.53420 85.29571
# Shear Modulus (GPa) = 44.94470 54.41650 49.68060
#
# Velocity S-wave (km/s) = 4.21600 4.63902 4.43256
# Velocity P-wave (km/s) = 7.25203 8.20162 7.74140
#
# Compressibility (1/GPa) = 0.01368790
#
# Stress axis : x y z
#
# Youngs Moduli (GPa) = 79.97833 231.84485 88.80940
#
# Poissons Ratio (x) = 0.40675 0.36325
# Poissons Ratio (y) = 0.14031 0.11988
# Poissons Ratio (z) = 0.32713 0.31295
#
# Static dielectric constant tensor:
#      x y z
#    x 2.133190 -0.011550 -0.073460 
#    y -0.011550 2.011000 -0.011930 
#    z -0.073460 -0.011930 2.132210 
# 
# From -- ./inp_files/133646.got.cif
#   From: 2010.05.17/outbox.cif.g08.bks.cpg/sg2_67_cif.got.tgz:133646.got - 2010.06.03 11:33:40.
