data_PCOD9055003
_publ_section_title
;
Structure prediction by ZEFSAII (Michael W. Deem and Ramdas Pophale) SiO2 
 PCOD9055003
Probable space group: P -1
;
_chemical_formula_sum "Si O2"
_cell_formula_units_Z 14
_cell_length_a 13.634932
_cell_length_b 19.690907
_cell_length_c 11.504264
_cell_angle_alpha 147.737096
_cell_angle_beta 45.332027
_cell_angle_gamma 156.976773
_cell_volume 601.491212
_symmetry_space_group_name_H-M "P -1"
_symmetry_group_IT_number 2
_symmetry_cell_setting 'triclinic'
loop_
_space_group_symop_operation_xyz
x,y,z
-x,-y,-z
loop_
_atom_site_type_symbol
_atom_site_label
_atom_site_fract_x
_atom_site_fract_y
_atom_site_fract_z
Si Si1 0.689145 0.589793 0.681993
Si Si2 0.389996 0.590567 0.837261
Si Si3 0.758784 0.077780 0.350670
Si Si4 0.750937 0.208956 0.299392
Si Si5 0.765244 0.778725 0.135840
Si Si6 0.676037 0.890228 0.788230
Si Si7 0.235851 0.919816 0.401696
O O1 0.494197 0.532203 0.694448
O O2 0.517305 0.324385 0.458627
O O3 0.956219 0.768822 0.647847
O O4 0.791119 0.741960 0.931708
O O5 0.512101 0.726612 0.807258
O O6 0.071511 0.349034 0.763440
O O7 0.528218 0.793216 0.107395
O O8 0.793736 0.180909 0.351157
O O9 0.713962 0.108316 0.555558
O O10 0.000000 0.500000 0.500000
O O11 0.461842 0.047666 0.312483
O O12 0.736984 0.087489 0.038001
O O13 0.731960 0.903408 0.351787
O O14 0.500000 0.500000 0.000000
O O15 0.036504 0.951427 0.225027
#
# Coordination Sequence:
#
# PCOD9055003 Si02
#       7
#     2   2   2   2   2   2   2
#     4  12  21  41  69 104 135 170 224 276 346 396
#     4  11  21  39  70 108 131 163 225 287 339 389
#     4  11  23  41  74  99 132 186 224 281 336 400
#     4  11  26  49  67  95 142 186 224 276 345 404
#     4  12  25  42  67  99 140 182 224 279 338 404
#     4  11  23  42  70  97 135 178 221 280 339 400
#     4  12  24  43  71 101 140 173 231 284 329 405
#
# _framework density 23.275486999999998
#
# number of rings (size 3 to 8) (size 9 to 14) (size 15 to 20)
#    0.000    0.571    7.143    3.000    0.000    2.857 
#    2.571    0.714    0.000    0.000    0.000    0.000 
#    0.000    0.000    0.000    0.000    0.000    0.000 
#
# Total GULP energy -78362.027544 kJ/mol
# GULP energy per Si atom -5597.287682 kJ/mol
# Density = 2.322251 g / cm^3
# Si number density = 23.275487 Si / 1000 Ang^3
#
#
#
# Elastic Constant Matrix: (Units=GPa)
#
#
# Indices 1 2 3 4 5 6 
#
# 1 44.1728 32.0960 32.7338 13.1103 -6.0540 18.1278
# 2 32.0960 102.7530 20.9815 35.7156 -11.6953 27.9388
# 3 32.7338 20.9815 126.8487 36.1086 -13.1105 15.3136
# 4 13.1103 35.7156 36.1086 50.8796 6.4887 4.3013
# 5 -6.0540 -11.6953 -13.1105 6.4887 31.7293 6.4839
# 6 18.1278 27.9388 15.3136 4.3013 6.4839 31.9287
#
#
#
# Elastic Compliance Matrix: (Units=1/GPa)
#
#
# Indices 1 2 3 4 5 6 
#
# 1 0.038772 -0.005725 -0.006365 -0.000939 0.005920 -0.015026
# 2 -0.005725 0.030459 0.010971 -0.028539 0.026683 -0.030238
# 3 -0.006365 0.010971 0.016491 -0.018619 0.016461 -0.014731
# 4 -0.000939 -0.028539 -0.018619 0.054904 -0.036667 0.034485
# 5 0.005920 0.026683 0.016461 -0.036667 0.065565 -0.042980
# 6 -0.015026 -0.030238 -0.014731 0.034485 -0.042980 0.077458
#
#
# Mechanical properties :
#
#
# Convention : Reuss Voigt Hill
#
# Bulk Modulus (GPa) = 11.97836 49.48857 30.73346
# Shear Modulus (GPa) = 15.93811 35.43840 25.68825
#
# Velocity S-wave (km/s) = 2.61963 3.90624 3.32574
# Velocity P-wave (km/s) = 3.78252 6.45393 5.28964
#
# Compressibility (1/GPa) = 0.08348390
#
# Stress axis : x y z
#
# Youngs Moduli (GPa) = 25.79207 32.83129 60.63937
#
# Poissons Ratio (x) = 0.18797 0.38597
# Poissons Ratio (y) = 0.14766 -0.66530
# Poissons Ratio (z) = 0.16417 -0.36021
#
# Static dielectric constant tensor:
#      x y z
#    x 1.940150 -0.031110 -0.001130 
#    y -0.031110 1.864220 -0.043960 
#    z -0.001130 -0.043960 1.887030 
# 
# From -- ./inp_files/278934.got.cif
#   From: 2010.05.17/outbox.cif.g08.bks.cpg/sg2_140_cif.got.tgz:278934.got - 2010.06.03 11:33:40.
