data_PCOD9055025
_publ_section_title
;
Structure prediction by ZEFSAII (Michael W. Deem and Ramdas Pophale) SiO2 
 PCOD9055025
Probable space group: P -1
;
_chemical_formula_sum "Si O2"
_cell_formula_units_Z 14
_cell_length_a 7.881198
_cell_length_b 16.818153
_cell_length_c 10.842291
_cell_angle_alpha 40.732274
_cell_angle_beta 123.780277
_cell_angle_gamma 143.273306
_cell_volume 555.901054
_symmetry_space_group_name_H-M "P -1"
_symmetry_group_IT_number 2
_symmetry_cell_setting 'triclinic'
loop_
_space_group_symop_operation_xyz
x,y,z
-x,-y,-z
loop_
_atom_site_type_symbol
_atom_site_label
_atom_site_fract_x
_atom_site_fract_y
_atom_site_fract_z
Si Si1 0.932933 0.076947 0.281198
Si Si2 0.812859 0.972204 0.764497
Si Si3 0.193532 0.425957 0.995836
Si Si4 0.690701 0.106765 0.737798
Si Si5 0.112993 0.422814 0.692418
Si Si6 0.229989 0.716445 0.695496
Si Si7 0.321229 0.377740 0.450533
O O1 0.607429 0.969980 0.239023
O O2 0.000000 0.000000 0.500000
O O3 0.104461 0.112388 0.184067
O O4 0.021762 0.238984 0.195554
O O5 0.725227 0.979905 0.858630
O O6 0.103972 0.174461 0.626768
O O7 0.509477 0.881589 0.685137
O O8 0.048138 0.393847 0.843299
O O9 0.233884 0.575022 0.891365
O O10 0.500000 0.500000 0.000000
O O11 0.724261 0.211683 0.509196
O O12 0.949611 0.245556 0.768415
O O13 0.445455 0.555046 0.636982
O O14 0.000000 0.500000 0.500000
O O15 0.900873 0.616653 0.698057
O O16 0.500000 0.500000 0.500000
#
# Coordination Sequence:
#
# PCOD9055025 Si02
#       7
#     2   2   2   2   2   2   2
#     4  12  26  44  75 103 142 201 240 300 373 427
#     4  11  23  41  71 109 145 184 248 301 354 441
#     4  12  26  46  70 108 145 188 253 297 363 444
#     4  11  22  44  72 104 142 192 238 300 370 427
#     4  12  24  45  73 108 148 192 241 304 366 438
#     4  11  22  43  70 107 148 181 246 302 354 436
#     4  11  21  39  72 108 139 195 238 289 371 434
#
# _framework density 25.184339000000001
#
# number of rings (size 3 to 8) (size 9 to 14) (size 15 to 20)
#    0.000    0.571    7.143    2.571    2.000    0.571 
#    2.571    2.143    0.000    0.000    0.000    0.000 
#    0.000    0.000    0.000    0.000    0.000    0.000 
#
# Total GULP energy -78128.172158 kJ/mol
# GULP energy per Si atom -5580.583726 kJ/mol
# Density = 2.512702 g / cm^3
# Si number density = 25.184339 Si / 1000 Ang^3
#
#
#
# Elastic Constant Matrix: (Units=GPa)
#
#
# Indices 1 2 3 4 5 6 
#
# 1 141.4333 25.1812 6.1676 -3.2089 21.4731 31.4258
# 2 25.1812 157.1000 14.8152 -10.3396 -0.4522 7.3596
# 3 6.1676 14.8152 80.2743 -4.7989 14.2924 -4.3888
# 4 -3.2089 -10.3396 -4.7989 23.9371 -8.9946 1.1701
# 5 21.4731 -0.4522 14.2924 -8.9946 30.9235 5.1665
# 6 31.4258 7.3596 -4.3888 1.1701 5.1665 60.6244
#
#
#
# Elastic Compliance Matrix: (Units=1/GPa)
#
#
# Indices 1 2 3 4 5 6 
#
# 1 0.009109 -0.001427 0.000379 -0.001491 -0.006294 -0.003956
# 2 -0.001427 0.007013 -0.001521 0.003670 0.002955 -0.000545
# 3 0.000379 -0.001521 0.014049 -0.000583 -0.007221 0.001632
# 4 -0.001491 0.003670 -0.000583 0.049154 0.015994 -0.002027
# 5 -0.006294 0.002955 -0.007221 0.015994 0.045036 -0.001766
# 6 -0.003956 -0.000545 0.001632 -0.002027 -0.001766 0.018920
#
#
# Mechanical properties :
#
#
# Convention : Reuss Voigt Hill
#
# Bulk Modulus (GPa) = 39.94846 52.34840 46.14843
# Shear Modulus (GPa) = 31.89551 45.27324 38.58437
#
# Velocity S-wave (km/s) = 3.56263 4.24450 3.91842
# Velocity P-wave (km/s) = 5.72887 6.69718 6.23186
#
# Compressibility (1/GPa) = 0.02503225
#
# Stress axis : x y z
#
# Youngs Moduli (GPa) = 109.78591 142.59133 71.17991
#
# Poissons Ratio (x) = 0.20342 -0.02695
# Poissons Ratio (y) = 0.15662 0.10828
# Poissons Ratio (z) = -0.04156 0.21690
#
# Static dielectric constant tensor:
#      x y z
#    x 2.080430 -0.048320 -0.036210 
#    y -0.048320 2.001260 -0.038770 
#    z -0.036210 -0.038770 2.072440 
# 
# From -- ./inp_files/245577.got.cif
#   From: 2010.05.17/outbox.cif.g08.bks.cpg/sg2_123_cif.got.tgz:245577.got - 2010.06.03 11:33:40.
