data_PCOD9055961
_publ_section_title
;
Structure prediction by ZEFSAII (Michael W. Deem and Ramdas Pophale) SiO2 
 PCOD9055961
Probable space group: P -1
;
_chemical_formula_sum "Si O2"
_cell_formula_units_Z 14
_cell_length_a 15.142648
_cell_length_b 22.741163
_cell_length_c 12.101196
_cell_angle_alpha 29.528372
_cell_angle_beta 152.135150
_cell_angle_gamma 163.526022
_cell_volume 544.415936
_symmetry_space_group_name_H-M "P -1"
_symmetry_group_IT_number 2
_symmetry_cell_setting 'triclinic'
loop_
_space_group_symop_operation_xyz
x,y,z
-x,-y,-z
loop_
_atom_site_type_symbol
_atom_site_label
_atom_site_fract_x
_atom_site_fract_y
_atom_site_fract_z
Si Si1 0.316130 0.740383 0.409605
Si Si2 0.432604 0.355928 0.243157
Si Si3 0.351342 0.986741 0.465463
Si Si4 0.870888 0.536221 0.642029
Si Si5 0.701526 0.717185 0.418907
Si Si6 0.041470 0.276834 0.113723
Si Si7 0.488505 0.284063 0.002744
O O1 0.582489 0.776082 0.621268
O O2 0.425359 0.888276 0.383496
O O3 0.000000 0.500000 0.500000
O O4 0.220566 0.764823 0.154258
O O5 0.737088 0.495156 0.438601
O O6 0.118237 0.224429 0.186365
O O7 0.500000 0.500000 0.000000
O O8 0.330733 0.110351 0.197434
O O9 0.500000 0.000000 0.500000
O O10 0.035207 0.740679 0.540200
O O11 0.550089 0.343301 0.677908
O O12 0.163734 0.591208 0.865718
O O13 0.500000 0.500000 0.500000
O O14 0.986222 0.807374 0.663811
O O15 0.748786 0.819172 0.195249
O O16 0.381300 0.531281 0.091380
#
# Coordination Sequence:
#
# PCOD9055961 Si02
#       7
#     2   2   2   2   2   2   2
#     4  12  19  36  60  82 120 158 190 244 293 347
#     4  11  20  32  56  86 114 151 198 236 290 349
#     4  10  21  34  60  93 118 152 190 245 309 337
#     4  10  20  36  58  92 118 150 197 248 294 344
#     4   9  20  35  57  86 116 155 201 241 278 352
#     4  10  20  34  57  87 112 147 206 238 275 345
#     4  10  17  36  59  88 115 156 194 238 293 350
#
# _framework density 25.715633
#
# number of rings (size 3 to 8) (size 9 to 14) (size 15 to 20)
#    0.000    1.714    4.286    1.286    0.000    0.000 
#    0.000   11.429    0.000    6.857    3.714    0.000 
#    0.000    0.000    0.000    0.000    0.000    0.000 
#
# Total GULP energy -78339.069104 kJ/mol
# GULP energy per Si atom -5595.647793 kJ/mol
# Density = 2.565710 g / cm^3
# Si number density = 25.715633 Si / 1000 Ang^3
#
#
#
# Elastic Constant Matrix: (Units=GPa)
#
#
# Indices 1 2 3 4 5 6 
#
# 1 118.4989 23.5806 43.8149 11.6722 1.7087 -14.2523
# 2 23.5806 91.8320 23.5899 7.0219 -5.1345 -23.0116
# 3 43.8149 23.5899 143.6708 32.7705 -23.0613 -6.6225
# 4 11.6722 7.0219 32.7705 39.5360 -6.2679 -9.3605
# 5 1.7087 -5.1345 -23.0613 -6.2679 62.4890 9.4622
# 6 -14.2523 -23.0116 -6.6225 -9.3605 9.4622 32.2104
#
#
#
# Elastic Compliance Matrix: (Units=1/GPa)
#
#
# Indices 1 2 3 4 5 6 
#
# 1 0.010289 -0.000978 -0.003227 0.000407 -0.002107 0.003928
# 2 -0.000978 0.013971 -0.002081 0.001729 -0.000918 0.009892
# 3 -0.003227 -0.002081 0.010440 -0.007723 0.003612 -0.004074
# 4 0.000407 0.001729 -0.007723 0.033453 -0.000847 0.009798
# 5 -0.002107 -0.000918 0.003612 -0.000847 0.018208 -0.006440
# 6 0.003928 0.009892 -0.004074 0.009798 -0.006440 0.043753
#
#
# Mechanical properties :
#
#
# Convention : Reuss Voigt Hill
#
# Bulk Modulus (GPa) = 45.19407 59.55250 52.37329
# Shear Modulus (GPa) = 33.31940 44.38150 38.85045
#
# Velocity S-wave (km/s) = 3.60347 4.15885 3.89108
# Velocity P-wave (km/s) = 5.90982 6.80219 6.37165
#
# Compressibility (1/GPa) = 0.02212680
#
# Stress axis : x y z
#
# Youngs Moduli (GPa) = 97.18662 71.57936 95.78616
#
# Poissons Ratio (x) = 0.06999 0.30913
# Poissons Ratio (y) = 0.09502 0.19938
# Poissons Ratio (z) = 0.31365 0.14899
#
# Static dielectric constant tensor:
#      x y z
#    x 2.065940 0.057610 0.055590 
#    y 0.057610 2.115660 0.023700 
#    z 0.055590 0.023700 2.041740 
# 
# From -- ./inp_files/420146.got.cif
#   From: 2010.05.17/outbox.cif.g08.bks.cpg/sg2_211_cif.got.tgz:420146.got - 2010.06.03 11:33:40.
