data_PCOD9055897
_publ_section_title
;
Structure prediction by ZEFSAII (Michael W. Deem and Ramdas Pophale) SiO2 
 PCOD9055897
Probable space group: P -1
;
_chemical_formula_sum "Si O2"
_cell_formula_units_Z 16
_cell_length_a 10.694074
_cell_length_b 9.331429
_cell_length_c 8.977128
_cell_angle_alpha 103.549923
_cell_angle_beta 116.200250
_cell_angle_gamma 51.622464
_cell_volume 629.114387
_symmetry_space_group_name_H-M "P -1"
_symmetry_group_IT_number 2
_symmetry_cell_setting 'triclinic'
loop_
_space_group_symop_operation_xyz
x,y,z
-x,-y,-z
loop_
_atom_site_type_symbol
_atom_site_label
_atom_site_fract_x
_atom_site_fract_y
_atom_site_fract_z
Si Si1 0.632529 0.630877 0.118834
Si Si2 0.781518 0.825754 0.292303
Si Si3 0.607017 0.883309 0.712412
Si Si4 0.150160 0.748292 0.987471
Si Si5 0.774848 0.259117 0.649076
Si Si6 0.254264 0.987235 0.960932
Si Si7 0.381245 0.416149 0.547386
Si Si8 0.145103 0.119035 0.364480
O O1 0.771427 0.673151 0.174212
O O2 0.682774 0.447198 0.024998
O O3 0.630825 0.618244 0.294390
O O4 0.450856 0.803971 0.003225
O O5 0.890180 0.756200 0.483166
O O6 0.586409 0.981860 0.291157
O O7 0.822047 0.926613 0.219040
O O8 0.638704 0.705624 0.610785
O O9 0.670854 0.957154 0.635129
O O10 0.724250 0.872164 0.905901
O O11 0.171417 0.907692 0.995397
O O12 0.000096 0.780046 0.811827
O O13 0.135010 0.735913 0.152872
O O14 0.574644 0.358643 0.616868
O O15 0.758251 0.375123 0.527760
O O16 0.847321 0.051069 0.610643
#
# Coordination Sequence:
#
# PCOD9055897 Si02
#       8
#     2   2   2   2   2   2   2   2
#     4  11  23  43  63  98 130 167 219 275 324 377
#     4  11  24  42  72  97 125 170 224 272 318 385
#     4  11  21  44  69  97 122 169 222 271 320 370
#     4  12  27  42  64  95 142 176 205 270 332 390
#     4  11  24  41  67 100 127 168 221 272 322 386
#     4  11  25  41  70  99 129 171 217 272 323 385
#     4  11  23  40  73  97 124 167 225 278 316 373
#     4  12  24  45  67  92 135 178 218 262 327 390
#
# _framework density 25.432577999999999
#
# number of rings (size 3 to 8) (size 9 to 14) (size 15 to 20)
#    0.000    0.750    5.000    3.375    5.250    1.000 
#    0.000    0.625    0.000    0.000    0.000    0.000 
#    0.000    0.000    0.000    0.000    0.000    0.000 
#
# Total GULP energy -89573.713202 kJ/mol
# GULP energy per Si atom -5598.357075 kJ/mol
# Density = 2.537469 g / cm^3
# Si number density = 25.432578 Si / 1000 Ang^3
#
#
#
# Elastic Constant Matrix: (Units=GPa)
#
#
# Indices 1 2 3 4 5 6 
#
# 1 89.2742 7.6652 24.1764 0.4636 -6.6888 7.9254
# 2 7.6652 71.3106 9.0394 -5.4903 -6.7227 8.1554
# 3 24.1764 9.0394 116.6319 -7.6393 -1.4423 9.8653
# 4 0.4636 -5.4903 -7.6393 38.7606 3.4391 -5.1596
# 5 -6.6888 -6.7227 -1.4423 3.4391 34.3968 -5.0921
# 6 7.9254 8.1554 9.8653 -5.1596 -5.0921 23.9216
#
#
#
# Elastic Compliance Matrix: (Units=1/GPa)
#
#
# Indices 1 2 3 4 5 6 
#
# 1 0.012276 -0.000627 -0.002320 -0.001227 0.001881 -0.002761
# 2 -0.000627 0.014906 -0.000584 0.001300 0.002057 -0.003915
# 3 -0.002320 -0.000584 0.009422 0.001501 -0.000727 -0.002749
# 4 -0.001227 0.001300 0.001501 0.027101 -0.001924 0.004780
# 5 0.001881 0.002057 -0.000727 -0.001924 0.030758 0.005108
# 6 -0.002761 -0.003915 -0.002749 0.004780 0.005108 0.047305
#
#
# Mechanical properties :
#
#
# Convention : Reuss Voigt Hill
#
# Bulk Modulus (GPa) = 33.84792 39.88653 36.86723
# Shear Modulus (GPa) = 31.51066 35.17153 33.34109
#
# Velocity S-wave (km/s) = 3.52374 3.72281 3.62465
# Velocity P-wave (km/s) = 5.46749 5.84777 5.66083
#
# Compressibility (1/GPa) = 0.02954391
#
# Stress axis : x y z
#
# Youngs Moduli (GPa) = 81.46050 67.08561 106.13582
#
# Poissons Ratio (x) = 0.04205 0.24620
# Poissons Ratio (y) = 0.05106 0.06194
# Poissons Ratio (z) = 0.18896 0.03915
#
# Static dielectric constant tensor:
#      x y z
#    x 2.061280 -0.028340 0.060990 
#    y -0.028340 1.974650 -0.015620 
#    z 0.060990 -0.015620 1.991900 
# 
# From -- ./inp_files/244726.got.cif
#   From: 2010.05.17/outbox.cif.g08.bks.cpg/sg2_123_cif.got.tgz:244726.got - 2010.06.03 11:33:40.
