data_PCOD9055423
_publ_section_title
;
Structure prediction by ZEFSAII (Michael W. Deem and Ramdas Pophale) SiO2 
 PCOD9055423
Probable space group: P -1
;
_chemical_formula_sum "Si O2"
_cell_formula_units_Z 10
_cell_length_a 6.683838
_cell_length_b 12.261609
_cell_length_c 14.524501
_cell_angle_alpha 28.095004
_cell_angle_beta 56.236401
_cell_angle_gamma 52.921945
_cell_volume 446.330701
_symmetry_space_group_name_H-M "P -1"
_symmetry_group_IT_number 2
_symmetry_cell_setting 'triclinic'
loop_
_space_group_symop_operation_xyz
x,y,z
-x,-y,-z
loop_
_atom_site_type_symbol
_atom_site_label
_atom_site_fract_x
_atom_site_fract_y
_atom_site_fract_z
Si Si1 0.313749 0.013318 0.320136
Si Si2 0.730967 0.372118 0.603955
Si Si3 0.043451 0.341272 0.305199
Si Si4 0.293249 0.118447 0.041405
Si Si5 0.252448 0.389064 0.403068
O O1 0.379850 0.095195 0.142420
O O2 0.174077 0.235462 0.255125
O O3 0.126858 0.838693 0.491552
O O4 0.569140 0.860001 0.417249
O O5 0.500000 0.500000 0.500000
O O6 0.658974 0.427646 0.688347
O O7 0.955951 0.473982 0.438671
O O8 0.851963 0.086673 0.772988
O O9 0.247671 0.355567 0.319960
O O10 0.869031 0.613363 0.137036
O O11 0.500000 0.000000 0.000000
#
# Coordination Sequence:
#
# PCOD9055423 Si02
#       5
#     2   2   2   2   2
#     4  11  24  47  66  95 141 175 217 272 333 391
#     4  11  22  41  66  97 134 169 214 275 333 383
#     4  11  25  44  69  98 133 179 219 272 330 393
#     4  12  24  42  70  97 133 174 224 272 332 388
#     4  11  21  41  72  93 131 177 219 270 332 392
#
# _framework density 22.404913000000001
#
# number of rings (size 3 to 8) (size 9 to 14) (size 15 to 20)
#    0.000    0.800    4.000    3.600    2.800    0.800 
#    3.600    1.000    0.000    0.000    0.000    0.000 
#    0.000    0.000    0.000    0.000    0.000    0.000 
#
# Total GULP energy -55740.131025 kJ/mol
# GULP energy per Si atom -5574.013102 kJ/mol
# Density = 2.235392 g / cm^3
# Si number density = 22.404913 Si / 1000 Ang^3
#
#
#
# Elastic Constant Matrix: (Units=GPa)
#
#
# Indices 1 2 3 4 5 6 
#
# 1 114.0146 53.9241 44.7043 -5.3243 26.2047 20.0067
# 2 53.9241 193.0743 75.5975 -7.9485 26.5444 37.5969
# 3 44.7043 75.5975 108.4172 -15.6076 35.1306 30.7350
# 4 -5.3243 -7.9485 -15.6076 41.1432 5.2062 -6.7208
# 5 26.2047 26.5444 35.1306 5.2062 30.2588 0.7276
# 6 20.0067 37.5969 30.7350 -6.7208 0.7276 41.0669
#
#
#
# Elastic Compliance Matrix: (Units=1/GPa)
#
#
# Indices 1 2 3 4 5 6 
#
# 1 0.012581 -0.001306 0.001369 0.002495 -0.011639 -0.005343
# 2 -0.001306 0.007855 -0.003161 -0.000292 -0.001938 -0.004202
# 3 0.001369 -0.003161 0.027128 0.011280 -0.031472 -0.015672
# 4 0.002495 -0.000292 0.011280 0.030753 -0.020195 -0.003999
# 5 -0.011639 -0.001938 -0.031472 -0.020195 0.084212 0.026201
# 6 -0.005343 -0.004202 -0.015672 -0.003999 0.026201 0.041411
#
#
# Mechanical properties :
#
#
# Convention : Reuss Voigt Hill
#
# Bulk Modulus (GPa) = 24.17436 84.88420 54.52928
# Shear Modulus (GPa) = 22.32878 38.57913 30.45395
#
# Velocity S-wave (km/s) = 3.16032 4.15409 3.69080
# Velocity P-wave (km/s) = 4.91224 7.80879 6.52332
#
# Compressibility (1/GPa) = 0.04136613
#
# Stress axis : x y z
#
# Youngs Moduli (GPa) = 79.48327 127.31431 36.86216
#
# Poissons Ratio (x) = 0.16632 -0.05045
# Poissons Ratio (y) = 0.10383 0.11653
# Poissons Ratio (z) = -0.10878 0.40245
#
# Static dielectric constant tensor:
#      x y z
#    x 1.900310 0.059160 -0.090990 
#    y 0.059160 1.877710 0.035910 
#    z -0.090990 0.035910 1.858210 
# 
# From -- ./inp_files/24440.got.cif
#   From: 2010.05.17/outbox.cif.g08.bks.cpg/sg2_13_cif.got.tgz:24440.got - 2010.06.03 11:33:40.
