data_PCOD9055354
_publ_section_title
;
Structure prediction by ZEFSAII (Michael W. Deem and Ramdas Pophale) SiO2 
 PCOD9055354
Probable space group: P -1
;
_chemical_formula_sum "Si O2"
_cell_formula_units_Z 16
_cell_length_a 12.650952
_cell_length_b 15.821865
_cell_length_c 9.066969
_cell_angle_alpha 120.498588
_cell_angle_beta 110.377639
_cell_angle_gamma 28.788068
_cell_volume 732.376118
_symmetry_space_group_name_H-M "P -1"
_symmetry_group_IT_number 2
_symmetry_cell_setting 'triclinic'
loop_
_space_group_symop_operation_xyz
x,y,z
-x,-y,-z
loop_
_atom_site_type_symbol
_atom_site_label
_atom_site_fract_x
_atom_site_fract_y
_atom_site_fract_z
Si Si1 0.179481 0.791292 0.960829
Si Si2 0.759415 0.780095 0.975658
Si Si3 0.199965 0.800213 0.330328
Si Si4 0.648787 0.521295 0.889210
Si Si5 0.315876 0.054190 0.432388
Si Si6 0.977453 0.729081 0.791025
Si Si7 0.045648 0.572457 0.224689
Si Si8 0.567004 0.667953 0.309362
O O1 0.190930 0.802042 0.150026
O O2 0.407553 0.651030 0.866630
O O3 0.094047 0.746731 0.852411
O O4 0.000000 0.000000 0.000000
O O5 0.895485 0.763270 0.944603
O O6 0.861254 0.598513 0.810954
O O7 0.845774 0.709776 0.125169
O O8 0.500000 0.000000 0.000000
O O9 0.195667 0.688013 0.262937
O O10 0.422776 0.700701 0.367291
O O11 0.000000 0.000000 0.500000
O O12 0.739362 0.541976 0.854518
O O13 0.625761 0.574961 0.095247
O O14 0.242649 0.104484 0.270903
O O15 0.079368 0.261803 0.576855
O O16 0.500000 0.000000 0.500000
O O17 0.420386 0.874640 0.385945
O O18 0.185439 0.499210 0.650809
#
# Coordination Sequence:
#
# PCOD9055354 Si02
#       8
#     2   2   2   2   2   2   2   2
#     4  11  23  41  69 101 134 182 224 272 343 419
#     4  11  25  41  73  95 132 182 232 278 344 405
#     4  11  21  41  69 103 137 175 221 277 340 402
#     4  11  21  44  71  98 139 178 222 271 346 416
#     4  12  28  44  69 101 139 180 233 296 347 387
#     4  12  23  45  69 100 134 183 235 275 341 423
#     4  11  25  46  63 103 138 173 227 291 337 401
#     4  11  22  43  71  96 139 185 221 278 346 409
#
# _framework density 21.846696999999999
#
# number of rings (size 3 to 8) (size 9 to 14) (size 15 to 20)
#    0.000    0.750    3.750    4.500    5.250    3.000 
#    2.250    1.250    0.000    0.000    0.000    0.000 
#    0.000    0.000    0.000    0.000    0.000    0.000 
#
# Total GULP energy -89225.075945 kJ/mol
# GULP energy per Si atom -5576.567247 kJ/mol
# Density = 2.179697 g / cm^3
# Si number density = 21.846697 Si / 1000 Ang^3
#
#
#
# Elastic Constant Matrix: (Units=GPa)
#
#
# Indices 1 2 3 4 5 6 
#
# 1 112.3684 36.8914 11.2116 14.9635 -0.0913 -11.0966
# 2 36.8914 122.7441 10.1570 12.7966 13.6104 6.2662
# 3 11.2116 10.1570 49.3571 27.6888 5.1661 -2.7463
# 4 14.9635 12.7966 27.6888 35.1835 0.4040 4.2791
# 5 -0.0913 13.6104 5.1661 0.4040 27.3299 12.0692
# 6 -11.0966 6.2662 -2.7463 4.2791 12.0692 41.9878
#
#
#
# Elastic Compliance Matrix: (Units=1/GPa)
#
#
# Indices 1 2 3 4 5 6 
#
# 1 0.010815 -0.002996 0.001185 -0.004924 -0.000388 0.003996
# 2 -0.002996 0.009827 0.000606 -0.002651 -0.004718 -0.000593
# 3 0.001185 0.000606 0.040506 -0.033644 -0.011729 0.009672
# 4 -0.004924 -0.002651 -0.033644 0.059363 0.012404 -0.012721
# 5 -0.000388 -0.004718 -0.011729 0.012404 0.047652 -0.015127
# 6 0.003996 -0.000593 0.009672 -0.012721 -0.015127 0.031238
#
#
# Mechanical properties :
#
#
# Convention : Reuss Voigt Hill
#
# Bulk Modulus (GPa) = 17.02459 44.55441 30.78950
# Shear Modulus (GPa) = 22.58458 35.98087 29.28272
#
# Velocity S-wave (km/s) = 3.21873 4.06269 3.66508
# Velocity P-wave (km/s) = 4.65008 6.51503 5.65990
#
# Compressibility (1/GPa) = 0.05873856
#
# Stress axis : x y z
#
# Youngs Moduli (GPa) = 92.46654 101.75935 24.68757
#
# Poissons Ratio (x) = 0.30489 -0.02926
# Poissons Ratio (y) = 0.27704 -0.01496
# Poissons Ratio (z) = -0.10960 -0.06168
#
# Static dielectric constant tensor:
#      x y z
#    x 1.797200 -0.001000 0.041190 
#    y -0.001000 1.862240 -0.031230 
#    z 0.041190 -0.031230 1.796400 
# 
# From -- ./inp_files/273758.got.cif
#   From: 2010.05.17/outbox.cif.g08.bks.cpg/sg2_137_cif.got.tgz:273758.got - 2010.06.03 11:33:40.
