data_PCOD9055865
_publ_section_title
;
Structure prediction by ZEFSAII (Michael W. Deem and Ramdas Pophale) SiO2 
 PCOD9055865
Probable space group: P -1
;
_chemical_formula_sum "Si O2"
_cell_formula_units_Z 16
_cell_length_a 16.121864
_cell_length_b 6.800472
_cell_length_c 10.578270
_cell_angle_alpha 50.519505
_cell_angle_beta 72.245282
_cell_angle_gamma 67.176611
_cell_volume 822.289492
_symmetry_space_group_name_H-M "P -1"
_symmetry_group_IT_number 2
_symmetry_cell_setting 'triclinic'
loop_
_space_group_symop_operation_xyz
x,y,z
-x,-y,-z
loop_
_atom_site_type_symbol
_atom_site_label
_atom_site_fract_x
_atom_site_fract_y
_atom_site_fract_z
Si Si1 0.684763 0.490650 0.640897
Si Si2 0.646306 0.084329 0.354710
Si Si3 0.579618 0.236270 0.599921
Si Si4 0.181506 0.895904 0.875636
Si Si5 0.148587 0.912503 0.170622
Si Si6 0.529403 0.711594 0.813366
Si Si7 0.014069 0.332254 0.689614
Si Si8 0.927919 0.547044 0.900201
O O1 0.674315 0.766872 0.461924
O O2 0.641516 0.303322 0.652818
O O3 0.785657 0.344063 0.692715
O O4 0.623309 0.567799 0.762259
O O5 0.636567 0.160186 0.475399
O O6 0.722330 0.180798 0.205775
O O7 0.547931 0.197288 0.293968
O O8 0.500000 0.500000 0.500000
O O9 0.541334 0.985080 0.754354
O O10 0.131533 0.662846 0.983366
O O11 0.187874 0.955115 0.997499
O O12 0.114983 0.153723 0.737361
O O13 0.051363 0.862542 0.210051
O O14 0.135502 0.161794 0.165830
O O15 0.500000 0.500000 0.000000
O O16 0.000000 0.500000 0.500000
O O17 0.980087 0.507779 0.758325
O O18 0.000000 0.500000 0.000000
#
# Coordination Sequence:
#
# PCOD9055865 Si02
#       8
#     2   2   2   2   2   2   2   2
#     4  11  23  41  65  93 127 168 215 269 321 386
#     4  11  23  41  65  93 130 168 215 267 326 388
#     4  11  21  44  66  89 130 174 212 267 329 381
#     4  11  23  41  65  93 130 168 215 267 326 388
#     4  11  23  41  65  93 127 168 215 269 321 386
#     4  11  23  41  66  92 129 170 213 265 327 394
#     4  11  23  41  66  92 129 170 213 265 327 394
#     4  11  21  44  66  89 130 174 212 267 329 381
#
# _framework density 19.457867
#
# number of rings (size 3 to 8) (size 9 to 14) (size 15 to 20)
#    0.000    1.000    5.000    3.000    0.000    8.000 
#    4.500    0.000    0.000    0.000    0.000    0.000 
#    0.000    0.000    0.000    0.000    0.000    0.000 
#
# Total GULP energy -89404.644490 kJ/mol
# GULP energy per Si atom -5587.790281 kJ/mol
# Density = 1.941358 g / cm^3
# Si number density = 19.457867 Si / 1000 Ang^3
#
#
#
# Elastic Constant Matrix: (Units=GPa)
#
#
# Indices 1 2 3 4 5 6 
#
# 1 38.7287 15.4434 -13.5887 2.5434 -3.6298 -0.6751
# 2 15.4434 112.3302 21.9498 -1.2985 -1.4087 7.7649
# 3 -13.5887 21.9498 69.0837 -0.0391 -7.3501 8.8346
# 4 2.5434 -1.2985 -0.0391 24.3770 -6.3709 5.4109
# 5 -3.6298 -1.4087 -7.3501 -6.3709 34.9872 -1.6523
# 6 -0.6751 7.7649 8.8346 5.4109 -1.6523 34.8701
#
#
#
# Elastic Compliance Matrix: (Units=1/GPa)
#
#
# Indices 1 2 3 4 5 6 
#
# 1 0.031848 -0.006062 0.008609 -0.002564 0.004420 0.000393
# 2 -0.006062 0.010729 -0.004499 0.001299 -0.000982 -0.001615
# 3 0.008609 -0.004499 0.018528 0.000857 0.004598 -0.003441
# 4 -0.002564 0.001299 0.000857 0.044995 0.007821 -0.007168
# 5 0.004420 -0.000982 0.004598 0.007821 0.031363 -0.000588
# 6 0.000393 -0.001615 -0.003441 -0.007168 -0.000588 0.031001
#
#
# Mechanical properties :
#
#
# Convention : Reuss Voigt Hill
#
# Bulk Modulus (GPa) = 17.48191 29.75016 23.61603
# Shear Modulus (GPa) = 26.11852 31.93608 29.02730
#
# Velocity S-wave (km/s) = 3.66773 4.05568 3.86658
# Velocity P-wave (km/s) = 5.19041 6.10362 5.66544
#
# Compressibility (1/GPa) = 0.05720200
#
# Stress axis : x y z
#
# Youngs Moduli (GPa) = 31.39894 93.20413 53.97342
#
# Poissons Ratio (x) = 0.56502 -0.46467
# Poissons Ratio (y) = 0.19035 0.24280
# Poissons Ratio (z) = -0.27032 0.41929
#
# Static dielectric constant tensor:
#      x y z
#    x 1.661140 0.000670 0.000070 
#    y 0.000670 1.677930 -0.019250 
#    z 0.000070 -0.019250 1.690600 
# 
# From -- ./inp_files/53640.got.cif
#   From: 2010.05.17/outbox.cif.g08.bks.cpg/sg2_27_cif.got.tgz:53640.got - 2010.06.03 11:33:40.
