data_PCOD9055716
_publ_section_title
;
Structure prediction by ZEFSAII (Michael W. Deem and Ramdas Pophale) SiO2 
 PCOD9055716
Probable space group: P -1
;
_chemical_formula_sum "Si O2"
_cell_formula_units_Z 13
_cell_length_a 14.704526
_cell_length_b 5.144459
_cell_length_c 17.103678
_cell_angle_alpha 134.145729
_cell_angle_beta 147.783541
_cell_angle_gamma 52.151637
_cell_volume 493.958010
_symmetry_space_group_name_H-M "P -1"
_symmetry_group_IT_number 2
_symmetry_cell_setting 'triclinic'
loop_
_space_group_symop_operation_xyz
x,y,z
-x,-y,-z
loop_
_atom_site_type_symbol
_atom_site_label
_atom_site_fract_x
_atom_site_fract_y
_atom_site_fract_z
Si Si1 0.101751 0.776236 0.186474
Si Si2 0.983269 0.608439 0.238019
Si Si3 0.651308 0.543184 0.181279
Si Si4 0.000000 0.500000 0.500000
Si Si5 0.775956 0.314744 0.442501
Si Si6 0.640555 0.309993 0.899545
Si Si7 0.410983 0.509733 0.271858
O O1 0.042313 0.718213 0.218878
O O2 0.304401 0.684595 0.302574
O O3 0.056877 0.189911 0.216691
O O4 0.000000 0.500000 0.000000
O O5 0.072357 0.831293 0.417461
O O6 0.783075 0.557410 0.087684
O O7 0.545026 0.516719 0.178838
O O8 0.837957 0.357470 0.293085
O O9 0.700876 0.947690 0.284510
O O10 0.500000 0.500000 0.000000
O O11 0.128798 0.495275 0.516890
O O12 0.616340 0.510260 0.414791
O O13 0.660942 0.295962 0.818363
O O14 0.641252 0.909009 0.852518
#
# Coordination Sequence:
#
# PCOD9055716 Si02
#       7
#     2   2   2   1   2   2   2
#     4  12  23  42  73 108 143 198 247 298 366 448
#     4  12  25  42  75 107 149 191 248 305 365 445
#     4  11  26  49  74 106 145 196 252 309 379 456
#     4  12  24  50  78 104 148 190 252 314 382 450
#     4  11  28  47  69 108 146 189 245 314 376 444
#     4  11  21  43  68 104 142 190 235 303 359 432
#     4  11  23  43  70  99 148 184 243 293 360 437
#
# _framework density 26.318028000000002
#
# number of rings (size 3 to 8) (size 9 to 14) (size 15 to 20)
#    0.000    0.615    4.615    2.769    2.154    1.846 
#    8.308    0.000    0.000    0.000    0.000    0.000 
#    0.000    0.000    0.000    0.000    0.000    0.000 
#
# Total GULP energy -72597.803733 kJ/mol
# GULP energy per Si atom -5584.446441 kJ/mol
# Density = 2.625813 g / cm^3
# Si number density = 26.318028 Si / 1000 Ang^3
#
#
#
# Elastic Constant Matrix: (Units=GPa)
#
#
# Indices 1 2 3 4 5 6 
#
# 1 187.6330 34.7458 73.8824 -6.8192 49.7766 13.7398
# 2 34.7458 66.9134 33.3497 -2.7005 17.6999 19.4383
# 3 73.8824 33.3497 204.6366 -8.3293 32.9924 -7.5205
# 4 -6.8192 -2.7005 -8.3293 44.9166 -7.9150 15.7366
# 5 49.7766 17.6999 32.9924 -7.9150 59.3865 -20.4737
# 6 13.7398 19.4383 -7.5205 15.7366 -20.4737 44.0740
#
#
#
# Elastic Compliance Matrix: (Units=1/GPa)
#
#
# Indices 1 2 3 4 5 6 
#
# 1 0.009442 0.002002 -0.002329 0.002815 -0.010292 -0.010010
# 2 0.002002 0.025594 -0.003158 0.006207 -0.014028 -0.021183
# 3 -0.002329 -0.003158 0.006256 -0.000562 0.000608 0.003669
# 4 0.002815 0.006207 -0.000562 0.027639 -0.005829 -0.016287
# 5 -0.010292 -0.014028 0.000608 -0.005829 0.038726 0.029570
# 6 -0.010010 -0.021183 0.003669 -0.016287 0.029570 0.055330
#
#
# Mechanical properties :
#
#
# Convention : Reuss Voigt Hill
#
# Bulk Modulus (GPa) = 29.13603 82.57097 55.85350
# Shear Modulus (GPa) = 27.56378 50.82243 39.19310
#
# Velocity S-wave (km/s) = 3.23977 4.39918 3.86322
# Velocity P-wave (km/s) = 5.00895 7.56612 6.41622
#
# Compressibility (1/GPa) = 0.03432177
#
# Stress axis : x y z
#
# Youngs Moduli (GPa) = 105.91362 39.07183 159.84010
#
# Poissons Ratio (x) = -0.07823 0.37227
# Poissons Ratio (y) = -0.21206 0.50481
# Poissons Ratio (z) = 0.24668 0.12340
#
# Static dielectric constant tensor:
#      x y z
#    x 2.008740 -0.098630 -0.097900 
#    y -0.098630 2.299400 -0.037940 
#    z -0.097900 -0.037940 2.102560 
# 
# From -- ./inp_files/31096.got.cif
#   From: 2010.05.17/outbox.cif.g08.bks.cpg/sg2_16_cif.got.tgz:31096.got - 2010.06.03 11:33:40.
