data_PCOD9055785
_publ_section_title
;
Structure prediction by ZEFSAII (Michael W. Deem and Ramdas Pophale) SiO2 
 PCOD9055785
Probable space group: P -1
;
_chemical_formula_sum "Si O2"
_cell_formula_units_Z 16
_cell_length_a 21.057661
_cell_length_b 6.118789
_cell_length_c 8.457379
_cell_angle_alpha 119.033457
_cell_angle_beta 134.531594
_cell_angle_gamma 50.901955
_cell_volume 601.034207
_symmetry_space_group_name_H-M "P -1"
_symmetry_group_IT_number 2
_symmetry_cell_setting 'triclinic'
loop_
_space_group_symop_operation_xyz
x,y,z
-x,-y,-z
loop_
_atom_site_type_symbol
_atom_site_label
_atom_site_fract_x
_atom_site_fract_y
_atom_site_fract_z
Si Si1 0.211002 0.856469 0.875958
Si Si2 0.586350 0.282548 0.192348
Si Si3 0.158003 0.459012 0.496467
Si Si4 0.476049 0.810807 0.620225
Si Si5 0.710500 0.614841 0.605625
Si Si6 0.335809 0.096819 0.081289
Si Si7 0.072314 0.185348 0.449406
Si Si8 0.027907 0.191397 0.868086
O O1 0.149224 0.025067 0.670648
O O2 0.144229 0.024655 0.966513
O O3 0.213626 0.557137 0.756794
O O4 0.317773 0.849093 0.045455
O O5 0.534416 0.201996 0.214715
O O6 0.654047 0.424218 0.422474
O O7 0.500000 0.500000 0.000000
O O8 0.657847 0.003206 0.122493
O O9 0.205711 0.457758 0.408763
O O10 0.140724 0.201039 0.430698
O O11 0.043282 0.708951 0.376297
O O12 0.500000 0.500000 0.500000
O O13 0.562184 0.878211 0.726395
O O14 0.372738 0.069345 0.473940
O O15 0.739207 0.638294 0.846736
O O16 0.000000 0.500000 0.500000
O O17 0.008755 0.033818 0.216457
O O18 0.000000 0.500000 0.000000
#
# Coordination Sequence:
#
# PCOD9055785 Si02
#       8
#     2   2   2   2   2   2   2   2
#     4  11  23  42  69  98 136 183 234 286 355 420
#     4  12  25  45  74  97 136 185 230 286 358 414
#     4  11  23  43  69  97 134 182 234 285 352 422
#     4  12  26  47  72 104 142 182 237 290 351 425
#     4  12  26  46  71 100 141 184 232 295 352 416
#     4  12  25  46  69 100 140 183 233 292 352 413
#     4  11  21  43  71  94 135 187 234 287 352 420
#     4  11  23  42  66  97 141 180 229 291 352 417
#
# _framework density 26.620781999999998
#
# number of rings (size 3 to 8) (size 9 to 14) (size 15 to 20)
#    0.000    0.500    6.250    3.000    1.750    0.500 
#    4.500    0.000    0.000    0.000    0.000    0.000 
#    0.000    0.000    0.000    0.000    0.000    0.000 
#
# Total GULP energy -89402.606077 kJ/mol
# GULP energy per Si atom -5587.662880 kJ/mol
# Density = 2.656019 g / cm^3
# Si number density = 26.620782 Si / 1000 Ang^3
#
#
#
# Elastic Constant Matrix: (Units=GPa)
#
#
# Indices 1 2 3 4 5 6 
#
# 1 216.2269 38.9568 55.1468 29.8367 2.5416 3.8541
# 2 38.9568 126.6772 45.4846 18.2561 2.0554 -12.0969
# 3 55.1468 45.4846 106.9934 50.7668 -4.5711 6.6385
# 4 29.8367 18.2561 50.7668 54.1929 -1.1056 -3.0632
# 5 2.5416 2.0554 -4.5711 -1.1056 57.9478 15.9386
# 6 3.8541 -12.0969 6.6385 -3.0632 15.9386 39.7253
#
#
#
# Elastic Compliance Matrix: (Units=1/GPa)
#
#
# Indices 1 2 3 4 5 6 
#
# 1 0.005420 -0.000855 -0.002023 -0.000829 -0.000272 -0.000403
# 2 -0.000855 0.010314 -0.005491 0.002389 -0.002142 0.005185
# 3 -0.002023 -0.005491 0.021896 -0.017926 0.003891 -0.008078
# 4 -0.000829 0.002389 -0.017926 0.035272 -0.002904 0.007689
# 5 -0.000272 -0.002142 0.003891 -0.002904 0.020243 -0.009622
# 6 -0.000403 0.005185 -0.008078 0.007689 -0.009622 0.032594
#
#
# Mechanical properties :
#
#
# Convention : Reuss Voigt Hill
#
# Bulk Modulus (GPa) = 47.86598 81.00821 64.43709
# Shear Modulus (GPa) = 33.45799 51.06047 42.25923
#
# Velocity S-wave (km/s) = 3.54904 4.38433 3.98861
# Velocity P-wave (km/s) = 5.90033 7.49175 6.74315
#
# Compressibility (1/GPa) = 0.02089167
#
# Stress axis : x y z
#
# Youngs Moduli (GPa) = 184.51715 96.95462 45.66944
#
# Poissons Ratio (x) = 0.08287 0.09241
# Poissons Ratio (y) = 0.15772 0.25077
# Poissons Ratio (z) = 0.37336 0.53238
#
# Static dielectric constant tensor:
#      x y z
#    x 2.107720 0.043610 -0.044630 
#    y 0.043610 2.120610 -0.001900 
#    z -0.044630 -0.001900 2.217460 
# 
# From -- ./inp_files/340698.got.cif
#   From: 2010.05.17/outbox.cif.g08.bks.cpg/sg2_171_cif.got.tgz:340698.got - 2010.06.03 11:33:40.
