data_PCOD9055803
_publ_section_title
;
Structure prediction by ZEFSAII (Michael W. Deem and Ramdas Pophale) SiO2 
 PCOD9055803
Probable space group: P -1
;
_chemical_formula_sum "Si O2"
_cell_formula_units_Z 14
_cell_length_a 9.373089
_cell_length_b 12.596295
_cell_length_c 12.495077
_cell_angle_alpha 142.003108
_cell_angle_beta 49.049504
_cell_angle_gamma 119.461946
_cell_volume 684.969466
_symmetry_space_group_name_H-M "P -1"
_symmetry_group_IT_number 2
_symmetry_cell_setting 'triclinic'
loop_
_space_group_symop_operation_xyz
x,y,z
-x,-y,-z
loop_
_atom_site_type_symbol
_atom_site_label
_atom_site_fract_x
_atom_site_fract_y
_atom_site_fract_z
Si Si1 0.350272 0.124842 0.614295
Si Si2 0.840596 0.655494 0.731502
Si Si3 0.722547 0.972563 0.888414
Si Si4 0.961820 0.433796 0.847940
Si Si5 0.541748 0.486359 0.094371
Si Si6 0.018043 0.218749 0.013901
Si Si7 0.815857 0.911127 0.554072
O O1 0.413562 0.321387 0.736912
O O2 0.164550 0.124950 0.782263
O O3 0.325933 0.065649 0.457020
O O4 0.500000 0.000000 0.500000
O O5 0.791827 0.792475 0.768978
O O6 0.640253 0.580679 0.808521
O O7 0.000000 0.500000 0.500000
O O8 0.913226 0.764705 0.884589
O O9 0.781368 0.978571 0.741701
O O10 0.822798 0.124436 0.023281
O O11 0.500000 0.000000 0.000000
O O12 0.121085 0.289378 0.628890
O O13 0.744104 0.378233 0.914789
O O14 0.984054 0.586371 0.874174
O O15 0.000000 0.500000 0.000000
O O16 0.500000 0.500000 0.000000
O O17 0.000000 0.000000 0.500000
#
# Coordination Sequence:
#
# PCOD9055803 Si02
#       7
#     2   2   2   2   2   2   2
#     4  11  25  40  74 105 135 174 241 289 333 406
#     4  12  28  48  72 102 147 189 227 286 355 429
#     4  12  30  46  70 107 145 187 227 290 358 416
#     4  11  21  43  72 103 134 172 239 293 338 390
#     4  11  24  43  74 101 131 183 237 282 339 409
#     4  11  24  49  69 100 140 188 225 293 344 415
#     4  12  25  44  73 101 138 183 235 286 342 414
#
# _framework density 20.438865
#
# number of rings (size 3 to 8) (size 9 to 14) (size 15 to 20)
#    0.000    0.571    7.143    1.286   10.000    1.143 
#    0.000    2.143    0.000    0.000    0.000    0.000 
#    0.000    0.000    0.000    0.000    0.000    0.000 
#
# Total GULP energy -78128.570069 kJ/mol
# GULP energy per Si atom -5580.612148 kJ/mol
# Density = 2.039235 g / cm^3
# Si number density = 20.438865 Si / 1000 Ang^3
#
#
#
# Elastic Constant Matrix: (Units=GPa)
#
#
# Indices 1 2 3 4 5 6 
#
# 1 164.8818 50.5778 27.7745 -8.2404 9.1466 -3.8288
# 2 50.5778 96.8368 17.9301 -18.3020 -3.8544 2.6431
# 3 27.7745 17.9301 26.5468 -8.5949 0.7092 -1.6055
# 4 -8.2404 -18.3020 -8.5949 30.5688 -5.4227 0.1470
# 5 9.1466 -3.8544 0.7092 -5.4227 48.3711 1.2384
# 6 -3.8288 2.6431 -1.6055 0.1470 1.2384 47.6303
#
#
#
# Elastic Compliance Matrix: (Units=1/GPa)
#
#
# Indices 1 2 3 4 5 6 
#
# 1 0.008355 -0.003599 -0.006931 -0.002215 -0.002031 0.000697
# 2 -0.003599 0.014391 -0.003821 0.007059 0.002708 -0.001309
# 3 -0.006931 -0.003821 0.050910 0.010399 0.001392 0.001303
# 4 -0.002215 0.007059 0.010399 0.040217 0.005350 -0.000482
# 5 -0.002031 0.002708 0.001392 0.005350 0.021874 -0.000852
# 6 0.000697 -0.001309 0.001303 -0.000482 -0.000852 0.021191
#
#
# Mechanical properties :
#
#
# Convention : Reuss Voigt Hill
#
# Bulk Modulus (GPa) = 22.24489 53.42558 37.83524
# Shear Modulus (GPa) = 24.92208 38.11290 31.51749
#
# Velocity S-wave (km/s) = 3.49570 4.32293 3.93114
# Velocity P-wave (km/s) = 5.21541 7.14933 6.25753
#
# Compressibility (1/GPa) = 0.04495414
#
# Stress axis : x y z
#
# Youngs Moduli (GPa) = 119.69496 69.48610 19.64251
#
# Poissons Ratio (x) = 0.25006 0.13614
# Poissons Ratio (y) = 0.43075 0.07506
# Poissons Ratio (z) = 0.82960 0.26552
#
# Static dielectric constant tensor:
#      x y z
#    x 1.799780 0.002000 0.060510 
#    y 0.002000 1.737130 -0.069060 
#    z 0.060510 -0.069060 1.735540 
# 
# From -- ./inp_files/154183.got.cif
#   From: 2010.05.17/outbox.cif.g08.bks.cpg/sg2_78_cif.got.tgz:154183.got - 2010.06.03 11:33:40.
