data_PCOD9055201
_publ_section_title
;
Structure prediction by ZEFSAII (Michael W. Deem and Ramdas Pophale) SiO2 
 PCOD9055201
Probable space group: P -1
;
_chemical_formula_sum "Si O2"
_cell_formula_units_Z 14
_cell_length_a 8.979523
_cell_length_b 8.248211
_cell_length_c 12.398753
_cell_angle_alpha 38.118962
_cell_angle_beta 73.932357
_cell_angle_gamma 76.606937
_cell_volume 544.577847
_symmetry_space_group_name_H-M "P -1"
_symmetry_group_IT_number 2
_symmetry_cell_setting 'triclinic'
loop_
_space_group_symop_operation_xyz
x,y,z
-x,-y,-z
loop_
_atom_site_type_symbol
_atom_site_label
_atom_site_fract_x
_atom_site_fract_y
_atom_site_fract_z
Si Si1 0.401840 0.762988 0.872935
Si Si2 0.327069 0.948047 0.025128
Si Si3 0.953542 0.753139 0.065186
Si Si4 0.270928 0.501007 0.431325
Si Si5 0.113725 0.937205 0.722009
Si Si6 0.563610 0.162810 0.503573
Si Si7 0.892102 0.249833 0.455236
O O1 0.271748 0.764631 0.804832
O O2 0.525500 0.983968 0.707571
O O3 0.500000 0.500000 0.000000
O O4 0.323707 0.838649 0.961867
O O5 0.247294 0.733970 0.228960
O O6 0.500000 0.000000 0.000000
O O7 0.232371 0.219794 0.911026
O O8 0.990642 0.475100 0.259009
O O9 0.011264 0.810889 0.903845
O O10 0.000000 0.000000 0.000000
O O11 0.451750 0.414692 0.419102
O O12 0.204749 0.611802 0.498824
O O13 0.178277 0.231994 0.575194
O O14 0.993861 0.010106 0.610873
O O15 0.747295 0.173137 0.450271
O O16 0.500000 0.000000 0.500000
#
# Coordination Sequence:
#
# PCOD9055201 Si02
#       7
#     2   2   2   2   2   2   2
#     4  11  25  46  69  95 139 187 234 288 346 420
#     4  12  23  38  69 106 136 181 235 283 343 417
#     4  12  21  40  69 111 145 174 226 295 358 408
#     4  11  21  40  71 102 142 181 228 292 353 410
#     4  11  24  42  69 109 139 178 233 294 359 415
#     4  11  25  47  67  97 143 193 239 281 347 423
#     4  12  23  42  74 105 141 180 232 299 350 410
#
# _framework density 25.707986999999999
#
# number of rings (size 3 to 8) (size 9 to 14) (size 15 to 20)
#    0.000    0.571    4.286    5.143    0.000    0.000 
#    0.000    3.571    0.000    0.000    0.000    0.000 
#    0.000    0.000    0.000    0.000    0.000    0.000 
#
# Total GULP energy -78320.899341 kJ/mol
# GULP energy per Si atom -5594.349953 kJ/mol
# Density = 2.564947 g / cm^3
# Si number density = 25.707987 Si / 1000 Ang^3
#
#
#
# Elastic Constant Matrix: (Units=GPa)
#
#
# Indices 1 2 3 4 5 6 
#
# 1 167.1457 45.9997 38.4544 -0.6856 23.7428 -3.1414
# 2 45.9997 70.3801 40.8130 -11.9080 18.9845 -6.4615
# 3 38.4544 40.8130 202.6148 11.6283 17.1718 0.3995
# 4 -0.6856 -11.9080 11.6283 39.3650 -7.5053 11.0199
# 5 23.7428 18.9845 17.1718 -7.5053 50.9528 0.5714
# 6 -3.1414 -6.4615 0.3995 11.0199 0.5714 45.4234
#
#
#
# Elastic Compliance Matrix: (Units=1/GPa)
#
#
# Indices 1 2 3 4 5 6 
#
# 1 0.007565 -0.004494 -0.000269 -0.001615 -0.002001 0.000303
# 2 -0.004494 0.021385 -0.003502 0.006351 -0.003772 0.001269
# 3 -0.000269 -0.003502 0.005955 -0.003073 -0.001032 0.000189
# 4 -0.001615 0.006351 -0.003073 0.030855 0.004042 -0.006718
# 5 -0.002001 -0.003772 -0.001032 0.004042 0.022929 -0.001935
# 6 0.000303 0.001269 0.000189 -0.006718 -0.001935 0.023869
#
#
# Mechanical properties :
#
#
# Convention : Reuss Voigt Hill
#
# Bulk Modulus (GPa) = 54.41954 76.74163 65.58058
# Shear Modulus (GPa) = 36.97870 48.13981 42.55926
#
# Velocity S-wave (km/s) = 3.79676 4.33201 4.07318
# Velocity P-wave (km/s) = 6.35883 7.41200 6.90553
#
# Compressibility (1/GPa) = 0.01837575
#
# Stress axis : x y z
#
# Youngs Moduli (GPa) = 132.19202 46.76151 167.91678
#
# Poissons Ratio (x) = 0.21014 0.04514
# Poissons Ratio (y) = 0.59406 0.58804
# Poissons Ratio (z) = 0.03554 0.16376
#
# Static dielectric constant tensor:
#      x y z
#    x 2.066390 0.099730 -0.001600 
#    y 0.099730 1.958870 0.071470 
#    z -0.001600 0.071470 1.980260 
# 
# From -- ./inp_files/380851.got.cif
#   From: 2010.05.17/outbox.cif.g08.bks.cpg/sg2_191_cif.got.tgz:380851.got - 2010.06.03 11:33:40.
