data_PCOD9055089
_publ_section_title
;
Structure prediction by ZEFSAII (Michael W. Deem and Ramdas Pophale) SiO2 
 PCOD9055089
Probable space group: P -1
;
_chemical_formula_sum "Si O2"
_cell_formula_units_Z 16
_cell_length_a 9.540754
_cell_length_b 14.474307
_cell_length_c 8.226356
_cell_angle_alpha 70.901794
_cell_angle_beta 110.508523
_cell_angle_gamma 132.137856
_cell_volume 782.035394
_symmetry_space_group_name_H-M "P -1"
_symmetry_group_IT_number 2
_symmetry_cell_setting 'triclinic'
loop_
_space_group_symop_operation_xyz
x,y,z
-x,-y,-z
loop_
_atom_site_type_symbol
_atom_site_label
_atom_site_fract_x
_atom_site_fract_y
_atom_site_fract_z
Si Si1 0.278523 0.106392 0.714746
Si Si2 0.718185 0.507949 0.430586
Si Si3 0.708242 0.104401 0.589452
Si Si4 0.013036 0.870268 0.526847
Si Si5 0.719344 0.300528 0.697912
Si Si6 0.724710 0.626119 0.708477
Si Si7 0.107277 0.942316 0.043019
Si Si8 0.917998 0.653570 0.090180
O O1 0.502695 0.223334 0.724523
O O2 0.140178 0.144298 0.650707
O O3 0.178528 0.012891 0.571943
O O4 0.240138 0.017655 0.897907
O O5 0.768726 0.418447 0.552808
O O6 0.743279 0.578460 0.569426
O O7 0.491865 0.423832 0.343574
O O8 0.829635 0.587972 0.267677
O O9 0.869910 0.170075 0.479717
O O10 0.707847 0.203983 0.628921
O O11 0.763513 0.036316 0.765428
O O12 0.500000 0.000000 0.500000
O O13 0.878281 0.777347 0.669855
O O14 0.892120 0.336076 0.864936
O O15 0.779267 0.588749 0.914379
O O16 0.978057 0.792573 0.050124
O O17 0.000000 0.000000 0.000000
#
# Coordination Sequence:
#
# PCOD9055089 Si02
#       8
#     2   2   2   2   2   2   2   2
#     4  11  22  39  69  95 132 172 217 268 336 406
#     4  11  25  45  69  95 135 182 231 275 329 401
#     4  11  23  39  63  99 135 172 214 270 342 398
#     4  11  21  40  66  95 130 173 216 270 333 404
#     4  11  24  43  68  99 138 173 220 278 341 399
#     4  11  23  43  70  97 129 179 233 274 331 396
#     4  11  23  39  64  97 135 171 217 273 334 399
#     4  11  25  43  66 100 138 175 225 281 336 396
#
# _framework density 20.459433000000001
#
# number of rings (size 3 to 8) (size 9 to 14) (size 15 to 20)
#    0.000    1.000    5.000    2.250    0.000    4.500 
#    0.000    1.250    0.000    0.000    0.000    0.000 
#    0.000    0.000    0.000    0.000    0.000    0.000 
#
# Total GULP energy -89275.510707 kJ/mol
# GULP energy per Si atom -5579.719419 kJ/mol
# Density = 2.041287 g / cm^3
# Si number density = 20.459433 Si / 1000 Ang^3
#
#
#
# Elastic Constant Matrix: (Units=GPa)
#
#
# Indices 1 2 3 4 5 6 
#
# 1 92.8466 28.3867 35.5098 -1.0819 21.8078 18.4560
# 2 28.3867 51.0518 44.4199 -15.8211 13.0295 13.0716
# 3 35.5098 44.4199 114.3524 -4.4082 14.3860 5.6098
# 4 -1.0819 -15.8211 -4.4082 43.2263 9.4114 4.9647
# 5 21.8078 13.0295 14.3860 9.4114 35.2323 -8.2736
# 6 18.4560 13.0716 5.6098 4.9647 -8.2736 27.0765
#
#
#
# Elastic Compliance Matrix: (Units=1/GPa)
#
#
# Indices 1 2 3 4 5 6 
#
# 1 0.021296 0.010508 -0.005729 0.012406 -0.024668 -0.028214
# 2 0.010508 0.075832 -0.021237 0.044653 -0.052759 -0.063681
# 3 -0.005729 -0.021237 0.016120 -0.010642 0.011483 0.016278
# 4 0.012406 0.044653 -0.010642 0.054872 -0.046753 -0.052156
# 5 -0.024668 -0.052759 0.011483 -0.046753 0.088713 0.075586
# 6 -0.028214 -0.063681 0.016278 -0.052156 0.075586 0.116194
#
#
# Mechanical properties :
#
#
# Convention : Reuss Voigt Hill
#
# Bulk Modulus (GPa) = 12.44838 52.76484 32.60661
# Shear Modulus (GPa) = 11.55481 31.10263 21.32872
#
# Velocity S-wave (km/s) = 2.37906 3.90322 3.23226
# Velocity P-wave (km/s) = 3.69381 6.79407 5.46826
#
# Compressibility (1/GPa) = 0.08033174
#
# Stress axis : x y z
#
# Youngs Moduli (GPa) = 46.95760 13.18706 62.03461
#
# Poissons Ratio (x) = -0.13857 0.35541
# Poissons Ratio (y) = -0.49345 1.31744
# Poissons Ratio (z) = 0.26903 0.28006
#
# Static dielectric constant tensor:
#      x y z
#    x 1.895040 0.007630 -0.040730 
#    y 0.007630 1.769020 0.007990 
#    z -0.040730 0.007990 1.762910 
# 
# From -- ./inp_files/206475.got.cif
#   From: 2010.05.17/outbox.cif.g08.bks.cpg/sg2_104_cif.got.tgz:206475.got - 2010.06.03 11:33:40.
