data_PCOD9055755
_publ_section_title
;
Structure prediction by ZEFSAII (Michael W. Deem and Ramdas Pophale) SiO2 
 PCOD9055755
Probable space group: P -1
;
_chemical_formula_sum "Si O2"
_cell_formula_units_Z 16
_cell_length_a 26.963394
_cell_length_b 11.930209
_cell_length_c 8.014513
_cell_angle_alpha 39.329415
_cell_angle_beta 30.900663
_cell_angle_gamma 31.927266
_cell_volume 690.387394
_symmetry_space_group_name_H-M "P -1"
_symmetry_group_IT_number 2
_symmetry_cell_setting 'triclinic'
loop_
_space_group_symop_operation_xyz
x,y,z
-x,-y,-z
loop_
_atom_site_type_symbol
_atom_site_label
_atom_site_fract_x
_atom_site_fract_y
_atom_site_fract_z
Si Si1 0.298031 0.912819 0.476306
Si Si2 0.156878 0.705270 0.182818
Si Si3 0.142386 0.678514 0.861987
Si Si4 0.477877 0.488665 0.883517
Si Si5 0.112002 0.058042 0.321293
Si Si6 0.285754 0.386196 0.484536
Si Si7 0.084278 0.254107 0.499332
Si Si8 0.340378 0.976958 0.616538
O O1 0.404062 0.706949 0.314015
O O2 0.209117 0.110279 0.387858
O O3 0.347383 0.997206 0.374885
O O4 0.222550 0.824211 0.863804
O O5 0.213032 0.521945 0.373527
O O6 0.018393 0.859009 0.451524
O O7 0.171768 0.629777 0.030751
O O8 0.205052 0.480889 0.776890
O O9 0.168707 0.843266 0.517942
O O10 0.000226 0.816696 0.111931
O O11 0.432380 0.724546 0.675985
O O12 0.500000 0.500000 0.000000
O O13 0.382451 0.436243 0.182625
O O14 0.092283 0.237469 0.298813
O O15 0.210263 0.028299 0.951786
O O16 0.343461 0.139353 0.546455
O O17 0.000000 0.500000 0.500000
#
# Coordination Sequence:
#
# PCOD9055755 Si02
#       8
#     2   2   2   2   2   2   2   2
#     4  12  24  45  73 103 146 198 242 303 366 434
#     4  11  23  43  75 106 148 196 242 299 372 440
#     4  11  21  43  71 104 147 194 242 297 370 437
#     4  12  27  52  79 100 142 199 249 306 368 431
#     4  11  21  43  70 104 148 194 243 294 369 439
#     4  12  28  48  73 111 150 189 250 309 361 439
#     4  11  23  39  68 111 147 185 242 302 366 438
#     4  12  28  46  73 111 146 193 248 302 369 438
#
# _framework density 23.175394000000001
#
# number of rings (size 3 to 8) (size 9 to 14) (size 15 to 20)
#    0.000    0.500    5.000    3.375    5.250    2.500 
#    0.000    0.000    0.000    0.000    0.000    0.000 
#    0.000    0.000    0.000    0.000    0.000    0.000 
#
# Total GULP energy -89386.289756 kJ/mol
# GULP energy per Si atom -5586.643110 kJ/mol
# Density = 2.312265 g / cm^3
# Si number density = 23.175394 Si / 1000 Ang^3
#
#
#
# Elastic Constant Matrix: (Units=GPa)
#
#
# Indices 1 2 3 4 5 6 
#
# 1 155.4593 78.3652 35.8807 19.6325 -3.3184 32.3993
# 2 78.3652 154.3206 24.2538 17.6502 0.6921 18.8197
# 3 35.8807 24.2538 -43.5627 -45.1556 6.0373 -32.8038
# 4 19.6325 17.6502 -45.1556 -0.3704 8.3108 -19.3319
# 5 -3.3184 0.6921 6.0373 8.3108 19.5503 11.7632
# 6 32.3993 18.8197 -32.8038 -19.3319 11.7632 33.4808
#
#
#
# Elastic Compliance Matrix: (Units=1/GPa)
#
#
# Indices 1 2 3 4 5 6 
#
# 1 0.008200 -0.004688 0.002437 0.002790 0.000510 -0.001480
# 2 -0.004688 0.008718 0.000804 -0.000510 -0.001539 0.000670
# 3 0.002437 0.000804 0.007961 -0.018654 0.011837 -0.009940
# 4 0.002790 -0.000510 -0.018654 0.024545 -0.000330 -0.006401
# 5 0.000510 -0.001539 0.011837 -0.000330 0.051596 -0.006349
# 6 -0.001480 0.000670 -0.009940 -0.006401 -0.006349 0.019719
#
#
# Mechanical properties :
#
#
# Convention : Reuss Voigt Hill
#
# Bulk Modulus (GPa) = 45.48508 60.35741 52.92125
# Shear Modulus (GPa) = 38.17907 19.04664 28.61286
#
# Velocity S-wave (km/s) = 4.06322 2.86990 3.51753
# Velocity P-wave (km/s) = 6.45616 6.08950 6.27551
#
# Compressibility (1/GPa) = 0.02198523
#
# Stress axis : x y z
#
# Youngs Moduli (GPa) = 121.94776 114.70608 125.61196
#
# Poissons Ratio (x) = 0.53775 -0.30617
# Poissons Ratio (y) = 0.57170 -0.10095
# Poissons Ratio (z) = -0.29724 -0.09218
#
# Static dielectric constant tensor:
#      x y z
#    x 1.906220 0.100850 -0.021290 
#    y 0.100850 2.455440 -0.128280 
#    z -0.021290 -0.128280 2.016480 
# 
# From -- ./inp_files/357032.got.cif
#   From: 2010.05.17/outbox.cif.g08.bks.cpg/sg2_179_cif.got.tgz:357032.got - 2010.06.03 11:33:40.
