data_PCOD9055674
_publ_section_title
;
Structure prediction by ZEFSAII (Michael W. Deem and Ramdas Pophale) SiO2 
 PCOD9055674
Probable space group: P -1
;
_chemical_formula_sum "Si O2"
_cell_formula_units_Z 16
_cell_length_a 16.220457
_cell_length_b 9.517052
_cell_length_c 8.683116
_cell_angle_alpha 134.336994
_cell_angle_beta 75.731645
_cell_angle_gamma 124.860645
_cell_volume 759.472888
_symmetry_space_group_name_H-M "P -1"
_symmetry_group_IT_number 2
_symmetry_cell_setting 'triclinic'
loop_
_space_group_symop_operation_xyz
x,y,z
-x,-y,-z
loop_
_atom_site_type_symbol
_atom_site_label
_atom_site_fract_x
_atom_site_fract_y
_atom_site_fract_z
Si Si1 0.053246 0.868297 0.347477
Si Si2 0.147992 0.471991 0.003586
Si Si3 0.307819 0.359902 0.851400
Si Si4 0.808286 0.129963 0.933148
Si Si5 0.478265 0.922369 0.272725
Si Si6 0.981274 0.501471 0.689139
Si Si7 0.461767 0.349985 0.559447
Si Si8 0.365575 0.196865 0.993292
O O1 0.062107 0.755426 0.410696
O O2 0.962865 0.648717 0.119218
O O3 0.153355 0.994336 0.290729
O O4 0.000000 0.000000 0.500000
O O5 0.199227 0.327567 0.851861
O O6 0.211525 0.717739 0.062314
O O7 0.111308 0.471015 0.194638
O O8 0.357031 0.307835 0.644929
O O9 0.309712 0.212762 0.881309
O O10 0.383188 0.645296 0.077688
O O11 0.904860 0.304440 0.138827
O O12 0.711591 0.944270 0.938908
O O13 0.576265 0.929498 0.169369
O O14 0.500000 0.000000 0.500000
O O15 0.458753 0.111896 0.356383
O O16 0.000000 0.500000 0.500000
O O17 0.500000 0.500000 0.500000
O O18 0.547454 0.528672 0.784762
#
# Coordination Sequence:
#
# PCOD9055674 Si02
#       8
#     2   2   2   2   2   2   2   2
#     4   9  19  39  60  82 118 155 190 238 294 352
#     4   9  21  39  58  84 121 154 190 244 295 345
#     4  11  23  40  62  89 120 157 202 244 295 355
#     4   9  21  39  58  84 121 154 190 244 295 345
#     4  11  21  43  63  82 125 161 191 252 299 339
#     4   9  19  39  60  84 116 156 193 233 297 353
#     4  11  25  41  61  91 119 157 205 241 296 360
#     4  11  23  40  62  89 120 157 202 244 295 355
#
# _framework density 21.067243000000001
#
# number of rings (size 3 to 8) (size 9 to 14) (size 15 to 20)
#    0.000    2.000    2.500    2.250    3.500    5.000 
#    4.500    2.500    0.000    0.000    0.000    0.000 
#    0.000    0.000    0.000    0.000    0.000    0.000 
#
# Total GULP energy -89227.058657 kJ/mol
# GULP energy per Si atom -5576.691166 kJ/mol
# Density = 2.101929 g / cm^3
# Si number density = 21.067243 Si / 1000 Ang^3
#
#
#
# Elastic Constant Matrix: (Units=GPa)
#
#
# Indices 1 2 3 4 5 6 
#
# 1 118.7410 47.0735 45.7239 -12.8974 -31.3239 4.5399
# 2 47.0735 116.8349 48.2863 -29.7122 -25.8755 10.6074
# 3 45.7239 48.2863 86.6381 -11.5709 -30.7833 -0.3916
# 4 -12.8974 -29.7122 -11.5709 44.2089 1.2277 -2.3196
# 5 -31.3239 -25.8755 -30.7833 1.2277 46.8457 -1.1563
# 6 4.5399 10.6074 -0.3916 -2.3196 -1.1563 30.7213
#
#
#
# Elastic Compliance Matrix: (Units=1/GPa)
#
#
# Indices 1 2 3 4 5 6 
#
# 1 0.011876 -0.002041 -0.003381 0.001038 0.004544 -0.000844
# 2 -0.002041 0.014326 -0.004835 0.007471 0.003076 -0.004027
# 3 -0.003381 -0.004835 0.018762 0.000611 0.007449 0.002735
# 4 0.001038 0.007471 0.000611 0.027956 0.004479 -0.000446
# 5 0.004544 0.003076 0.007449 0.004479 0.030859 -0.000139
# 6 -0.000844 -0.004027 0.002735 -0.000446 -0.000139 0.034062
#
#
# Mechanical properties :
#
#
# Convention : Reuss Voigt Hill
#
# Bulk Modulus (GPa) = 40.89743 67.15350 54.02547
# Shear Modulus (GPa) = 30.02906 36.43052 33.22979
#
# Velocity S-wave (km/s) = 3.77953 4.16294 3.97586
# Velocity P-wave (km/s) = 6.20495 7.41968 6.83934
#
# Compressibility (1/GPa) = 0.02445141
#
# Stress axis : x y z
#
# Youngs Moduli (GPa) = 84.19998 69.80132 53.29915
#
# Poissons Ratio (x) = 0.14245 0.18021
# Poissons Ratio (y) = 0.17183 0.25770
# Poissons Ratio (z) = 0.28469 0.33748
#
# Static dielectric constant tensor:
#      x y z
#    x 1.806850 0.028890 0.083960 
#    y 0.028890 1.751040 0.028150 
#    z 0.083960 0.028150 1.931420 
# 
# From -- ./inp_files/329576.got.cif
#   From: 2010.05.17/outbox.cif.g08.bks.cpg/sg2_165_cif.got.tgz:329576.got - 2010.06.03 11:33:40.
