data_PCOD9055787
_publ_section_title
;
Structure prediction by ZEFSAII (Michael W. Deem and Ramdas Pophale) SiO2 
 PCOD9055787
Probable space group: P -1
;
_chemical_formula_sum "Si O2"
_cell_formula_units_Z 14
_cell_length_a 6.644064
_cell_length_b 16.919542
_cell_length_c 16.408045
_cell_angle_alpha 159.181308
_cell_angle_beta 112.191179
_cell_angle_gamma 65.361247
_cell_volume 595.462706
_symmetry_space_group_name_H-M "P -1"
_symmetry_group_IT_number 2
_symmetry_cell_setting 'triclinic'
loop_
_space_group_symop_operation_xyz
x,y,z
-x,-y,-z
loop_
_atom_site_type_symbol
_atom_site_label
_atom_site_fract_x
_atom_site_fract_y
_atom_site_fract_z
Si Si1 0.380672 0.341626 0.772998
Si Si2 0.824643 0.625955 0.526900
Si Si3 0.270311 0.159634 0.128873
Si Si4 0.038566 0.916535 0.728704
Si Si5 0.755437 0.970901 0.409674
Si Si6 0.626125 0.503895 0.658061
Si Si7 0.059001 0.290594 0.975487
O O1 0.315928 0.166426 0.658425
O O2 0.562055 0.201312 0.601472
O O3 0.500000 0.500000 0.000000
O O4 0.148282 0.499635 0.862134
O O5 0.751160 0.844456 0.782056
O O6 0.632148 0.483205 0.351520
O O7 0.000000 0.500000 0.500000
O O8 0.901736 0.727177 0.553624
O O9 0.315479 0.392480 0.319714
O O10 0.500000 0.000000 0.000000
O O11 0.090065 0.065041 0.956992
O O12 0.267189 0.761846 0.583785
O O13 0.958634 0.092299 0.814314
O O14 0.808623 0.819295 0.190153
O O15 0.000000 0.000000 0.500000
O O16 0.755543 0.629654 0.863220
#
# Coordination Sequence:
#
# PCOD9055787 Si02
#       7
#     2   2   2   2   2   2   2
#     4  11  25  49  80 115 138 191 254 285 361 452
#     4  12  23  45  76  98 136 196 251 300 350 434
#     4  11  21  43  71  96 137 185 248 302 353 431
#     4  11  25  45  66 108 141 193 241 298 378 419
#     4  11  25  49  81 112 143 193 246 294 363 440
#     4  11  25  46  65 105 147 191 233 307 379 413
#     4  11  27  50  71 107 163 186 236 312 365 439
#
# _framework density 23.511130000000001
#
# number of rings (size 3 to 8) (size 9 to 14) (size 15 to 20)
#    0.000    0.857    4.286    2.143    2.000    0.000 
#    7.714    0.000    0.000    0.000    0.000    0.000 
#    0.000    0.000    0.000    0.000    0.000    0.000 
#
# Total GULP energy -78104.114608 kJ/mol
# GULP energy per Si atom -5578.865329 kJ/mol
# Density = 2.345762 g / cm^3
# Si number density = 23.511130 Si / 1000 Ang^3
#
#
#
# Elastic Constant Matrix: (Units=GPa)
#
#
# Indices 1 2 3 4 5 6 
#
# 1 154.1134 60.1349 56.3459 2.0994 0.1454 -1.7392
# 2 60.1349 93.8859 40.3220 10.4925 -5.5250 -1.1345
# 3 56.3459 40.3220 82.9986 5.2201 -4.4849 -3.3956
# 4 2.0994 10.4925 5.2201 52.7765 -1.5045 -0.7859
# 5 0.1454 -5.5250 -4.4849 -1.5045 60.9552 0.7591
# 6 -1.7392 -1.1345 -3.3956 -0.7859 0.7591 26.8579
#
#
#
# Elastic Compliance Matrix: (Units=1/GPa)
#
#
# Indices 1 2 3 4 5 6 
#
# 1 0.009941 -0.004518 -0.004658 0.000941 -0.000752 -0.000087
# 2 -0.004518 0.015768 -0.004391 -0.002495 0.001059 -0.000285
# 3 -0.004658 -0.004391 0.017498 -0.000623 0.000864 0.001683
# 4 0.000941 -0.002495 -0.000623 0.019480 0.000201 0.000441
# 5 -0.000752 0.001059 0.000864 0.000201 0.016576 -0.000357
# 6 -0.000087 -0.000285 0.001683 0.000441 -0.000357 0.037451
#
#
# Mechanical properties :
#
#
# Convention : Reuss Voigt Hill
#
# Bulk Modulus (GPa) = 62.20678 71.62261 66.91469
# Shear Modulus (GPa) = 33.51061 39.73093 36.62077
#
# Velocity S-wave (km/s) = 3.77942 4.11527 3.95092
# Velocity P-wave (km/s) = 6.74991 7.28766 7.02393
#
# Compressibility (1/GPa) = 0.01607542
#
# Stress axis : x y z
#
# Youngs Moduli (GPa) = 100.59112 63.41807 57.14850
#
# Poissons Ratio (x) = 0.28649 0.26617
# Poissons Ratio (y) = 0.45443 0.25095
# Poissons Ratio (z) = 0.46851 0.27848
#
# Static dielectric constant tensor:
#      x y z
#    x 1.674410 0.098900 0.321340 
#    y 0.098900 1.657420 -0.376220 
#    z 0.321340 -0.376220 1.128210 
# 
# From -- ./inp_files/46461.got.cif
#   From: 2010.05.17/outbox.cif.g08.bks.cpg/sg2_24_cif.got.tgz:46461.got - 2010.06.03 11:33:40.
