data_PCOD9055661
_publ_section_title
;
Structure prediction by ZEFSAII (Michael W. Deem and Ramdas Pophale) SiO2 
 PCOD9055661
Probable space group: P -1
;
_chemical_formula_sum "Si O2"
_cell_formula_units_Z 14
_cell_length_a 9.558175
_cell_length_b 11.156677
_cell_length_c 8.656343
_cell_angle_alpha 139.573405
_cell_angle_beta 69.871250
_cell_angle_gamma 122.388804
_cell_volume 502.052308
_symmetry_space_group_name_H-M "P -1"
_symmetry_group_IT_number 2
_symmetry_cell_setting 'triclinic'
loop_
_space_group_symop_operation_xyz
x,y,z
-x,-y,-z
loop_
_atom_site_type_symbol
_atom_site_label
_atom_site_fract_x
_atom_site_fract_y
_atom_site_fract_z
Si Si1 0.683769 0.403086 0.992393
Si Si2 0.170872 0.198098 0.816108
Si Si3 0.257125 0.810848 0.683425
Si Si4 0.703948 0.502753 0.448024
Si Si5 0.857579 0.145210 0.700369
Si Si6 0.351685 0.135855 0.217022
Si Si7 0.000000 0.000000 0.000000
Si Si8 0.500000 0.000000 0.500000
O O1 0.835909 0.342992 0.857944
O O2 0.531236 0.186816 0.795435
O O3 0.687154 0.576640 0.046855
O O4 0.697560 0.469079 0.232441
O O5 0.041936 0.192768 0.724394
O O6 0.221686 0.021537 0.570005
O O7 0.074503 0.149240 0.962950
O O8 0.198011 0.594740 0.587463
O O9 0.369653 0.827183 0.508797
O O10 0.369840 0.991089 0.940227
O O11 0.106503 0.870007 0.777136
O O12 0.514943 0.337328 0.405381
O O13 0.755414 0.747383 0.697903
O O14 0.744789 0.017960 0.761206
#
# Coordination Sequence:
#
# PCOD9055661 Si02
#       8
#     2   2   2   2   2   2   1   1
#     4  12  23  45  70 108 142 193 245 313 370 444
#     4  11  25  44  69 104 145 195 243 306 370 448
#     4  12  25  49  72 106 152 201 241 314 365 450
#     4  11  23  41  78 108 137 189 260 308 372 434
#     4  11  22  43  74 103 140 185 254 310 367 437
#     4  11  21  42  75 110 139 185 253 317 366 431
#     4  12  26  48  70 104 158 198 240 294 382 460
#     4  12  28  46  70 110 158 198 244 300 384 454
#
# _framework density 27.885539000000001
#
# number of rings (size 3 to 8) (size 9 to 14) (size 15 to 20)
#    0.000    0.571    5.714    2.571    0.000    1.143 
#    0.000    5.714    0.000    0.000    0.000    0.000 
#    0.000    0.000    0.000    0.000    0.000    0.000 
#
# Total GULP energy -77995.820076 kJ/mol
# GULP energy per Si atom -5571.130005 kJ/mol
# Density = 2.782207 g / cm^3
# Si number density = 27.885539 Si / 1000 Ang^3
#
#
#
# Elastic Constant Matrix: (Units=GPa)
#
#
# Indices 1 2 3 4 5 6 
#
# 1 89.5683 10.8926 -11.4000 11.9799 3.4333 -19.0234
# 2 10.8926 185.7424 76.3742 -17.8364 -5.1551 -19.2739
# 3 -11.4000 76.3742 156.5009 -7.3995 -16.4223 -19.4222
# 4 11.9799 -17.8364 -7.3995 66.7023 -6.2160 -5.8088
# 5 3.4333 -5.1551 -16.4223 -6.2160 37.3671 9.6387
# 6 -19.0234 -19.2739 -19.4222 -5.8088 9.6387 40.8710
#
#
#
# Elastic Compliance Matrix: (Units=1/GPa)
#
#
# Indices 1 2 3 4 5 6 
#
# 1 0.013442 -0.001183 0.002044 -0.002143 -0.002660 0.006993
# 2 -0.001183 0.007160 -0.003343 0.001852 -0.000481 0.001614
# 3 0.002044 -0.003343 0.008814 0.000210 0.002484 0.003007
# 4 -0.002143 0.001852 0.000210 0.016301 0.002838 0.001623
# 5 -0.002660 -0.000481 0.002484 0.002838 0.030317 -0.007031
# 6 0.006993 0.001614 0.003007 0.001623 -0.007031 0.031801
#
#
# Mechanical properties :
#
#
# Convention : Reuss Voigt Hill
#
# Bulk Modulus (GPa) = 40.89558 64.83835 52.86696
# Shear Modulus (GPa) = 41.33969 52.71773 47.02871
#
# Velocity S-wave (km/s) = 3.85447 4.35271 4.11115
# Velocity P-wave (km/s) = 5.87423 6.96875 6.44477
#
# Compressibility (1/GPa) = 0.02445252
#
# Stress axis : x y z
#
# Youngs Moduli (GPa) = 74.39121 139.67306 113.46000
#
# Poissons Ratio (x) = 0.16518 -0.23188
# Poissons Ratio (y) = 0.08797 0.37926
# Poissons Ratio (z) = -0.15203 0.46689
#
# Static dielectric constant tensor:
#      x y z
#    x 2.768300 0.021080 -0.127760 
#    y 0.021080 2.051930 0.009240 
#    z -0.127760 0.009240 2.104400 
# 
# From -- ./inp_files/263739.got.cif
#   From: 2010.05.17/outbox.cif.g08.bks.cpg/sg2_132_cif.got.tgz:263739.got - 2010.06.03 11:33:40.
