data_PCOD9055902
_publ_section_title
;
Structure prediction by ZEFSAII (Michael W. Deem and Ramdas Pophale) SiO2 
 PCOD9055902
Probable space group: P -1
;
_chemical_formula_sum "Si O2"
_cell_formula_units_Z 16
_cell_length_a 15.345451
_cell_length_b 9.916020
_cell_length_c 7.566600
_cell_angle_alpha 77.072463
_cell_angle_beta 97.808665
_cell_angle_gamma 40.095008
_cell_volume 630.421174
_symmetry_space_group_name_H-M "P -1"
_symmetry_group_IT_number 2
_symmetry_cell_setting 'triclinic'
loop_
_space_group_symop_operation_xyz
x,y,z
-x,-y,-z
loop_
_atom_site_type_symbol
_atom_site_label
_atom_site_fract_x
_atom_site_fract_y
_atom_site_fract_z
Si Si1 0.502182 0.093712 0.640887
Si Si2 0.434231 0.733767 0.976239
Si Si3 0.872397 0.109137 0.678517
Si Si4 0.733616 0.493546 0.275174
Si Si5 0.101956 0.263163 0.721321
Si Si6 0.906250 0.302010 0.861231
Si Si7 0.372018 0.780573 0.352705
Si Si8 0.194593 0.367631 0.979405
O O1 0.345540 0.323947 0.636173
O O2 0.573081 0.146606 0.578510
O O3 0.500000 0.000000 0.500000
O O4 0.621344 0.891085 0.884075
O O5 0.277055 0.003987 0.768577
O O6 0.500000 0.500000 0.000000
O O7 0.590137 0.624632 0.076313
O O8 0.368931 0.797709 0.136982
O O9 0.836032 0.232814 0.449228
O O10 0.805082 0.313454 0.737319
O O11 0.784135 0.078652 0.657300
O O12 0.023735 0.873468 0.900484
O O13 0.838485 0.469545 0.216551
O O14 0.121865 0.323605 0.894008
O O15 0.000000 0.500000 0.500000
O O16 0.020499 0.222064 0.767203
O O17 0.838741 0.526262 0.868753
O O18 0.500000 0.500000 0.500000
#
# Coordination Sequence:
#
# PCOD9055902 Si02
#       8
#     2   2   2   2   2   2   2   2
#     4  11  23  41  71 103 139 184 234 296 372 427
#     4  11  25  43  71 103 141 182 235 303 364 421
#     4  11  22  44  69 101 139 185 244 297 356 434
#     4  11  24  44  68 104 143 179 236 314 361 424
#     4  12  26  49  69 102 150 193 244 299 363 443
#     4  11  26  43  73  97 141 200 242 289 366 445
#     4  11  21  44  70 100 142 177 233 307 359 426
#     4  12  25  45  68  99 149 188 240 299 364 441
#
# _framework density 25.379857999999999
#
# number of rings (size 3 to 8) (size 9 to 14) (size 15 to 20)
#    0.000    0.750    6.250    2.250    1.750    1.500 
#    2.250    0.000    0.000    0.000    0.000    0.000 
#    0.000    0.000    0.000    0.000    0.000    0.000 
#
# Total GULP energy -89280.470891 kJ/mol
# GULP energy per Si atom -5580.029431 kJ/mol
# Density = 2.532209 g / cm^3
# Si number density = 25.379858 Si / 1000 Ang^3
#
#
#
# Elastic Constant Matrix: (Units=GPa)
#
#
# Indices 1 2 3 4 5 6 
#
# 1 106.9441 24.9522 10.4732 9.0794 -7.6791 29.1519
# 2 24.9522 129.2553 18.2513 10.5909 21.1254 26.1863
# 3 10.4732 18.2513 94.8362 -28.2411 0.9272 9.2076
# 4 9.0794 10.5909 -28.2411 40.8194 13.8641 12.1462
# 5 -7.6791 21.1254 0.9272 13.8641 27.3137 -1.2525
# 6 29.1519 26.1863 9.2076 12.1462 -1.2525 40.2534
#
#
#
# Elastic Compliance Matrix: (Units=1/GPa)
#
#
# Indices 1 2 3 4 5 6 
#
# 1 0.012364 -0.001653 -0.001659 -0.003844 0.006481 -0.006137
# 2 -0.001653 0.011100 -0.000137 0.003341 -0.011078 -0.007345
# 3 -0.001659 -0.000137 0.017195 0.018488 -0.010720 -0.008554
# 4 -0.003844 0.003341 0.018488 0.054822 -0.033091 -0.021190
# 5 0.006481 -0.011078 -0.010720 -0.033091 0.064941 0.016971
# 6 -0.006137 -0.007345 -0.008554 -0.021190 0.016971 0.042944
#
#
# Mechanical properties :
#
#
# Convention : Reuss Voigt Hill
#
# Bulk Modulus (GPa) = 29.62227 48.70989 39.16608
# Shear Modulus (GPa) = 22.57152 40.16788 31.36970
#
# Velocity S-wave (km/s) = 2.98543 3.98259 3.51950
# Velocity P-wave (km/s) = 4.85599 6.35469 5.65520
#
# Compressibility (1/GPa) = 0.03375838
#
# Stress axis : x y z
#
# Youngs Moduli (GPa) = 80.88278 90.08937 58.15671
#
# Poissons Ratio (x) = 0.14895 0.09651
# Poissons Ratio (y) = 0.13373 0.00799
# Poissons Ratio (z) = 0.13422 0.01237
#
# Static dielectric constant tensor:
#      x y z
#    x 1.873710 -0.047120 0.087200 
#    y -0.047120 2.043670 -0.019870 
#    z 0.087200 -0.019870 2.039410 
# 
# From -- ./inp_files/298305.got.cif
#   From: 2010.05.17/outbox.cif.g08.bks.cpg/sg2_150_cif.got.tgz:298305.got - 2010.06.03 11:33:40.
