data_PCOD9055334
_publ_section_title
;
Structure prediction by ZEFSAII (Michael W. Deem and Ramdas Pophale) SiO2 
 PCOD9055334
Probable space group: P -1
;
_chemical_formula_sum "Si O2"
_cell_formula_units_Z 16
_cell_length_a 13.956604
_cell_length_b 9.334359
_cell_length_c 13.314129
_cell_angle_alpha 92.804356
_cell_angle_beta 42.366610
_cell_angle_gamma 124.962632
_cell_volume 704.052995
_symmetry_space_group_name_H-M "P -1"
_symmetry_group_IT_number 2
_symmetry_cell_setting 'triclinic'
loop_
_space_group_symop_operation_xyz
x,y,z
-x,-y,-z
loop_
_atom_site_type_symbol
_atom_site_label
_atom_site_fract_x
_atom_site_fract_y
_atom_site_fract_z
Si Si1 0.532471 0.079509 0.180584
Si Si2 0.632299 0.694122 0.993921
Si Si3 0.964933 0.613005 0.221814
Si Si4 0.959446 0.859837 0.436633
Si Si5 0.741207 0.412444 0.602340
Si Si6 0.280713 0.817947 0.736398
Si Si7 0.055029 0.207974 0.937158
Si Si8 0.541634 0.413287 0.216712
O O1 0.614930 0.132620 0.234171
O O2 0.490452 0.214322 0.205570
O O3 0.312453 0.793601 0.331807
O O4 0.769036 0.215671 0.944481
O O5 0.500000 0.500000 0.000000
O O6 0.473896 0.676941 0.180201
O O7 0.697262 0.624040 0.021290
O O8 0.840557 0.948782 0.791282
O O9 0.783268 0.453862 0.450072
O O10 0.890094 0.436971 0.189318
O O11 0.959153 0.756184 0.167562
O O12 0.951965 0.691148 0.477009
O O13 0.704180 0.700425 0.585840
O O14 0.000000 0.000000 0.500000
O O15 0.500000 0.000000 0.500000
O O16 0.139978 0.852242 0.857944
O O17 0.308025 0.459305 0.794029
O O18 0.000000 0.000000 0.000000
#
# Coordination Sequence:
#
# PCOD9055334 Si02
#       8
#     2   2   2   2   2   2   2   2
#     4  11  22  42  64 105 140 181 230 273 335 426
#     4  11  24  49  72  94 134 174 234 299 357 411
#     4  11  22  43  67  98 151 185 224 270 350 418
#     4  11  24  47  74  96 128 179 234 296 363 408
#     4  11  24  40  74 101 129 187 225 277 351 419
#     4  11  21  41  68  93 155 196 219 272 346 407
#     4  11  25  42  65 110 147 185 240 285 328 419
#     4  11  24  42  73 103 134 188 228 286 355 402
#
# _framework density 22.725560999999999
#
# number of rings (size 3 to 8) (size 9 to 14) (size 15 to 20)
#    0.000    1.000    6.250    1.500    8.750    2.000 
#    2.250    4.375    0.000    0.000    0.000    0.000 
#    0.000    0.000    0.000    0.000    0.000    0.000 
#
# Total GULP energy -89312.129425 kJ/mol
# GULP energy per Si atom -5582.008089 kJ/mol
# Density = 2.267384 g / cm^3
# Si number density = 22.725561 Si / 1000 Ang^3
#
#
#
# Elastic Constant Matrix: (Units=GPa)
#
#
# Indices 1 2 3 4 5 6 
#
# 1 53.1659 26.4893 34.9116 8.7416 -4.8925 -14.5954
# 2 26.4893 157.2163 37.3150 -10.6645 11.9482 -26.0531
# 3 34.9116 37.3150 167.8454 -3.6250 19.9261 -13.0873
# 4 8.7416 -10.6645 -3.6250 50.7511 2.7568 13.4026
# 5 -4.8925 11.9482 19.9261 2.7568 23.7815 -6.2094
# 6 -14.5954 -26.0531 -13.0873 13.4026 -6.2094 44.0748
#
#
#
# Elastic Compliance Matrix: (Units=1/GPa)
#
#
# Indices 1 2 3 4 5 6 
#
# 1 0.032872 -0.003931 -0.007567 -0.011414 0.019680 0.012558
# 2 -0.003931 0.007881 -0.000222 0.002000 -0.004271 0.002081
# 3 -0.007567 -0.000222 0.008605 0.003016 -0.009619 -0.002354
# 4 -0.011414 0.002000 0.003016 0.025919 -0.011821 -0.011249
# 5 0.019680 -0.004271 -0.009619 -0.011821 0.061159 0.013347
# 6 0.012558 0.002081 -0.002354 -0.011249 0.013347 0.032680
#
#
# Mechanical properties :
#
#
# Convention : Reuss Voigt Hill
#
# Bulk Modulus (GPa) = 38.58480 63.96216 51.27348
# Shear Modulus (GPa) = 24.85157 42.35559 33.60358
#
# Velocity S-wave (km/s) = 3.31048 4.32184 3.84952
# Velocity P-wave (km/s) = 5.62386 7.28773 6.50918
#
# Compressibility (1/GPa) = 0.02591694
#
# Stress axis : x y z
#
# Youngs Moduli (GPa) = 30.42093 126.89102 116.21614
#
# Poissons Ratio (x) = 0.49886 0.87941
# Poissons Ratio (y) = 0.11960 0.02578
# Poissons Ratio (z) = 0.23020 0.02815
#
# Static dielectric constant tensor:
#      x y z
#    x 1.875020 0.006250 -0.017420 
#    y 0.006250 1.929540 -0.033640 
#    z -0.017420 -0.033640 1.883070 
# 
# From -- ./inp_files/528587.got.cif
#   From: 2010.05.17/outbox.cif.g08.bks.cpg/sg2_265_cif.got.tgz:528587.got - 2010.06.03 11:33:40.
