data_PCOD9055290
_publ_section_title
;
Structure prediction by ZEFSAII (Michael W. Deem and Ramdas Pophale) SiO2 
 PCOD9055290
Probable space group: P -1
;
_chemical_formula_sum "Si O2"
_cell_formula_units_Z 16
_cell_length_a 8.918196
_cell_length_b 22.860466
_cell_length_c 8.779007
_cell_angle_alpha 130.255452
_cell_angle_beta 148.401109
_cell_angle_gamma 60.372712
_cell_volume 708.645541
_symmetry_space_group_name_H-M "P -1"
_symmetry_group_IT_number 2
_symmetry_cell_setting 'triclinic'
loop_
_space_group_symop_operation_xyz
x,y,z
-x,-y,-z
loop_
_atom_site_type_symbol
_atom_site_label
_atom_site_fract_x
_atom_site_fract_y
_atom_site_fract_z
Si Si1 0.162294 0.461302 0.939735
Si Si2 0.999401 0.674985 0.826073
Si Si3 0.620108 0.082168 0.169013
Si Si4 0.962175 0.849824 0.793515
Si Si5 0.376635 0.321963 0.770855
Si Si6 0.105703 0.151944 0.922266
Si Si7 0.452951 0.081539 0.668542
Si Si8 0.198836 0.477953 0.496020
O O1 0.271353 0.377526 0.902876
O O2 0.893646 0.459029 0.591747
O O3 0.452644 0.511685 0.201678
O O4 0.000000 0.500000 0.000000
O O5 0.743782 0.646647 0.438306
O O6 0.941306 0.611263 0.801491
O O7 0.292360 0.679351 0.989626
O O8 0.966326 0.761227 0.993715
O O9 0.934528 0.105147 0.556389
O O10 0.530132 0.075899 0.903731
O O11 0.442063 0.148619 0.186709
O O12 0.500000 0.000000 0.000000
O O13 0.784778 0.764720 0.495919
O O14 0.836878 0.897782 0.628896
O O15 0.952261 0.881979 0.012969
O O16 0.299242 0.850948 0.059452
O O17 0.500000 0.000000 0.500000
O O18 0.000000 0.500000 0.500000
#
# Coordination Sequence:
#
# PCOD9055290 Si02
#       8
#     2   2   2   2   2   2   2   2
#     4  12  25  42  63 100 138 177 225 288 352 403
#     4  11  22  39  70  98 126 174 231 284 327 407
#     4  12  25  44  68  97 136 173 215 282 342 396
#     4  11  23  42  68  96 128 179 221 272 333 409
#     4  11  21  41  66  95 133 175 225 277 342 409
#     4  11  23  43  66  99 133 170 223 278 343 394
#     4  12  25  44  67  97 132 173 226 267 330 415
#     4  12  22  42  70  95 130 179 238 280 335 408
#
# _framework density 22.578284
#
# number of rings (size 3 to 8) (size 9 to 14) (size 15 to 20)
#    0.000    0.500    2.500    8.250    0.000    0.000 
#    6.750    0.000    0.000    0.000    0.000    0.000 
#    0.000    0.000    0.000    0.000    0.000    0.000 
#
# Total GULP energy -89069.950358 kJ/mol
# GULP energy per Si atom -5566.871897 kJ/mol
# Density = 2.252690 g / cm^3
# Si number density = 22.578284 Si / 1000 Ang^3
#
#
#
# Elastic Constant Matrix: (Units=GPa)
#
#
# Indices 1 2 3 4 5 6 
#
# 1 92.0696 15.0995 31.6902 -3.5732 -8.4506 -14.3503
# 2 15.0995 91.7276 28.7177 1.4069 5.1575 -13.7753
# 3 31.6902 28.7177 89.5200 -7.9642 13.5635 -6.2734
# 4 -3.5732 1.4069 -7.9642 42.2175 0.4245 1.1674
# 5 -8.4506 5.1575 13.5635 0.4245 48.4317 -9.8786
# 6 -14.3503 -13.7753 -6.2734 1.1674 -9.8786 32.0767
#
#
#
# Elastic Compliance Matrix: (Units=1/GPa)
#
#
# Indices 1 2 3 4 5 6 
#
# 1 0.014315 0.000101 -0.005437 -0.000068 0.005451 0.007066
# 2 0.000101 0.012895 -0.004061 -0.001336 0.000832 0.005094
# 3 -0.005437 -0.004061 0.015250 0.002688 -0.005414 -0.002959
# 4 -0.000068 -0.001336 0.002688 0.024280 -0.001101 -0.001301
# 5 0.005451 0.000832 -0.005414 -0.001101 0.024967 0.009467
# 6 0.007066 0.005094 -0.002959 -0.001301 0.009467 0.038908
#
#
# Mechanical properties :
#
#
# Convention : Reuss Voigt Hill
#
# Bulk Modulus (GPa) = 42.25113 47.14801 44.69957
# Shear Modulus (GPa) = 31.78701 37.73249 34.75975
#
# Velocity S-wave (km/s) = 3.75621 4.09245 3.92793
# Velocity P-wave (km/s) = 6.12911 6.57710 6.35705
#
# Compressibility (1/GPa) = 0.02366800
#
# Stress axis : x y z
#
# Youngs Moduli (GPa) = 69.85620 77.54856 65.57314
#
# Poissons Ratio (x) = -0.00786 0.35652
# Poissons Ratio (y) = -0.00708 0.26627
# Poissons Ratio (z) = 0.37980 0.31490
#
# Static dielectric constant tensor:
#      x y z
#    x 2.004940 0.027500 -0.096070 
#    y 0.027500 1.936810 -0.011740 
#    z -0.096070 -0.011740 1.900810 
# 
# From -- ./inp_files/226584.got.cif
#   From: 2010.05.17/outbox.cif.g08.bks.cpg/sg2_114_cif.got.tgz:226584.got - 2010.06.03 11:33:40.
