data_PCOD9055562
_publ_section_title
;
Structure prediction by ZEFSAII (Michael W. Deem and Ramdas Pophale) SiO2 
 PCOD9055562
Probable space group: P -1
;
_chemical_formula_sum "Si O2"
_cell_formula_units_Z 16
_cell_length_a 18.092031
_cell_length_b 9.310256
_cell_length_c 12.330148
_cell_angle_alpha 140.936836
_cell_angle_beta 33.908858
_cell_angle_gamma 143.587882
_cell_volume 649.759723
_symmetry_space_group_name_H-M "P -1"
_symmetry_group_IT_number 2
_symmetry_cell_setting 'triclinic'
loop_
_space_group_symop_operation_xyz
x,y,z
-x,-y,-z
loop_
_atom_site_type_symbol
_atom_site_label
_atom_site_fract_x
_atom_site_fract_y
_atom_site_fract_z
Si Si1 0.414170 0.861228 0.632926
Si Si2 0.663525 0.988564 0.579345
Si Si3 0.055808 0.532511 0.214113
Si Si4 0.364392 0.247124 0.060370
Si Si5 0.956016 0.915370 0.158087
Si Si6 0.851901 0.583570 0.665575
Si Si7 0.309409 0.027127 0.221832
Si Si8 0.872974 0.676385 0.347977
O O1 0.284066 0.579703 0.606585
O O2 0.500000 0.000000 0.500000
O O3 0.534524 0.868307 0.577822
O O4 0.341069 0.024048 0.874209
O O5 0.732937 0.297735 0.673101
O O6 0.799263 0.925638 0.348513
O O7 0.614720 0.905197 0.713924
O O8 0.984960 0.557965 0.428266
O O9 0.983094 0.632981 0.268357
O O10 0.230724 0.724036 0.117691
O O11 0.018357 0.243656 0.061743
O O12 0.224978 0.307116 0.263232
O O13 0.397336 0.175470 0.096748
O O14 0.500000 0.500000 0.000000
O O15 0.939476 0.745616 0.187012
O O16 0.084808 0.199306 0.192679
O O17 0.171426 0.098063 0.439461
#
# Coordination Sequence:
#
# PCOD9055562 Si02
#       8
#     2   2   2   2   2   2   2   2
#     4  12  26  48  71 104 147 198 252 298 361 449
#     4  11  26  48  70 107 158 191 239 310 366 436
#     4  12  22  43  75 109 148 188 244 305 364 437
#     4  12  24  46  74 104 138 195 251 292 364 439
#     4  11  25  41  71 112 142 194 242 303 375 425
#     4  12  23  47  73 106 150 190 247 303 363 439
#     4  11  24  44  75 110 145 192 238 309 378 422
#     4  11  21  42  70 105 146 189 245 301 361 435
#
# _framework density 24.624486999999998
#
# number of rings (size 3 to 8) (size 9 to 14) (size 15 to 20)
#    0.000    0.500    5.000    4.875    0.000    3.000 
#    2.250    0.000    0.000    0.000    0.000    0.000 
#    0.000    0.000    0.000    0.000    0.000    0.000 
#
# Total GULP energy -89723.305463 kJ/mol
# GULP energy per Si atom -5607.706591 kJ/mol
# Density = 2.456844 g / cm^3
# Si number density = 24.624487 Si / 1000 Ang^3
#
#
#
# Elastic Constant Matrix: (Units=GPa)
#
#
# Indices 1 2 3 4 5 6 
#
# 1 154.2480 26.0233 23.2025 -2.5033 11.8748 -6.9076
# 2 26.0233 96.1584 21.0534 3.9939 22.4240 2.1630
# 3 23.2025 21.0534 100.0427 18.7056 16.1074 -7.4416
# 4 -2.5033 3.9939 18.7056 44.7383 -4.7972 8.7331
# 5 11.8748 22.4240 16.1074 -4.7972 42.1630 -1.9110
# 6 -6.9076 2.1630 -7.4416 8.7331 -1.9110 44.8479
#
#
#
# Elastic Compliance Matrix: (Units=1/GPa)
#
#
# Indices 1 2 3 4 5 6 
#
# 1 0.007032 -0.001544 -0.001334 0.000889 -0.000515 0.000741
# 2 -0.001544 0.012538 -0.001188 -0.001139 -0.005958 -0.001072
# 3 -0.001334 -0.001188 0.012672 -0.006326 -0.004417 0.002998
# 4 0.000889 -0.001139 -0.006326 0.026889 0.005566 -0.005857
# 5 -0.000515 -0.005958 -0.004417 0.005566 0.029335 -0.000359
# 6 0.000741 -0.001072 0.002998 -0.005857 -0.000359 0.024086
#
#
# Mechanical properties :
#
#
# Convention : Reuss Voigt Hill
#
# Bulk Modulus (GPa) = 41.47856 54.55639 48.01747
# Shear Modulus (GPa) = 38.84355 45.02785 41.93570
#
# Velocity S-wave (km/s) = 3.97600 4.28083 4.13123
# Velocity P-wave (km/s) = 6.16110 6.82916 6.50371
#
# Compressibility (1/GPa) = 0.02410884
#
# Stress axis : x y z
#
# Youngs Moduli (GPa) = 142.21629 79.75554 78.91305
#
# Poissons Ratio (x) = 0.12318 0.10528
# Poissons Ratio (y) = 0.21965 0.09375
# Poissons Ratio (z) = 0.18973 0.09475
#
# Static dielectric constant tensor:
#      x y z
#    x 1.970320 -0.023160 -0.004080 
#    y -0.023160 2.014000 0.035470 
#    z -0.004080 0.035470 1.989500 
# 
# From -- ./inp_files/278736.got.cif
#   From: 2010.05.17/outbox.cif.g08.bks.cpg/sg2_140_cif.got.tgz:278736.got - 2010.06.03 11:33:40.
