data_PCOD9055974
_publ_section_title
;
Structure prediction by ZEFSAII (Michael W. Deem and Ramdas Pophale) SiO2 
 PCOD9055974
Probable space group: P -1
;
_chemical_formula_sum "Si O2"
_cell_formula_units_Z 16
_cell_length_a 16.607085
_cell_length_b 8.849940
_cell_length_c 12.054947
_cell_angle_alpha 141.777140
_cell_angle_beta 139.936009
_cell_angle_gamma 42.082105
_cell_volume 659.905665
_symmetry_space_group_name_H-M "P -1"
_symmetry_group_IT_number 2
_symmetry_cell_setting 'triclinic'
loop_
_space_group_symop_operation_xyz
x,y,z
-x,-y,-z
loop_
_atom_site_type_symbol
_atom_site_label
_atom_site_fract_x
_atom_site_fract_y
_atom_site_fract_z
Si Si1 0.202693 0.803472 0.918746
Si Si2 0.077191 0.197792 0.665842
Si Si3 0.425367 0.275182 0.636466
Si Si4 0.242831 0.422708 0.119776
Si Si5 0.573291 0.051340 0.876229
Si Si6 0.393169 0.394399 0.037393
Si Si7 0.851269 0.741804 0.690345
Si Si8 0.100199 0.022904 0.355865
O O1 0.314120 0.822292 0.960895
O O2 0.269065 0.542372 0.909879
O O3 0.061422 0.841189 0.736010
O O4 0.172779 0.038417 0.113233
O O5 0.981406 0.494476 0.710958
O O6 0.151920 0.092171 0.567313
O O7 0.166079 0.237399 0.883660
O O8 0.000000 0.000000 0.500000
O O9 0.458575 0.197136 0.753315
O O10 0.502883 0.456900 0.783358
O O11 0.270908 0.361803 0.498576
O O12 0.500000 0.000000 0.500000
O O13 0.331821 0.443417 0.121912
O O14 0.146053 0.708785 0.216366
O O15 0.343977 0.255903 0.224042
O O16 0.489366 0.109901 0.935012
O O17 0.856778 0.871045 0.650923
#
# Coordination Sequence:
#
# PCOD9055974 Si02
#       8
#     2   2   2   2   2   2   2   2
#     4  11  21  44  74 101 139 190 243 291 361 423
#     4  12  30  45  73 112 144 189 236 301 360 436
#     4  11  22  42  69 104 135 185 249 282 350 425
#     4  12  26  51  70 106 153 185 243 291 371 426
#     4  11  26  42  70 100 141 197 227 296 356 424
#     4  11  24  45  70 100 139 198 236 295 351 426
#     4  12  24  46  71 107 146 181 248 301 349 434
#     4  12  26  47  76 107 142 195 236 304 363 413
#
# _framework density 24.245889999999999
#
# number of rings (size 3 to 8) (size 9 to 14) (size 15 to 20)
#    0.000    0.500    5.000    4.125    8.750    1.000 
#    0.000    1.250    0.000    0.000    0.000    0.000 
#    0.000    0.000    0.000    0.000    0.000    0.000 
#
# Total GULP energy -89537.294698 kJ/mol
# GULP energy per Si atom -5596.080919 kJ/mol
# Density = 2.419071 g / cm^3
# Si number density = 24.245890 Si / 1000 Ang^3
#
#
#
# Elastic Constant Matrix: (Units=GPa)
#
#
# Indices 1 2 3 4 5 6 
#
# 1 77.8888 6.5087 7.6064 10.4052 -4.1005 -9.3891
# 2 6.5087 88.9156 14.1656 15.2902 0.4078 -1.7389
# 3 7.6064 14.1656 64.0327 15.8197 -5.4727 -11.4562
# 4 10.4052 15.2902 15.8197 24.5977 -10.7190 -0.7705
# 5 -4.1005 0.4078 -5.4727 -10.7190 15.7775 6.7964
# 6 -9.3891 -1.7389 -11.4562 -0.7705 6.7964 37.4795
#
#
#
# Elastic Compliance Matrix: (Units=1/GPa)
#
#
# Indices 1 2 3 4 5 6 
#
# 1 0.014136 0.000314 0.000675 -0.007906 -0.003278 0.004194
# 2 0.000314 0.013520 -0.000407 -0.012475 -0.009789 0.002100
# 3 0.000675 -0.000407 0.020226 -0.015665 -0.006541 0.007197
# 4 -0.007906 -0.012475 -0.015665 0.087005 0.058942 -0.016248
# 5 -0.003278 -0.009789 -0.006541 0.058942 0.110042 -0.022018
# 6 0.004194 0.002100 0.007197 -0.016248 -0.022018 0.033688
#
#
# Mechanical properties :
#
#
# Convention : Reuss Voigt Hill
#
# Bulk Modulus (GPa) = 20.38931 31.93316 26.16124
# Shear Modulus (GPa) = 17.01835 29.07470 23.04653
#
# Velocity S-wave (km/s) = 2.65223 3.46665 3.08642
# Velocity P-wave (km/s) = 4.21980 5.40580 4.84919
#
# Compressibility (1/GPa) = 0.04904530
#
# Stress axis : x y z
#
# Youngs Moduli (GPa) = 70.74221 73.96619 49.44219
#
# Poissons Ratio (x) = -0.02325 -0.03336
# Poissons Ratio (y) = -0.02224 0.02012
# Poissons Ratio (z) = -0.04773 0.03011
#
# Static dielectric constant tensor:
#      x y z
#    x 1.970930 0.023970 -0.150810 
#    y 0.023970 1.847240 -0.043140 
#    z -0.150810 -0.043140 2.255370 
# 
# From -- ./inp_files/405656.got.cif
#   From: 2010.05.17/outbox.cif.g08.bks.cpg/sg2_203_cif.got.tgz:405656.got - 2010.06.03 11:33:40.
