data_PCOD9055971
_publ_section_title
;
Structure prediction by ZEFSAII (Michael W. Deem and Ramdas Pophale) SiO2 
 PCOD9055971
Probable space group: P -1
;
_chemical_formula_sum "Si O2"
_cell_formula_units_Z 14
_cell_length_a 22.113010
_cell_length_b 15.812268
_cell_length_c 11.768033
_cell_angle_alpha 27.932676
_cell_angle_beta 149.903843
_cell_angle_gamma 160.799535
_cell_volume 621.079654
_symmetry_space_group_name_H-M "P -1"
_symmetry_group_IT_number 2
_symmetry_cell_setting 'triclinic'
loop_
_space_group_symop_operation_xyz
x,y,z
-x,-y,-z
loop_
_atom_site_type_symbol
_atom_site_label
_atom_site_fract_x
_atom_site_fract_y
_atom_site_fract_z
Si Si1 0.193945 0.232795 0.605799
Si Si2 0.403331 0.770964 0.853168
Si Si3 0.206033 0.554080 0.571602
Si Si4 0.444309 0.426045 0.366215
Si Si5 0.804917 0.350488 0.813017
Si Si6 0.796771 0.120364 0.513281
Si Si7 0.278985 0.235043 0.982042
O O1 0.370083 0.374265 0.647925
O O2 0.224684 0.476750 0.401223
O O3 0.183947 0.109085 0.853631
O O4 0.000000 0.000000 0.500000
O O5 0.372613 0.790677 0.648477
O O6 0.287842 0.778446 0.731080
O O7 0.621470 0.031094 0.932061
O O8 0.338480 0.491438 0.089902
O O9 0.195446 0.649380 0.324106
O O10 0.015690 0.372013 0.546261
O O11 0.218836 0.357461 0.792608
O O12 0.500000 0.500000 0.500000
O O13 0.311101 0.109100 0.490024
O O14 0.000000 0.500000 0.000000
O O15 0.757826 0.963697 0.751518
O O16 0.500000 0.500000 0.000000
#
# Coordination Sequence:
#
# PCOD9055971 Si02
#       7
#     2   2   2   2   2   2   2
#     4  11  24  44  68 104 140 187 234 287 354 411
#     4  12  25  47  72 102 139 188 238 285 354 416
#     4  11  25  43  72 104 142 188 231 293 355 410
#     4  12  28  45  72 103 146 186 227 294 360 412
#     4  11  25  44  71 104 143 185 238 292 343 428
#     4  12  25  46  73 107 142 183 242 289 348 418
#     4  11  21  44  73  99 140 185 235 289 341 420
#
# _framework density 22.541391999999998
#
# number of rings (size 3 to 8) (size 9 to 14) (size 15 to 20)
#    0.000    0.571    4.286    3.000    6.000    4.000 
#    0.000    0.000    0.000    0.000    0.000    0.000 
#    0.000    0.000    0.000    0.000    0.000    0.000 
#
# Total GULP energy -78439.996547 kJ/mol
# GULP energy per Si atom -5602.856896 kJ/mol
# Density = 2.249009 g / cm^3
# Si number density = 22.541392 Si / 1000 Ang^3
#
#
#
# Elastic Constant Matrix: (Units=GPa)
#
#
# Indices 1 2 3 4 5 6 
#
# 1 119.2273 33.1942 52.6836 10.1216 8.1055 -6.0406
# 2 33.1942 93.2541 10.3216 27.3715 5.3774 -6.5820
# 3 52.6836 10.3216 82.8230 20.4772 22.4352 -1.4791
# 4 10.1216 27.3715 20.4772 35.2917 -8.8870 -2.4710
# 5 8.1055 5.3774 22.4352 -8.8870 46.7848 12.9104
# 6 -6.0406 -6.5820 -1.4791 -2.4710 12.9104 50.5908
#
#
#
# Elastic Compliance Matrix: (Units=1/GPa)
#
#
# Indices 1 2 3 4 5 6 
#
# 1 0.014761 -0.007390 -0.012939 0.010647 0.006733 -0.000775
# 2 -0.007390 0.019501 0.010824 -0.021879 -0.011357 0.003801
# 3 -0.012939 0.010824 0.031546 -0.027877 -0.020726 0.004713
# 4 0.010647 -0.021879 -0.027877 0.065070 0.028165 -0.006400
# 5 0.006733 -0.011357 -0.020726 0.028165 0.039562 -0.010000
# 6 -0.000775 0.003801 0.004713 -0.006400 -0.010000 0.022545
#
#
# Mechanical properties :
#
#
# Convention : Reuss Voigt Hill
#
# Bulk Modulus (GPa) = 21.36797 54.18927 37.77862
# Shear Modulus (GPa) = 21.96887 39.80713 30.88800
#
# Velocity S-wave (km/s) = 3.12525 4.20689 3.70574
# Velocity P-wave (km/s) = 4.74583 6.90574 5.92504
#
# Compressibility (1/GPa) = 0.04679902
#
# Stress axis : x y z
#
# Youngs Moduli (GPa) = 67.74487 51.27974 31.69958
#
# Poissons Ratio (x) = 0.37897 0.41015
# Poissons Ratio (y) = 0.50065 -0.34312
# Poissons Ratio (z) = 0.87653 -0.55506
#
# Static dielectric constant tensor:
#      x y z
#    x 1.817770 -0.023340 -0.015450 
#    y -0.023340 1.848350 -0.008420 
#    z -0.015450 -0.008420 1.843970 
# 
# From -- ./inp_files/183735.got.cif
#   From: 2010.05.17/outbox.cif.g08.bks.cpg/sg2_92_cif.got.tgz:183735.got - 2010.06.03 11:33:40.
