data_PCOD9055725
_publ_section_title
;
Structure prediction by ZEFSAII (Michael W. Deem and Ramdas Pophale) SiO2 
 PCOD9055725
Probable space group: P -1
;
_chemical_formula_sum "Si O2"
_cell_formula_units_Z 15
_cell_length_a 7.876853
_cell_length_b 8.711317
_cell_length_c 12.425403
_cell_angle_alpha 120.750271
_cell_angle_beta 113.737523
_cell_angle_gamma 75.661335
_cell_volume 669.792192
_symmetry_space_group_name_H-M "P -1"
_symmetry_group_IT_number 2
_symmetry_cell_setting 'triclinic'
loop_
_space_group_symop_operation_xyz
x,y,z
-x,-y,-z
loop_
_atom_site_type_symbol
_atom_site_label
_atom_site_fract_x
_atom_site_fract_y
_atom_site_fract_z
Si Si1 0.353451 0.852536 0.703148
Si Si2 0.479283 0.658294 0.964284
Si Si3 0.150576 0.126033 0.889715
Si Si4 0.201885 0.072217 0.551415
Si Si5 0.426490 0.382585 0.679543
Si Si6 0.764543 0.124791 0.730859
Si Si7 0.500000 0.500000 0.500000
Si Si8 0.736657 0.984113 0.899839
O O1 0.361282 0.663730 0.576997
O O2 0.199956 0.932396 0.776846
O O3 0.331251 0.999007 0.654630
O O4 0.551514 0.873084 0.816766
O O5 0.420950 0.571559 0.805840
O O6 0.500000 0.500000 0.000000
O O7 0.674087 0.754385 0.041202
O O8 0.327279 0.812834 0.013928
O O9 0.965355 0.209540 0.817274
O O10 0.131953 0.099175 0.003724
O O11 0.239171 0.280175 0.619156
O O12 0.259750 0.983852 0.422275
O O13 0.000000 0.000000 0.500000
O O14 0.595845 0.269999 0.741290
O O15 0.479545 0.391280 0.570757
O O16 0.782753 0.989941 0.788137
#
# Coordination Sequence:
#
# PCOD9055725 Si02
#       8
#     2   2   2   2   2   2   1   2
#     4  11  21  43  68  96 132 179 222 272 336 400
#     4  11  22  42  68  96 132 179 219 273 334 399
#     4  11  24  41  68  99 135 177 222 271 334 402
#     4  12  24  45  73  94 132 182 232 270 332 408
#     4  12  24  44  69 101 134 181 221 276 342 396
#     4  12  23  40  71  96 133 174 224 276 324 407
#     4  12  24  38  72 100 136 166 224 280 334 398
#     4  11  22  43  68  96 131 179 224 268 332 401
#
# _framework density 22.395005999999999
#
# number of rings (size 3 to 8) (size 9 to 14) (size 15 to 20)
#    0.000    0.533    5.333    5.600    0.000    0.533 
#    0.000    0.667    2.933    0.000    0.000    0.000 
#    0.000    0.000    0.000    0.000    0.000    0.000 
#
# Total GULP energy -83524.177895 kJ/mol
# GULP energy per Si atom -5568.278526 kJ/mol
# Density = 2.234403 g / cm^3
# Si number density = 22.395006 Si / 1000 Ang^3
#
#
#
# Elastic Constant Matrix: (Units=GPa)
#
#
# Indices 1 2 3 4 5 6 
#
# 1 72.5788 19.8019 31.2040 6.8877 -0.6489 9.1768
# 2 19.8019 75.0701 23.4253 -6.6983 1.9084 22.0167
# 3 31.2040 23.4253 103.2597 -6.2955 -15.0296 13.5367
# 4 6.8877 -6.6983 -6.2955 44.2202 0.7654 -7.2883
# 5 -0.6489 1.9084 -15.0296 0.7654 42.0337 -7.3506
# 6 9.1768 22.0167 13.5367 -7.2883 -7.3506 21.7640
#
#
#
# Elastic Compliance Matrix: (Units=1/GPa)
#
#
# Indices 1 2 3 4 5 6 
#
# 1 0.017354 -0.002172 -0.004745 -0.004384 -0.002005 -0.004314
# 2 -0.002172 0.020710 -0.002131 -0.000123 -0.005327 -0.020550
# 3 -0.004745 -0.002131 0.012535 0.001865 0.004192 -0.001600
# 4 -0.004384 -0.000123 0.001865 0.025137 0.001872 0.009863
# 5 -0.002005 -0.005327 0.004192 0.001872 0.027855 0.013662
# 6 -0.004314 -0.020550 -0.001600 0.009863 0.013662 0.077467
#
#
# Mechanical properties :
#
#
# Convention : Reuss Voigt Hill
#
# Bulk Modulus (GPa) = 30.76561 44.41899 37.59230
# Shear Modulus (GPa) = 23.81076 33.36873 28.58974
#
# Velocity S-wave (km/s) = 3.26424 3.86425 3.57685
# Velocity P-wave (km/s) = 5.28910 6.30772 5.82073
#
# Compressibility (1/GPa) = 0.03250382
#
# Stress axis : x y z
#
# Youngs Moduli (GPa) = 57.62236 48.28575 79.77533
#
# Poissons Ratio (x) = 0.10488 0.37854
# Poissons Ratio (y) = 0.12516 0.16999
# Poissons Ratio (z) = 0.27342 0.10289
#
# Static dielectric constant tensor:
#      x y z
#    x 1.949430 0.038440 0.015870 
#    y 0.038440 1.842020 -0.008990 
#    z 0.015870 -0.008990 1.854230 
# 
# From -- ./inp_files/380453.got.cif
#   From: 2010.05.17/outbox.cif.g08.bks.cpg/sg2_191_cif.got.tgz:380453.got - 2010.06.03 11:33:40.
