data_PCOD9055763
_publ_section_title
;
Structure prediction by ZEFSAII (Michael W. Deem and Ramdas Pophale) SiO2 
 PCOD9055763
Probable space group: P -1
;
_chemical_formula_sum "Si O2"
_cell_formula_units_Z 15
_cell_length_a 15.087318
_cell_length_b 16.425002
_cell_length_c 7.953576
_cell_angle_alpha 89.104885
_cell_angle_beta 103.972994
_cell_angle_gamma 25.546674
_cell_volume 684.517912
_symmetry_space_group_name_H-M "P -1"
_symmetry_group_IT_number 2
_symmetry_cell_setting 'triclinic'
loop_
_space_group_symop_operation_xyz
x,y,z
-x,-y,-z
loop_
_atom_site_type_symbol
_atom_site_label
_atom_site_fract_x
_atom_site_fract_y
_atom_site_fract_z
Si Si1 0.063893 0.993155 0.700188
Si Si2 0.243184 0.478226 0.318571
Si Si3 0.500000 0.500000 0.000000
Si Si4 0.524543 0.218477 0.807317
Si Si5 0.322178 0.070570 0.934436
Si Si6 0.879897 0.241658 0.882061
Si Si7 0.734198 0.011319 0.373670
Si Si8 0.228799 0.603087 0.813594
O O1 0.164219 0.998871 0.692066
O O2 0.859092 0.183211 0.748087
O O3 0.283020 0.755809 0.887689
O O4 0.000000 0.000000 0.500000
O O5 0.354920 0.372027 0.558944
O O6 0.458032 0.263804 0.304397
O O7 0.203081 0.606920 0.255632
O O8 0.967273 0.668262 0.153059
O O9 0.644121 0.431433 0.233973
O O10 0.371546 0.399592 0.868804
O O11 0.554705 0.099930 0.881558
O O12 0.817062 0.005283 0.927077
O O13 0.279311 0.058356 0.740243
O O14 0.500000 0.000000 0.000000
O O15 0.736210 0.372424 0.994236
O O16 0.937177 0.833870 0.623729
#
# Coordination Sequence:
#
# PCOD9055763 Si02
#       8
#     2   2   1   2   2   2   2   2
#     4  12  24  43  63  97 132 174 226 274 324 390
#     4  11  23  42  72  98 129 179 218 268 339 393
#     4  12  24  38  66  90 134 168 226 270 328 374
#     4  11  21  43  70  95 132 168 222 266 331 396
#     4  11  25  45  71 101 134 173 219 276 335 398
#     4  11  23  42  68  94 129 179 223 266 334 387
#     4  12  23  46  69  96 138 176 221 278 329 396
#     4  12  23  43  69  96 131 184 220 276 331 388
#
# _framework density 21.913232000000001
#
# number of rings (size 3 to 8) (size 9 to 14) (size 15 to 20)
#    0.000    0.533    8.000    1.600    0.000    1.600 
#    2.400    2.000    0.000    0.000    0.000    0.000 
#    0.000    0.000    0.000    0.000    0.000    0.000 
#
# Total GULP energy -83631.580872 kJ/mol
# GULP energy per Si atom -5575.438725 kJ/mol
# Density = 2.186336 g / cm^3
# Si number density = 21.913232 Si / 1000 Ang^3
#
#
#
# Elastic Constant Matrix: (Units=GPa)
#
#
# Indices 1 2 3 4 5 6 
#
# 1 93.5886 43.3289 42.9876 0.7270 13.1194 5.9994
# 2 43.3289 151.5472 39.0901 -12.7307 4.6634 -21.6769
# 3 42.9876 39.0901 117.8907 -9.9090 -5.9509 -3.7628
# 4 0.7270 -12.7307 -9.9090 48.6630 0.7844 0.2970
# 5 13.1194 4.6634 -5.9509 0.7844 29.6952 2.4713
# 6 5.9994 -21.6769 -3.7628 0.2970 2.4713 23.1490
#
#
#
# Elastic Compliance Matrix: (Units=1/GPa)
#
#
# Indices 1 2 3 4 5 6 
#
# 1 0.016944 -0.004694 -0.005465 -0.002426 -0.007040 -0.008893
# 2 -0.004694 0.009922 -0.001078 0.002393 -0.000626 0.010369
# 3 -0.005465 -0.001078 0.011292 0.002013 0.004650 0.001720
# 4 -0.002426 0.002393 0.002013 0.021600 0.000289 0.002889
# 5 -0.007040 -0.000626 0.004650 0.000289 0.037980 -0.002065
# 6 -0.008893 0.010369 0.001720 0.002889 -0.002065 0.055675
#
#
# Mechanical properties :
#
#
# Convention : Reuss Voigt Hill
#
# Bulk Modulus (GPa) = 63.76033 68.20442 65.98238
# Shear Modulus (GPa) = 27.60670 36.14276 31.87473
#
# Velocity S-wave (km/s) = 3.55324 4.06563 3.81804
# Velocity P-wave (km/s) = 6.78188 7.29599 7.04363
#
# Compressibility (1/GPa) = 0.01568373
#
# Stress axis : x y z
#
# Youngs Moduli (GPa) = 59.01661 100.78497 88.56164
#
# Poissons Ratio (x) = 0.47309 0.48401
# Poissons Ratio (y) = 0.27702 0.09546
# Poissons Ratio (z) = 0.32254 0.10863
#
# Static dielectric constant tensor:
#      x y z
#    x 1.867020 -0.098780 -0.000870 
#    y -0.098780 1.905980 0.063370 
#    z -0.000870 0.063370 1.901990 
# 
# From -- ./inp_files/315298.got.cif
#   From: 2010.05.17/outbox.cif.g08.bks.cpg/sg2_158_cif.got.tgz:315298.got - 2010.06.03 11:33:40.
