data_PCOD9055391
_publ_section_title
;
Structure prediction by ZEFSAII (Michael W. Deem and Ramdas Pophale) SiO2 
 PCOD9055391
Probable space group: P -1
;
_chemical_formula_sum "Si O2"
_cell_formula_units_Z 16
_cell_length_a 18.671863
_cell_length_b 10.807188
_cell_length_c 6.613082
_cell_angle_alpha 60.833264
_cell_angle_beta 55.629892
_cell_angle_gamma 46.598606
_cell_volume 789.200311
_symmetry_space_group_name_H-M "P -1"
_symmetry_group_IT_number 2
_symmetry_cell_setting 'triclinic'
loop_
_space_group_symop_operation_xyz
x,y,z
-x,-y,-z
loop_
_atom_site_type_symbol
_atom_site_label
_atom_site_fract_x
_atom_site_fract_y
_atom_site_fract_z
Si Si1 0.404236 0.479611 0.639903
Si Si2 0.807347 0.584402 0.651433
Si Si3 0.023595 0.051907 0.210356
Si Si4 0.715984 0.837126 0.975368
Si Si5 0.511402 0.134849 0.000901
Si Si6 0.088763 0.315286 0.918314
Si Si7 0.835548 0.258769 0.040307
Si Si8 0.626982 0.690258 0.538908
O O1 0.500000 0.500000 0.500000
O O2 0.444691 0.312528 0.846272
O O3 0.287313 0.633695 0.782060
O O4 0.393158 0.430678 0.466899
O O5 0.748392 0.724434 0.811224
O O6 0.874368 0.639650 0.380837
O O7 0.729053 0.591047 0.601800
O O8 0.859262 0.399363 0.822294
O O9 0.916171 0.137843 0.183560
O O10 0.046358 0.197251 0.058629
O O11 0.000000 0.000000 0.500000
O O12 0.126172 0.878676 0.090772
O O13 0.637612 0.038643 0.886609
O O14 0.816541 0.781268 0.993388
O O15 0.650693 0.790812 0.259517
O O16 0.466425 0.180133 0.263624
O O17 0.500000 0.000000 0.000000
O O18 0.000000 0.500000 0.000000
#
# Coordination Sequence:
#
# PCOD9055391 Si02
#       8
#     2   2   2   2   2   2   2   2
#     4  12  28  43  66 103 140 186 233 285 347 423
#     4  11  22  43  74  96 138 178 231 289 339 412
#     4  11  27  45  73 101 139 186 227 286 353 416
#     4  11  23  39  68 103 133 175 227 292 333 406
#     4  12  22  41  66  99 133 180 232 276 343 406
#     4  11  26  42  70 109 132 176 233 284 351 407
#     4  11  24  48  68  98 139 187 232 283 350 412
#     4  11  21  41  70  95 135 184 225 276 351 401
#
# _framework density 20.273688
#
# number of rings (size 3 to 8) (size 9 to 14) (size 15 to 20)
#    0.000    0.750    5.000    1.875    3.500    7.500 
#    0.000    0.000    0.000    0.000    0.000    0.000 
#    0.000    0.000    0.000    0.000    0.000    0.000 
#
# Total GULP energy -89328.458744 kJ/mol
# GULP energy per Si atom -5583.028672 kJ/mol
# Density = 2.022754 g / cm^3
# Si number density = 20.273688 Si / 1000 Ang^3
#
#
#
# Elastic Constant Matrix: (Units=GPa)
#
#
# Indices 1 2 3 4 5 6 
#
# 1 58.8948 18.4991 43.4961 20.5635 -4.2469 6.7301
# 2 18.4991 131.3464 63.8642 35.2211 -4.2392 -2.6590
# 3 43.4961 63.8642 141.1240 19.2135 12.3370 17.4911
# 4 20.5635 35.2211 19.2135 31.7124 1.9811 8.1799
# 5 -4.2469 -4.2392 12.3370 1.9811 34.0842 -5.7510
# 6 6.7301 -2.6590 17.4911 8.1799 -5.7510 39.5805
#
#
#
# Elastic Compliance Matrix: (Units=1/GPa)
#
#
# Indices 1 2 3 4 5 6 
#
# 1 0.032941 0.009436 -0.012895 -0.026941 0.012890 0.008172
# 2 0.009436 0.017923 -0.010015 -0.023245 0.010119 0.010300
# 3 -0.012895 -0.010015 0.016009 0.013019 -0.011066 -0.009853
# 4 -0.026941 -0.023245 0.013019 0.073422 -0.018708 -0.020626
# 5 0.012890 0.010119 -0.011066 -0.018708 0.039487 0.012982
# 6 0.008172 0.010300 -0.009853 -0.020626 0.012982 0.035070
#
#
# Mechanical properties :
#
#
# Convention : Reuss Voigt Hill
#
# Bulk Modulus (GPa) = 25.04729 64.78711 44.91720
# Shear Modulus (GPa) = 19.59949 34.77580 27.18765
#
# Velocity S-wave (km/s) = 3.11263 4.14613 3.66598
# Velocity P-wave (km/s) = 5.02984 7.41257 6.33425
#
# Compressibility (1/GPa) = 0.03992447
#
# Stress axis : x y z
#
# Youngs Moduli (GPa) = 30.35706 55.79516 62.46521
#
# Poissons Ratio (x) = -0.52650 0.80548
# Poissons Ratio (y) = -0.28646 0.62562
# Poissons Ratio (z) = 0.39145 0.55882
#
# Static dielectric constant tensor:
#      x y z
#    x 1.838060 -0.097740 -0.038080 
#    y -0.097740 1.801510 0.018790 
#    z -0.038080 0.018790 1.754690 
# 
# From -- ./inp_files/46216.got.cif
#   From: 2010.05.17/outbox.cif.g08.bks.cpg/sg2_24_cif.got.tgz:46216.got - 2010.06.03 11:33:40.
