data_PCOD9055634
_publ_section_title
;
Structure prediction by ZEFSAII (Michael W. Deem and Ramdas Pophale) SiO2 
 PCOD9055634
Probable space group: P -1
;
_chemical_formula_sum "Si O2"
_cell_formula_units_Z 16
_cell_length_a 9.761508
_cell_length_b 12.434054
_cell_length_c 15.477272
_cell_angle_alpha 133.791801
_cell_angle_beta 33.929314
_cell_angle_gamma 115.122301
_cell_volume 702.762442
_symmetry_space_group_name_H-M "P -1"
_symmetry_group_IT_number 2
_symmetry_cell_setting 'triclinic'
loop_
_space_group_symop_operation_xyz
x,y,z
-x,-y,-z
loop_
_atom_site_type_symbol
_atom_site_label
_atom_site_fract_x
_atom_site_fract_y
_atom_site_fract_z
Si Si1 0.865599 0.558665 0.011468
Si Si2 0.317837 0.323448 0.429838
Si Si3 0.737413 0.830326 0.954784
Si Si4 0.988815 0.756918 0.596264
Si Si5 0.236155 0.066126 0.420944
Si Si6 0.844680 0.333787 0.227832
Si Si7 0.601405 0.090867 0.569214
Si Si8 0.544146 0.540608 0.900624
O O1 0.619312 0.729273 0.222382
O O2 0.727807 0.434560 0.990570
O O3 0.000000 0.500000 0.000000
O O4 0.072173 0.586832 0.853977
O O5 0.157147 0.252477 0.541098
O O6 0.609113 0.280550 0.292331
O O7 0.225271 0.517542 0.585278
O O8 0.261580 0.257402 0.331226
O O9 0.616914 0.694256 0.953121
O O10 0.907528 0.791725 0.757368
O O11 0.926316 0.811635 0.927798
O O12 0.475425 0.987976 0.184176
O O13 0.116970 0.888327 0.578480
O O14 0.219853 0.592672 0.350539
O O15 0.366376 0.005467 0.411845
O O16 0.000000 0.000000 0.500000
O O17 0.500000 0.000000 0.500000
O O18 0.500000 0.500000 0.000000
#
# Coordination Sequence:
#
# PCOD9055634 Si02
#       8
#     2   2   2   2   2   2   2   2
#     4  11  25  42  69 102 136 183 240 291 345 422
#     4  11  26  43  70 102 145 182 237 292 358 427
#     4  12  25  43  73 103 140 191 231 298 366 421
#     4  11  24  45  70 106 142 180 241 292 353 430
#     4  12  27  49  72 102 142 194 239 296 366 431
#     4  11  25  45  70 103 142 187 238 294 359 423
#     4  11  26  47  70 102 141 185 236 297 360 423
#     4  11  21  42  73 100 139 183 234 291 347 424
#
# _framework density 22.767294
#
# number of rings (size 3 to 8) (size 9 to 14) (size 15 to 20)
#    0.000    0.750    5.000    1.125    7.000    4.000 
#    0.000    0.000    0.000    0.000    0.000    0.000 
#    0.000    0.000    0.000    0.000    0.000    0.000 
#
# Total GULP energy -89300.446416 kJ/mol
# GULP energy per Si atom -5581.277901 kJ/mol
# Density = 2.271548 g / cm^3
# Si number density = 22.767294 Si / 1000 Ang^3
#
#
#
# Elastic Constant Matrix: (Units=GPa)
#
#
# Indices 1 2 3 4 5 6 
#
# 1 147.1811 9.2168 8.9430 -18.2125 -9.9183 10.5642
# 2 9.2168 74.3688 1.7168 -16.4524 3.9784 16.9185
# 3 8.9430 1.7168 64.6808 -12.5475 1.4861 -3.0788
# 4 -18.2125 -16.4524 -12.5475 26.9839 -4.4403 1.1237
# 5 -9.9183 3.9784 1.4861 -4.4403 27.1364 -9.6567
# 6 10.5642 16.9185 -3.0788 1.1237 -9.6567 56.8283
#
#
#
# Elastic Compliance Matrix: (Units=1/GPa)
#
#
# Indices 1 2 3 4 5 6 
#
# 1 0.007842 0.000473 -0.000032 0.006174 0.003402 -0.001144
# 2 0.000473 0.017346 0.001465 0.011381 -0.002670 -0.005851
# 3 -0.000032 0.001465 0.017163 0.008907 0.000432 0.000397
# 4 0.006174 0.011381 0.008907 0.053704 0.007523 -0.003837
# 5 0.003402 -0.002670 0.000432 0.007523 0.042262 0.007219
# 6 -0.001144 -0.005851 0.000397 -0.003837 0.007219 0.020876
#
#
# Mechanical properties :
#
#
# Convention : Reuss Voigt Hill
#
# Bulk Modulus (GPa) = 21.66249 36.22044 28.94146
# Shear Modulus (GPa) = 29.27947 39.94666 34.61306
#
# Velocity S-wave (km/s) = 3.59002 4.19329 3.90333
# Velocity P-wave (km/s) = 5.16911 6.27602 5.74927
#
# Compressibility (1/GPa) = 0.04616275
#
# Stress axis : x y z
#
# Youngs Moduli (GPa) = 127.51842 57.65095 58.26529
#
# Poissons Ratio (x) = -0.02727 0.00185
# Poissons Ratio (y) = -0.06032 -0.08534
# Poissons Ratio (z) = 0.00405 -0.08444
#
# Static dielectric constant tensor:
#      x y z
#    x 1.897750 -0.023760 -0.032430 
#    y -0.023760 2.013220 0.355050 
#    z -0.032430 0.355050 2.550890 
# 
# From -- ./inp_files/500770.got.cif
#   From: 2010.05.17/outbox.cif.g08.bks.cpg/sg2_251_cif.got.tgz:500770.got - 2010.06.03 11:33:40.
