data_PCOD9055459
_publ_section_title
;
Structure prediction by ZEFSAII (Michael W. Deem and Ramdas Pophale) SiO2 
 PCOD9055459
Probable space group: P -1
;
_chemical_formula_sum "Si O2"
_cell_formula_units_Z 16
_cell_length_a 7.333600
_cell_length_b 11.895590
_cell_length_c 9.307087
_cell_angle_alpha 93.112285
_cell_angle_beta 125.554871
_cell_angle_gamma 95.820026
_cell_volume 650.679858
_symmetry_space_group_name_H-M "P -1"
_symmetry_group_IT_number 2
_symmetry_cell_setting 'triclinic'
loop_
_space_group_symop_operation_xyz
x,y,z
-x,-y,-z
loop_
_atom_site_type_symbol
_atom_site_label
_atom_site_fract_x
_atom_site_fract_y
_atom_site_fract_z
Si Si1 0.556243 0.909817 0.326948
Si Si2 0.321017 0.505755 0.297705
Si Si3 0.303115 0.165622 0.914162
Si Si4 0.988316 0.070616 0.282101
Si Si5 0.608071 0.147842 0.315111
Si Si6 0.478452 0.613920 0.084904
Si Si7 0.807436 0.267720 0.696752
Si Si8 0.017441 0.723600 0.921083
O O1 0.550432 0.885603 0.151540
O O2 0.418568 0.802156 0.336344
O O3 0.801873 0.925804 0.513591
O O4 0.474225 0.031595 0.318607
O O5 0.500000 0.500000 0.500000
O O6 0.162630 0.596001 0.278901
O O7 0.182045 0.382787 0.195004
O O8 0.459525 0.566599 0.232688
O O9 0.096193 0.059118 0.818072
O O10 0.436213 0.190471 0.127034
O O11 0.307107 0.288669 0.848133
O O12 0.791720 0.106683 0.292818
O O13 0.021481 0.166613 0.180244
O O14 0.754683 0.225158 0.507093
O O15 0.245171 0.671483 0.969510
O O16 0.500000 0.500000 0.000000
O O17 0.973075 0.245428 0.902613
#
# Coordination Sequence:
#
# PCOD9055459 Si02
#       8
#     2   2   2   2   2   2   2   2
#     4  11  21  42  63  97 135 174 219 271 335 395
#     4  11  25  46  68  95 132 178 221 272 334 396
#     4  11  21  42  68  95 135 172 216 271 337 385
#     4  11  23  42  67  98 133 175 219 273 333 398
#     4  11  22  38  67  96 129 170 223 270 330 392
#     4  11  24  44  71  97 131 174 228 275 324 396
#     4  11  22  42  64  93 129 177 219 275 327 394
#     4  11  23  48  69  94 135 181 218 272 340 392
#
# _framework density 24.589663000000002
#
# number of rings (size 3 to 8) (size 9 to 14) (size 15 to 20)
#    0.000    1.000    3.750    6.375    1.750    0.000 
#    9.000    2.500    0.000    0.000    0.000    0.000 
#    0.000    0.000    0.000    0.000    0.000    0.000 
#
# Total GULP energy -89360.565939 kJ/mol
# GULP energy per Si atom -5585.035371 kJ/mol
# Density = 2.453370 g / cm^3
# Si number density = 24.589663 Si / 1000 Ang^3
#
#
#
# Elastic Constant Matrix: (Units=GPa)
#
#
# Indices 1 2 3 4 5 6 
#
# 1 49.5989 42.0584 37.2521 -2.8209 -7.1608 9.9967
# 2 42.0584 197.7854 98.0688 21.6159 -13.3947 27.2584
# 3 37.2521 98.0688 208.6395 7.8578 -7.2178 5.2350
# 4 -2.8209 21.6159 7.8578 55.5150 -6.8244 -0.0764
# 5 -7.1608 -13.3947 -7.2178 -6.8244 39.5785 5.6358
# 6 9.9967 27.2584 5.2350 -0.0764 5.6358 40.9813
#
#
#
# Elastic Compliance Matrix: (Units=1/GPa)
#
#
# Indices 1 2 3 4 5 6 
#
# 1 0.027399 -0.003897 -0.002946 0.003859 0.004381 -0.004311
# 2 -0.003897 0.008412 -0.002977 -0.002843 0.001751 -0.004510
# 3 -0.002946 -0.002977 0.006649 -0.000003 -0.000604 0.001933
# 4 0.003859 -0.002843 -0.000003 0.019692 0.003050 0.000567
# 5 0.004381 0.001751 -0.000604 0.003050 0.027920 -0.005990
# 6 -0.004311 -0.004510 0.001933 0.000567 -0.005990 0.029031
#
#
# Mechanical properties :
#
#
# Convention : Reuss Voigt Hill
#
# Bulk Modulus (GPa) = 43.82082 90.08693 66.95388
# Shear Modulus (GPa) = 34.16457 45.79125 39.97791
#
# Velocity S-wave (km/s) = 3.73149 4.32002 4.03650
# Velocity P-wave (km/s) = 6.03530 7.84851 7.00086
#
# Compressibility (1/GPa) = 0.02282020
#
# Stress axis : x y z
#
# Youngs Moduli (GPa) = 36.49707 118.88244 150.39450
#
# Poissons Ratio (x) = 0.46323 0.44309
# Poissons Ratio (y) = 0.14221 0.44777
# Poissons Ratio (z) = 0.10753 0.35395
#
# Static dielectric constant tensor:
#      x y z
#    x 2.130530 -0.121080 0.152420 
#    y -0.121080 2.107050 -0.184590 
#    z 0.152420 -0.184590 2.146470 
# 
# From -- ./inp_files/188068.got.cif
#   From: 2010.05.17/outbox.cif.g08.bks.cpg/sg2_95_cif.got.tgz:188068.got - 2010.06.03 11:33:40.
