data_PCOD9055907
_publ_section_title
;
Structure prediction by ZEFSAII (Michael W. Deem and Ramdas Pophale) SiO2 
 PCOD9055907
Probable space group: P -1
;
_chemical_formula_sum "Si O2"
_cell_formula_units_Z 16
_cell_length_a 10.574807
_cell_length_b 8.758899
_cell_length_c 9.596282
_cell_angle_alpha 121.749895
_cell_angle_beta 97.789597
_cell_angle_gamma 57.336334
_cell_volume 622.464051
_symmetry_space_group_name_H-M "P -1"
_symmetry_group_IT_number 2
_symmetry_cell_setting 'triclinic'
loop_
_space_group_symop_operation_xyz
x,y,z
-x,-y,-z
loop_
_atom_site_type_symbol
_atom_site_label
_atom_site_fract_x
_atom_site_fract_y
_atom_site_fract_z
Si Si1 0.679099 0.965760 0.124761
Si Si2 0.689619 0.345469 0.307633
Si Si3 0.863356 0.698816 0.765745
Si Si4 0.869215 0.762907 0.339125
Si Si5 0.248960 0.709255 0.023813
Si Si6 0.360548 0.226429 0.472023
Si Si7 0.482838 0.210038 0.854264
Si Si8 0.985929 0.897280 0.660932
O O1 0.788944 0.858951 0.226190
O O2 0.604524 0.221939 0.245405
O O3 0.780884 0.873088 0.958133
O O4 0.563277 0.890199 0.079546
O O5 0.589985 0.605089 0.420224
O O6 0.831048 0.233681 0.382216
O O7 0.775913 0.274560 0.136932
O O8 0.738039 0.700060 0.650859
O O9 0.948967 0.762082 0.698503
O O10 0.975213 0.473427 0.751065
O O11 0.757305 0.732377 0.404826
O O12 0.907996 0.906686 0.507651
O O13 0.338485 0.455228 0.942734
O O14 0.099284 0.866228 0.168205
O O15 0.370794 0.774194 0.105035
O O16 0.474400 0.968810 0.344312
#
# Coordination Sequence:
#
# PCOD9055907 Si02
#       8
#     2   2   2   2   2   2   2   2
#     4  12  28  41  65 106 148 179 218 284 352 403
#     4  12  24  42  74 105 135 178 229 286 350 404
#     4  11  21  44  70 103 138 182 222 289 348 398
#     4  11  22  43  71 105 135 176 230 292 344 391
#     4  11  24  45  74  99 128 190 234 279 329 408
#     4  11  22  46  75  95 135 187 235 275 329 416
#     4  11  26  48  66 102 140 185 235 276 330 414
#     4  11  21  44  75 103 132 175 241 281 338 413
#
# _framework density 25.704294999999998
#
# number of rings (size 3 to 8) (size 9 to 14) (size 15 to 20)
#    0.000    0.750    6.250    2.250    0.000    6.000 
#    2.250    0.000    0.000    0.000    0.000    0.000 
#    0.000    0.000    0.000    0.000    0.000    0.000 
#
# Total GULP energy -89600.055996 kJ/mol
# GULP energy per Si atom -5600.003500 kJ/mol
# Density = 2.564579 g / cm^3
# Si number density = 25.704295 Si / 1000 Ang^3
#
#
#
# Elastic Constant Matrix: (Units=GPa)
#
#
# Indices 1 2 3 4 5 6 
#
# 1 65.8632 27.6659 5.9226 18.0992 15.1886 15.4177
# 2 27.6659 121.9983 49.5035 35.8932 14.7554 20.9697
# 3 5.9226 49.5035 122.4730 18.6700 12.2445 8.9563
# 4 18.0992 35.8932 18.6700 58.1626 1.7482 3.6746
# 5 15.1886 14.7554 12.2445 1.7482 27.9604 7.1470
# 6 15.4177 20.9697 8.9563 3.6746 7.1470 38.7104
#
#
#
# Elastic Compliance Matrix: (Units=1/GPa)
#
#
# Indices 1 2 3 4 5 6 
#
# 1 0.020667 -0.001826 0.001878 -0.005281 -0.009363 -0.005446
# 2 -0.001826 0.012891 -0.003636 -0.005862 -0.002739 -0.004352
# 3 0.001878 -0.003636 0.010130 -0.001468 -0.003353 -0.000364
# 4 -0.005281 -0.005862 -0.001468 0.022623 0.004517 0.002637
# 5 -0.009363 -0.002739 -0.003353 0.004517 0.044144 -0.002590
# 6 -0.005446 -0.004352 -0.000364 0.002637 -0.002590 0.030672
#
#
# Mechanical properties :
#
#
# Convention : Reuss Voigt Hill
#
# Bulk Modulus (GPa) = 27.38368 52.94650 40.16509
# Shear Modulus (GPa) = 31.15896 40.11618 35.63757
#
# Velocity S-wave (km/s) = 3.48546 3.95483 3.72754
# Velocity P-wave (km/s) = 5.18405 6.44184 5.84686
#
# Compressibility (1/GPa) = 0.03651810
#
# Stress axis : x y z
#
# Youngs Moduli (GPa) = 48.38709 77.57617 98.72040
#
# Poissons Ratio (x) = 0.14168 -0.18542
# Poissons Ratio (y) = 0.08837 0.35898
# Poissons Ratio (z) = -0.09088 0.28209
#
# Static dielectric constant tensor:
#      x y z
#    x 2.042840 -0.007570 0.035800 
#    y -0.007570 2.049390 -0.008850 
#    z 0.035800 -0.008850 2.034050 
# 
# From -- ./inp_files/245562.got.cif
#   From: 2010.05.17/outbox.cif.g08.bks.cpg/sg2_123_cif.got.tgz:245562.got - 2010.06.03 11:33:40.
