data_PCOD9055385
_publ_section_title
;
Structure prediction by ZEFSAII (Michael W. Deem and Ramdas Pophale) SiO2 
 PCOD9055385
Probable space group: P -1
;
_chemical_formula_sum "Si O2"
_cell_formula_units_Z 16
_cell_length_a 10.397701
_cell_length_b 8.463312
_cell_length_c 16.326161
_cell_angle_alpha 125.850865
_cell_angle_beta 101.278449
_cell_angle_gamma 45.508792
_cell_volume 771.217311
_symmetry_space_group_name_H-M "P -1"
_symmetry_group_IT_number 2
_symmetry_cell_setting 'triclinic'
loop_
_space_group_symop_operation_xyz
x,y,z
-x,-y,-z
loop_
_atom_site_type_symbol
_atom_site_label
_atom_site_fract_x
_atom_site_fract_y
_atom_site_fract_z
Si Si1 0.710219 0.850251 0.398097
Si Si2 0.707995 0.737431 0.189534
Si Si3 0.743012 0.468813 0.817147
Si Si4 0.861908 0.780345 0.958416
Si Si5 0.472266 0.334131 0.990827
Si Si6 0.080094 0.991931 0.592985
Si Si7 0.309418 0.480687 0.593737
Si Si8 0.673675 0.134271 0.199605
O O1 0.644895 0.796506 0.293727
O O2 0.848080 0.868668 0.382919
O O3 0.784391 0.610787 0.402497
O O4 0.527493 0.168320 0.507983
O O5 0.584242 0.766939 0.112948
O O6 0.925617 0.415363 0.109507
O O7 0.702194 0.970298 0.233046
O O8 0.816960 0.602978 0.887531
O O9 0.538487 0.681367 0.807798
O O10 0.906877 0.193545 0.698847
O O11 0.689415 0.453046 0.895478
O O12 0.679077 0.069341 0.977104
O O13 0.834352 0.884068 0.079109
O O14 0.500000 0.500000 0.000000
O O15 0.225905 0.676219 0.559721
O O16 0.000000 0.000000 0.500000
O O17 0.308553 0.660038 0.712569
#
# Coordination Sequence:
#
# PCOD9055385 Si02
#       8
#     2   2   2   2   2   2   2   2
#     4  11  26  46  67 101 135 180 236 287 353 415
#     4  12  23  40  73  97 135 186 230 277 348 419
#     4  11  22  43  64 100 137 176 230 283 349 414
#     4  11  22  41  65  98 132 178 231 273 343 415
#     4  11  26  42  62 103 146 181 224 287 344 411
#     4  12  26  44  73 101 132 183 236 287 356 419
#     4  11  26  46  68  98 137 179 234 292 350 419
#     4  11  21  41  70  93 133 179 225 285 345 414
#
# _framework density 20.746423
#
# number of rings (size 3 to 8) (size 9 to 14) (size 15 to 20)
#    0.000    0.750    5.000    2.250    7.000    2.000 
#    0.000    0.000    0.000    0.000    0.000    0.000 
#    0.000    0.000    0.000    0.000    0.000    0.000 
#
# Total GULP energy -89252.676192 kJ/mol
# GULP energy per Si atom -5578.292262 kJ/mol
# Density = 2.069920 g / cm^3
# Si number density = 20.746423 Si / 1000 Ang^3
#
#
#
# Elastic Constant Matrix: (Units=GPa)
#
#
# Indices 1 2 3 4 5 6 
#
# 1 308.1473 17.8428 237.4665 -10.3489 -71.7212 -34.3451
# 2 17.8428 85.1157 -2.2339 -6.2543 18.1482 21.8499
# 3 237.4665 -2.2339 298.4948 -6.2111 -60.5569 -37.7986
# 4 -10.3489 -6.2543 -6.2111 37.1314 -3.2445 -0.0086
# 5 -71.7212 18.1482 -60.5569 -3.2445 47.7433 16.6711
# 6 -34.3451 21.8499 -37.7986 -0.0086 16.6711 41.9792
#
#
#
# Elastic Compliance Matrix: (Units=1/GPa)
#
#
# Indices 1 2 3 4 5 6 
#
# 1 0.011286 -0.004948 -0.006760 0.002034 0.009752 0.001849
# 2 -0.004948 0.017000 0.001107 0.000828 -0.009612 -0.008082
# 3 -0.006760 0.001107 0.009012 -0.000175 0.000165 0.001942
# 4 0.002034 0.000828 -0.000175 0.028018 0.004696 -0.000784
# 5 0.009752 -0.009612 0.000165 0.004696 0.040857 -0.003095
# 6 0.001849 -0.008082 0.001942 -0.000784 -0.003095 0.032518
#
#
# Mechanical properties :
#
#
# Convention : Reuss Voigt Hill
#
# Bulk Modulus (GPa) = 62.12732 133.10097 97.61415
# Shear Modulus (GPa) = 30.25548 54.61626 42.43587
#
# Velocity S-wave (km/s) = 3.82297 5.13642 4.52758
# Velocity P-wave (km/s) = 7.03547 9.97359 8.63048
#
# Compressibility (1/GPa) = 0.01609598
#
# Stress axis : x y z
#
# Youngs Moduli (GPa) = 88.60899 58.82351 110.96036
#
# Poissons Ratio (x) = 0.29104 0.75012
# Poissons Ratio (y) = 0.43842 -0.12285
# Poissons Ratio (z) = 0.59902 -0.06513
#
# Static dielectric constant tensor:
#      x y z
#    x 1.761170 0.038490 0.023450 
#    y 0.038490 1.718010 -0.010010 
#    z 0.023450 -0.010010 1.758240 
# 
# From -- ./inp_files/514622.got.cif
#   From: 2010.05.17/outbox.cif.g08.bks.cpg/sg2_258_cif.got.tgz:514622.got - 2010.06.03 11:33:40.
