data_PCOD9055358
_publ_section_title
;
Structure prediction by ZEFSAII (Michael W. Deem and Ramdas Pophale) SiO2 
 PCOD9055358
Probable space group: P -1
;
_chemical_formula_sum "Si O2"
_cell_formula_units_Z 16
_cell_length_a 12.653156
_cell_length_b 10.018017
_cell_length_c 5.529681
_cell_angle_alpha 93.453879
_cell_angle_beta 90.529684
_cell_angle_gamma 117.852832
_cell_volume 618.055153
_symmetry_space_group_name_H-M "P -1"
_symmetry_group_IT_number 2
_symmetry_cell_setting 'triclinic'
loop_
_space_group_symop_operation_xyz
x,y,z
-x,-y,-z
loop_
_atom_site_type_symbol
_atom_site_label
_atom_site_fract_x
_atom_site_fract_y
_atom_site_fract_z
Si Si1 0.140977 0.102503 0.522657
Si Si2 0.277682 0.988769 0.266096
Si Si3 0.291086 0.609360 0.661827
Si Si4 0.559549 0.150478 0.677764
Si Si5 0.111162 0.466897 0.253040
Si Si6 0.232614 0.293836 0.037039
Si Si7 0.854279 0.262223 0.053888
Si Si8 0.466610 0.282597 0.085726
O O1 0.183128 0.197981 0.278376
O O2 0.207023 0.997288 0.497207
O O3 0.182108 0.201725 0.777446
O O4 0.000000 0.000000 0.500000
O O5 0.334521 0.877358 0.219845
O O6 0.389496 0.154782 0.267300
O O7 0.177046 0.906871 0.048946
O O8 0.372088 0.693639 0.442065
O O9 0.172219 0.481924 0.517719
O O10 0.245678 0.719668 0.790601
O O11 0.397593 0.608190 0.822369
O O12 0.500000 0.000000 0.500000
O O13 0.474914 0.175303 0.864505
O O14 0.188559 0.420167 0.067761
O O15 0.975851 0.337383 0.221167
O O16 0.115360 0.620176 0.162590
O O17 0.375028 0.347917 0.042603
#
# Coordination Sequence:
#
# PCOD9055358 Si02
#       8
#     2   2   2   2   2   2   2   2
#     4  11  25  47  74 106 144 190 244 296 361 425
#     4  11  21  41  69 105 136 178 228 304 364 418
#     4  12  23  41  68 102 137 185 237 294 355 427
#     4  12  21  37  66 101 138 172 229 293 363 419
#     4  11  26  46  69  97 143 192 241 289 349 432
#     4  11  27  47  72 105 147 193 238 294 356 433
#     4  11  24  45  68 105 137 182 241 297 360 420
#     4  11  24  42  67 103 144 177 236 296 365 428
#
# _framework density 25.887657000000001
#
# number of rings (size 3 to 8) (size 9 to 14) (size 15 to 20)
#    0.000    0.750    3.750    3.375    3.500    3.500 
#    0.000    2.500    0.000    0.000    0.000    0.000 
#    0.000    0.000    0.000    0.000    0.000    0.000 
#
# Total GULP energy -89349.339567 kJ/mol
# GULP energy per Si atom -5584.333723 kJ/mol
# Density = 2.582874 g / cm^3
# Si number density = 25.887657 Si / 1000 Ang^3
#
#
#
# Elastic Constant Matrix: (Units=GPa)
#
#
# Indices 1 2 3 4 5 6 
#
# 1 165.9874 36.1288 52.2663 8.3789 0.6415 4.0805
# 2 36.1288 52.1933 24.4344 0.4597 21.5783 -4.1997
# 3 52.2663 24.4344 159.5848 28.1028 10.5775 0.8928
# 4 8.3789 0.4597 28.1028 35.0571 8.0934 -4.0813
# 5 0.6415 21.5783 10.5775 8.0934 52.6615 12.4241
# 6 4.0805 -4.1997 0.8928 -4.0813 12.4241 41.7216
#
#
#
# Elastic Compliance Matrix: (Units=1/GPa)
#
#
# Indices 1 2 3 4 5 6 
#
# 1 0.008120 -0.006715 -0.001552 -0.001833 0.003901 -0.002778
# 2 -0.006715 0.032843 -0.003344 0.008767 -0.016355 0.009762
# 3 -0.001552 -0.003344 0.008408 -0.006723 0.001048 -0.001335
# 4 -0.001833 0.008767 -0.006723 0.037407 -0.009805 0.007785
# 5 0.003901 -0.016355 0.001048 -0.009805 0.029739 -0.011865
# 6 -0.002778 0.009762 -0.001335 0.007785 -0.011865 0.029546
#
#
# Mechanical properties :
#
#
# Convention : Reuss Voigt Hill
#
# Bulk Modulus (GPa) = 38.23986 67.04715 52.64351
# Shear Modulus (GPa) = 28.08956 43.55045 35.82001
#
# Velocity S-wave (km/s) = 3.29759 4.10602 3.72381
# Velocity P-wave (km/s) = 5.41317 6.95950 6.23446
#
# Compressibility (1/GPa) = 0.02615072
#
# Stress axis : x y z
#
# Youngs Moduli (GPa) = 123.14551 30.44791 118.92929
#
# Poissons Ratio (x) = 0.20446 0.18454
# Poissons Ratio (y) = 0.82692 0.39768
# Poissons Ratio (z) = 0.19108 0.10181
#
# Static dielectric constant tensor:
#      x y z
#    x 2.179200 -0.045890 0.216010 
#    y -0.045890 2.164990 -0.065620 
#    z 0.216010 -0.065620 2.223050 
# 
# From -- ./inp_files/71856.got.cif
#   From: 2010.05.17/outbox.cif.g08.bks.cpg/sg2_36_cif.got.tgz:71856.got - 2010.06.03 11:33:40.
