data_PCOD9055679
_publ_section_title
;
Structure prediction by ZEFSAII (Michael W. Deem and Ramdas Pophale) SiO2 
 PCOD9055679
Probable space group: P -1
;
_chemical_formula_sum "Si O2"
_cell_formula_units_Z 14
_cell_length_a 5.223728
_cell_length_b 32.298162
_cell_length_c 13.185347
_cell_angle_alpha 160.932912
_cell_angle_beta 59.029213
_cell_angle_gamma 123.380632
_cell_volume 606.714686
_symmetry_space_group_name_H-M "P -1"
_symmetry_group_IT_number 2
_symmetry_cell_setting 'triclinic'
loop_
_space_group_symop_operation_xyz
x,y,z
-x,-y,-z
loop_
_atom_site_type_symbol
_atom_site_label
_atom_site_fract_x
_atom_site_fract_y
_atom_site_fract_z
Si Si1 0.667278 0.166848 0.255053
Si Si2 0.861406 0.249195 0.203068
Si Si3 0.841508 0.524251 0.846036
Si Si4 0.733417 0.237095 0.791608
Si Si5 0.535224 0.850523 0.143091
Si Si6 0.805398 0.607964 0.272553
Si Si7 0.693536 0.868843 0.555455
O O1 0.614141 0.216412 0.269052
O O2 0.455513 0.189658 0.443615
O O3 0.998827 0.252868 0.414107
O O4 0.654493 0.015378 0.899561
O O5 0.007118 0.403469 0.540211
O O6 0.691732 0.213168 0.048117
O O7 0.115030 0.164606 0.974892
O O8 0.493455 0.442633 0.714904
O O9 0.789231 0.599690 0.134409
O O10 0.026829 0.627095 0.967485
O O11 0.566724 0.223940 0.902650
O O12 0.491565 0.204608 0.673087
O O13 0.953064 0.135592 0.520976
O O14 0.500000 0.000000 0.500000
O O15 0.000000 0.500000 0.000000
#
# Coordination Sequence:
#
# PCOD9055679 Si02
#       7
#     2   2   2   2   2   2   2
#     4  11  23  43  71 104 143 176 234 287 354 418
#     4  12  26  44  72 103 135 184 236 287 341 417
#     4  11  26  39  71 102 142 186 229 287 350 416
#     4  12  26  48  69 101 144 184 234 286 348 412
#     4  12  27  49  73  97 137 189 237 288 343 410
#     4  11  21  43  65 103 147 187 225 277 355 429
#     4  11  26  42  71 106 139 182 226 293 354 412
#
# _framework density 23.075098000000001
#
# number of rings (size 3 to 8) (size 9 to 14) (size 15 to 20)
#    0.000    0.571    2.857    4.714    2.000    5.714 
#    0.000    0.000    0.000    0.000    0.000    0.000 
#    0.000    0.000    0.000    0.000    0.000    0.000 
#
# Total GULP energy -78267.023070 kJ/mol
# GULP energy per Si atom -5590.501648 kJ/mol
# Density = 2.302258 g / cm^3
# Si number density = 23.075098 Si / 1000 Ang^3
#
#
#
# Elastic Constant Matrix: (Units=GPa)
#
#
# Indices 1 2 3 4 5 6 
#
# 1 83.6690 21.9874 27.8362 -13.5901 -4.6648 -7.5413
# 2 21.9874 158.2482 35.9975 -9.9942 23.9333 -16.2317
# 3 27.8362 35.9975 93.3521 -1.5012 16.2814 -14.8930
# 4 -13.5901 -9.9942 -1.5012 39.2835 2.4732 0.2633
# 5 -4.6648 23.9333 16.2814 2.4732 27.4843 3.2472
# 6 -7.5413 -16.2317 -14.8930 0.2633 3.2472 35.2187
#
#
#
# Elastic Compliance Matrix: (Units=1/GPa)
#
#
# Indices 1 2 3 4 5 6 
#
# 1 0.015087 -0.001747 -0.004978 0.004166 0.006695 -0.000328
# 2 -0.001747 0.008441 -0.000702 0.001986 -0.007874 0.003931
# 3 -0.004978 -0.000702 0.015110 -0.000745 -0.009816 0.005911
# 4 0.004166 0.001986 -0.000745 0.027568 -0.003249 0.001586
# 5 0.006695 -0.007874 -0.009816 -0.003249 0.051796 -0.011098
# 6 -0.000328 0.003931 0.005911 0.001586 -0.011098 0.033646
#
#
# Mechanical properties :
#
#
# Convention : Reuss Voigt Hill
#
# Bulk Modulus (GPa) = 42.04323 56.32347 49.18335
# Shear Modulus (GPa) = 28.66461 37.02718 32.84590
#
# Velocity S-wave (km/s) = 3.52835 4.01014 3.77694
# Velocity P-wave (km/s) = 5.90413 6.77520 6.35461
#
# Compressibility (1/GPa) = 0.02378504
#
# Stress axis : x y z
#
# Youngs Moduli (GPa) = 66.28023 118.46911 66.18030
#
# Poissons Ratio (x) = 0.20696 0.32946
# Poissons Ratio (y) = 0.11579 0.04643
# Poissons Ratio (z) = 0.32996 0.08312
#
# Static dielectric constant tensor:
#      x y z
#    x 1.910120 -0.013240 -0.012270 
#    y -0.013240 1.849930 -0.060950 
#    z -0.012270 -0.060950 1.861130 
# 
# From -- ./inp_files/128494.got.cif
#   From: 2010.05.17/outbox.cif.g08.bks.cpg/sg2_65_cif.got.tgz:128494.got - 2010.06.03 11:33:40.
