data_PCOD9055191
_publ_section_title
;
Structure prediction by ZEFSAII (Michael W. Deem and Ramdas Pophale) SiO2 
 PCOD9055191
Probable space group: P -1
;
_chemical_formula_sum "Si O2"
_cell_formula_units_Z 16
_cell_length_a 11.883336
_cell_length_b 10.162691
_cell_length_c 9.084007
_cell_angle_alpha 46.933934
_cell_angle_beta 88.787551
_cell_angle_gamma 99.668391
_cell_volume 775.899784
_symmetry_space_group_name_H-M "P -1"
_symmetry_group_IT_number 2
_symmetry_cell_setting 'triclinic'
loop_
_space_group_symop_operation_xyz
x,y,z
-x,-y,-z
loop_
_atom_site_type_symbol
_atom_site_label
_atom_site_fract_x
_atom_site_fract_y
_atom_site_fract_z
Si Si1 0.449965 0.487717 0.675845
Si Si2 0.046299 0.183347 0.620149
Si Si3 0.824172 0.142105 0.844739
Si Si4 0.189742 0.487203 0.609096
Si Si5 0.796862 0.097784 0.215416
Si Si6 0.928871 0.380476 0.224426
Si Si7 0.419879 0.078982 0.052509
Si Si8 0.528131 0.903245 0.428505
O O1 0.500000 0.500000 0.500000
O O2 0.314400 0.470207 0.669430
O O3 0.507475 0.681466 0.605620
O O4 0.465993 0.300685 0.894984
O O5 0.127754 0.334119 0.609997
O O6 0.935263 0.099130 0.793394
O O7 0.001228 0.273710 0.409151
O O8 0.120569 0.043882 0.671469
O O9 0.802414 0.317695 0.622788
O O10 0.712280 0.971054 0.959222
O O11 0.830198 0.188244 0.983274
O O12 0.116466 0.490804 0.756361
O O13 0.827604 0.234505 0.250008
O O14 0.660097 0.994365 0.302269
O O15 0.000000 0.500000 0.000000
O O16 0.433440 0.957346 0.284130
O O17 0.500000 0.000000 0.000000
O O18 0.500000 0.000000 0.500000
#
# Coordination Sequence:
#
# PCOD9055191 Si02
#       8
#     2   2   2   2   2   2   2   2
#     4  12  23  43  73 101 132 177 232 278 331 405
#     4  11  24  41  67  99 128 174 226 272 334 397
#     4  11  21  40  70  96 134 170 225 282 327 401
#     4  11  22  42  68  98 129 177 223 274 333 397
#     4  12  24  42  66  98 131 176 217 278 338 395
#     4  11  24  44  63  94 138 173 214 272 338 399
#     4  12  23  44  71 102 131 185 226 278 336 397
#     4  12  27  47  67 101 146 174 226 284 338 399
#
# _framework density 20.621220999999998
#
# number of rings (size 3 to 8) (size 9 to 14) (size 15 to 20)
#    0.000    0.500    3.750    6.000    1.750    1.500 
#    4.500    0.000    0.000    0.000    0.000    0.000 
#    0.000    0.000    0.000    0.000    0.000    0.000 
#
# Total GULP energy -89401.963917 kJ/mol
# GULP energy per Si atom -5587.622745 kJ/mol
# Density = 2.057429 g / cm^3
# Si number density = 20.621221 Si / 1000 Ang^3
#
#
#
# Elastic Constant Matrix: (Units=GPa)
#
#
# Indices 1 2 3 4 5 6 
#
# 1 89.6670 0.6813 16.1404 -1.0414 -7.1141 -1.4022
# 2 0.6813 90.6068 16.6899 -4.5347 -7.8870 9.5220
# 3 16.1404 16.6899 68.1071 2.2923 -6.9626 -6.0299
# 4 -1.0414 -4.5347 2.2923 45.3382 0.2196 -1.0794
# 5 -7.1141 -7.8870 -6.9626 0.2196 28.4774 -1.7180
# 6 -1.4022 9.5220 -6.0299 -1.0794 -1.7180 38.3048
#
#
#
# Elastic Compliance Matrix: (Units=1/GPa)
#
#
# Indices 1 2 3 4 5 6 
#
# 1 0.011840 0.000656 -0.002733 0.000463 0.002465 -0.000036
# 2 0.000656 0.012274 -0.003246 0.001314 0.002555 -0.003386
# 3 -0.002733 -0.003246 0.016748 -0.001166 0.002729 0.003433
# 4 0.000463 0.001314 -0.001166 0.022261 0.000031 0.000136
# 5 0.002465 0.002555 0.002729 0.000031 0.037200 0.001554
# 6 -0.000036 -0.003386 0.003433 0.000136 0.001554 0.027561
#
#
# Mechanical properties :
#
#
# Convention : Reuss Voigt Hill
#
# Bulk Modulus (GPa) = 33.09619 35.04492 34.07056
# Shear Modulus (GPa) = 33.64709 36.74870 35.19790
#
# Velocity S-wave (km/s) = 4.04378 4.22605 4.13592
# Velocity P-wave (km/s) = 6.15527 6.39094 6.27421
#
# Compressibility (1/GPa) = 0.03021496
#
# Stress axis : x y z
#
# Youngs Moduli (GPa) = 84.46071 81.47478 59.70814
#
# Poissons Ratio (x) = -0.05345 0.16321
# Poissons Ratio (y) = -0.05541 0.19381
# Poissons Ratio (z) = 0.23087 0.26447
#
# Static dielectric constant tensor:
#      x y z
#    x 1.742740 0.010420 -0.022320 
#    y 0.010420 1.696100 -0.045350 
#    z -0.022320 -0.045350 1.717470 
# 
# From -- ./inp_files/242128.got.cif
#   From: 2010.05.17/outbox.cif.g08.bks.cpg/sg2_122_cif.got.tgz:242128.got - 2010.06.03 11:33:40.
