data_PCOD9055842
_publ_section_title
;
Structure prediction by ZEFSAII (Michael W. Deem and Ramdas Pophale) SiO2 
 PCOD9055842
Probable space group: P -1
;
_chemical_formula_sum "Si O2"
_cell_formula_units_Z 16
_cell_length_a 9.488905
_cell_length_b 22.106371
_cell_length_c 6.615005
_cell_angle_alpha 109.094965
_cell_angle_beta 129.031424
_cell_angle_gamma 42.798230
_cell_volume 707.994440
_symmetry_space_group_name_H-M "P -1"
_symmetry_group_IT_number 2
_symmetry_cell_setting 'triclinic'
loop_
_space_group_symop_operation_xyz
x,y,z
-x,-y,-z
loop_
_atom_site_type_symbol
_atom_site_label
_atom_site_fract_x
_atom_site_fract_y
_atom_site_fract_z
Si Si1 0.065875 0.725013 0.786462
Si Si2 0.660146 0.596103 0.098092
Si Si3 0.613515 0.701923 0.847752
Si Si4 0.124219 0.816098 0.237232
Si Si5 0.519588 0.919810 0.466359
Si Si6 0.732107 0.138522 0.982482
Si Si7 0.040453 0.387258 0.306044
Si Si8 0.152598 0.021924 0.572127
O O1 0.808446 0.822312 0.567357
O O2 0.034250 0.657259 0.690173
O O3 0.347291 0.670782 0.892300
O O4 0.071995 0.758739 0.046309
O O5 0.765068 0.616413 0.393183
O O6 0.794711 0.494113 0.147348
O O7 0.730920 0.610195 0.964508
O O8 0.353772 0.755145 0.541065
O O9 0.820114 0.672060 0.837018
O O10 0.514129 0.772178 0.016077
O O11 0.219289 0.836073 0.155103
O O12 0.878088 0.914094 0.223506
O O13 0.326086 0.921235 0.174401
O O14 0.500000 0.000000 0.500000
O O15 0.431973 0.932679 0.636139
O O16 0.981590 0.084881 0.290938
O O17 0.000000 0.000000 0.500000
#
# Coordination Sequence:
#
# PCOD9055842 Si02
#       8
#     2   2   2   2   2   2   2   2
#     4  12  25  46  70 100 149 180 233 287 356 412
#     4  11  24  48  74 101 146 182 226 296 349 422
#     4  11  21  43  75 101 134 183 232 281 352 418
#     4  11  23  43  70  97 136 187 226 286 351 408
#     4  12  27  42  66 107 139 186 237 290 348 409
#     4  11  23  45  70  95 142 187 228 287 353 406
#     4  11  25  46  74 108 135 185 236 282 360 420
#     4  11  25  42  72  95 133 190 240 284 344 413
#
# _framework density 22.599046999999999
#
# number of rings (size 3 to 8) (size 9 to 14) (size 15 to 20)
#    0.000    0.750    3.750    3.375    5.250    1.500 
#    2.250    0.625    0.000    0.000    0.000    0.000 
#    0.000    0.000    0.000    0.000    0.000    0.000 
#
# Total GULP energy -89460.771919 kJ/mol
# GULP energy per Si atom -5591.298245 kJ/mol
# Density = 2.254761 g / cm^3
# Si number density = 22.599047 Si / 1000 Ang^3
#
#
#
# Elastic Constant Matrix: (Units=GPa)
#
#
# Indices 1 2 3 4 5 6 
#
# 1 85.2548 16.0933 23.0150 0.3307 8.2694 4.5618
# 2 16.0933 79.9877 21.6719 6.0748 6.1638 15.2255
# 3 23.0150 21.6719 67.3526 1.6610 -6.1650 2.9092
# 4 0.3307 6.0748 1.6610 41.7368 4.4095 0.7483
# 5 8.2694 6.1638 -6.1650 4.4095 31.0828 -0.0888
# 6 4.5618 15.2255 2.9092 0.7483 -0.0888 46.3154
#
#
#
# Elastic Compliance Matrix: (Units=1/GPa)
#
#
# Indices 1 2 3 4 5 6 
#
# 1 0.013674 -0.001040 -0.004734 0.000717 -0.004474 -0.000728
# 2 -0.001040 0.015223 -0.004621 -0.001577 -0.003448 -0.004593
# 3 -0.004734 -0.004621 0.018475 -0.000668 0.005937 0.000847
# 4 0.000717 -0.001577 -0.000668 0.024578 -0.003497 0.000086
# 5 -0.004474 -0.003448 0.005937 -0.003497 0.035724 0.001326
# 6 -0.000728 -0.004593 0.000847 0.000086 0.001326 0.023121
#
#
# Mechanical properties :
#
#
# Convention : Reuss Voigt Hill
#
# Bulk Modulus (GPa) = 37.61895 39.35062 38.48478
# Shear Modulus (GPa) = 31.16340 35.28132 33.22236
#
# Velocity S-wave (km/s) = 3.71748 3.95547 3.83832
# Velocity P-wave (km/s) = 5.92525 6.18961 6.05887
#
# Compressibility (1/GPa) = 0.02658235
#
# Stress axis : x y z
#
# Youngs Moduli (GPa) = 73.13219 65.69040 54.12681
#
# Poissons Ratio (x) = 0.06830 0.25622
# Poissons Ratio (y) = 0.07604 0.25014
# Poissons Ratio (z) = 0.34619 0.30358
#
# Static dielectric constant tensor:
#      x y z
#    x 1.835940 -0.024980 0.004880 
#    y -0.024980 1.876250 -0.013300 
#    z 0.004880 -0.013300 1.842370 
# 
# From -- ./inp_files/53313.got.cif
#   From: 2010.05.17/outbox.cif.g08.bks.cpg/sg2_27_cif.got.tgz:53313.got - 2010.06.03 11:33:40.
