data_PCOD9055835
_publ_section_title
;
Structure prediction by ZEFSAII (Michael W. Deem and Ramdas Pophale) SiO2 
 PCOD9055835
Probable space group: P -1
;
_chemical_formula_sum "Si O2"
_cell_formula_units_Z 12
_cell_length_a 9.523597
_cell_length_b 14.573458
_cell_length_c 7.307991
_cell_angle_alpha 120.710423
_cell_angle_beta 131.587983
_cell_angle_gamma 34.531056
_cell_volume 428.464425
_symmetry_space_group_name_H-M "P -1"
_symmetry_group_IT_number 2
_symmetry_cell_setting 'triclinic'
loop_
_space_group_symop_operation_xyz
x,y,z
-x,-y,-z
loop_
_atom_site_type_symbol
_atom_site_label
_atom_site_fract_x
_atom_site_fract_y
_atom_site_fract_z
Si Si1 0.165494 0.775463 0.170009
Si Si2 0.168609 0.725089 0.689259
Si Si3 0.422566 0.929938 0.476311
Si Si4 0.820916 0.531697 0.552417
Si Si5 0.608759 0.156606 0.024970
Si Si6 0.848408 0.717209 0.968234
O O1 0.474128 0.689968 0.402253
O O2 0.180219 0.728226 0.924796
O O3 0.904531 0.971103 0.150944
O O4 0.085609 0.707279 0.155921
O O5 0.152063 0.605949 0.524347
O O6 0.401316 0.711967 0.809916
O O7 0.889711 0.905668 0.558721
O O8 0.646502 0.827206 0.727900
O O9 0.500000 0.000000 0.500000
O O10 0.409546 0.850248 0.217538
O O11 0.942025 0.558177 0.836420
O O12 0.000000 0.500000 0.500000
O O13 0.361457 0.199122 0.957095
#
# Coordination Sequence:
#
# PCOD9055835 Si02
#       6
#     2   2   2   2   2   2
#     4  11  23  45  75 106 140 194 242 295 361 426
#     4  11  23  41  71 105 144 192 239 295 356 432
#     4  11  21  43  74 106 142 188 242 296 357 420
#     4  12  25  45  72 104 147 196 245 287 361 438
#     4  11  25  45  72 115 145 180 247 301 355 429
#     4  12  25  47  76 108 147 191 232 304 362 420
#
# _framework density 28.006990999999999
#
# number of rings (size 3 to 8) (size 9 to 14) (size 15 to 20)
#    0.000    0.667    5.000    5.000    0.000    3.333 
#    0.000    0.833    0.000    0.000    0.000    0.000 
#    0.000    0.000    0.000    0.000    0.000    0.000 
#
# Total GULP energy -67250.891756 kJ/mol
# GULP energy per Si atom -5604.240980 kJ/mol
# Density = 2.794325 g / cm^3
# Si number density = 28.006991 Si / 1000 Ang^3
#
#
#
# Elastic Constant Matrix: (Units=GPa)
#
#
# Indices 1 2 3 4 5 6 
#
# 1 198.2770 60.3898 77.9215 1.8647 36.4914 9.0959
# 2 60.3898 81.8292 55.0594 4.8057 14.2177 6.2767
# 3 77.9215 55.0594 96.4039 -0.1514 36.6376 11.3096
# 4 1.8647 4.8057 -0.1514 58.7022 10.6921 21.0327
# 5 36.4914 14.2177 36.6376 10.6921 75.3095 2.8696
# 6 9.0959 6.2767 11.3096 21.0327 2.8696 49.4593
#
#
#
# Elastic Compliance Matrix: (Units=1/GPa)
#
#
# Indices 1 2 3 4 5 6 
#
# 1 0.007757 -0.002628 -0.004297 0.000225 -0.001199 -0.000137
# 2 -0.002628 0.021369 -0.011442 -0.002763 0.003145 0.001380
# 3 -0.004297 -0.011442 0.023885 0.004184 -0.007798 -0.004546
# 4 0.000225 -0.002763 0.004184 0.021462 -0.004307 -0.009524
# 5 -0.001199 0.003145 -0.007798 -0.004307 0.017579 0.002416
# 6 -0.000137 0.001380 -0.004546 -0.009524 0.002416 0.025018
#
#
# Mechanical properties :
#
#
# Convention : Reuss Voigt Hill
#
# Bulk Modulus (GPa) = 61.43704 84.80574 73.12139
# Shear Modulus (GPa) = 31.40126 48.90350 40.15238
#
# Velocity S-wave (km/s) = 3.35206 4.18319 3.79047
# Velocity P-wave (km/s) = 6.07994 7.32653 6.73215
#
# Compressibility (1/GPa) = 0.01627683
#
# Stress axis : x y z
#
# Youngs Moduli (GPa) = 128.90821 46.79777 41.86779
#
# Poissons Ratio (x) = 0.12298 0.17992
# Poissons Ratio (y) = 0.33876 0.47904
# Poissons Ratio (z) = 0.55396 0.53545
#
# Static dielectric constant tensor:
#      x y z
#    x 2.208450 0.001170 0.040490 
#    y 0.001170 2.442370 -0.027620 
#    z 0.040490 -0.027620 2.176900 
# 
# From -- ./inp_files/203832.got.cif
#   From: 2010.05.17/outbox.cif.g08.bks.cpg/sg2_102_cif.got.tgz:203832.got - 2010.06.03 11:33:40.
