data_PCOD9055198
_publ_section_title
;
Structure prediction by ZEFSAII (Michael W. Deem and Ramdas Pophale) SiO2 
 PCOD9055198
Probable space group: P -1
;
_chemical_formula_sum "Si O2"
_cell_formula_units_Z 16
_cell_length_a 9.180244
_cell_length_b 17.276352
_cell_length_c 8.789840
_cell_angle_alpha 116.007263
_cell_angle_beta 132.814692
_cell_angle_gamma 93.318938
_cell_volume 773.653650
_symmetry_space_group_name_H-M "P -1"
_symmetry_group_IT_number 2
_symmetry_cell_setting 'triclinic'
loop_
_space_group_symop_operation_xyz
x,y,z
-x,-y,-z
loop_
_atom_site_type_symbol
_atom_site_label
_atom_site_fract_x
_atom_site_fract_y
_atom_site_fract_z
Si Si1 0.578274 0.205473 0.066094
Si Si2 0.093389 0.116177 0.128557
Si Si3 0.594049 0.300555 0.681825
Si Si4 0.682120 0.153402 0.418026
Si Si5 0.158999 0.201554 0.920971
Si Si6 0.053440 0.604991 0.701823
Si Si7 0.367513 0.402373 0.430695
Si Si8 0.594040 0.048367 0.772502
O O1 0.650413 0.168368 0.233799
O O2 0.801605 0.306447 0.242661
O O3 0.373745 0.221997 0.986842
O O4 0.485916 0.113156 0.802432
O O5 0.332437 0.203228 0.454097
O O6 0.135916 0.133812 0.992529
O O7 0.874636 0.125968 0.024961
O O8 0.000000 0.000000 0.000000
O O9 0.688204 0.245556 0.593048
O O10 0.542635 0.377146 0.620422
O O11 0.770097 0.357240 0.994731
O O12 0.917603 0.155043 0.620122
O O13 0.475018 0.044669 0.243231
O O14 0.216460 0.305699 0.130050
O O15 0.000000 0.500000 0.500000
O O16 0.811329 0.592500 0.576401
O O17 0.500000 0.500000 0.500000
O O18 0.500000 0.000000 0.500000
#
# Coordination Sequence:
#
# PCOD9055198 Si02
#       8
#     2   2   2   2   2   2   2   2
#     4  12  26  44  66 104 146 177 240 298 340 425
#     4  11  21  40  71 101 138 186 241 280 349 424
#     4  11  24  45  74 102 143 187 232 291 355 421
#     4  12  23  43  71 103 142 188 234 288 359 408
#     4  11  23  42  67 100 137 182 235 291 349 413
#     4  12  28  47  73 106 143 185 236 294 360 423
#     4  11  24  46  76 103 134 179 237 291 357 424
#     4  12  24  43  69 100 146 194 231 288 353 417
#
# _framework density 20.681087999999999
#
# number of rings (size 3 to 8) (size 9 to 14) (size 15 to 20)
#    0.000    0.500    6.250    3.375    0.000    4.500 
#    0.000    0.000    0.000    0.000    0.000    0.000 
#    0.000    0.000    0.000    0.000    0.000    0.000 
#
# Total GULP energy -89490.368661 kJ/mol
# GULP energy per Si atom -5593.148041 kJ/mol
# Density = 2.063402 g / cm^3
# Si number density = 20.681088 Si / 1000 Ang^3
#
#
#
# Elastic Constant Matrix: (Units=GPa)
#
#
# Indices 1 2 3 4 5 6 
#
# 1 148.2688 54.7163 20.1638 13.9269 0.9102 -1.2668
# 2 54.7163 131.2519 27.4364 22.5183 3.0585 18.5541
# 3 20.1638 27.4364 76.1628 -0.0840 -8.0108 3.7011
# 4 13.9269 22.5183 -0.0840 31.4107 -12.2803 -0.0745
# 5 0.9102 3.0585 -8.0108 -12.2803 35.6523 5.8999
# 6 -1.2668 18.5541 3.7011 -0.0745 5.8999 41.6568
#
#
#
# Elastic Compliance Matrix: (Units=1/GPa)
#
#
# Indices 1 2 3 4 5 6 
#
# 1 0.008264 -0.003084 -0.001300 -0.001929 -0.001219 0.001910
# 2 -0.003084 0.011915 -0.003692 -0.008778 -0.004049 -0.004515
# 3 -0.001300 -0.003692 0.015451 0.005541 0.005827 -0.000583
# 4 -0.001929 -0.008778 0.005541 0.045926 0.017712 0.000932
# 5 -0.001219 -0.004049 0.005827 0.017712 0.036481 -0.003886
# 6 0.001910 -0.004515 -0.000583 0.000932 -0.003886 0.026679
#
#
# Mechanical properties :
#
#
# Convention : Reuss Voigt Hill
#
# Bulk Modulus (GPa) = 51.33879 62.25737 56.79808
# Shear Modulus (GPa) = 29.87550 38.63508 34.25529
#
# Velocity S-wave (km/s) = 3.80489 4.32688 4.07425
# Velocity P-wave (km/s) = 6.64686 7.42505 7.04671
#
# Compressibility (1/GPa) = 0.01947845
#
# Stress axis : x y z
#
# Youngs Moduli (GPa) = 121.00028 83.92764 64.71980
#
# Poissons Ratio (x) = 0.25885 0.08414
# Poissons Ratio (y) = 0.37318 0.23894
# Poissons Ratio (z) = 0.15731 0.30985
#
# Static dielectric constant tensor:
#      x y z
#    x 1.758010 -0.019180 0.015340 
#    y -0.019180 1.752850 -0.006610 
#    z 0.015340 -0.006610 1.724510 
# 
# From -- ./inp_files/218415.got.cif
#   From: 2010.05.17/outbox.cif.g08.bks.cpg/sg2_110_cif.got.tgz:218415.got - 2010.06.03 11:33:40.
