data_PCOD9055476
_publ_section_title
;
Structure prediction by ZEFSAII (Michael W. Deem and Ramdas Pophale) SiO2 
 PCOD9055476
Probable space group: P -1
;
_chemical_formula_sum "Si O2"
_cell_formula_units_Z 12
_cell_length_a 11.302534
_cell_length_b 12.578277
_cell_length_c 8.503794
_cell_angle_alpha 136.199359
_cell_angle_beta 127.780509
_cell_angle_gamma 35.158690
_cell_volume 481.080627
_symmetry_space_group_name_H-M "P -1"
_symmetry_group_IT_number 2
_symmetry_cell_setting 'triclinic'
loop_
_space_group_symop_operation_xyz
x,y,z
-x,-y,-z
loop_
_atom_site_type_symbol
_atom_site_label
_atom_site_fract_x
_atom_site_fract_y
_atom_site_fract_z
Si Si1 0.087946 0.921791 0.163987
Si Si2 0.204186 0.166628 0.483857
Si Si3 0.626185 0.447541 0.789058
Si Si4 0.956027 0.364290 0.756612
Si Si5 0.557436 0.113492 0.881734
Si Si6 0.268817 0.917068 0.707574
O O1 0.230032 0.681108 0.078761
O O2 0.234068 0.967955 0.344198
O O3 0.899956 0.047646 0.273827
O O4 0.000000 0.000000 0.000000
O O5 0.980835 0.351657 0.574480
O O6 0.359878 0.173048 0.703656
O O7 0.254950 0.116179 0.288111
O O8 0.389241 0.707073 0.475473
O O9 0.749606 0.451233 0.758187
O O10 0.453727 0.693703 0.954513
O O11 0.130856 0.130304 0.722838
O O12 0.000000 0.500000 0.000000
O O13 0.585974 0.089573 0.065333
#
# Coordination Sequence:
#
# PCOD9055476 Si02
#       6
#     2   2   2   2   2   2
#     4  11  21  42  66  88 123 173 209 252 310 372
#     4  11  22  43  63  87 136 162 204 264 314 367
#     4  11  22  41  67  94 125 163 216 258 302 379
#     4  11  21  42  66  88 123 173 209 252 310 372
#     4  11  25  40  62  98 129 163 204 262 320 367
#     4  11  22  41  67  94 125 163 216 258 302 379
#
# _framework density 24.943845
#
# number of rings (size 3 to 8) (size 9 to 14) (size 15 to 20)
#    0.000    1.000    6.667    1.500    0.000    1.333 
#    0.000    5.000    0.000    0.000    0.000    0.000 
#    0.000    0.000    0.000    0.000    0.000    0.000 
#
# Total GULP energy -66864.601127 kJ/mol
# GULP energy per Si atom -5572.050094 kJ/mol
# Density = 2.488707 g / cm^3
# Si number density = 24.943845 Si / 1000 Ang^3
#
#
#
# Elastic Constant Matrix: (Units=GPa)
#
#
# Indices 1 2 3 4 5 6 
#
# 1 44.0003 11.3697 38.3690 7.5082 -8.9873 13.8023
# 2 11.3697 95.8185 53.1840 -11.4641 -7.9968 4.8337
# 3 38.3690 53.1840 180.8585 3.4085 -18.4874 8.8755
# 4 7.5082 -11.4641 3.4085 33.0863 -0.3017 -7.5722
# 5 -8.9873 -7.9968 -18.4874 -0.3017 47.4065 1.1582
# 6 13.8023 4.8337 8.8755 -7.5722 1.1582 16.3838
#
#
#
# Elastic Compliance Matrix: (Units=1/GPa)
#
#
# Indices 1 2 3 4 5 6 
#
# 1 0.049171 -0.001916 -0.006311 -0.022135 0.007574 -0.048205
# 2 -0.001916 0.013354 -0.003710 0.006004 0.000422 0.002429
# 3 -0.006311 -0.003710 0.007999 -0.000235 0.001250 0.001881
# 4 -0.022135 0.006004 -0.000235 0.046153 -0.003925 0.038612
# 5 0.007574 0.000422 0.001250 -0.003925 0.023324 -0.010645
# 6 -0.048205 0.002429 0.001881 0.038612 -0.010645 0.118508
#
#
# Mechanical properties :
#
#
# Convention : Reuss Voigt Hill
#
# Bulk Modulus (GPa) = 21.43616 58.50253 39.96935
# Shear Modulus (GPa) = 16.78236 33.89230 25.33733
#
# Velocity S-wave (km/s) = 2.59666 3.69011 3.19058
# Velocity P-wave (km/s) = 4.19555 6.45450 5.44349
#
# Compressibility (1/GPa) = 0.04665014
#
# Stress axis : x y z
#
# Youngs Moduli (GPa) = 20.33710 74.88551 125.01832
#
# Poissons Ratio (x) = 0.14348 0.78901
# Poissons Ratio (y) = 0.03897 0.46377
# Poissons Ratio (z) = 0.12835 0.27780
#
# Static dielectric constant tensor:
#      x y z
#    x 2.086400 -0.035500 -0.049190 
#    y -0.035500 1.921970 -0.025520 
#    z -0.049190 -0.025520 2.071550 
# 
# From -- ./inp_files/263531.got.cif
#   From: 2010.05.17/outbox.cif.g08.bks.cpg/sg2_132_cif.got.tgz:263531.got - 2010.06.03 11:33:40.
