data_PCOD9055474
_publ_section_title
;
Structure prediction by ZEFSAII (Michael W. Deem and Ramdas Pophale) SiO2 
 PCOD9055474
Probable space group: P -1
;
_chemical_formula_sum "Si O2"
_cell_formula_units_Z 16
_cell_length_a 9.264786
_cell_length_b 14.657765
_cell_length_c 9.146970
_cell_angle_alpha 78.053250
_cell_angle_beta 110.508294
_cell_angle_gamma 49.113889
_cell_volume 692.752041
_symmetry_space_group_name_H-M "P -1"
_symmetry_group_IT_number 2
_symmetry_cell_setting 'triclinic'
loop_
_space_group_symop_operation_xyz
x,y,z
-x,-y,-z
loop_
_atom_site_type_symbol
_atom_site_label
_atom_site_fract_x
_atom_site_fract_y
_atom_site_fract_z
Si Si1 0.591013 0.269878 0.757775
Si Si2 0.906943 0.017117 0.148818
Si Si3 0.016781 0.783151 0.399410
Si Si4 0.015687 0.689693 0.124939
Si Si5 0.222716 0.216043 0.452638
Si Si6 0.925991 0.519121 0.636527
Si Si7 0.806099 0.927797 0.743863
Si Si8 0.514375 0.499089 0.830757
O O1 0.863507 0.133929 0.819690
O O2 0.369440 0.367635 0.528775
O O3 0.534304 0.387355 0.797450
O O4 0.641661 0.159383 0.923451
O O5 0.890656 0.945078 0.287567
O O6 0.010007 0.071424 0.204935
O O7 0.099033 0.699700 0.301368
O O8 0.264169 0.667745 0.625134
O O9 0.828564 0.799120 0.399827
O O10 0.932932 0.628005 0.173205
O O11 0.241681 0.567910 0.129356
O O12 0.836606 0.850247 0.926573
O O13 0.061892 0.386090 0.315975
O O14 0.149158 0.167609 0.336512
O O15 0.516372 0.098442 0.574368
O O16 0.000000 0.500000 0.500000
O O17 0.500000 0.500000 0.000000
#
# Coordination Sequence:
#
# PCOD9055474 Si02
#       8
#     2   2   2   2   2   2   2   2
#     4  11  21  42  66 100 129 176 225 277 334 393
#     4  11  22  41  73  96 129 177 232 282 322 403
#     4  12  24  41  70 103 132 178 232 275 336 405
#     4  12  23  41  72  99 129 182 228 274 339 403
#     4  11  26  46  65  98 142 180 221 283 340 403
#     4  12  24  42  69  98 137 180 227 277 330 412
#     4  11  25  46  68  96 140 181 221 285 345 394
#     4  12  24  42  66 102 143 169 217 291 344 393
#
# _framework density 23.096284000000001
#
# number of rings (size 3 to 8) (size 9 to 14) (size 15 to 20)
#    0.000    0.500    6.250    2.625    0.000    2.500 
#    0.000    0.000    0.000    0.000    0.000    0.000 
#    0.000    0.000    0.000    0.000    0.000    0.000 
#
# Total GULP energy -89371.206836 kJ/mol
# GULP energy per Si atom -5585.700427 kJ/mol
# Density = 2.304372 g / cm^3
# Si number density = 23.096284 Si / 1000 Ang^3
#
#
#
# Elastic Constant Matrix: (Units=GPa)
#
#
# Indices 1 2 3 4 5 6 
#
# 1 69.5863 27.3577 2.6131 -0.1450 -25.1342 21.4925
# 2 27.3577 75.6953 15.1317 15.4990 -13.2330 26.9709
# 3 2.6131 15.1317 65.9981 1.7589 -24.1335 15.0028
# 4 -0.1450 15.4990 1.7589 41.5993 5.9468 -12.5892
# 5 -25.1342 -13.2330 -24.1335 5.9468 37.2242 -12.2982
# 6 21.4925 26.9709 15.0028 -12.5892 -12.2982 44.7453
#
#
#
# Elastic Compliance Matrix: (Units=1/GPa)
#
#
# Indices 1 2 3 4 5 6 
#
# 1 0.025126 -0.003350 0.009032 -0.004550 0.019373 -0.009034
# 2 -0.003350 0.023301 -0.000256 -0.013769 0.002965 -0.015410
# 3 0.009032 -0.000256 0.024263 -0.006358 0.019900 -0.008639
# 4 -0.004550 -0.013769 -0.006358 0.037081 -0.011436 0.019907
# 5 0.019373 0.002965 0.019900 -0.011436 0.053669 -0.006231
# 6 -0.009034 -0.015410 -0.008639 0.019907 -0.006231 0.042761
#
#
# Mechanical properties :
#
#
# Convention : Reuss Voigt Hill
#
# Bulk Modulus (GPa) = 11.96981 33.49830 22.73405
# Shear Modulus (GPa) = 22.40193 35.79225 29.09709
#
# Velocity S-wave (km/s) = 3.11776 3.94089 3.55324
# Velocity P-wave (km/s) = 4.26080 5.93656 5.16706
#
# Compressibility (1/GPa) = 0.08354352
#
# Stress axis : x y z
#
# Youngs Moduli (GPa) = 39.79883 42.91710 41.21520
#
# Poissons Ratio (x) = 0.14375 -0.37225
# Poissons Ratio (y) = 0.13331 0.01054
# Poissons Ratio (z) = -0.35946 0.01097
#
# Static dielectric constant tensor:
#      x y z
#    x 1.965050 -0.000090 -0.024000 
#    y -0.000090 1.882470 0.009770 
#    z -0.024000 0.009770 1.919410 
# 
# From -- ./inp_files/205608.got.cif
#   From: 2010.05.17/outbox.cif.g08.bks.cpg/sg2_103_cif.got.tgz:205608.got - 2010.06.03 11:33:40.
