data_PCOD9055505
_publ_section_title
;
Structure prediction by ZEFSAII (Michael W. Deem and Ramdas Pophale) SiO2 
 PCOD9055505
Probable space group: P -1
;
_chemical_formula_sum "Si O2"
_cell_formula_units_Z 12
_cell_length_a 12.359597
_cell_length_b 12.330519
_cell_length_c 12.418801
_cell_angle_alpha 146.079911
_cell_angle_beta 30.378033
_cell_angle_gamma 143.919132
_cell_volume 504.726532
_symmetry_space_group_name_H-M "P -1"
_symmetry_group_IT_number 2
_symmetry_cell_setting 'triclinic'
loop_
_space_group_symop_operation_xyz
x,y,z
-x,-y,-z
loop_
_atom_site_type_symbol
_atom_site_label
_atom_site_fract_x
_atom_site_fract_y
_atom_site_fract_z
Si Si1 0.384875 0.116834 0.615018
Si Si2 0.716480 0.935573 0.735899
Si Si3 0.914485 0.939289 0.802999
Si Si4 0.919826 0.636764 0.269497
Si Si5 0.838427 0.345705 0.304225
Si Si6 0.763292 0.641021 0.884282
O O1 0.589294 0.287338 0.521928
O O2 0.500000 0.000000 0.500000
O O3 0.238653 0.192770 0.887781
O O4 0.186495 0.988656 0.600965
O O5 0.804541 0.899043 0.747881
O O6 0.711925 0.729507 0.504187
O O7 0.882023 0.144445 0.714092
O O8 0.500000 0.000000 0.000000
O O9 0.820457 0.752318 0.812838
O O10 0.848825 0.133101 0.066425
O O11 0.880954 0.506814 0.304472
O O12 0.000000 0.500000 0.000000
O O13 0.032146 0.426027 0.296679
O O14 0.500000 0.500000 0.000000
#
# Coordination Sequence:
#
# PCOD9055505 Si02
#       6
#     2   2   2   2   2   2
#     4  11  21  42  67  98 141 190 232 286 363 436
#     4  11  28  49  74 107 148 194 247 310 369 435
#     4  11  23  45  69 104 146 188 242 296 364 444
#     4  11  26  51  72 108 140 192 256 304 364 437
#     4  11  23  44  71 101 141 193 240 296 368 437
#     4  11  25  39  65 108 148 179 236 295 366 444
#
# _framework density 23.775251000000001
#
# number of rings (size 3 to 8) (size 9 to 14) (size 15 to 20)
#    0.000    1.000    5.000    1.000    4.667    6.667 
#    0.000    0.000    0.000    0.000    0.000    0.000 
#    0.000    0.000    0.000    0.000    0.000    0.000 
#
# Total GULP energy -66992.700312 kJ/mol
# GULP energy per Si atom -5582.725026 kJ/mol
# Density = 2.372114 g / cm^3
# Si number density = 23.775251 Si / 1000 Ang^3
#
#
#
# Elastic Constant Matrix: (Units=GPa)
#
#
# Indices 1 2 3 4 5 6 
#
# 1 130.6674 70.7702 53.6406 -22.5801 -4.2900 -28.2198
# 2 70.7702 167.4472 59.3182 -22.0052 -7.8527 -46.9990
# 3 53.6406 59.3182 160.4436 8.7109 -8.4028 -17.2859
# 4 -22.5801 -22.0052 8.7109 61.7311 4.4870 7.3570
# 5 -4.2900 -7.8527 -8.4028 4.4870 36.7271 -8.9965
# 6 -28.2198 -46.9990 -17.2859 7.3570 -8.9965 46.5628
#
#
#
# Elastic Compliance Matrix: (Units=1/GPa)
#
#
# Indices 1 2 3 4 5 6 
#
# 1 0.011348 -0.002609 -0.002676 0.003229 0.000454 0.002829
# 2 -0.002609 0.010675 -0.002045 0.001839 0.003443 0.008809
# 3 -0.002676 -0.002045 0.008133 -0.002976 0.001497 0.000093
# 4 0.003229 0.001839 -0.002976 0.018712 -0.002369 -0.000706
# 5 0.000454 0.003443 0.001497 -0.002369 0.031276 0.010723
# 6 0.002829 0.008809 0.000093 -0.000706 0.010723 0.034300
#
#
# Mechanical properties :
#
#
# Convention : Reuss Voigt Hill
#
# Bulk Modulus (GPa) = 64.52999 91.77958 78.15479
# Shear Modulus (GPa) = 37.23840 47.32613 42.28227
#
# Velocity S-wave (km/s) = 3.96190 4.46641 4.22170
# Velocity P-wave (km/s) = 6.93754 8.07993 7.53043
#
# Compressibility (1/GPa) = 0.01549667
#
# Stress axis : x y z
#
# Youngs Moduli (GPa) = 88.11920 93.67939 122.94838
#
# Poissons Ratio (x) = 0.24437 0.32905
# Poissons Ratio (y) = 0.22987 0.25142
# Poissons Ratio (z) = 0.23584 0.19157
#
# Static dielectric constant tensor:
#      x y z
#    x 2.108410 0.063900 -0.214210 
#    y 0.063900 2.047560 0.333000 
#    z -0.214210 0.333000 2.930760 
# 
# From -- ./inp_files/429009.got.cif
#   From: 2010.05.17/outbox.cif.g08.bks.cpg/sg2_215_cif.got.tgz:429009.got - 2010.06.03 11:33:40.
