data_PCOD9055377
_publ_section_title
;
Structure prediction by ZEFSAII (Michael W. Deem and Ramdas Pophale) SiO2 
 PCOD9055377
Probable space group: P -1
;
_chemical_formula_sum "Si O2"
_cell_formula_units_Z 14
_cell_length_a 12.224700
_cell_length_b 9.224010
_cell_length_c 8.453537
_cell_angle_alpha 69.208418
_cell_angle_beta 80.636977
_cell_angle_gamma 45.905636
_cell_volume 634.953715
_symmetry_space_group_name_H-M "P -1"
_symmetry_group_IT_number 2
_symmetry_cell_setting 'triclinic'
loop_
_space_group_symop_operation_xyz
x,y,z
-x,-y,-z
loop_
_atom_site_type_symbol
_atom_site_label
_atom_site_fract_x
_atom_site_fract_y
_atom_site_fract_z
Si Si1 0.881379 0.776851 0.779056
Si Si2 0.586449 0.261354 0.130630
Si Si3 0.841654 0.355530 0.655410
Si Si4 0.294396 0.362696 0.105235
Si Si5 0.832466 0.053109 0.406408
Si Si6 0.811785 0.438847 0.289921
Si Si7 0.132970 0.969642 0.067579
O O1 0.762526 0.757571 0.845903
O O2 0.047648 0.574173 0.747783
O O3 0.817062 0.963981 0.599105
O O4 0.929330 0.822762 0.906941
O O5 0.468041 0.235235 0.161569
O O6 0.669256 0.205223 0.299196
O O7 0.500000 0.500000 0.000000
O O8 0.732186 0.102043 0.045625
O O9 0.803499 0.476398 0.783339
O O10 0.757183 0.502799 0.460994
O O11 0.793839 0.225404 0.753607
O O12 0.023272 0.162846 0.640675
O O13 0.277026 0.451108 0.897163
O O14 0.866722 0.203662 0.362271
O O15 0.000000 0.000000 0.000000
#
# Coordination Sequence:
#
# PCOD9055377 Si02
#       7
#     2   2   2   2   2   2   2
#     4  11  24  43  68 100 139 170 226 284 333 391
#     4  12  24  40  68  99 135 175 230 274 331 411
#     4  11  21  41  73  98 126 180 232 266 336 393
#     4  12  27  44  64 104 147 171 212 292 344 383
#     4  11  21  42  71  98 127 179 240 271 317 415
#     4  11  21  41  70 102 127 177 235 275 321 405
#     4  12  21  42  75  97 124 182 229 273 332 401
#
# _framework density 22.048852
#
# number of rings (size 3 to 8) (size 9 to 14) (size 15 to 20)
#    0.000    0.571    7.143    2.143    0.000    3.429 
#    5.143    2.143    0.000    0.000    0.000    0.000 
#    0.000    0.000    0.000    0.000    0.000    0.000 
#
# Total GULP energy -78042.591236 kJ/mol
# GULP energy per Si atom -5574.470803 kJ/mol
# Density = 2.199867 g / cm^3
# Si number density = 22.048852 Si / 1000 Ang^3
#
#
#
# Elastic Constant Matrix: (Units=GPa)
#
#
# Indices 1 2 3 4 5 6 
#
# 1 163.5096 18.9377 50.1364 0.3872 -7.1741 1.5018
# 2 18.9377 23.5639 32.6748 10.4131 1.1331 1.4658
# 3 50.1364 32.6748 149.2672 8.8975 11.2502 2.5016
# 4 0.3872 10.4131 8.8975 22.5696 -0.7251 2.8775
# 5 -7.1741 1.1331 11.2502 -0.7251 39.2605 -6.4082
# 6 1.5018 1.4658 2.5016 2.8775 -6.4082 24.4909
#
#
#
# Elastic Compliance Matrix: (Units=1/GPa)
#
#
# Indices 1 2 3 4 5 6 
#
# 1 0.007283 -0.004834 -0.001714 0.002818 0.002050 0.000223
# 2 -0.004834 0.079310 -0.013923 -0.031101 0.000361 0.000720
# 3 -0.001714 -0.013923 0.010430 0.002397 -0.003053 -0.001207
# 4 0.002818 -0.031101 0.002397 0.058352 0.000961 -0.005161
# 5 0.002050 0.000361 -0.003053 0.000961 0.027929 0.007359
# 6 0.000223 0.000720 -0.001207 -0.005161 0.007359 0.043430
#
#
# Mechanical properties :
#
#
# Convention : Reuss Voigt Hill
#
# Bulk Modulus (GPa) = 17.83121 59.98204 38.90662
# Shear Modulus (GPa) = 17.45994 32.90365 25.18180
#
# Velocity S-wave (km/s) = 2.81708 3.86723 3.38315
# Velocity P-wave (km/s) = 4.32273 6.87050 5.73976
#
# Compressibility (1/GPa) = 0.05608145
#
# Stress axis : x y z
#
# Youngs Moduli (GPa) = 137.31486 12.60870 95.87369
#
# Poissons Ratio (x) = 0.06095 0.16435
# Poissons Ratio (y) = 0.66374 1.33485
# Poissons Ratio (z) = 0.23539 0.17555
#
# Static dielectric constant tensor:
#      x y z
#    x 1.784830 -0.003590 0.030620 
#    y -0.003590 1.895410 0.047960 
#    z 0.030620 0.047960 1.939650 
# 
# From -- ./inp_files/179026.got.cif
#   From: 2010.05.17/outbox.cif.g08.bks.cpg/sg2_90_cif.got.tgz:179026.got - 2010.06.03 11:33:40.
