data_PCOD9055542
_publ_section_title
;
Structure prediction by ZEFSAII (Michael W. Deem and Ramdas Pophale) SiO2 
 PCOD9055542
Probable space group: P -1
;
_chemical_formula_sum "Si O2"
_cell_formula_units_Z 14
_cell_length_a 14.727310
_cell_length_b 9.811056
_cell_length_c 6.710031
_cell_angle_alpha 129.187580
_cell_angle_beta 75.406576
_cell_angle_gamma 117.449941
_cell_volume 665.773895
_symmetry_space_group_name_H-M "P -1"
_symmetry_group_IT_number 2
_symmetry_cell_setting 'triclinic'
loop_
_space_group_symop_operation_xyz
x,y,z
-x,-y,-z
loop_
_atom_site_type_symbol
_atom_site_label
_atom_site_fract_x
_atom_site_fract_y
_atom_site_fract_z
Si Si1 0.520617 0.204164 0.771471
Si Si2 0.994379 0.079381 0.857909
Si Si3 0.311894 0.224211 0.778588
Si Si4 0.915567 0.480733 0.698368
Si Si5 0.287011 0.512571 0.325332
Si Si6 0.871361 0.104316 0.615002
Si Si7 0.594759 0.459307 0.319325
O O1 0.415755 0.230009 0.821129
O O2 0.613253 0.353028 0.729007
O O3 0.500000 0.000000 0.500000
O O4 0.552903 0.259462 0.034205
O O5 0.886708 0.058461 0.795236
O O6 0.049825 0.969110 0.601822
O O7 0.054880 0.309182 0.031453
O O8 0.000000 0.000000 0.000000
O O9 0.346651 0.375242 0.718523
O O10 0.238407 0.023114 0.537725
O O11 0.258383 0.301962 0.050234
O O12 0.806421 0.426600 0.601450
O O13 0.903571 0.323072 0.728812
O O14 0.000000 0.500000 0.500000
O O15 0.325281 0.528944 0.543552
O O16 0.500000 0.500000 0.500000
#
# Coordination Sequence:
#
# PCOD9055542 Si02
#       7
#     2   2   2   2   2   2   2
#     4  11  23  42  64  98 139 174 227 287 349 418
#     4  11  24  46  69  96 135 179 234 289 345 409
#     4  11  22  41  69  95 135 181 225 280 355 422
#     4  12  25  46  70 100 141 182 235 294 343 412
#     4  11  23  43  68  95 137 181 228 282 349 418
#     4  11  25  43  70  98 133 185 226 285 354 406
#     4  11  21  42  69  95 132 186 228 281 348 417
#
# _framework density 21.028161000000001
#
# number of rings (size 3 to 8) (size 9 to 14) (size 15 to 20)
#    0.000    0.857    5.714    2.143    2.000    0.571 
#    7.714    0.000    0.000    0.000    0.000    0.000 
#    0.000    0.000    0.000    0.000    0.000    0.000 
#
# Total GULP energy -78158.056422 kJ/mol
# GULP energy per Si atom -5582.718316 kJ/mol
# Density = 2.098030 g / cm^3
# Si number density = 21.028161 Si / 1000 Ang^3
#
#
#
# Elastic Constant Matrix: (Units=GPa)
#
#
# Indices 1 2 3 4 5 6 
#
# 1 120.5589 23.0570 25.6299 -8.5368 18.4096 -19.4110
# 2 23.0570 97.3104 47.6032 10.5783 11.6549 -20.6464
# 3 25.6299 47.6032 106.4309 0.4427 21.5438 -25.5818
# 4 -8.5368 10.5783 0.4427 41.7631 -6.3097 4.3972
# 5 18.4096 11.6549 21.5438 -6.3097 39.0967 2.5375
# 6 -19.4110 -20.6464 -25.5818 4.3972 2.5375 25.4449
#
#
#
# Elastic Compliance Matrix: (Units=1/GPa)
#
#
# Indices 1 2 3 4 5 6 
#
# 1 0.010598 -0.000358 0.001102 0.000336 -0.006049 0.009447
# 2 -0.000358 0.015275 -0.003531 -0.005551 -0.003980 0.009928
# 3 0.001102 -0.003531 0.016611 -0.002263 -0.010027 0.016067
# 4 0.000336 -0.005551 -0.002263 0.027938 0.008041 -0.012153
# 5 -0.006049 -0.003980 -0.010027 0.008041 0.037935 -0.023098
# 6 0.009447 0.009928 0.016067 -0.012153 -0.023098 0.075120
#
#
# Mechanical properties :
#
#
# Convention : Reuss Voigt Hill
#
# Bulk Modulus (GPa) = 27.09331 57.43116 42.26224
# Shear Modulus (GPa) = 24.83212 36.46162 30.64687
#
# Velocity S-wave (km/s) = 3.44015 4.16858 3.82176
# Velocity P-wave (km/s) = 5.35647 7.10917 6.29412
#
# Compressibility (1/GPa) = 0.03690948
#
# Stress axis : x y z
#
# Youngs Moduli (GPa) = 94.36162 65.46683 60.20226
#
# Poissons Ratio (x) = 0.02341 -0.06633
# Poissons Ratio (y) = 0.03375 0.21257
# Poissons Ratio (z) = -0.10397 0.23116
#
# Static dielectric constant tensor:
#      x y z
#    x 6.880970 1.013500 3.900980 
#    y 1.013500 1.950850 0.777960 
#    z 3.900980 0.777960 4.764020 
# 
# From -- ./inp_files/37086.got.cif
#   From: 2010.05.17/outbox.cif.g08.bks.cpg/sg2_19_cif.got.tgz:37086.got - 2010.06.03 11:33:40.
