data_PCOD9055312
_publ_section_title
;
Structure prediction by ZEFSAII (Michael W. Deem and Ramdas Pophale) SiO2 
 PCOD9055312
Probable space group: P -1
;
_chemical_formula_sum "Si O2"
_cell_formula_units_Z 16
_cell_length_a 8.786682
_cell_length_b 11.458539
_cell_length_c 16.792369
_cell_angle_alpha 152.380513
_cell_angle_beta 73.881119
_cell_angle_gamma 114.150762
_cell_volume 700.651657
_symmetry_space_group_name_H-M "P -1"
_symmetry_group_IT_number 2
_symmetry_cell_setting 'triclinic'
loop_
_space_group_symop_operation_xyz
x,y,z
-x,-y,-z
loop_
_atom_site_type_symbol
_atom_site_label
_atom_site_fract_x
_atom_site_fract_y
_atom_site_fract_z
Si Si1 0.104478 0.492117 0.374309
Si Si2 0.321391 0.115061 0.444584
Si Si3 0.074130 0.878501 0.020079
Si Si4 0.723137 0.373447 0.726012
Si Si5 0.162270 0.755472 0.106700
Si Si6 0.235820 0.586380 0.708104
Si Si7 0.504171 0.632427 0.993683
Si Si8 0.347158 0.770159 0.640618
O O1 0.251264 0.647874 0.383727
O O2 0.177308 0.602048 0.516231
O O3 0.941874 0.538491 0.389612
O O4 0.066149 0.170531 0.180385
O O5 0.277487 0.374940 0.629847
O O6 0.500512 0.202615 0.425231
O O7 0.300404 0.896055 0.383877
O O8 0.193772 0.963462 0.300298
O O9 0.209668 0.819984 0.906257
O O10 0.895314 0.623152 0.880248
O O11 0.132840 0.874252 0.099412
O O12 0.563635 0.459786 0.818574
O O13 0.327591 0.670675 0.026120
O O14 0.000000 0.500000 0.000000
O O15 0.366716 0.666811 0.663653
O O16 0.646819 0.930527 0.160799
O O17 0.500000 0.500000 0.000000
#
# Coordination Sequence:
#
# PCOD9055312 Si02
#       8
#     2   2   2   2   2   2   2   2
#     4  11  25  42  69  94 131 175 219 271 315 389
#     4  11  24  43  63  96 136 169 212 274 327 380
#     4  11  23  44  67  97 129 170 222 270 320 380
#     4  11  22  45  64  96 137 169 218 268 323 383
#     4  11  22  41  67  97 128 166 214 266 318 389
#     4  11  24  42  67  95 131 178 215 267 326 377
#     4  11  21  41  67  95 128 171 209 260 330 379
#     4  11  23  43  65  95 131 170 217 269 321 391
#
# _framework density 22.835882000000002
#
# number of rings (size 3 to 8) (size 9 to 14) (size 15 to 20)
#    0.000    1.000    3.750    4.500    0.000    6.500 
#    2.250    3.750    0.000    0.000    0.000    0.000 
#    0.000    0.000    0.000    0.000    0.000    0.000 
#
# Total GULP energy -89487.728903 kJ/mol
# GULP energy per Si atom -5592.983056 kJ/mol
# Density = 2.278391 g / cm^3
# Si number density = 22.835882 Si / 1000 Ang^3
#
#
#
# Elastic Constant Matrix: (Units=GPa)
#
#
# Indices 1 2 3 4 5 6 
#
# 1 55.6283 30.6201 34.3404 16.4366 -21.2448 -6.6021
# 2 30.6201 123.8464 25.2362 14.0296 -18.8849 -5.6302
# 3 34.3404 25.2362 64.7849 22.4252 -8.8104 -6.5043
# 4 16.4366 14.0296 22.4252 33.4759 -8.9915 -4.8626
# 5 -21.2448 -18.8849 -8.8104 -8.9915 38.5809 6.4738
# 6 -6.6021 -5.6302 -6.5043 -4.8626 6.4738 33.4103
#
#
#
# Elastic Compliance Matrix: (Units=1/GPa)
#
#
# Indices 1 2 3 4 5 6 
#
# 1 0.034534 -0.003271 -0.014358 -0.002259 0.013521 0.000529
# 2 -0.003271 0.009630 -0.001390 -0.000842 0.002378 0.000122
# 3 -0.014358 -0.001390 0.027067 -0.011726 -0.005396 0.001537
# 4 -0.002259 -0.000842 -0.011726 0.040792 0.004815 0.002133
# 5 0.013521 0.002378 -0.005396 0.004815 0.035104 -0.004079
# 6 0.000529 0.000122 0.001537 0.002133 -0.004079 0.031456
#
#
# Mechanical properties :
#
#
# Convention : Reuss Voigt Hill
#
# Bulk Modulus (GPa) = 30.12592 47.18368 38.65480
# Shear Modulus (GPa) = 21.96005 31.36427 26.66216
#
# Velocity S-wave (km/s) = 3.10441 3.71005 3.42066
# Velocity P-wave (km/s) = 5.10596 6.24976 5.70659
#
# Compressibility (1/GPa) = 0.03319400
#
# Stress axis : x y z
#
# Youngs Moduli (GPa) = 28.95676 103.84037 36.94516
#
# Poissons Ratio (x) = 0.33966 0.53044
# Poissons Ratio (y) = 0.09472 0.05137
# Poissons Ratio (z) = 0.41575 0.14437
#
# Static dielectric constant tensor:
#      x y z
#    x 1.866830 0.054020 0.005750 
#    y 0.054020 1.888330 0.015010 
#    z 0.005750 0.015010 1.853470 
# 
# From -- ./inp_files/560161.got.cif
#   From: 2010.05.17/outbox.cif.g08.bks.cpg/sg2_281_cif.got.tgz:560161.got - 2010.06.03 11:33:40.
