data_PCOD9055299
_publ_section_title
;
Structure prediction by ZEFSAII (Michael W. Deem and Ramdas Pophale) SiO2 
 PCOD9055299
Probable space group: P -1
;
_chemical_formula_sum "Si O2"
_cell_formula_units_Z 14
_cell_length_a 8.975507
_cell_length_b 9.522672
_cell_length_c 8.880770
_cell_angle_alpha 80.643295
_cell_angle_beta 112.625148
_cell_angle_gamma 118.654912
_cell_volume 614.596107
_symmetry_space_group_name_H-M "P -1"
_symmetry_group_IT_number 2
_symmetry_cell_setting 'triclinic'
loop_
_space_group_symop_operation_xyz
x,y,z
-x,-y,-z
loop_
_atom_site_type_symbol
_atom_site_label
_atom_site_fract_x
_atom_site_fract_y
_atom_site_fract_z
Si Si1 0.768007 0.999224 0.290807
Si Si2 0.908827 0.740814 0.434895
Si Si3 0.062920 0.699133 0.192721
Si Si4 0.440502 0.009806 0.303850
Si Si5 0.695463 0.466721 0.647434
Si Si6 0.398501 0.285737 0.334598
Si Si7 0.017442 0.132705 0.102925
O O1 0.568410 0.973164 0.250443
O O2 0.901610 0.131942 0.438598
O O3 0.838771 0.073524 0.142299
O O4 0.801205 0.843504 0.341446
O O5 0.797813 0.598604 0.533216
O O6 0.954993 0.674744 0.311123
O O7 0.156488 0.584549 0.229347
O O8 0.234684 0.875798 0.234495
O O9 0.948056 0.711127 0.006158
O O10 0.462760 0.189922 0.261270
O O11 0.500000 0.000000 0.500000
O O12 0.528495 0.321787 0.523171
O O13 0.608141 0.545916 0.714236
O O14 0.182569 0.166130 0.276153
O O15 0.000000 0.000000 0.000000
#
# Coordination Sequence:
#
# PCOD9055299 Si02
#       7
#     2   2   2   2   2   2   2
#     4  11  23  38  71 100 131 174 230 277 324 392
#     4  11  21  41  67 101 130 173 230 278 323 397
#     4  12  25  41  71  98 137 173 221 279 339 393
#     4  12  21  39  69 102 127 171 231 280 315 387
#     4  11  24  40  72 101 129 176 227 277 329 394
#     4  11  23  43  68  94 136 176 220 273 329 393
#     4  12  24  46  68  99 137 179 217 278 338 398
#
# _framework density 22.779188000000001
#
# number of rings (size 3 to 8) (size 9 to 14) (size 15 to 20)
#    0.000    0.571    7.143    1.286    2.000    1.143 
#    0.000    0.714    0.000    0.000    0.000    0.000 
#    0.000    0.000    0.000    0.000    0.000    0.000 
#
# Total GULP energy -78203.276228 kJ/mol
# GULP energy per Si atom -5585.948302 kJ/mol
# Density = 2.272734 g / cm^3
# Si number density = 22.779188 Si / 1000 Ang^3
#
#
#
# Elastic Constant Matrix: (Units=GPa)
#
#
# Indices 1 2 3 4 5 6 
#
# 1 107.3080 22.6221 21.7073 -2.7268 0.0039 -22.6226
# 2 22.6221 92.3510 20.2996 -2.1377 1.6755 -29.7894
# 3 21.7073 20.2996 60.5296 -9.7481 -3.0385 -0.8183
# 4 -2.7268 -2.1377 -9.7481 37.2374 1.4172 7.7674
# 5 0.0039 1.6755 -3.0385 1.4172 31.8653 3.7607
# 6 -22.6226 -29.7894 -0.8183 7.7674 3.7607 49.3656
#
#
#
# Elastic Compliance Matrix: (Units=1/GPa)
#
#
# Indices 1 2 3 4 5 6 
#
# 1 0.011280 -0.000148 -0.004189 -0.001347 -0.000958 0.005295
# 2 -0.000148 0.015108 -0.005397 -0.002454 -0.002324 0.009523
# 3 -0.004189 -0.005397 0.020852 0.005986 0.002712 -0.005979
# 4 -0.001347 -0.002454 0.005986 0.029566 0.000172 -0.006664
# 5 -0.000958 -0.002324 0.002712 0.000172 0.032261 -0.004281
# 6 0.005295 0.009523 -0.005979 -0.006664 -0.004281 0.029706
#
#
# Mechanical properties :
#
#
# Convention : Reuss Voigt Hill
#
# Bulk Modulus (GPa) = 36.00692 43.27186 39.63939
# Shear Modulus (GPa) = 29.85127 36.73095 33.29111
#
# Velocity S-wave (km/s) = 3.62396 4.01992 3.82707
# Velocity P-wave (km/s) = 5.77512 6.37055 6.08013
#
# Compressibility (1/GPa) = 0.02777244
#
# Stress axis : x y z
#
# Youngs Moduli (GPa) = 88.65463 66.19105 47.95611
#
# Poissons Ratio (x) = 0.00979 0.20089
# Poissons Ratio (y) = 0.01312 0.25881
# Poissons Ratio (z) = 0.37138 0.35722
#
# Static dielectric constant tensor:
#      x y z
#    x 1.834200 -0.029010 0.028640 
#    y -0.029010 1.901270 -0.010850 
#    z 0.028640 -0.010850 1.890540 
# 
# From -- ./inp_files/157399.got.cif
#   From: 2010.05.17/outbox.cif.g08.bks.cpg/sg2_79_cif.got.tgz:157399.got - 2010.06.03 11:33:40.
