data_PCOD9055095
_publ_section_title
;
Structure prediction by ZEFSAII (Michael W. Deem and Ramdas Pophale) SiO2 
 PCOD9055095
Probable space group: P -1
;
_chemical_formula_sum "Si O2"
_cell_formula_units_Z 15
_cell_length_a 14.878462
_cell_length_b 11.839991
_cell_length_c 10.355191
_cell_angle_alpha 118.752005
_cell_angle_beta 65.720736
_cell_angle_gamma 61.232247
_cell_volume 768.672954
_symmetry_space_group_name_H-M "P -1"
_symmetry_group_IT_number 2
_symmetry_cell_setting 'triclinic'
loop_
_space_group_symop_operation_xyz
x,y,z
-x,-y,-z
loop_
_atom_site_type_symbol
_atom_site_label
_atom_site_fract_x
_atom_site_fract_y
_atom_site_fract_z
Si Si1 0.151481 0.324034 0.698712
Si Si2 0.989375 0.278322 0.156368
Si Si3 0.325728 0.715785 0.312634
Si Si4 0.603738 0.168927 0.435372
Si Si5 0.081896 0.771290 0.565978
Si Si6 0.998715 0.784362 0.342128
Si Si7 0.193104 0.689590 0.937497
Si Si8 0.500000 0.000000 0.500000
O O1 0.111921 0.226311 0.612351
O O2 0.351177 0.130560 0.538252
O O3 0.093992 0.495874 0.723649
O O4 0.000000 0.500000 0.000000
O O5 0.929760 0.312236 0.354606
O O6 0.909995 0.257616 0.094956
O O7 0.213367 0.027092 0.869104
O O8 0.348529 0.809448 0.447653
O O9 0.263579 0.661510 0.402290
O O10 0.152438 0.937077 0.442366
O O11 0.500000 0.500000 0.000000
O O12 0.413754 0.446468 0.651296
O O13 0.558483 0.070978 0.435884
O O14 0.083827 0.702056 0.387541
O O15 0.903480 0.066234 0.843740
O O16 0.149470 0.643128 0.061068
#
# Coordination Sequence:
#
# PCOD9055095 Si02
#       8
#     2   2   2   2   2   2   2   1
#     4  12  21  41  68  91 125 167 224 265 310 380
#     4  12  24  42  64  98 132 170 211 266 326 377
#     4  11  21  40  66  97 123 168 220 259 315 389
#     4  12  22  37  68  98 119 168 217 263 320 364
#     4  11  25  42  62  94 144 166 202 270 330 378
#     4  11  21  42  64  92 128 172 215 268 313 378
#     4  11  21  41  67  92 128 171 217 260 314 383
#     4  12  20  38  64  96 120 158 216 278 292 370
#
# _framework density 19.514150999999998
#
# number of rings (size 3 to 8) (size 9 to 14) (size 15 to 20)
#    0.000    0.533    8.000    3.600    0.000    1.067 
#    2.400    0.000    0.000    1.600    0.000    0.000 
#    0.000    0.000    0.000    0.000    0.000    0.000 
#
# Total GULP energy -83541.852885 kJ/mol
# GULP energy per Si atom -5569.456859 kJ/mol
# Density = 1.946974 g / cm^3
# Si number density = 19.514151 Si / 1000 Ang^3
#
#
#
# Elastic Constant Matrix: (Units=GPa)
#
#
# Indices 1 2 3 4 5 6 
#
# 1 104.4546 28.6606 -0.5859 -13.1764 -11.3333 -7.7478
# 2 28.6606 94.3554 24.0510 -18.5473 -11.9531 7.9449
# 3 -0.5859 24.0510 59.0108 -2.0706 -19.3241 -0.8639
# 4 -13.1764 -18.5473 -2.0706 29.8882 -7.0845 -1.9158
# 5 -11.3333 -11.9531 -19.3241 -7.0845 20.1721 1.0409
# 6 -7.7478 7.9449 -0.8639 -1.9158 1.0409 27.3596
#
#
#
# Elastic Compliance Matrix: (Units=1/GPa)
#
#
# Indices 1 2 3 4 5 6 
#
# 1 0.013362 -0.002503 0.006427 0.008635 0.014968 0.004749
# 2 -0.002503 0.015693 -0.003367 0.010089 0.008467 -0.004988
# 3 0.006427 -0.003367 0.029973 0.011101 0.034061 0.003226
# 4 0.008635 0.010089 0.011101 0.053985 0.040314 0.002113
# 5 0.014968 0.008467 0.034061 0.040314 0.109710 0.001504
# 6 0.004749 -0.004988 0.003226 0.002113 0.001504 0.039536
#
#
# Mechanical properties :
#
#
# Convention : Reuss Voigt Hill
#
# Bulk Modulus (GPa) = 16.62763 40.23025 28.42894
# Shear Modulus (GPa) = 17.78145 29.19698 23.48921
#
# Velocity S-wave (km/s) = 3.02190 3.87226 3.47320
# Velocity P-wave (km/s) = 4.55139 6.37599 5.53933
#
# Compressibility (1/GPa) = 0.06014086
#
# Stress axis : x y z
#
# Youngs Moduli (GPa) = 74.83912 63.72433 33.36391
#
# Poissons Ratio (x) = 0.15952 -0.21443
# Poissons Ratio (y) = 0.18734 0.11233
# Poissons Ratio (z) = -0.48099 0.21455
#
# Static dielectric constant tensor:
#      x y z
#    x 1.722160 0.004900 0.010020 
#    y 0.004900 1.697810 0.024780 
#    z 0.010020 0.024780 1.705450 
# 
# From -- ./inp_files/272611.got.cif
#   From: 2010.05.17/outbox.cif.g08.bks.cpg/sg2_137_cif.got.tgz:272611.got - 2010.06.03 11:33:40.
