data_PCOD9055789
_publ_section_title
;
Structure prediction by ZEFSAII (Michael W. Deem and Ramdas Pophale) SiO2 
 PCOD9055789
Probable space group: P -1
;
_chemical_formula_sum "Si O2"
_cell_formula_units_Z 16
_cell_length_a 10.158474
_cell_length_b 12.826495
_cell_length_c 14.158257
_cell_angle_alpha 147.208068
_cell_angle_beta 68.128601
_cell_angle_gamma 131.874620
_cell_volume 657.571643
_symmetry_space_group_name_H-M "P -1"
_symmetry_group_IT_number 2
_symmetry_cell_setting 'triclinic'
loop_
_space_group_symop_operation_xyz
x,y,z
-x,-y,-z
loop_
_atom_site_type_symbol
_atom_site_label
_atom_site_fract_x
_atom_site_fract_y
_atom_site_fract_z
Si Si1 0.004557 0.289788 0.474263
Si Si2 0.866854 0.198075 0.092841
Si Si3 0.731596 0.955752 0.134020
Si Si4 0.273137 0.468416 0.092191
Si Si5 0.713704 0.804538 0.677333
Si Si6 0.306065 0.476175 0.863105
Si Si7 0.893662 0.213075 0.766146
Si Si8 0.660639 0.922061 0.438861
O O1 0.143623 0.596010 0.707206
O O2 0.129349 0.218497 0.360888
O O3 0.860229 0.209238 0.363899
O O4 0.849131 0.098160 0.453303
O O5 0.077362 0.373961 0.117564
O O6 0.850826 0.051459 0.078192
O O7 0.713896 0.968907 0.882921
O O8 0.711535 0.735885 0.028499
O O9 0.504702 0.796349 0.043796
O O10 0.464018 0.762332 0.307427
O O11 0.267141 0.445449 0.963416
O O12 0.500000 0.500000 0.500000
O O13 0.791773 0.982805 0.697114
O O14 0.364227 0.317514 0.696170
O O15 0.095053 0.311832 0.743921
O O16 0.728415 0.107787 0.652614
O O17 0.000000 0.500000 0.000000
#
# Coordination Sequence:
#
# PCOD9055789 Si02
#       8
#     2   2   2   2   2   2   2   2
#     4  12  24  45  70 101 141 180 233 290 354 414
#     4  12  26  42  71 103 139 185 232 289 348 421
#     4  11  22  41  70 103 136 178 229 293 348 416
#     4  11  21  43  72 100 137 181 233 288 349 411
#     4  12  29  48  68  97 147 190 233 289 354 424
#     4  11  21  43  71  97 135 181 234 287 345 414
#     4  12  26  44  67 101 138 182 239 291 340 418
#     4  11  22  39  72  98 132 179 232 283 350 404
#
# _framework density 24.331949000000002
#
# number of rings (size 3 to 8) (size 9 to 14) (size 15 to 20)
#    0.000    0.500    6.250    2.625    3.500    3.000 
#    0.000    0.000    0.000    0.000    0.000    0.000 
#    0.000    0.000    0.000    0.000    0.000    0.000 
#
# Total GULP energy -89491.958187 kJ/mol
# GULP energy per Si atom -5593.247387 kJ/mol
# Density = 2.427657 g / cm^3
# Si number density = 24.331949 Si / 1000 Ang^3
#
#
#
# Elastic Constant Matrix: (Units=GPa)
#
#
# Indices 1 2 3 4 5 6 
#
# 1 58.0660 9.0011 40.3243 11.5270 21.0320 -4.6163
# 2 9.0011 83.6039 48.5631 9.8642 14.4837 -3.5667
# 3 40.3243 48.5631 183.7156 12.7396 32.2408 -5.0751
# 4 11.5270 9.8642 12.7396 43.4743 1.8409 10.3066
# 5 21.0320 14.4837 32.2408 1.8409 42.0747 -1.7734
# 6 -4.6163 -3.5667 -5.0751 10.3066 -1.7734 15.7032
#
#
#
# Elastic Compliance Matrix: (Units=1/GPa)
#
#
# Indices 1 2 3 4 5 6 
#
# 1 0.025597 0.002596 -0.003628 -0.008603 -0.010050 0.011453
# 2 0.002596 0.015033 -0.003510 -0.004215 -0.003370 0.005429
# 3 -0.003628 -0.003510 0.007722 -0.000542 -0.002844 0.000667
# 4 -0.008603 -0.004215 -0.000542 0.031984 0.003746 -0.024231
# 5 -0.010050 -0.003370 -0.002844 0.003746 0.031818 -0.003504
# 6 0.011453 0.005429 0.000667 -0.024231 -0.003504 0.084005
#
#
# Mechanical properties :
#
#
# Convention : Reuss Voigt Hill
#
# Bulk Modulus (GPa) = 25.46524 57.90696 41.68610
# Shear Modulus (GPa) = 22.90068 35.41691 29.15880
#
# Velocity S-wave (km/s) = 3.07119 3.81934 3.46551
# Velocity P-wave (km/s) = 4.80258 6.58029 5.76042
#
# Compressibility (1/GPa) = 0.03926921
#
# Stress axis : x y z
#
# Youngs Moduli (GPa) = 39.06659 66.51897 129.49221
#
# Poissons Ratio (x) = -0.17270 0.46981
# Poissons Ratio (y) = -0.10143 0.45452
# Poissons Ratio (z) = 0.14174 0.23349
#
# Static dielectric constant tensor:
#      x y z
#    x 2.073470 0.027230 -0.039460 
#    y 0.027230 1.906410 0.022080 
#    z -0.039460 0.022080 2.033430 
# 
# From -- ./inp_files/350038.got.cif
#   From: 2010.05.17/outbox.cif.g08.bks.cpg/sg2_176_cif.got.tgz:350038.got - 2010.06.03 11:33:40.
