data_PCOD9055527
_publ_section_title
;
Structure prediction by ZEFSAII (Michael W. Deem and Ramdas Pophale) SiO2 
 PCOD9055527
Probable space group: P -1
;
_chemical_formula_sum "Si O2"
_cell_formula_units_Z 16
_cell_length_a 11.894223
_cell_length_b 16.943127
_cell_length_c 6.105270
_cell_angle_alpha 84.866172
_cell_angle_beta 54.424005
_cell_angle_gamma 52.953478
_cell_volume 731.305570
_symmetry_space_group_name_H-M "P -1"
_symmetry_group_IT_number 2
_symmetry_cell_setting 'triclinic'
loop_
_space_group_symop_operation_xyz
x,y,z
-x,-y,-z
loop_
_atom_site_type_symbol
_atom_site_label
_atom_site_fract_x
_atom_site_fract_y
_atom_site_fract_z
Si Si1 0.126652 0.019239 0.752458
Si Si2 0.666291 0.958652 0.157629
Si Si3 0.598965 0.805512 0.741159
Si Si4 0.408558 0.785981 0.325216
Si Si5 0.458898 0.326972 0.387112
Si Si6 0.952483 0.480566 0.308025
Si Si7 0.836615 0.213183 0.719059
Si Si8 0.909216 0.742597 0.666803
O O1 0.170902 0.066535 0.874062
O O2 0.014307 0.101766 0.660033
O O3 0.317369 0.900136 0.503347
O O4 0.000000 0.000000 0.000000
O O5 0.753325 0.853493 0.948930
O O6 0.500000 0.000000 0.500000
O O7 0.566642 0.065512 0.100508
O O8 0.576427 0.754379 0.579623
O O9 0.802318 0.764647 0.553595
O O10 0.561232 0.759165 0.991627
O O11 0.505178 0.683249 0.393959
O O12 0.234079 0.810692 0.398781
O O13 0.274253 0.437655 0.470114
O O14 0.653233 0.278678 0.066943
O O15 0.000000 0.500000 0.500000
O O16 0.040631 0.358965 0.249562
O O17 0.000000 0.500000 0.000000
O O18 0.910016 0.271881 0.565725
#
# Coordination Sequence:
#
# PCOD9055527 Si02
#       8
#     2   2   2   2   2   2   2   2
#     4  12  20  38  64 101 142 195 234 282 362 456
#     4  12  25  39  68 107 149 189 236 305 384 445
#     4  11  22  43  69 100 140 187 239 293 363 444
#     4  11  21  42  68  99 144 189 242 288 356 449
#     4  11  24  46  75 103 138 196 247 302 359 449
#     4  12  29  53  83 111 143 199 267 318 372 452
#     4  11  25  41  68 105 152 186 242 302 385 442
#     4  12  26  46  70 109 149 191 243 319 380 443
#
# _framework density 21.878679000000002
#
# number of rings (size 3 to 8) (size 9 to 14) (size 15 to 20)
#    0.000    0.500    3.750    5.250    3.500    1.500 
#    0.000    0.625    0.000    0.000    0.000    0.000 
#    0.000    0.000    0.000    0.000    0.000    0.000 
#
# Total GULP energy -89320.197960 kJ/mol
# GULP energy per Si atom -5582.512372 kJ/mol
# Density = 2.182888 g / cm^3
# Si number density = 21.878679 Si / 1000 Ang^3
#
#
#
# Elastic Constant Matrix: (Units=GPa)
#
#
# Indices 1 2 3 4 5 6 
#
# 1 96.9382 50.6835 26.7080 -9.7256 -11.0547 -4.8618
# 2 50.6835 132.4363 6.6598 -6.1994 2.4698 -13.8820
# 3 26.7080 6.6598 58.1869 -10.5498 -8.8041 2.3618
# 4 -9.7256 -6.1994 -10.5498 29.3268 -5.9592 -3.3386
# 5 -11.0547 2.4698 -8.8041 -5.9592 25.9663 -4.5187
# 6 -4.8618 -13.8820 2.3618 -3.3386 -4.5187 44.4633
#
#
#
# Elastic Compliance Matrix: (Units=1/GPa)
#
#
# Indices 1 2 3 4 5 6 
#
# 1 0.015827 -0.005630 -0.004981 0.003755 0.006655 0.001196
# 2 -0.005630 0.009948 0.001036 0.000346 -0.002529 0.002204
# 3 -0.004981 0.001036 0.021830 0.007825 0.006963 -0.000086
# 4 0.003755 0.000346 0.007825 0.041740 0.014620 0.004723
# 5 0.006655 -0.002529 0.006963 0.014620 0.048271 0.005572
# 6 0.001196 0.002204 -0.000086 0.004723 0.005572 0.024235
#
#
# Mechanical properties :
#
#
# Convention : Reuss Voigt Hill
#
# Bulk Modulus (GPa) = 35.14335 50.62934 42.88634
# Shear Modulus (GPa) = 26.24881 33.51863 29.88372
#
# Velocity S-wave (km/s) = 3.46749 3.91835 3.69980
# Velocity P-wave (km/s) = 5.66825 6.60776 6.15595
#
# Compressibility (1/GPa) = 0.02845489
#
# Stress axis : x y z
#
# Youngs Moduli (GPa) = 63.18218 100.52758 45.80921
#
# Poissons Ratio (x) = 0.56593 0.22819
# Poissons Ratio (y) = 0.35569 -0.04746
# Poissons Ratio (z) = 0.31473 -0.10415
#
# Static dielectric constant tensor:
#      x y z
#    x 1.858080 -0.006000 0.076970 
#    y -0.006000 1.760040 -0.029740 
#    z 0.076970 -0.029740 1.897730 
# 
# From -- ./inp_files/81329.got.cif
#   From: 2010.05.17/outbox.cif.g08.bks.cpg/sg2_41_cif.got.tgz:81329.got - 2010.06.03 11:33:40.
