data_PCOD9055260
_publ_section_title
;
Structure prediction by ZEFSAII (Michael W. Deem and Ramdas Pophale) SiO2 
 PCOD9055260
Probable space group: P -1
;
_chemical_formula_sum "Si O2"
_cell_formula_units_Z 16
_cell_length_a 20.497065
_cell_length_b 12.013552
_cell_length_c 13.010366
_cell_angle_alpha 49.597109
_cell_angle_beta 39.100988
_cell_angle_gamma 22.822776
_cell_volume 753.655158
_symmetry_space_group_name_H-M "P -1"
_symmetry_group_IT_number 2
_symmetry_cell_setting 'triclinic'
loop_
_space_group_symop_operation_xyz
x,y,z
-x,-y,-z
loop_
_atom_site_type_symbol
_atom_site_label
_atom_site_fract_x
_atom_site_fract_y
_atom_site_fract_z
Si Si1 0.293716 0.730874 0.049813
Si Si2 0.658029 0.392093 0.164757
Si Si3 0.886111 0.246236 0.574448
Si Si4 0.552040 0.785968 0.508007
Si Si5 0.838629 0.385921 0.204510
Si Si6 0.769512 0.120281 0.482502
Si Si7 0.716260 0.654100 0.973841
Si Si8 0.157088 0.112808 0.682312
O O1 0.192986 0.719793 0.240639
O O2 0.500000 0.500000 0.000000
O O3 0.379897 0.605419 0.906418
O O4 0.093075 0.087436 0.078452
O O5 0.464747 0.601187 0.352224
O O6 0.701444 0.508312 0.037519
O O7 0.840793 0.056472 0.176476
O O8 0.679481 0.546437 0.585244
O O9 0.000000 0.000000 0.500000
O O10 0.076826 0.107264 0.472314
O O11 0.721356 0.589019 0.326794
O O12 0.500000 0.000000 0.500000
O O13 0.347250 0.961559 0.600455
O O14 0.794203 0.262623 0.331254
O O15 0.752089 0.579499 0.096035
O O16 0.802973 0.965922 0.440311
O O17 0.929329 0.459757 0.780841
O O18 0.500000 0.000000 0.000000
#
# Coordination Sequence:
#
# PCOD9055260 Si02
#       8
#     2   2   2   2   2   2   2   2
#     4  11  22  36  68 105 133 176 237 289 337 405
#     4  12  22  41  74 104 135 177 237 292 348 408
#     4  11  21  41  65 103 138 180 233 284 339 423
#     4  12  27  45  70  99 147 188 230 287 358 420
#     4  11  22  44  70 103 137 182 231 296 347 415
#     4  11  22  40  80 105 132 175 250 293 335 407
#     4  12  27  44  67 106 147 179 223 293 366 422
#     4  12  23  46  72 102 132 187 241 288 344 415
#
# _framework density 21.229869000000001
#
# number of rings (size 3 to 8) (size 9 to 14) (size 15 to 20)
#    0.000    0.500    6.250    4.500    0.000    3.000 
#    0.000    2.500    0.000    0.000    0.000    0.000 
#    0.000    0.000    0.000    0.000    0.000    0.000 
#
# Total GULP energy -89194.527412 kJ/mol
# GULP energy per Si atom -5574.657963 kJ/mol
# Density = 2.118155 g / cm^3
# Si number density = 21.229869 Si / 1000 Ang^3
#
#
#
# Elastic Constant Matrix: (Units=GPa)
#
#
# Indices 1 2 3 4 5 6 
#
# 1 134.9022 77.0324 45.4714 18.8709 22.1844 -17.5986
# 2 77.0324 126.2176 48.8159 23.0441 1.9493 -33.7317
# 3 45.4714 48.8159 89.2361 11.4763 22.5137 -17.3842
# 4 18.8709 23.0441 11.4763 19.9083 -11.2211 -3.8629
# 5 22.1844 1.9493 22.5137 -11.2211 44.2027 -2.2259
# 6 -17.5986 -33.7317 -17.3842 -3.8629 -2.2259 40.8777
#
#
#
# Elastic Compliance Matrix: (Units=1/GPa)
#
#
# Indices 1 2 3 4 5 6 
#
# 1 0.014423 -0.006875 0.000283 -0.011776 -0.010120 -0.001007
# 2 -0.006875 0.017546 -0.004122 -0.007791 0.003262 0.009207
# 3 0.000283 -0.004122 0.018683 -0.012827 -0.012593 0.002767
# 4 -0.011776 -0.007791 -0.012827 0.097732 0.037311 -0.005687
# 5 -0.010120 0.003262 -0.012593 0.037311 0.043387 -0.001132
# 6 -0.001007 0.009207 0.002767 -0.005687 -0.001132 0.032205
#
#
# Mechanical properties :
#
#
# Convention : Reuss Voigt Hill
#
# Bulk Modulus (GPa) = 34.21978 76.99949 55.60963
# Shear Modulus (GPa) = 19.59661 32.93349 26.26505
#
# Velocity S-wave (km/s) = 3.04150 3.94290 3.52116
# Velocity P-wave (km/s) = 5.33741 7.55492 6.54082
#
# Compressibility (1/GPa) = 0.02922286
#
# Stress axis : x y z
#
# Youngs Moduli (GPa) = 69.33182 56.99384 53.52407
#
# Poissons Ratio (x) = 0.39183 -0.01513
# Poissons Ratio (y) = 0.47666 0.22065
# Poissons Ratio (z) = -0.01960 0.23495
#
# Static dielectric constant tensor:
#      x y z
#    x 0.752140 -0.183960 -0.629160 
#    y -0.183960 1.915730 -0.123370 
#    z -0.629160 -0.123370 1.424660 
# 
# From -- ./inp_files/226383.got.cif
#   From: 2010.05.17/outbox.cif.g08.bks.cpg/sg2_114_cif.got.tgz:226383.got - 2010.06.03 11:33:40.
