data_PCOD9055773
_publ_section_title
;
Structure prediction by ZEFSAII (Michael W. Deem and Ramdas Pophale) SiO2 
 PCOD9055773
Probable space group: P -1
;
_chemical_formula_sum "Si O2"
_cell_formula_units_Z 16
_cell_length_a 10.747978
_cell_length_b 10.070999
_cell_length_c 10.939150
_cell_angle_alpha 84.895806
_cell_angle_beta 126.216206
_cell_angle_gamma 54.626585
_cell_volume 588.493502
_symmetry_space_group_name_H-M "P -1"
_symmetry_group_IT_number 2
_symmetry_cell_setting 'triclinic'
loop_
_space_group_symop_operation_xyz
x,y,z
-x,-y,-z
loop_
_atom_site_type_symbol
_atom_site_label
_atom_site_fract_x
_atom_site_fract_y
_atom_site_fract_z
Si Si1 0.343644 0.050141 0.673524
Si Si2 0.976663 0.566436 0.697431
Si Si3 0.199735 0.751826 0.407373
Si Si4 0.286387 0.830080 0.818752
Si Si5 0.459958 0.829269 0.500663
Si Si6 0.034589 0.711959 0.935828
Si Si7 0.845590 0.801091 0.066168
Si Si8 0.513467 0.549006 0.196011
O O1 0.311704 0.955727 0.760851
O O2 0.439634 0.910444 0.616292
O O3 0.093099 0.298911 0.471028
O O4 0.558078 0.004127 0.847558
O O5 0.707825 0.708356 0.587132
O O6 0.105542 0.572226 0.873451
O O7 0.127716 0.327911 0.802796
O O8 0.423649 0.694637 0.499157
O O9 0.308523 0.563948 0.574677
O O10 0.006814 0.818226 0.196118
O O11 0.009778 0.983639 0.345256
O O12 0.369950 0.653156 0.795770
O O13 0.449454 0.704964 0.047385
O O14 0.223490 0.042557 0.269843
O O15 0.984703 0.662497 0.032940
O O16 0.246455 0.677725 0.077249
#
# Coordination Sequence:
#
# PCOD9055773 Si02
#       8
#     2   2   2   2   2   2   2   2
#     4  11  23  44  70  97 132 177 223 277 327 388
#     4  11  23  41  70 102 134 172 229 272 328 399
#     4  12  27  44  66 102 141 173 220 276 337 395
#     4  11  25  45  71  94 133 178 231 269 329 390
#     4  11  21  43  71 102 129 173 221 282 333 388
#     4  11  21  43  71 102 132 171 228 274 334 394
#     4  12  26  42  68 102 138 180 212 274 345 399
#     4  11  24  43  71 102 130 173 225 282 325 393
#
# _framework density 27.188065000000002
#
# number of rings (size 3 to 8) (size 9 to 14) (size 15 to 20)
#    0.000    0.750    5.000    3.000    0.000    6.000 
#    0.000    1.250    0.000    0.000    0.000    0.000 
#    0.000    0.000    0.000    0.000    0.000    0.000 
#
# Total GULP energy -89763.343509 kJ/mol
# GULP energy per Si atom -5610.208969 kJ/mol
# Density = 2.712618 g / cm^3
# Si number density = 27.188065 Si / 1000 Ang^3
#
#
#
# Elastic Constant Matrix: (Units=GPa)
#
#
# Indices 1 2 3 4 5 6 
#
# 1 123.2767 12.8169 38.7807 3.1246 -25.4584 12.1199
# 2 12.8169 51.2922 35.2279 4.2618 -12.0894 6.0310
# 3 38.7807 35.2279 149.9817 4.9752 -14.2308 10.2891
# 4 3.1246 4.2618 4.9752 35.0169 16.3796 7.2503
# 5 -25.4584 -12.0894 -14.2308 16.3796 51.9836 -12.7630
# 6 12.1199 6.0310 10.2891 7.2503 -12.7630 34.1032
#
#
#
# Elastic Compliance Matrix: (Units=1/GPa)
#
#
# Indices 1 2 3 4 5 6 
#
# 1 0.009908 0.000466 -0.002046 -0.003037 0.005267 -0.000369
# 2 0.000466 0.024862 -0.005207 -0.005466 0.006451 0.000585
# 3 -0.002046 -0.005207 0.008481 -0.000179 -0.000054 -0.000893
# 4 -0.003037 -0.005466 -0.000179 0.041418 -0.019275 -0.013919
# 5 0.005267 0.006451 -0.000054 -0.019275 0.032645 0.013319
# 6 -0.000369 0.000585 -0.000893 -0.013919 0.013319 0.037564
#
#
# Mechanical properties :
#
#
# Convention : Reuss Voigt Hill
#
# Bulk Modulus (GPa) = 33.69395 55.35575 44.52485
# Shear Modulus (GPa) = 28.03589 40.06910 34.05250
#
# Velocity S-wave (km/s) = 3.21469 3.84314 3.54288
# Velocity P-wave (km/s) = 5.11847 6.33226 5.75744
#
# Compressibility (1/GPa) = 0.02967892
#
# Stress axis : x y z
#
# Youngs Moduli (GPa) = 100.92966 40.22278 117.90396
#
# Poissons Ratio (x) = -0.01876 0.24118
# Poissons Ratio (y) = -0.04707 0.61391
# Poissons Ratio (z) = 0.20646 0.20943
#
# Static dielectric constant tensor:
#      x y z
#    x 2.128410 -0.045460 -0.031050 
#    y -0.045460 2.149140 0.002130 
#    z -0.031050 0.002130 2.070140 
# 
# From -- ./inp_files/428236.got.cif
#   From: 2010.05.17/outbox.cif.g08.bks.cpg/sg2_215_cif.got.tgz:428236.got - 2010.06.03 11:33:40.
