data_PCOD9055930
_publ_section_title
;
Structure prediction by ZEFSAII (Michael W. Deem and Ramdas Pophale) SiO2 
 PCOD9055930
Probable space group: P -1
;
_chemical_formula_sum "Si O2"
_cell_formula_units_Z 14
_cell_length_a 15.223361
_cell_length_b 10.206018
_cell_length_c 12.311740
_cell_angle_alpha 50.071401
_cell_angle_beta 59.414842
_cell_angle_gamma 27.279427
_cell_volume 661.897646
_symmetry_space_group_name_H-M "P -1"
_symmetry_group_IT_number 2
_symmetry_cell_setting 'triclinic'
loop_
_space_group_symop_operation_xyz
x,y,z
-x,-y,-z
loop_
_atom_site_type_symbol
_atom_site_label
_atom_site_fract_x
_atom_site_fract_y
_atom_site_fract_z
Si Si1 0.443465 0.759488 0.452650
Si Si2 0.167043 0.238378 0.783913
Si Si3 0.821125 0.384752 0.397579
Si Si4 0.735208 0.118806 0.292945
Si Si5 0.890885 0.267130 0.164000
Si Si6 0.690700 0.138519 0.900393
Si Si7 0.750048 0.777763 0.865421
O O1 0.500000 0.500000 0.500000
O O2 0.643951 0.546834 0.483840
O O3 0.286252 0.948071 0.543252
O O4 0.382223 0.977307 0.281436
O O5 0.176664 0.426885 0.660534
O O6 0.965329 0.502060 0.832581
O O7 0.176190 0.123615 0.727510
O O8 0.317116 0.939397 0.934612
O O9 0.811604 0.411921 0.258200
O O10 0.000000 0.000000 0.500000
O O11 0.857707 0.117311 0.234900
O O12 0.513232 0.482125 0.203561
O O13 0.752540 0.579762 0.008029
O O14 0.114901 0.016831 0.146519
O O15 0.718882 0.948575 0.895010
#
# Coordination Sequence:
#
# PCOD9055930 Si02
#       7
#     2   2   2   2   2   2   2
#     4  12  24  41  67 100 135 176 230 273 329 407
#     4  11  25  44  68 102 137 172 222 285 343 385
#     4  12  23  42  72  98 131 183 227 275 335 401
#     4  12  27  44  67 104 143 172 220 287 339 394
#     4  11  23  42  74  98 131 183 227 272 341 393
#     4  11  21  44  72 100 134 176 230 277 327 412
#     4  11  22  43  71 100 132 176 235 275 321 417
#
# _framework density 21.151306999999999
#
# number of rings (size 3 to 8) (size 9 to 14) (size 15 to 20)
#    0.000    0.571    5.714    3.000    2.000    4.571 
#    2.571    0.000    0.000    0.000    0.000    0.000 
#    0.000    0.000    0.000    0.000    0.000    0.000 
#
# Total GULP energy -78242.861665 kJ/mol
# GULP energy per Si atom -5588.775833 kJ/mol
# Density = 2.110317 g / cm^3
# Si number density = 21.151307 Si / 1000 Ang^3
#
#
#
# Elastic Constant Matrix: (Units=GPa)
#
#
# Indices 1 2 3 4 5 6 
#
# 1 75.2050 -39.0587 -8.2022 -17.9042 -39.9039 7.7209
# 2 -39.0587 -158.8410 -91.3642 -50.8936 -38.2341 -12.3198
# 3 -8.2022 -91.3642 48.3223 -23.6022 -25.1172 -15.6012
# 4 -17.9042 -50.8936 -23.6022 11.6569 -8.1060 -0.3330
# 5 -39.9039 -38.2341 -25.1172 -8.1060 35.0388 -6.7111
# 6 7.7209 -12.3198 -15.6012 -0.3330 -6.7111 40.7985
#
#
#
# Elastic Compliance Matrix: (Units=1/GPa)
#
#
# Indices 1 2 3 4 5 6 
#
# 1 0.016793 -0.005810 -0.002537 0.002681 0.010800 -0.004104
# 2 -0.005810 0.003328 -0.004692 -0.010142 -0.008933 -0.001242
# 3 -0.002537 -0.004692 0.010683 -0.002982 -0.000457 0.003049
# 4 0.002681 -0.010142 -0.002982 0.037843 -0.002312 -0.004782
# 5 0.010800 -0.008933 -0.000457 -0.002312 0.030236 0.000039
# 6 -0.004104 -0.001242 0.003049 -0.004782 0.000039 0.026046
#
#
# Mechanical properties :
#
#
# Convention : Reuss Voigt Hill
#
# Bulk Modulus (GPa) = 211.63641 -34.72934 88.45354
# Shear Modulus (GPa) = 32.76928 24.38626 28.57777
#
# Velocity S-wave (km/s) = 3.94036 3.39919 3.67973
# Velocity P-wave (km/s) = 10.99897 1.02429 7.74365
#
# Compressibility (1/GPa) = 0.00472508
#
# Stress axis : x y z
#
# Youngs Moduli (GPa) = 59.54990 300.49205 93.60711
#
# Poissons Ratio (x) = 1.74591 0.23749
# Poissons Ratio (y) = 0.34599 0.43919
# Poissons Ratio (z) = 0.15109 1.40987
#
# Static dielectric constant tensor:
#      x y z
#    x 2.035720 0.043420 -0.570790 
#    y 0.043420 1.771220 -0.308550 
#    z -0.570790 -0.308550 3.420370 
# 
# From -- ./inp_files/157465.got.cif
#   From: 2010.05.17/outbox.cif.g08.bks.cpg/sg2_79_cif.got.tgz:157465.got - 2010.06.03 11:33:40.
