data_PCOD9055781
_publ_section_title
;
Structure prediction by ZEFSAII (Michael W. Deem and Ramdas Pophale) SiO2 
 PCOD9055781
Probable space group: P -1
;
_chemical_formula_sum "Si O2"
_cell_formula_units_Z 16
_cell_length_a 12.627671
_cell_length_b 9.847057
_cell_length_c 16.887795
_cell_angle_alpha 97.798313
_cell_angle_beta 137.985427
_cell_angle_gamma 48.108773
_cell_volume 722.437392
_symmetry_space_group_name_H-M "P -1"
_symmetry_group_IT_number 2
_symmetry_cell_setting 'triclinic'
loop_
_space_group_symop_operation_xyz
x,y,z
-x,-y,-z
loop_
_atom_site_type_symbol
_atom_site_label
_atom_site_fract_x
_atom_site_fract_y
_atom_site_fract_z
Si Si1 0.599989 0.817977 0.239605
Si Si2 0.150193 0.667933 0.683922
Si Si3 0.934433 0.853173 0.410278
Si Si4 0.427349 0.396546 0.075021
Si Si5 0.555041 0.096149 0.489468
Si Si6 0.153384 0.298469 0.141588
Si Si7 0.349824 0.974813 0.948440
Si Si8 0.314401 0.540936 0.457310
O O1 0.764244 0.550152 0.311155
O O2 0.828836 0.771917 0.340340
O O3 0.417069 0.006363 0.228740
O O4 0.359058 0.979386 0.047498
O O5 0.444694 0.544199 0.854954
O O6 0.986484 0.851061 0.529675
O O7 0.897249 0.855284 0.626836
O O8 0.243790 0.640554 0.514857
O O9 0.665799 0.138672 0.243745
O O10 0.462177 0.293911 0.001887
O O11 0.100981 0.605098 0.948080
O O12 0.321004 0.268203 0.298194
O O13 0.473903 0.277575 0.518241
O O14 0.500000 0.000000 0.500000
O O15 0.000000 0.500000 0.000000
O O16 0.017319 0.216742 0.747172
O O17 0.500000 0.000000 0.000000
O O18 0.500000 0.500000 0.500000
#
# Coordination Sequence:
#
# PCOD9055781 Si02
#       8
#     2   2   2   2   2   2   2   2
#     4  12  24  42  71  97 131 181 224 274 332 406
#     4  12  27  44  65 102 142 176 216 282 354 394
#     4  11  22  44  72  94 136 180 226 268 336 412
#     4  11  24  43  70 101 131 175 224 284 334 397
#     4  12  26  43  69 101 137 178 229 282 332 409
#     4  12  24  45  72 101 128 180 240 275 330 414
#     4  11  21  43  71  93 128 177 229 266 330 405
#     4  11  24  42  68 102 130 173 223 281 336 396
#
# _framework density 22.147248000000001
#
# number of rings (size 3 to 8) (size 9 to 14) (size 15 to 20)
#    0.000    0.500    5.000    4.500    3.500    3.000 
#    2.250    0.000    0.000    0.000    0.000    0.000 
#    0.000    0.000    0.000    0.000    0.000    0.000 
#
# Total GULP energy -89528.936065 kJ/mol
# GULP energy per Si atom -5595.558504 kJ/mol
# Density = 2.209684 g / cm^3
# Si number density = 22.147248 Si / 1000 Ang^3
#
#
#
# Elastic Constant Matrix: (Units=GPa)
#
#
# Indices 1 2 3 4 5 6 
#
# 1 91.2840 33.3866 13.7871 -9.1074 45.1575 -1.1866
# 2 33.3866 39.0184 1.8813 -13.6732 -3.9374 -15.0824
# 3 13.7871 1.8813 46.6684 -3.6158 26.7237 5.9102
# 4 -9.1074 -13.6732 -3.6158 35.5421 -5.2424 7.0515
# 5 45.1575 -3.9374 26.7237 -5.2424 39.8418 -7.2077
# 6 -1.1866 -15.0824 5.9102 7.0515 -7.2077 40.1295
#
#
#
# Elastic Compliance Matrix: (Units=1/GPa)
#
#
# Indices 1 2 3 4 5 6 
#
# 1 -0.018016 0.031966 -0.023396 0.007542 0.044159 0.021533
# 2 0.031966 -0.017491 0.028868 -0.000498 -0.061147 -0.020775
# 3 -0.023396 0.028868 0.012640 0.007697 0.023938 0.011244
# 4 0.007542 -0.000498 0.007697 0.030687 -0.011263 -0.008513
# 5 0.044159 -0.061147 0.023938 -0.011263 -0.054505 -0.033012
# 6 0.021533 -0.020775 0.011244 -0.008513 -0.033012 0.011658
#
#
# Mechanical properties :
#
#
# Convention : Reuss Voigt Hill
#
# Bulk Modulus (GPa) = 19.22651 30.56453 24.89552
# Shear Modulus (GPa) = -54.01618 31.63040 -11.19289
#
# Velocity S-wave (km/s) = -4.94394 3.78324 -2.25052
# Velocity P-wave (km/s) = 4.88774 5.73711 2.12420
#
# Compressibility (1/GPa) = 0.05201153
#
# Stress axis : x y z
#
# Youngs Moduli (GPa) = -55.50746 -57.17366 79.11196
#
# Poissons Ratio (x) = 1.82761 1.85087
# Poissons Ratio (y) = 1.77435 -2.28383
# Poissons Ratio (z) = -1.29863 1.65051
#
# Static dielectric constant tensor:
#      x y z
#    x 1.819980 0.005700 -0.031730 
#    y 0.005700 1.812080 0.010970 
#    z -0.031730 0.010970 1.825270 
# 
# From -- ./inp_files/190176.got.cif
#   From: 2010.05.17/outbox.cif.g08.bks.cpg/sg2_96_cif.got.tgz:190176.got - 2010.06.03 11:33:40.
