data_PCOD9055015
_publ_section_title
;
Structure prediction by ZEFSAII (Michael W. Deem and Ramdas Pophale) SiO2 
 PCOD9055015
Probable space group: P -1
;
_chemical_formula_sum "Si O2"
_cell_formula_units_Z 16
_cell_length_a 9.410935
_cell_length_b 12.641110
_cell_length_c 15.849783
_cell_angle_alpha 41.584309
_cell_angle_beta 142.272846
_cell_angle_gamma 141.601716
_cell_volume 674.698570
_symmetry_space_group_name_H-M "P -1"
_symmetry_group_IT_number 2
_symmetry_cell_setting 'triclinic'
loop_
_space_group_symop_operation_xyz
x,y,z
-x,-y,-z
loop_
_atom_site_type_symbol
_atom_site_label
_atom_site_fract_x
_atom_site_fract_y
_atom_site_fract_z
Si Si1 0.926893 0.310385 0.339464
Si Si2 0.118514 0.250179 0.301364
Si Si3 0.890264 0.122628 0.915928
Si Si4 0.554515 0.116816 0.039401
Si Si5 0.079185 0.603402 0.375054
Si Si6 0.422316 0.047217 0.525300
Si Si7 0.558878 0.561961 0.229417
Si Si8 0.737295 0.561378 0.009324
O O1 0.057185 0.429648 0.414856
O O2 0.868225 0.437111 0.171982
O O3 0.081070 0.240806 0.390866
O O4 0.665558 0.132357 0.352693
O O5 0.182005 0.095071 0.387226
O O6 0.370869 0.444397 0.286018
O O7 0.859824 0.227697 0.143146
O O8 0.956605 0.282673 0.786495
O O9 0.058496 0.228775 0.012358
O O10 0.593163 0.008231 0.874994
O O11 0.000000 0.000000 0.000000
O O12 0.415627 0.240724 0.881324
O O13 0.500000 0.000000 0.000000
O O14 0.833486 0.557408 0.350436
O O15 0.340982 0.765866 0.440871
O O16 0.500000 0.000000 0.500000
O O17 0.389624 0.470703 0.121634
O O18 0.500000 0.500000 0.000000
#
# Coordination Sequence:
#
# PCOD9055015 Si02
#       8
#     2   2   2   2   2   2   2   2
#     4  11  25  48  74 104 144 187 236 299 358 422
#     4  12  28  47  71 103 147 193 232 296 362 424
#     4  11  22  39  68 105 142 179 231 289 348 426
#     4  12  26  41  67 108 147 181 231 291 364 424
#     4  11  26  45  75 107 135 190 245 293 354 426
#     4  12  30  51  75 100 141 193 250 295 351 429
#     4  12  24  44  70 107 145 183 234 290 362 425
#     4  11  21  39  71 106 144 180 225 290 360 420
#
# _framework density 23.714293999999999
#
# number of rings (size 3 to 8) (size 9 to 14) (size 15 to 20)
#    0.000    0.500    5.000    3.000    7.000    2.500 
#    0.000    0.000    0.000    0.000    0.000    0.000 
#    0.000    0.000    0.000    0.000    0.000    0.000 
#
# Total GULP energy -89462.780460 kJ/mol
# GULP energy per Si atom -5591.423779 kJ/mol
# Density = 2.366032 g / cm^3
# Si number density = 23.714294 Si / 1000 Ang^3
#
#
#
# Elastic Constant Matrix: (Units=GPa)
#
#
# Indices 1 2 3 4 5 6 
#
# 1 156.4480 57.4211 8.4077 6.3672 6.9757 -3.6901
# 2 57.4211 136.8163 34.7789 -0.1557 0.6536 -4.1535
# 3 8.4077 34.7789 40.6344 6.3303 21.9818 -13.1685
# 4 6.3672 -0.1557 6.3303 32.8317 -2.5993 -1.5306
# 5 6.9757 0.6536 21.9818 -2.5993 29.8392 -8.3971
# 6 -3.6901 -4.1535 -13.1685 -1.5306 -8.3971 54.2415
#
#
#
# Elastic Compliance Matrix: (Units=1/GPa)
#
#
# Indices 1 2 3 4 5 6 
#
# 1 0.008558 -0.005650 0.008329 -0.003898 -0.008126 0.000804
# 2 -0.005650 0.015718 -0.024308 0.007269 0.018971 -0.001940
# 3 0.008329 -0.024308 0.083996 -0.022490 -0.062792 0.008742
# 4 -0.003898 0.007269 -0.022490 0.037145 0.020279 -0.000981
# 5 -0.008126 0.018971 -0.062792 0.020279 0.082750 -0.000962
# 6 0.000804 -0.001940 0.008742 -0.000981 -0.000962 0.020288
#
#
# Mechanical properties :
#
#
# Convention : Reuss Voigt Hill
#
# Bulk Modulus (GPa) = 15.38121 59.45710 37.41916
# Shear Modulus (GPa) = 15.95479 38.93520 27.44500
#
# Velocity S-wave (km/s) = 2.59664 4.05636 3.40563
# Velocity P-wave (km/s) = 3.93576 6.86043 5.59266
#
# Compressibility (1/GPa) = 0.06501438
#
# Stress axis : x y z
#
# Youngs Moduli (GPa) = 116.84957 63.62037 11.90528
#
# Poissons Ratio (x) = 0.35947 -0.09916
# Poissons Ratio (y) = 0.66022 0.28939
# Poissons Ratio (z) = -0.97322 1.54647
#
# Static dielectric constant tensor:
#      x y z
#    x 1.947100 -0.016080 0.031510 
#    y -0.016080 1.944150 0.068460 
#    z 0.031510 0.068460 2.029600 
# 
# From -- ./inp_files/559725.got.cif
#   From: 2010.05.17/outbox.cif.g08.bks.cpg/sg2_280_cif.got.tgz:559725.got - 2010.06.03 11:33:40.
