data_PCOD9055544
_publ_section_title
;
Structure prediction by ZEFSAII (Michael W. Deem and Ramdas Pophale) SiO2 
 PCOD9055544
Probable space group: P -1
;
_chemical_formula_sum "Si O2"
_cell_formula_units_Z 16
_cell_length_a 17.474794
_cell_length_b 17.447248
_cell_length_c 17.143510
_cell_angle_alpha 30.583782
_cell_angle_beta 163.515886
_cell_angle_gamma 147.246776
_cell_volume 750.238697
_symmetry_space_group_name_H-M "P -1"
_symmetry_group_IT_number 2
_symmetry_cell_setting 'triclinic'
loop_
_space_group_symop_operation_xyz
x,y,z
-x,-y,-z
loop_
_atom_site_type_symbol
_atom_site_label
_atom_site_fract_x
_atom_site_fract_y
_atom_site_fract_z
Si Si1 0.890336 0.985820 0.087866
Si Si2 0.588383 0.025598 0.975546
Si Si3 0.252975 0.580630 0.722016
Si Si4 0.484464 0.300636 0.860536
Si Si5 0.733305 0.504259 0.787977
Si Si6 0.108642 0.166791 0.294492
Si Si7 0.015488 0.671571 0.562701
Si Si8 0.610486 0.057398 0.474618
O O1 0.916510 0.815547 0.294156
O O2 0.112072 0.010715 0.214716
O O3 0.598604 0.988652 0.760500
O O4 0.983367 0.099476 0.149721
O O5 0.346990 0.077161 0.641283
O O6 0.663705 0.864042 0.160646
O O7 0.500000 0.000000 0.000000
O O8 0.852872 0.143940 0.123011
O O9 0.329006 0.760153 0.625427
O O10 0.000000 0.500000 0.500000
O O11 0.149603 0.567253 0.722375
O O12 0.500000 0.500000 0.000000
O O13 0.630735 0.374505 0.862646
O O14 0.250713 0.389823 0.593587
O O15 0.730787 0.277603 0.178984
O O16 0.500000 0.500000 0.500000
O O17 0.776567 0.658336 0.745774
O O18 0.000000 0.500000 0.000000
O O19 0.500000 0.000000 0.500000
#
# Coordination Sequence:
#
# PCOD9055544 Si02
#       8
#     2   2   2   2   2   2   2   2
#     4  11  21  42  69  96 131 169 215 275 324 381
#     4  12  23  39  68 101 124 165 226 278 312 393
#     4  11  23  43  68  98 134 171 215 266 327 394
#     4  12  22  42  66  97 130 170 224 267 330 393
#     4  12  27  47  64  93 140 183 213 274 346 393
#     4  12  24  43  66  96 132 171 222 267 335 389
#     4  11  22  41  69  98 129 171 216 276 327 377
#     4  11  24  43  69  97 133 172 214 262 330 391
#
# _framework density 21.326546
#
# number of rings (size 3 to 8) (size 9 to 14) (size 15 to 20)
#    0.000    0.500    2.500    8.250    0.000    0.000 
#    6.750    0.000    0.000    0.000    0.000    0.000 
#    0.000    0.000    0.000    0.000    0.000    0.000 
#
# Total GULP energy -89416.585337 kJ/mol
# GULP energy per Si atom -5588.536584 kJ/mol
# Density = 2.127801 g / cm^3
# Si number density = 21.326546 Si / 1000 Ang^3
#
#
#
# Elastic Constant Matrix: (Units=GPa)
#
#
# Indices 1 2 3 4 5 6 
#
# 1 102.3231 9.7404 12.3435 -3.3071 24.0861 4.8901
# 2 9.7404 82.3763 20.8842 16.5930 -4.2435 -11.3836
# 3 12.3435 20.8842 90.6246 19.8042 19.6022 0.3555
# 4 -3.3071 16.5930 19.8042 23.4409 -0.2912 9.5180
# 5 24.0861 -4.2435 19.6022 -0.2912 43.7816 6.0497
# 6 4.8901 -11.3836 0.3555 9.5180 6.0497 28.6201
#
#
#
# Elastic Compliance Matrix: (Units=1/GPa)
#
#
# Indices 1 2 3 4 5 6 
#
# 1 0.012022 -0.003417 -0.001037 0.006705 -0.005828 -0.004398
# 2 -0.003417 0.018410 0.000008 -0.019160 0.001607 0.013938
# 3 -0.001037 0.000008 0.016680 -0.017368 -0.008041 0.007449
# 4 0.006705 -0.019160 -0.017368 0.088013 0.008284 -0.039572
# 5 -0.005828 0.001607 -0.008041 0.008284 0.030902 -0.007552
# 6 -0.004398 0.013938 0.007449 -0.039572 -0.007552 0.055900
#
#
# Mechanical properties :
#
#
# Convention : Reuss Voigt Hill
#
# Bulk Modulus (GPa) = 26.16572 40.14003 33.15287
# Shear Modulus (GPa) = 20.52886 34.65892 27.59389
#
# Velocity S-wave (km/s) = 3.10594 4.03569 3.60095
# Velocity P-wave (km/s) = 5.01580 6.37011 5.73308
#
# Compressibility (1/GPa) = 0.03821794
#
# Stress axis : x y z
#
# Youngs Moduli (GPa) = 83.17912 54.31872 59.95338
#
# Poissons Ratio (x) = 0.18562 0.06219
# Poissons Ratio (y) = 0.28424 -0.00045
# Poissons Ratio (z) = 0.08628 -0.00041
#
# Static dielectric constant tensor:
#      x y z
#    x 1.762270 -0.003900 0.029070 
#    y -0.003900 1.747550 -0.033110 
#    z 0.029070 -0.033110 1.750500 
# 
# From -- ./inp_files/534296.got.cif
#   From: 2010.05.17/outbox.cif.g08.bks.cpg/sg2_268_cif.got.tgz:534296.got - 2010.06.03 11:33:40.
