data_PCOD9055559
_publ_section_title
;
Structure prediction by ZEFSAII (Michael W. Deem and Ramdas Pophale) SiO2 
 PCOD9055559
Probable space group: P -1
;
_chemical_formula_sum "Si O2"
_cell_formula_units_Z 16
_cell_length_a 8.690245
_cell_length_b 14.346553
_cell_length_c 21.887374
_cell_angle_alpha 159.037893
_cell_angle_beta 125.987497
_cell_angle_gamma 51.335829
_cell_volume 762.177101
_symmetry_space_group_name_H-M "P -1"
_symmetry_group_IT_number 2
_symmetry_cell_setting 'triclinic'
loop_
_space_group_symop_operation_xyz
x,y,z
-x,-y,-z
loop_
_atom_site_type_symbol
_atom_site_label
_atom_site_fract_x
_atom_site_fract_y
_atom_site_fract_z
Si Si1 0.121143 0.715706 0.384371
Si Si2 0.283828 0.324526 0.901434
Si Si3 0.028977 0.986027 0.348758
Si Si4 0.675896 0.920136 0.746053
Si Si5 0.796842 0.453262 0.113871
Si Si6 0.431765 0.752945 0.271816
Si Si7 0.442858 0.293898 0.541900
Si Si8 0.023881 0.465222 0.557290
O O1 0.350847 0.634330 0.371563
O O2 0.086319 0.794939 0.495496
O O3 0.007829 0.496166 0.204131
O O4 0.000000 0.000000 0.500000
O O5 0.287776 0.356387 0.848174
O O6 0.463440 0.084681 0.822254
O O7 0.320120 0.598259 0.103801
O O8 0.087530 0.241856 0.822025
O O9 0.031695 0.164279 0.397995
O O10 0.254546 0.845211 0.335547
O O11 0.614214 0.801884 0.596421
O O12 0.830766 0.679382 0.668971
O O13 0.787529 0.156653 0.910650
O O14 0.650619 0.552900 0.198681
O O15 0.467565 0.032708 0.429940
O O16 0.240972 0.503169 0.645714
O O17 0.000000 0.500000 0.500000
#
# Coordination Sequence:
#
# PCOD9055559 Si02
#       8
#     2   2   2   2   2   2   2   2
#     4  12  21  36  56  89 117 152 181 224 292 343
#     4  11  18  33  58  89 118 138 184 245 286 328
#     4  11  22  34  55  87 119 143 186 243 273 330
#     4  10  17  36  60  79 106 154 193 223 280 329
#     4  11  20  34  60  84 117 153 181 224 291 349
#     4  10  18  32  53  85 116 145 178 235 287 325
#     4  10  17  36  58  81 115 143 191 232 273 333
#     4   9  22  38  58  82 108 153 193 235 276 327
#
# _framework density 20.992495000000002
#
# number of rings (size 3 to 8) (size 9 to 14) (size 15 to 20)
#    0.000    1.500    6.250    1.125    0.000    1.000 
#    0.000    1.250    0.000    0.000    0.000    0.000 
#    0.000    0.000    0.000    0.000    0.000    0.000 
#
# Total GULP energy -89086.663933 kJ/mol
# GULP energy per Si atom -5567.916496 kJ/mol
# Density = 2.094472 g / cm^3
# Si number density = 20.992495 Si / 1000 Ang^3
#
#
#
# Elastic Constant Matrix: (Units=GPa)
#
#
# Indices 1 2 3 4 5 6 
#
# 1 102.4254 36.4855 35.2317 -10.2084 26.6594 -33.0991
# 2 36.4855 65.8802 40.6056 -1.7172 8.0653 -23.0253
# 3 35.2317 40.6056 61.5653 -10.2901 23.4657 -22.9473
# 4 -10.2084 -1.7172 -10.2901 29.4715 -15.6677 6.2784
# 5 26.6594 8.0653 23.4657 -15.6677 35.8005 -5.2424
# 6 -33.0991 -23.0253 -22.9473 6.2784 -5.2424 41.5675
#
#
#
# Elastic Compliance Matrix: (Units=1/GPa)
#
#
# Indices 1 2 3 4 5 6 
#
# 1 0.017673 -0.005909 0.002300 -0.002573 -0.012876 0.010833
# 2 -0.005909 0.030338 -0.019735 -0.002566 0.009792 0.002827
# 3 0.002300 -0.019735 0.040235 -0.000354 -0.022277 0.010355
# 4 -0.002573 -0.002566 -0.000354 0.045977 0.021695 -0.007874
# 5 -0.012876 0.009792 -0.022277 0.021695 0.057485 -0.013154
# 6 0.010833 0.002827 0.010355 -0.007874 -0.013154 0.039496
#
#
# Mechanical properties :
#
#
# Convention : Reuss Voigt Hill
#
# Bulk Modulus (GPa) = 24.06422 50.50183 37.28303
# Shear Modulus (GPa) = 17.13811 29.20446 23.17129
#
# Velocity S-wave (km/s) = 2.86036 3.73391 3.32594
# Velocity P-wave (km/s) = 4.73255 6.53443 5.70507
#
# Compressibility (1/GPa) = 0.04155547
#
# Stress axis : x y z
#
# Youngs Moduli (GPa) = 56.58332 32.96166 24.85407
#
# Poissons Ratio (x) = 0.19478 -0.05715
# Poissons Ratio (y) = 0.33437 0.49051
# Poissons Ratio (z) = -0.13011 0.65051
#
# Static dielectric constant tensor:
#      x y z
#    x 1.861140 -0.015360 -0.065530 
#    y -0.015360 1.785170 -0.009800 
#    z -0.065530 -0.009800 1.759890 
# 
# From -- ./inp_files/259415.got.cif
#   From: 2010.05.17/outbox.cif.g08.bks.cpg/sg2_130_cif.got.tgz:259415.got - 2010.06.03 11:33:40.
