data_PCOD9055832
_publ_section_title
;
Structure prediction by ZEFSAII (Michael W. Deem and Ramdas Pophale) SiO2 
 PCOD9055832
Probable space group: P -1
;
_chemical_formula_sum "Si O2"
_cell_formula_units_Z 14
_cell_length_a 7.386614
_cell_length_b 8.359716
_cell_length_c 11.954086
_cell_angle_alpha 63.397968
_cell_angle_beta 59.075809
_cell_angle_gamma 87.227349
_cell_volume 550.073899
_symmetry_space_group_name_H-M "P -1"
_symmetry_group_IT_number 2
_symmetry_cell_setting 'triclinic'
loop_
_space_group_symop_operation_xyz
x,y,z
-x,-y,-z
loop_
_atom_site_type_symbol
_atom_site_label
_atom_site_fract_x
_atom_site_fract_y
_atom_site_fract_z
Si Si1 0.887628 0.286907 0.622681
Si Si2 0.007202 0.080717 0.333617
Si Si3 0.604899 0.467216 0.276696
Si Si4 0.410583 0.823345 0.445233
Si Si5 0.794110 0.175826 0.173393
Si Si6 0.035857 0.688651 0.154331
Si Si7 0.324295 0.422181 0.175098
O O1 0.007790 0.134663 0.583828
O O2 0.670111 0.249754 0.628900
O O3 0.893554 0.242236 0.766152
O O4 0.000000 0.500000 0.500000
O O5 0.797672 0.129243 0.441890
O O6 0.997737 0.142578 0.188441
O O7 0.236185 0.202531 0.268035
O O8 0.523460 0.328913 0.448643
O O9 0.733511 0.358550 0.184108
O O10 0.418847 0.495392 0.242874
O O11 0.781692 0.636609 0.220408
O O12 0.601074 0.002746 0.318211
O O13 0.839462 0.191648 0.023140
O O14 0.113486 0.497610 0.190407
O O15 0.500000 0.500000 0.000000
#
# Coordination Sequence:
#
# PCOD9055832 Si02
#       7
#     2   2   2   2   2   2   2
#     4  12  26  47  69  99 147 192 233 296 365 412
#     4  11  24  46  76 100 142 191 241 292 352 425
#     4  11  21  43  74 102 141 184 240 288 349 417
#     4  11  24  46  73 101 140 188 244 297 342 426
#     4  11  23  43  73 108 140 182 243 295 351 416
#     4  12  25  47  70 106 156 178 230 304 350 427
#     4  12  23  43  79 111 136 188 240 289 356 425
#
# _framework density 25.451125000000001
#
# number of rings (size 3 to 8) (size 9 to 14) (size 15 to 20)
#    0.000    0.571    5.714    4.286    0.000    4.571 
#    2.571    1.429    0.000    0.000    0.000    0.000 
#    0.000    0.000    0.000    0.000    0.000    0.000 
#
# Total GULP energy -78451.321143 kJ/mol
# GULP energy per Si atom -5603.665796 kJ/mol
# Density = 2.539320 g / cm^3
# Si number density = 25.451125 Si / 1000 Ang^3
#
#
#
# Elastic Constant Matrix: (Units=GPa)
#
#
# Indices 1 2 3 4 5 6 
#
# 1 105.4503 29.2118 41.6284 6.1014 19.5536 36.2180
# 2 29.2118 97.3905 42.1057 9.9315 1.6394 26.6936
# 3 41.6284 42.1057 162.4643 19.6181 29.7630 27.9240
# 4 6.1014 9.9315 19.6181 35.6862 17.1617 16.3825
# 5 19.5536 1.6394 29.7630 17.1617 42.8221 10.9902
# 6 36.2180 26.6936 27.9240 16.3825 10.9902 54.3232
#
#
#
# Elastic Compliance Matrix: (Units=1/GPa)
#
#
# Indices 1 2 3 4 5 6 
#
# 1 0.014056 -0.001803 -0.001358 0.005231 -0.005377 -0.008277
# 2 -0.001803 0.013272 -0.002783 -0.001919 0.004080 -0.004136
# 3 -0.001358 -0.002783 0.008295 -0.001078 -0.004408 -0.000774
# 4 0.005231 -0.001919 -0.001078 0.040592 -0.014958 -0.011206
# 5 -0.005377 0.004080 -0.004408 -0.014958 0.034349 0.001408
# 6 -0.008277 -0.004136 -0.000774 -0.011206 0.001408 0.029451
#
#
# Mechanical properties :
#
#
# Convention : Reuss Voigt Hill
#
# Bulk Modulus (GPa) = 42.13058 65.68855 53.90957
# Shear Modulus (GPa) = 31.28609 43.39023 37.33816
#
# Velocity S-wave (km/s) = 3.50989 4.13346 3.83437
# Velocity P-wave (km/s) = 5.74589 6.97469 6.38990
#
# Compressibility (1/GPa) = 0.02373573
#
# Stress axis : x y z
#
# Youngs Moduli (GPa) = 71.14376 75.34398 120.55221
#
# Poissons Ratio (x) = 0.13586 0.16373
# Poissons Ratio (y) = 0.12829 0.33544
# Poissons Ratio (z) = 0.09663 0.20965
#
# Static dielectric constant tensor:
#      x y z
#    x 2.050790 -0.028050 -0.001790 
#    y -0.028050 2.035540 0.076170 
#    z -0.001790 0.076170 1.969840 
# 
# From -- ./inp_files/384823.got.cif
#   From: 2010.05.17/outbox.cif.g08.bks.cpg/sg2_193_cif.got.tgz:384823.got - 2010.06.03 11:33:40.
