data_PCOD9055506
_publ_section_title
;
Structure prediction by ZEFSAII (Michael W. Deem and Ramdas Pophale) SiO2 
 PCOD9055506
Probable space group: P -1
;
_chemical_formula_sum "Si O2"
_cell_formula_units_Z 16
_cell_length_a 18.299206
_cell_length_b 15.445084
_cell_length_c 11.516743
_cell_angle_alpha 133.505380
_cell_angle_beta 30.598897
_cell_angle_gamma 153.411982
_cell_volume 692.745374
_symmetry_space_group_name_H-M "P -1"
_symmetry_group_IT_number 2
_symmetry_cell_setting 'triclinic'
loop_
_space_group_symop_operation_xyz
x,y,z
-x,-y,-z
loop_
_atom_site_type_symbol
_atom_site_label
_atom_site_fract_x
_atom_site_fract_y
_atom_site_fract_z
Si Si1 0.478187 0.345183 0.560742
Si Si2 0.258904 0.980724 0.893986
Si Si3 0.809084 0.083703 0.348518
Si Si4 0.082237 0.054484 0.668869
Si Si5 0.707602 0.278640 0.705423
Si Si6 0.307839 0.347756 0.018311
Si Si7 0.969781 0.342240 0.928529
Si Si8 0.362499 0.017299 0.136060
O O1 0.300113 0.272530 0.637648
O O2 0.751094 0.510512 0.296507
O O3 0.343435 0.130207 0.586338
O O4 0.473300 0.420650 0.751541
O O5 0.210762 0.941072 0.786191
O O6 0.538886 0.204108 0.757724
O O7 0.188624 0.803168 0.877042
O O8 0.080334 0.955367 0.182399
O O9 0.683981 0.119604 0.593421
O O10 0.093324 0.284183 0.193964
O O11 0.209884 0.021052 0.412450
O O12 0.877026 0.875060 0.878821
O O13 0.000000 0.500000 0.500000
O O14 0.570547 0.223072 0.960271
O O15 0.500000 0.500000 0.000000
O O16 0.839521 0.185079 0.855559
O O17 0.000000 0.500000 0.000000
O O18 0.500000 0.000000 0.000000
#
# Coordination Sequence:
#
# PCOD9055506 Si02
#       8
#     2   2   2   2   2   2   2   2
#     4  11  21  42  67  99 136 178 231 281 349 426
#     4  11  24  46  69 101 143 186 235 299 357 415
#     4  11  22  44  68  98 137 183 235 283 352 418
#     4  11  22  43  71 101 141 182 232 294 356 417
#     4  11  27  43  65 101 136 186 234 292 348 413
#     4  11  22  39  69 105 135 179 227 289 348 425
#     4  11  25  43  66 100 136 191 241 288 356 425
#     4  11  24  46  70  97 140 186 232 290 355 423
#
# _framework density 23.096509000000001
#
# number of rings (size 3 to 8) (size 9 to 14) (size 15 to 20)
#    0.000    1.000    2.500    5.625    1.750    5.500 
#    2.250    0.000    0.000    0.000    0.000    0.000 
#    0.000    0.000    0.000    0.000    0.000    0.000 
#
# Total GULP energy -89254.447748 kJ/mol
# GULP energy per Si atom -5578.402984 kJ/mol
# Density = 2.304394 g / cm^3
# Si number density = 23.096509 Si / 1000 Ang^3
#
#
#
# Elastic Constant Matrix: (Units=GPa)
#
#
# Indices 1 2 3 4 5 6 
#
# 1 104.1142 38.5034 19.3232 -12.8029 -19.5002 26.1693
# 2 38.5034 54.6103 19.5536 -22.4753 -5.0696 14.9849
# 3 19.3232 19.5536 76.2067 -14.9620 -11.3816 9.6811
# 4 -12.8029 -22.4753 -14.9620 51.8972 10.0321 -10.2026
# 5 -19.5002 -5.0696 -11.3816 10.0321 40.6381 -8.4302
# 6 26.1693 14.9849 9.6811 -10.2026 -8.4302 46.3891
#
#
#
# Elastic Compliance Matrix: (Units=1/GPa)
#
#
# Indices 1 2 3 4 5 6 
#
# 1 0.015290 -0.009862 -0.000405 -0.002672 0.005632 -0.004919
# 2 -0.009862 0.031117 -0.003889 0.010437 -0.004991 -0.002288
# 3 -0.000405 -0.003889 0.015121 0.001863 0.002945 -0.000726
# 4 -0.002672 0.010437 0.001863 0.025126 -0.005177 0.002332
# 5 0.005632 -0.004991 0.002945 -0.005177 0.029203 0.001989
# 6 -0.004919 -0.002288 -0.000726 0.002332 0.001989 0.026097
#
#
# Mechanical properties :
#
#
# Convention : Reuss Voigt Hill
#
# Bulk Modulus (GPa) = 30.10650 43.29907 36.70278
# Shear Modulus (GPa) = 27.57275 38.28828 32.93051
#
# Velocity S-wave (km/s) = 3.45890 4.07597 3.78004
# Velocity P-wave (km/s) = 5.38659 6.39836 5.91415
#
# Compressibility (1/GPa) = 0.03321542
#
# Stress axis : x y z
#
# Youngs Moduli (GPa) = 65.40186 32.13632 66.13483
#
# Poissons Ratio (x) = 0.31694 0.02678
# Poissons Ratio (y) = 0.64501 0.25721
# Poissons Ratio (z) = 0.02648 0.12499
#
# Static dielectric constant tensor:
#      x y z
#    x 1.992170 -0.037790 -0.076040 
#    y -0.037790 1.903730 0.047620 
#    z -0.076040 0.047620 1.918350 
# 
# From -- ./inp_files/466104.got.cif
#   From: 2010.05.17/outbox.cif.g08.bks.cpg/sg2_234_cif.got.tgz:466104.got - 2010.06.03 11:33:40.
