data_PCOD9055557
_publ_section_title
;
Structure prediction by ZEFSAII (Michael W. Deem and Ramdas Pophale) SiO2 
 PCOD9055557
Probable space group: P -1
;
_chemical_formula_sum "Si O2"
_cell_formula_units_Z 16
_cell_length_a 14.218364
_cell_length_b 8.050926
_cell_length_c 13.289439
_cell_angle_alpha 56.873478
_cell_angle_beta 42.054726
_cell_angle_gamma 86.361005
_cell_volume 676.086047
_symmetry_space_group_name_H-M "P -1"
_symmetry_group_IT_number 2
_symmetry_cell_setting 'triclinic'
loop_
_space_group_symop_operation_xyz
x,y,z
-x,-y,-z
loop_
_atom_site_type_symbol
_atom_site_label
_atom_site_fract_x
_atom_site_fract_y
_atom_site_fract_z
Si Si1 0.546991 0.887916 0.164487
Si Si2 0.263600 0.726000 0.596017
Si Si3 0.544016 0.235746 0.282008
Si Si4 0.289258 0.356294 0.813171
Si Si5 0.044797 0.118589 0.813054
Si Si6 0.073941 0.542312 0.157256
Si Si7 0.634032 0.557113 0.689982
Si Si8 0.152040 0.524983 0.306846
O O1 0.377248 0.842561 0.365290
O O2 0.612823 0.771235 0.228385
O O3 0.489656 0.723256 0.163836
O O4 0.696648 0.178248 0.930184
O O5 0.265547 0.495112 0.697752
O O6 0.064344 0.624373 0.766496
O O7 0.377009 0.944566 0.515962
O O8 0.602669 0.424515 0.264645
O O9 0.478654 0.349410 0.218307
O O10 0.723019 0.274437 0.099974
O O11 0.090232 0.114555 0.075549
O O12 0.993690 0.305297 0.797356
O O13 0.239384 0.268420 0.562467
O O14 0.000000 0.000000 0.000000
O O15 0.076089 0.401553 0.298650
O O16 0.760689 0.577217 0.666945
O O17 0.000000 0.500000 0.500000
#
# Coordination Sequence:
#
# PCOD9055557 Si02
#       8
#     2   2   2   2   2   2   2   2
#     4  11  21  42  70 102 136 180 237 294 345 411
#     4  12  23  45  68 101 145 187 230 285 350 420
#     4  11  28  45  63 104 148 184 235 280 361 422
#     4  11  23  40  71 102 143 184 228 287 354 416
#     4  12  22  44  73 106 139 179 238 293 342 410
#     4  12  25  44  71 102 140 183 233 286 355 405
#     4  11  25  44  70 103 141 185 234 293 347 410
#     4  12  22  44  74 102 136 179 246 294 342 409
#
# _framework density 23.665628000000002
#
# number of rings (size 3 to 8) (size 9 to 14) (size 15 to 20)
#    0.000    0.500    6.250    1.125    1.750    5.000 
#    0.000    0.625    0.000    0.000    0.000    0.000 
#    0.000    0.000    0.000    0.000    0.000    0.000 
#
# Total GULP energy -89392.935369 kJ/mol
# GULP energy per Si atom -5587.058461 kJ/mol
# Density = 2.361176 g / cm^3
# Si number density = 23.665628 Si / 1000 Ang^3
#
#
#
# Elastic Constant Matrix: (Units=GPa)
#
#
# Indices 1 2 3 4 5 6 
#
# 1 128.0181 7.7079 39.5413 -0.1682 -15.9781 -7.7208
# 2 7.7079 72.5772 32.9177 -11.0533 -14.2119 -2.1421
# 3 39.5413 32.9177 99.7036 -15.5520 -27.3303 1.2038
# 4 -0.1682 -11.0533 -15.5520 26.7019 4.5295 -14.0119
# 5 -15.9781 -14.2119 -27.3303 4.5295 40.7831 -5.9050
# 6 -7.7208 -2.1421 1.2038 -14.0119 -5.9050 31.2838
#
#
#
# Elastic Compliance Matrix: (Units=1/GPa)
#
#
# Indices 1 2 3 4 5 6 
#
# 1 0.009266 0.001028 -0.003576 -0.000567 0.002035 0.002625
# 2 0.001028 0.017518 -0.004120 0.007111 0.003754 0.005505
# 3 -0.003576 -0.004120 0.016090 0.008074 0.007520 0.003252
# 4 -0.000567 0.007111 0.008074 0.058502 0.005108 0.027203
# 5 0.002035 0.003754 0.007520 0.005108 0.032381 0.008870
# 6 0.002625 0.005505 0.003252 0.027203 0.008870 0.046724
#
#
# Mechanical properties :
#
#
# Convention : Reuss Voigt Hill
#
# Bulk Modulus (GPa) = 33.85603 51.18141 42.51872
# Shear Modulus (GPa) = 24.55043 34.42922 29.48982
#
# Velocity S-wave (km/s) = 3.22434 3.81835 3.53385
# Velocity P-wave (km/s) = 5.31026 6.41198 5.88695
#
# Compressibility (1/GPa) = 0.02953684
#
# Stress axis : x y z
#
# Youngs Moduli (GPa) = 107.92548 57.08317 62.15217
#
# Poissons Ratio (x) = -0.05866 0.22228
# Poissons Ratio (y) = -0.11090 0.25604
# Poissons Ratio (z) = 0.38598 0.23516
#
# Static dielectric constant tensor:
#      x y z
#    x 2.023270 0.030490 -0.003070 
#    y 0.030490 1.886490 -0.004920 
#    z -0.003070 -0.004920 1.890470 
# 
# From -- ./inp_files/273404.got.cif
#   From: 2010.05.17/outbox.cif.g08.bks.cpg/sg2_137_cif.got.tgz:273404.got - 2010.06.03 11:33:40.
