data_PCOD9055039
_publ_section_title
;
Structure prediction by ZEFSAII (Michael W. Deem and Ramdas Pophale) SiO2 
 PCOD9055039
Probable space group: P -1
;
_chemical_formula_sum "Si O2"
_cell_formula_units_Z 16
_cell_length_a 12.404055
_cell_length_b 9.067674
_cell_length_c 8.306478
_cell_angle_alpha 111.496708
_cell_angle_beta 70.915854
_cell_angle_gamma 112.144672
_cell_volume 785.601616
_symmetry_space_group_name_H-M "P -1"
_symmetry_group_IT_number 2
_symmetry_cell_setting 'triclinic'
loop_
_space_group_symop_operation_xyz
x,y,z
-x,-y,-z
loop_
_atom_site_type_symbol
_atom_site_label
_atom_site_fract_x
_atom_site_fract_y
_atom_site_fract_z
Si Si1 0.268618 0.701625 0.858011
Si Si2 0.365133 0.491734 0.510391
Si Si3 0.534767 0.345923 0.761702
Si Si4 0.150892 0.129501 0.818988
Si Si5 0.506290 0.004824 0.192554
Si Si6 0.271239 0.109575 0.402827
Si Si7 0.871200 0.064552 0.917397
Si Si8 0.682357 0.534935 0.039255
O O1 0.273138 0.539039 0.694425
O O2 0.368776 0.854068 0.791844
O O3 0.311192 0.645334 0.984261
O O4 0.153427 0.759661 0.967012
O O5 0.500000 0.500000 0.500000
O O6 0.388668 0.638955 0.428297
O O7 0.307012 0.302808 0.413216
O O8 0.415924 0.395651 0.797629
O O9 0.497389 0.170169 0.796932
O O10 0.621034 0.497555 0.881285
O O11 0.210880 0.096289 0.606456
O O12 0.197708 0.321412 0.930082
O O13 0.009563 0.078679 0.838376
O O14 0.173172 0.036685 0.934716
O O15 0.393199 0.057735 0.333109
O O16 0.500000 0.000000 0.000000
O O17 0.196252 0.010265 0.246539
#
# Coordination Sequence:
#
# PCOD9055039 Si02
#       8
#     2   2   2   2   2   2   2   2
#     4  12  23  41  62  94 131 166 208 266 324 381
#     4  12  23  39  60  97 136 166 211 261 326 393
#     4  11  23  36  64  95 132 173 202 262 327 393
#     4  11  25  45  68  94 124 175 226 268 320 382
#     4  12  23  38  63  99 132 167 212 261 329 392
#     4  12  23  44  68  94 133 171 214 269 324 390
#     4  11  26  45  69  91 128 172 226 272 319 379
#     4  11  21  40  62  92 128 168 212 255 327 385
#
# _framework density 20.366555999999999
#
# number of rings (size 3 to 8) (size 9 to 14) (size 15 to 20)
#    0.000    0.500    6.250    1.875    3.500    1.000 
#    0.000    0.000    0.000    2.250    0.000    0.000 
#    0.000    0.000    0.000    0.000    0.000    0.000 
#
# Total GULP energy -89091.777249 kJ/mol
# GULP energy per Si atom -5568.236078 kJ/mol
# Density = 2.032020 g / cm^3
# Si number density = 20.366556 Si / 1000 Ang^3
#
#
#
# Elastic Constant Matrix: (Units=GPa)
#
#
# Indices 1 2 3 4 5 6 
#
# 1 64.7491 20.8258 25.3992 0.7576 -11.0191 -4.1117
# 2 20.8258 91.6746 23.8865 -8.7028 -6.3725 -18.1737
# 3 25.3992 23.8865 89.9108 -6.7333 -15.0097 -8.8954
# 4 0.7576 -8.7028 -6.7333 38.2213 -0.6684 2.5268
# 5 -11.0191 -6.3725 -15.0097 -0.6684 26.4951 8.5201
# 6 -4.1117 -18.1737 -8.8954 2.5268 8.5201 29.4940
#
#
#
# Elastic Compliance Matrix: (Units=1/GPa)
#
#
# Indices 1 2 3 4 5 6 
#
# 1 0.018883 -0.003484 -0.003822 -0.001605 0.005490 -0.002115
# 2 -0.003484 0.013868 -0.002045 0.002326 -0.001700 0.007735
# 3 -0.003822 -0.002045 0.013907 0.002121 0.005663 0.000584
# 4 -0.001605 0.002326 0.002121 0.027208 0.002133 -0.001098
# 5 0.005490 -0.001700 0.005663 0.002133 0.046829 -0.012285
# 6 -0.002115 0.007735 0.000584 -0.001098 -0.012285 0.042196
#
#
# Mechanical properties :
#
#
# Convention : Reuss Voigt Hill
#
# Bulk Modulus (GPa) = 35.76865 42.95084 39.35975
# Shear Modulus (GPa) = 26.19024 30.59028 28.39026
#
# Velocity S-wave (km/s) = 3.58990 3.87975 3.73763
# Velocity P-wave (km/s) = 5.89777 6.41908 6.16394
#
# Compressibility (1/GPa) = 0.02795744
#
# Stress axis : x y z
#
# Youngs Moduli (GPa) = 52.95869 72.10685 71.90687
#
# Poissons Ratio (x) = 0.25121 0.27480
# Poissons Ratio (y) = 0.18450 0.14702
# Poissons Ratio (z) = 0.20239 0.14743
#
# Static dielectric constant tensor:
#      x y z
#    x 1.716550 0.002950 0.024560 
#    y 0.002950 1.746260 -0.044350 
#    z 0.024560 -0.044350 1.852340 
# 
# From -- ./inp_files/176728.got.cif
#   From: 2010.05.17/outbox.cif.g08.bks.cpg/sg2_89_cif.got.tgz:176728.got - 2010.06.03 11:33:40.
