data_PCOD9055442
_publ_section_title
;
Structure prediction by ZEFSAII (Michael W. Deem and Ramdas Pophale) SiO2 
 PCOD9055442
Probable space group: P -1
;
_chemical_formula_sum "Si O2"
_cell_formula_units_Z 14
_cell_length_a 8.985506
_cell_length_b 8.247902
_cell_length_c 11.923557
_cell_angle_alpha 58.788606
_cell_angle_beta 69.924036
_cell_angle_gamma 108.673024
_cell_volume 556.946691
_symmetry_space_group_name_H-M "P -1"
_symmetry_group_IT_number 2
_symmetry_cell_setting 'triclinic'
loop_
_space_group_symop_operation_xyz
x,y,z
-x,-y,-z
loop_
_atom_site_type_symbol
_atom_site_label
_atom_site_fract_x
_atom_site_fract_y
_atom_site_fract_z
Si Si1 0.616420 0.761584 0.431793
Si Si2 0.175105 0.905236 0.214613
Si Si3 0.551208 0.314898 0.085475
Si Si4 0.313093 0.686332 0.712560
Si Si5 0.918234 0.486059 0.797510
Si Si6 0.999496 0.125767 0.065729
Si Si7 0.901833 0.771272 0.528631
O O1 0.500000 0.500000 0.500000
O O2 0.452131 0.763589 0.538877
O O3 0.745713 0.755259 0.495228
O O4 0.771990 0.978510 0.227055
O O5 0.104922 0.724023 0.193861
O O6 0.055270 0.773430 0.406960
O O7 0.407085 0.082702 0.125751
O O8 0.113871 0.077450 0.142368
O O9 0.535870 0.238469 0.247558
O O10 0.500000 0.500000 0.000000
O O11 0.776281 0.410099 0.966977
O O12 0.144399 0.710331 0.699132
O O13 0.138593 0.403286 0.894052
O O14 0.815575 0.556152 0.712745
O O15 0.000000 0.000000 0.000000
O O16 0.000000 0.000000 0.500000
#
# Coordination Sequence:
#
# PCOD9055442 Si02
#       7
#     2   2   2   2   2   2   2
#     4  11  23  42  73 103 138 189 239 290 358 434
#     4  11  23  44  69 106 137 188 244 292 354 428
#     4  12  25  45  72 101 141 190 238 292 370 433
#     4  12  24  46  68 109 144 187 242 297 357 428
#     4  12  26  45  71 101 146 185 240 308 354 427
#     4  11  21  41  74 104 145 187 235 292 361 434
#     4  11  25  47  70 102 142 191 240 293 365 431
#
# _framework density 25.137055
#
# number of rings (size 3 to 8) (size 9 to 14) (size 15 to 20)
#    0.000    0.571    4.286    4.714    2.000    0.000 
#    5.143    1.429    0.000    0.000    0.000    0.000 
#    0.000    0.000    0.000    0.000    0.000    0.000 
#
# Total GULP energy -78133.356206 kJ/mol
# GULP energy per Si atom -5580.954015 kJ/mol
# Density = 2.507984 g / cm^3
# Si number density = 25.137055 Si / 1000 Ang^3
#
#
#
# Elastic Constant Matrix: (Units=GPa)
#
#
# Indices 1 2 3 4 5 6 
#
# 1 103.2206 37.4583 22.9771 0.8135 -16.2381 16.6019
# 2 37.4583 135.7904 16.9323 16.5012 2.4859 22.6057
# 3 22.9771 16.9323 126.9718 18.8647 -14.0569 -6.9737
# 4 0.8135 16.5012 18.8647 41.6097 -8.4047 0.3192
# 5 -16.2381 2.4859 -14.0569 -8.4047 54.5838 0.3837
# 6 16.6019 22.6057 -6.9737 0.3192 0.3837 44.8880
#
#
#
# Elastic Compliance Matrix: (Units=1/GPa)
#
#
# Indices 1 2 3 4 5 6 
#
# 1 0.012324 -0.002966 -0.002001 0.002619 0.003713 -0.003426
# 2 -0.002966 0.009359 -0.000575 -0.003771 -0.002012 -0.003661
# 3 -0.002001 -0.000575 0.009124 -0.003646 0.001202 0.002463
# 4 0.002619 -0.003771 -0.003646 0.028002 0.004323 0.000128
# 5 0.003713 -0.002012 0.001202 0.004323 0.020495 -0.000380
# 6 -0.003426 -0.003661 0.002463 0.000128 -0.000380 0.025773
#
#
# Mechanical properties :
#
#
# Convention : Reuss Voigt Hill
#
# Bulk Modulus (GPa) = 50.69937 57.85759 54.27848
# Shear Modulus (GPa) = 40.73782 47.45732 44.09757
#
# Velocity S-wave (km/s) = 4.03007 4.34976 4.19296
# Velocity P-wave (km/s) = 6.47057 6.94939 6.71425
#
# Compressibility (1/GPa) = 0.01972411
#
# Stress axis : x y z
#
# Youngs Moduli (GPa) = 81.14048 106.85128 109.59506
#
# Poissons Ratio (x) = 0.31694 0.21928
# Poissons Ratio (y) = 0.24068 0.06299
# Poissons Ratio (z) = 0.16235 0.06142
#
# Static dielectric constant tensor:
#      x y z
#    x 11.486520 0.043510 1.284860 
#    y 0.043510 2.033780 -0.044190 
#    z 1.284860 -0.044190 2.262440 
# 
# From -- ./inp_files/243081.got.cif
#   From: 2010.05.17/outbox.cif.g08.bks.cpg/sg2_122_cif.got.tgz:243081.got - 2010.06.03 11:33:40.
