data_PCOD9055791
_publ_section_title
;
Structure prediction by ZEFSAII (Michael W. Deem and Ramdas Pophale) SiO2 
 PCOD9055791
Probable space group: P -1
;
_chemical_formula_sum "Si O2"
_cell_formula_units_Z 16
_cell_length_a 16.478347
_cell_length_b 9.111776
_cell_length_c 12.105466
_cell_angle_alpha 114.878039
_cell_angle_beta 36.574888
_cell_angle_gamma 135.627913
_cell_volume 704.237305
_symmetry_space_group_name_H-M "P -1"
_symmetry_group_IT_number 2
_symmetry_cell_setting 'triclinic'
loop_
_space_group_symop_operation_xyz
x,y,z
-x,-y,-z
loop_
_atom_site_type_symbol
_atom_site_label
_atom_site_fract_x
_atom_site_fract_y
_atom_site_fract_z
Si Si1 0.444757 0.229190 0.417222
Si Si2 0.619461 0.053195 0.159745
Si Si3 0.993167 0.671048 0.238306
Si Si4 0.031988 0.981643 0.713038
Si Si5 0.037545 0.367779 0.485181
Si Si6 0.559438 0.285539 0.562684
Si Si7 0.461819 0.654550 0.062907
Si Si8 0.634639 0.554193 0.120881
O O1 0.235387 0.127071 0.595430
O O2 0.495066 0.258053 0.499366
O O3 0.599858 0.457822 0.250365
O O4 0.472044 0.069443 0.292407
O O5 0.560074 0.942632 0.310008
O O6 0.608489 0.897138 0.034837
O O7 0.838639 0.285528 0.992574
O O8 0.989464 0.854803 0.258470
O O9 0.781369 0.432281 0.373017
O O10 0.033035 0.687985 0.330555
O O11 0.031626 0.848229 0.573340
O O12 0.847711 0.785342 0.928068
O O13 0.000000 0.500000 0.500000
O O14 0.263770 0.537562 0.297227
O O15 0.507194 0.410969 0.720124
O O16 0.500000 0.500000 0.000000
O O17 0.432945 0.632558 0.955536
#
# Coordination Sequence:
#
# PCOD9055791 Si02
#       8
#     2   2   2   2   2   2   2   2
#     4  12  29  44  72 103 142 185 232 289 342 409
#     4  12  26  45  70 106 136 186 232 285 353 405
#     4  12  25  43  73  98 137 191 228 277 351 415
#     4  11  25  44  70 103 136 184 232 280 345 419
#     4  11  24  42  68 103 143 174 224 293 348 404
#     4  12  25  50  69 100 145 183 238 282 338 418
#     4  11  21  43  71  97 143 174 222 290 339 413
#     4  11  24  44  71 105 137 181 231 290 340 405
#
# _framework density 22.719614
#
# number of rings (size 3 to 8) (size 9 to 14) (size 15 to 20)
#    0.000    0.500    5.000    2.625    5.250    2.500 
#    0.000    0.000    0.000    0.000    0.000    0.000 
#    0.000    0.000    0.000    0.000    0.000    0.000 
#
# Total GULP energy -89526.369459 kJ/mol
# GULP energy per Si atom -5595.398091 kJ/mol
# Density = 2.266790 g / cm^3
# Si number density = 22.719614 Si / 1000 Ang^3
#
#
#
# Elastic Constant Matrix: (Units=GPa)
#
#
# Indices 1 2 3 4 5 6 
#
# 1 124.7137 22.6685 62.9206 -24.1003 6.1441 -12.9960
# 2 22.6685 36.8728 27.7211 -2.5216 1.7275 3.4237
# 3 62.9206 27.7211 135.5483 -33.3612 3.8441 0.7525
# 4 -24.1003 -2.5216 -33.3612 36.4078 -11.7693 -7.1190
# 5 6.1441 1.7275 3.8441 -11.7693 32.8961 2.2775
# 6 -12.9960 3.4237 0.7525 -7.1190 2.2775 36.7172
#
#
#
# Elastic Compliance Matrix: (Units=1/GPa)
#
#
# Indices 1 2 3 4 5 6 
#
# 1 0.012440 -0.005410 -0.003183 0.006187 0.000119 0.006165
# 2 -0.005410 0.035945 -0.007182 -0.010035 -0.003153 -0.006869
# 3 -0.003183 -0.007182 0.012767 0.010306 0.003092 0.001088
# 4 0.006187 -0.010035 0.010306 0.047099 0.014245 0.011163
# 5 0.000119 -0.003153 0.003092 0.014245 0.035218 0.000850
# 6 0.006165 -0.006869 0.001088 0.011163 0.000850 0.032147
#
#
# Mechanical properties :
#
#
# Convention : Reuss Voigt Hill
#
# Bulk Modulus (GPa) = 33.78188 58.19501 45.98845
# Shear Modulus (GPa) = 23.03811 33.45918 28.24864
#
# Velocity S-wave (km/s) = 3.18782 3.84174 3.52996
# Velocity P-wave (km/s) = 5.33394 6.73414 6.07452
#
# Compressibility (1/GPa) = 0.02960167
#
# Stress axis : x y z
#
# Youngs Moduli (GPa) = 80.38796 27.82032 78.32942
#
# Poissons Ratio (x) = 0.15050 0.24931
# Poissons Ratio (y) = 0.43487 0.56259
# Poissons Ratio (z) = 0.25586 0.19981
#
# Static dielectric constant tensor:
#      x y z
#    x 1.785740 0.072110 -0.000050 
#    y 0.072110 1.897870 0.033850 
#    z -0.000050 0.033850 1.840020 
# 
# From -- ./inp_files/381701.got.cif
#   From: 2010.05.17/outbox.cif.g08.bks.cpg/sg2_191_cif.got.tgz:381701.got - 2010.06.03 11:33:40.
