data_PCOD9055643
_publ_section_title
;
Structure prediction by ZEFSAII (Michael W. Deem and Ramdas Pophale) SiO2 
 PCOD9055643
Probable space group: P -1
;
_chemical_formula_sum "Si O2"
_cell_formula_units_Z 14
_cell_length_a 18.060149
_cell_length_b 8.301118
_cell_length_c 10.021189
_cell_angle_alpha 121.547895
_cell_angle_beta 46.194533
_cell_angle_gamma 147.091703
_cell_volume 582.605348
_symmetry_space_group_name_H-M "P -1"
_symmetry_group_IT_number 2
_symmetry_cell_setting 'triclinic'
loop_
_space_group_symop_operation_xyz
x,y,z
-x,-y,-z
loop_
_atom_site_type_symbol
_atom_site_label
_atom_site_fract_x
_atom_site_fract_y
_atom_site_fract_z
Si Si1 0.084500 0.971207 0.778815
Si Si2 0.255058 0.190210 0.044418
Si Si3 0.651956 0.206619 0.579633
Si Si4 0.336795 0.941972 0.951278
Si Si5 0.605021 0.749355 0.364515
Si Si6 0.233415 0.605807 0.204537
Si Si7 0.869377 0.602341 0.236114
O O1 0.208710 0.017416 0.720171
O O2 0.172763 0.244436 0.689611
O O3 0.951838 0.661268 0.731006
O O4 0.000000 0.000000 0.000000
O O5 0.385331 0.320282 0.824557
O O6 0.259470 0.422978 0.134168
O O7 0.297026 0.107902 0.077201
O O8 0.065344 0.869614 0.110785
O O9 0.796700 0.471199 0.416647
O O10 0.514378 0.161196 0.764254
O O11 0.563148 0.908065 0.486504
O O12 0.719375 0.224917 0.644749
O O13 0.328611 0.823288 0.052208
O O14 0.209920 0.656326 0.883885
O O15 0.500000 0.500000 0.500000
#
# Coordination Sequence:
#
# PCOD9055643 Si02
#       7
#     2   2   2   2   2   2   2
#     4  11  21  42  73  93 131 186 222 270 333 408
#     4  11  24  43  75  94 132 186 230 266 336 414
#     4  12  28  41  66 105 143 163 225 298 333 382
#     4  12  23  44  72  94 135 189 222 271 339 407
#     4  12  24  42  69 106 132 174 230 284 330 401
#     4  11  25  48  67 100 140 177 226 279 339 401
#     4  11  22  43  69 101 130 174 234 279 322 409
#
# _framework density 24.029989
#
# number of rings (size 3 to 8) (size 9 to 14) (size 15 to 20)
#    0.000    0.571    5.714    3.000    4.000    3.429 
#    2.571    0.000    0.000    0.000    0.000    0.000 
#    0.000    0.000    0.000    0.000    0.000    0.000 
#
# Total GULP energy -78271.328183 kJ/mol
# GULP energy per Si atom -5590.809156 kJ/mol
# Density = 2.397530 g / cm^3
# Si number density = 24.029989 Si / 1000 Ang^3
#
#
#
# Elastic Constant Matrix: (Units=GPa)
#
#
# Indices 1 2 3 4 5 6 
#
# 1 92.8032 20.3443 36.0337 -7.0900 7.2296 -13.7774
# 2 20.3443 53.9329 29.3936 -19.0297 5.7403 -18.6648
# 3 36.0337 29.3936 87.2775 -27.5129 15.9300 -10.8159
# 4 -7.0900 -19.0297 -27.5129 27.6820 -16.7731 3.0956
# 5 7.2296 5.7403 15.9300 -16.7731 41.0492 -0.4132
# 6 -13.7774 -18.6648 -10.8159 3.0956 -0.4132 43.7664
#
#
#
# Elastic Compliance Matrix: (Units=1/GPa)
#
#
# Indices 1 2 3 4 5 6 
#
# 1 0.013750 -0.003234 -0.005865 -0.006043 -0.002143 0.001907
# 2 -0.003234 0.031326 -0.002511 0.020468 0.005631 0.010326
# 3 -0.005865 -0.002511 0.020077 0.016951 0.000528 0.000851
# 4 -0.006043 0.020468 0.016951 0.079512 0.024170 0.005620
# 5 -0.002143 0.005631 0.000528 0.024170 0.033627 0.000465
# 6 0.001907 0.010326 0.000851 0.005620 0.000465 0.027670
#
#
# Mechanical properties :
#
#
# Convention : Reuss Voigt Hill
#
# Bulk Modulus (GPa) = 23.84698 45.06185 34.45442
# Shear Modulus (GPa) = 20.56251 32.38230 26.47240
#
# Velocity S-wave (km/s) = 2.92841 3.67492 3.32270
# Velocity P-wave (km/s) = 4.62380 6.06628 5.39348
#
# Compressibility (1/GPa) = 0.04193402
#
# Stress axis : x y z
#
# Youngs Moduli (GPa) = 72.72600 31.92201 49.80707
#
# Poissons Ratio (x) = 0.10325 0.29212
# Poissons Ratio (y) = 0.23523 0.12504
# Poissons Ratio (z) = 0.42654 0.08014
#
# Static dielectric constant tensor:
#      x y z
#    x 2.017520 -0.002770 0.050630 
#    y -0.002770 1.922510 -0.015390 
#    z 0.050630 -0.015390 1.953020 
# 
# From -- ./inp_files/338291.got.cif
#   From: 2010.05.17/outbox.cif.g08.bks.cpg/sg2_170_cif.got.tgz:338291.got - 2010.06.03 11:33:40.
