data_PCOD9055644
_publ_section_title
;
Structure prediction by ZEFSAII (Michael W. Deem and Ramdas Pophale) SiO2 
 PCOD9055644
Probable space group: P -1
;
_chemical_formula_sum "Si O2"
_cell_formula_units_Z 16
_cell_length_a 16.075951
_cell_length_b 7.636220
_cell_length_c 11.536226
_cell_angle_alpha 89.347475
_cell_angle_beta 46.052607
_cell_angle_gamma 53.406937
_cell_volume 587.830402
_symmetry_space_group_name_H-M "P -1"
_symmetry_group_IT_number 2
_symmetry_cell_setting 'triclinic'
loop_
_space_group_symop_operation_xyz
x,y,z
-x,-y,-z
loop_
_atom_site_type_symbol
_atom_site_label
_atom_site_fract_x
_atom_site_fract_y
_atom_site_fract_z
Si Si1 0.406097 0.649774 0.965363
Si Si2 0.044036 0.787905 0.616707
Si Si3 0.997869 0.244338 0.734647
Si Si4 0.795892 0.961632 0.249545
Si Si5 0.201002 0.362345 0.280799
Si Si6 0.298303 0.291302 0.567545
Si Si7 0.500433 0.382957 0.363516
Si Si8 0.578035 0.093078 0.738870
O O1 0.513712 0.627757 0.761075
O O2 0.500000 0.500000 0.000000
O O3 0.418402 0.444185 0.894372
O O4 0.181983 0.989131 0.193585
O O5 0.172692 0.575446 0.381609
O O6 0.125602 0.578341 0.648149
O O7 0.034132 0.004578 0.653842
O O8 0.820729 0.559592 0.833087
O O9 0.006435 0.233417 0.866755
O O10 0.202468 0.096155 0.504205
O O11 0.733033 0.095634 0.179933
O O12 0.622455 0.293927 0.480248
O O13 0.775368 0.777120 0.281825
O O14 0.000000 0.500000 0.500000
O O15 0.380117 0.037170 0.173207
O O16 0.397916 0.340936 0.522915
O O17 0.452728 0.008406 0.331282
#
# Coordination Sequence:
#
# PCOD9055644 Si02
#       8
#     2   2   2   2   2   2   2   2
#     4  12  24  40  58  90 137 164 194 256 321 370
#     4  11  22  33  60  90 121 164 199 253 314 364
#     4  10  17  36  58  87 114 158 209 251 294 357
#     4  10  21  38  71  92 119 154 224 261 288 363
#     4   9  18  32  57  82 115 156 212 250 289 359
#     4  10  19  41  68  94 117 158 221 254 296 366
#     4  11  22  41  66  93 121 167 207 256 312 355
#     4   9  19  37  59  87 121 159 207 258 296 365
#
# _framework density 27.218737000000001
#
# number of rings (size 3 to 8) (size 9 to 14) (size 15 to 20)
#    0.000    1.750    3.750    3.000    0.000    2.000 
#    0.000    8.750    0.000    0.000    0.000    0.000 
#    0.000    0.000    0.000    0.000    0.000    0.000 
#
# Total GULP energy -89491.441759 kJ/mol
# GULP energy per Si atom -5593.215110 kJ/mol
# Density = 2.715679 g / cm^3
# Si number density = 27.218737 Si / 1000 Ang^3
#
#
#
# Elastic Constant Matrix: (Units=GPa)
#
#
# Indices 1 2 3 4 5 6 
#
# 1 87.6985 31.6442 2.0934 7.0628 21.5853 -6.2769
# 2 31.6442 106.3973 12.3982 30.9965 6.4589 -13.6901
# 3 2.0934 12.3982 81.4943 10.8690 11.1049 4.1477
# 4 7.0628 30.9965 10.8690 43.1432 3.0421 -7.9259
# 5 21.5853 6.4589 11.1049 3.0421 25.0828 15.6826
# 6 -6.2769 -13.6901 4.1477 -7.9259 15.6826 76.2894
#
#
#
# Elastic Compliance Matrix: (Units=1/GPa)
#
#
# Indices 1 2 3 4 5 6 
#
# 1 0.017476 -0.004313 0.002183 0.001755 -0.017858 0.004398
# 2 -0.004313 0.013337 -0.000986 -0.008530 0.001141 0.000971
# 3 0.002183 -0.000986 0.013720 -0.002447 -0.007778 0.000602
# 4 0.001755 -0.008530 -0.002447 0.030371 -0.003561 0.002634
# 5 -0.017858 0.001141 -0.007778 -0.003561 0.068361 -0.015264
# 6 0.004398 0.000971 0.000602 0.002634 -0.015264 0.017023
#
#
# Mechanical properties :
#
#
# Convention : Reuss Voigt Hill
#
# Bulk Modulus (GPa) = 26.10909 40.87352 33.49131
# Shear Modulus (GPa) = 27.88818 44.20001 36.04409
#
# Velocity S-wave (km/s) = 3.20440 4.03411 3.64296
# Velocity P-wave (km/s) = 4.82743 6.06202 5.47960
#
# Compressibility (1/GPa) = 0.03830083
#
# Stress axis : x y z
#
# Youngs Moduli (GPa) = 57.22236 74.97894 72.88463
#
# Poissons Ratio (x) = 0.32341 -0.15909
# Poissons Ratio (y) = 0.24682 0.07183
# Poissons Ratio (z) = -0.12490 0.07390
#
# Static dielectric constant tensor:
#      x y z
#    x 2.198230 -0.020750 -0.037860 
#    y -0.020750 2.173920 -0.075410 
#    z -0.037860 -0.075410 2.100430 
# 
# From -- ./inp_files/401367.got.cif
#   From: 2010.05.17/outbox.cif.g08.bks.cpg/sg2_201_cif.got.tgz:401367.got - 2010.06.03 11:33:40.
