data_PCOD9055878
_publ_section_title
;
Structure prediction by ZEFSAII (Michael W. Deem and Ramdas Pophale) SiO2 
 PCOD9055878
Probable space group: P -1
;
_chemical_formula_sum "Si O2"
_cell_formula_units_Z 14
_cell_length_a 14.998629
_cell_length_b 18.165855
_cell_length_c 8.019137
_cell_angle_alpha 45.665992
_cell_angle_beta 54.432673
_cell_angle_gamma 22.186328
_cell_volume 572.571167
_symmetry_space_group_name_H-M "P -1"
_symmetry_group_IT_number 2
_symmetry_cell_setting 'triclinic'
loop_
_space_group_symop_operation_xyz
x,y,z
-x,-y,-z
loop_
_atom_site_type_symbol
_atom_site_label
_atom_site_fract_x
_atom_site_fract_y
_atom_site_fract_z
Si Si1 0.936004 0.910622 0.201874
Si Si2 0.695512 0.141688 0.742233
Si Si3 0.708754 0.758292 0.243036
Si Si4 0.460409 0.296756 0.306076
Si Si5 0.009087 0.293878 0.028664
Si Si6 0.861197 0.460804 0.293139
Si Si7 0.456843 0.480716 0.252172
O O1 0.984825 0.748831 0.433051
O O2 0.208105 0.728443 0.215169
O O3 0.724139 0.107024 0.253163
O O4 0.844420 0.013351 0.954729
O O5 0.416292 0.341487 0.764462
O O6 0.672111 0.275180 0.472754
O O7 0.825898 0.945477 0.796596
O O8 0.590372 0.779234 0.471693
O O9 0.835242 0.584063 0.237168
O O10 0.888161 0.697377 0.207957
O O11 0.500000 0.000000 0.000000
O O12 0.413671 0.401000 0.357120
O O13 0.261232 0.500811 0.066978
O O14 0.994109 0.346278 0.150837
O O15 0.500000 0.500000 0.000000
#
# Coordination Sequence:
#
# PCOD9055878 Si02
#       7
#     2   2   2   2   2   2   2
#     4  11  23  43  70  94 132 170 212 266 331 382
#     4  11  21  44  67  95 129 170 215 266 324 383
#     4  12  22  40  62  95 134 174 220 264 313 376
#     4  12  24  43  64  97 132 174 215 267 322 385
#     4  12  23  40  68  94 134 176 217 264 318 382
#     4  11  22  41  64  96 130 176 218 261 317 380
#     4  11  25  46  71  96 127 167 217 273 326 387
#
# _framework density 24.451108999999999
#
# number of rings (size 3 to 8) (size 9 to 14) (size 15 to 20)
#    0.000    0.571    7.143    2.571    0.000    1.143 
#    0.000    2.857    0.000    0.000    0.000    0.000 
#    0.000    0.000    0.000    0.000    0.000    0.000 
#
# Total GULP energy -78231.328491 kJ/mol
# GULP energy per Si atom -5587.952035 kJ/mol
# Density = 2.439546 g / cm^3
# Si number density = 24.451109 Si / 1000 Ang^3
#
#
#
# Elastic Constant Matrix: (Units=GPa)
#
#
# Indices 1 2 3 4 5 6 
#
# 1 31.8409 15.7598 20.9083 -13.5051 0.2171 16.0991
# 2 15.7598 157.9251 48.4142 -3.8658 -6.6611 14.1072
# 3 20.9083 48.4142 168.5948 -6.3970 5.2289 -4.2038
# 4 -13.5051 -3.8658 -6.3970 37.0686 -3.5610 9.7549
# 5 0.2171 -6.6611 5.2289 -3.5610 35.3976 4.3077
# 6 16.0991 14.1072 -4.2038 9.7549 4.3077 23.2762
#
#
#
# Elastic Compliance Matrix: (Units=1/GPa)
#
#
# Indices 1 2 3 4 5 6 
#
# 1 0.270313 0.018508 -0.041309 0.175588 0.060944 -0.290507
# 2 0.018508 0.009131 -0.005252 0.014486 0.007083 -0.026665
# 3 -0.041309 -0.005252 0.013071 -0.026900 -0.011146 0.047452
# 4 0.175588 0.014486 -0.026900 0.146015 0.045216 -0.204646
# 5 0.060944 0.007083 -0.011146 0.045216 0.044612 -0.075664
# 6 -0.290507 -0.026665 0.047452 -0.204646 -0.075664 0.368393
#
#
# Mechanical properties :
#
#
# Convention : Reuss Voigt Hill
#
# Bulk Modulus (GPa) = 4.22998 58.72505 31.47752
# Shear Modulus (GPa) = 5.06871 37.36705 21.21788
#
# Velocity S-wave (km/s) = 1.44135 3.91351 2.94899
# Velocity P-wave (km/s) = 2.12220 6.67010 4.94944
#
# Compressibility (1/GPa) = 0.23640758
#
# Stress axis : x y z
#
# Youngs Moduli (GPa) = 3.69942 109.52157 76.50673
#
# Poissons Ratio (x) = -2.02701 3.16042
# Poissons Ratio (y) = -0.06847 0.40182
# Poissons Ratio (z) = 0.15282 0.57522
#
# Static dielectric constant tensor:
#      x y z
#    x 1.953250 -0.072640 -0.003400 
#    y -0.072640 1.967320 0.026620 
#    z -0.003400 0.026620 2.050070 
# 
# From -- ./inp_files/313503.got.cif
#   From: 2010.05.17/outbox.cif.g08.bks.cpg/sg2_157_cif.got.tgz:313503.got - 2010.06.03 11:33:40.
