data_PCOD9055091
_publ_section_title
;
Structure prediction by ZEFSAII (Michael W. Deem and Ramdas Pophale) SiO2 
 PCOD9055091
Probable space group: P -1
;
_chemical_formula_sum "Si O2"
_cell_formula_units_Z 12
_cell_length_a 14.579994
_cell_length_b 13.807181
_cell_length_c 8.652640
_cell_angle_alpha 51.780841
_cell_angle_beta 150.699789
_cell_angle_gamma 138.452144
_cell_volume 562.267067
_symmetry_space_group_name_H-M "P -1"
_symmetry_group_IT_number 2
_symmetry_cell_setting 'triclinic'
loop_
_space_group_symop_operation_xyz
x,y,z
-x,-y,-z
loop_
_atom_site_type_symbol
_atom_site_label
_atom_site_fract_x
_atom_site_fract_y
_atom_site_fract_z
Si Si1 0.768412 0.353592 0.247470
Si Si2 0.579991 0.153822 0.878124
Si Si3 0.346661 0.119485 0.258478
Si Si4 0.987489 0.642915 0.867916
Si Si5 0.386719 0.356320 0.873873
Si Si6 0.187393 0.810356 0.278600
O O1 0.801599 0.229947 0.490650
O O2 0.000000 0.500000 0.500000
O O3 0.672302 0.290686 0.998184
O O4 0.572554 0.353744 0.048980
O O5 0.399047 0.138132 0.500866
O O6 0.800537 0.212105 0.040650
O O7 0.500000 0.000000 0.000000
O O8 0.580973 0.156822 0.488549
O O9 0.175363 0.952113 0.123518
O O10 0.286103 0.223331 0.980504
O O11 0.780357 0.632018 0.493887
O O12 0.000000 0.500000 0.000000
O O13 0.999115 0.676715 0.033212
O O14 0.500000 0.500000 0.000000
#
# Coordination Sequence:
#
# PCOD9055091 Si02
#       6
#     2   2   2   2   2   2
#     4  11  22  39  67  96 129 165 211 269 323 375
#     4  11  21  40  66  96 128 166 212 267 327 367
#     4   9  19  37  61  87 124 165 208 254 312 384
#     4  11  23  42  66  90 126 176 219 261 319 390
#     4  11  23  41  64  91 125 171 219 258 312 395
#     4   9  18  36  60  87 121 168 209 246 315 384
#
# _framework density 21.342172999999999
#
# number of rings (size 3 to 8) (size 9 to 14) (size 15 to 20)
#    0.000    1.667    1.667    5.000    2.333    0.667 
#    0.000   10.000    0.000    0.000    0.000    0.000 
#    0.000    0.000    0.000    0.000    0.000    0.000 
#
# Total GULP energy -66877.130249 kJ/mol
# GULP energy per Si atom -5573.094187 kJ/mol
# Density = 2.129360 g / cm^3
# Si number density = 21.342173 Si / 1000 Ang^3
#
#
#
# Elastic Constant Matrix: (Units=GPa)
#
#
# Indices 1 2 3 4 5 6 
#
# 1 51.2454 11.1875 28.0768 2.5936 -24.1383 -8.3790
# 2 11.1875 117.3038 51.7694 -12.3290 -13.1071 -13.7067
# 3 28.0768 51.7694 136.5949 -7.3192 -23.3164 -13.4042
# 4 2.5936 -12.3290 -7.3192 38.3956 -4.5873 -11.9323
# 5 -24.1383 -13.1071 -23.3164 -4.5873 32.4068 13.7376
# 6 -8.3790 -13.7067 -13.4042 -11.9323 13.7376 35.4410
#
#
#
# Elastic Compliance Matrix: (Units=1/GPa)
#
#
# Indices 1 2 3 4 5 6 
#
# 1 0.031152 0.000520 -0.003094 -0.000627 0.022111 -0.002385
# 2 0.000520 0.011063 -0.003459 0.004264 0.001265 0.004039
# 3 -0.003094 -0.003459 0.010027 0.001722 0.003325 0.001014
# 4 -0.000627 0.004264 0.001722 0.031776 0.001852 0.012133
# 5 0.022111 0.001265 0.003325 0.001852 0.056567 -0.014329
# 6 -0.002385 0.004039 0.001014 0.012133 -0.014329 0.039237
#
#
# Mechanical properties :
#
#
# Convention : Reuss Voigt Hill
#
# Bulk Modulus (GPa) = 24.88990 54.13460 39.51225
# Shear Modulus (GPa) = 24.35696 35.52270 29.93983
#
# Velocity S-wave (km/s) = 3.38192 4.08418 3.74953
# Velocity P-wave (km/s) = 5.19013 6.90368 6.10730
#
# Compressibility (1/GPa) = 0.04017694
#
# Stress axis : x y z
#
# Youngs Moduli (GPa) = 32.10076 90.38875 99.72844
#
# Poissons Ratio (x) = -0.04703 0.30855
# Poissons Ratio (y) = -0.01670 0.34498
# Poissons Ratio (z) = 0.09932 0.31268
#
# Static dielectric constant tensor:
#      x y z
#    x 1.839450 0.047700 -0.055160 
#    y 0.047700 1.805610 0.020310 
#    z -0.055160 0.020310 1.752080 
# 
# From -- ./inp_files/146641.got.cif
#   From: 2010.05.17/outbox.cif.g08.bks.cpg/sg2_74_cif.got.tgz:146641.got - 2010.06.03 11:33:40.
