data_PCOD9055964
_publ_section_title
;
Structure prediction by ZEFSAII (Michael W. Deem and Ramdas Pophale) SiO2 
 PCOD9055964
Probable space group: P -1
;
_chemical_formula_sum "Si O2"
_cell_formula_units_Z 15
_cell_length_a 11.693313
_cell_length_b 9.740375
_cell_length_c 15.833764
_cell_angle_alpha 145.106193
_cell_angle_beta 146.645790
_cell_angle_gamma 40.651729
_cell_volume 551.485720
_symmetry_space_group_name_H-M "P -1"
_symmetry_group_IT_number 2
_symmetry_cell_setting 'triclinic'
loop_
_space_group_symop_operation_xyz
x,y,z
-x,-y,-z
loop_
_atom_site_type_symbol
_atom_site_label
_atom_site_fract_x
_atom_site_fract_y
_atom_site_fract_z
Si Si1 0.367778 0.706046 0.960425
Si Si2 0.417158 0.343841 0.656368
Si Si3 0.085818 0.590151 0.246005
Si Si4 0.893126 0.212219 0.866930
Si Si5 0.000000 0.000000 0.000000
Si Si6 0.207586 0.025649 0.468387
Si Si7 0.145796 0.574126 0.461959
Si Si8 0.627587 0.986046 0.160012
O O1 0.346817 0.570774 0.791326
O O2 0.152633 0.836206 0.938913
O O3 0.500000 0.500000 0.000000
O O4 0.598023 0.894234 0.417297
O O5 0.647014 0.347362 0.762015
O O6 0.241922 0.373893 0.489768
O O7 0.240353 0.770529 0.410927
O O8 0.132371 0.473531 0.308948
O O9 0.849280 0.773564 0.191181
O O10 0.067262 0.376731 0.062242
O O11 0.945817 0.016692 0.725411
O O12 0.858950 0.149354 0.910884
O O13 0.508369 0.085595 0.883330
O O14 0.080416 0.251373 0.560832
O O15 0.302514 0.760958 0.652655
O O16 0.500000 0.000000 0.000000
#
# Coordination Sequence:
#
# PCOD9055964 Si02
#       8
#     2   2   2   2   1   2   2   2
#     4  12  25  47  79 112 156 199 262 312 380 458
#     4  12  25  48  75 105 151 205 251 317 390 451
#     4  11  25  46  74 108 149 199 257 316 388 457
#     4  12  26  48  72 106 153 198 259 312 384 457
#     4  12  28  42  76 118 146 198 258 316 370 452
#     4  11  26  44  75 107 151 195 259 318 378 457
#     4  11  25  44  76 107 145 194 260 309 391 457
#     4  11  21  44  73 108 145 200 252 311 384 458
#
# _framework density 27.199252000000001
#
# number of rings (size 3 to 8) (size 9 to 14) (size 15 to 20)
#    0.000    0.533    4.000    3.600    9.333    0.000 
#    2.400    0.667    0.000    0.000    0.000    0.000 
#    0.000    0.000    0.000    0.000    0.000    0.000 
#
# Total GULP energy -83924.457187 kJ/mol
# GULP energy per Si atom -5594.963812 kJ/mol
# Density = 2.713735 g / cm^3
# Si number density = 27.199252 Si / 1000 Ang^3
#
#
#
# Elastic Constant Matrix: (Units=GPa)
#
#
# Indices 1 2 3 4 5 6 
#
# 1 125.8109 32.4926 26.6221 -3.9692 -2.3094 17.8996
# 2 32.4926 49.8556 6.3553 -6.1016 12.4634 -12.3218
# 3 26.6221 6.3553 114.5065 -0.4156 -13.2671 -4.2348
# 4 -3.9692 -6.1016 -0.4156 47.3347 13.8048 -10.5107
# 5 -2.3094 12.4634 -13.2671 13.8048 54.3789 8.0623
# 6 17.8996 -12.3218 -4.2348 -10.5107 8.0623 41.6514
#
#
#
# Elastic Compliance Matrix: (Units=1/GPa)
#
#
# Indices 1 2 3 4 5 6 
#
# 1 0.013986 -0.014501 -0.002171 -0.005638 0.006784 -0.013257
# 2 -0.014501 0.042380 -0.000057 0.015332 -0.018110 0.026138
# 3 -0.002171 -0.000057 0.009540 -0.000433 0.002157 0.001360
# 4 -0.005638 0.015332 -0.000433 0.030635 -0.014215 0.017397
# 5 0.006784 -0.018110 0.002157 -0.014215 0.029537 -0.017359
# 6 -0.013257 0.026138 0.001360 0.017397 -0.017359 0.045327
#
#
# Mechanical properties :
#
#
# Convention : Reuss Voigt Hill
#
# Bulk Modulus (GPa) = 30.81936 46.79034 38.80485
# Shear Modulus (GPa) = 23.18283 43.65319 33.41801
#
# Velocity S-wave (km/s) = 2.92264 4.01052 3.50899
# Velocity P-wave (km/s) = 4.76914 6.21979 5.54213
#
# Compressibility (1/GPa) = 0.03244714
#
# Stress axis : x y z
#
# Youngs Moduli (GPa) = 71.50158 23.59628 104.82491
#
# Poissons Ratio (x) = 0.34216 0.22763
# Poissons Ratio (y) = 1.03682 0.00596
# Poissons Ratio (z) = 0.15526 0.00134
#
# Static dielectric constant tensor:
#      x y z
#    x 2.087750 0.124330 0.018860 
#    y 0.124330 2.145380 0.100480 
#    z 0.018860 0.100480 2.054130 
# 
# From -- ./inp_files/531355.got.cif
#   From: 2010.05.17/outbox.cif.g08.bks.cpg/sg2_266_cif.got.tgz:531355.got - 2010.06.03 11:33:40.
