data_PCOD9055667
_publ_section_title
;
Structure prediction by ZEFSAII (Michael W. Deem and Ramdas Pophale) SiO2 
 PCOD9055667
Probable space group: P -1
;
_chemical_formula_sum "Si O2"
_cell_formula_units_Z 13
_cell_length_a 12.379654
_cell_length_b 8.746502
_cell_length_c 7.133837
_cell_angle_alpha 66.106204
_cell_angle_beta 131.259786
_cell_angle_gamma 128.419235
_cell_volume 454.928107
_symmetry_space_group_name_H-M "P -1"
_symmetry_group_IT_number 2
_symmetry_cell_setting 'triclinic'
loop_
_space_group_symop_operation_xyz
x,y,z
-x,-y,-z
loop_
_atom_site_type_symbol
_atom_site_label
_atom_site_fract_x
_atom_site_fract_y
_atom_site_fract_z
Si Si1 0.500000 0.500000 0.500000
Si Si2 0.252230 0.568340 0.402278
Si Si3 0.720142 0.393556 0.140322
Si Si4 0.364140 0.111261 0.727379
Si Si5 0.316455 0.959017 0.338733
Si Si6 0.948079 0.233787 0.355120
Si Si7 0.142374 0.177015 0.949091
O O1 0.408498 0.614651 0.429281
O O2 0.374639 0.310285 0.581456
O O3 0.294735 0.582182 0.667015
O O4 0.085708 0.357288 0.295403
O O5 0.207529 0.738782 0.247197
O O6 0.747340 0.593165 0.974258
O O7 0.875343 0.369831 0.272671
O O8 0.550186 0.200678 0.977577
O O9 0.304772 0.978266 0.538991
O O10 0.215894 0.974153 0.767084
O O11 0.500000 0.000000 0.500000
O O12 0.278295 0.113062 0.127745
O O13 0.046583 0.192687 0.652278
O O14 0.000000 0.000000 0.000000
#
# Coordination Sequence:
#
# PCOD9055667 Si02
#       7
#     1   2   2   2   2   2   2
#     4  12  28  50  74 114 154 212 266 320 384 490
#     4  11  25  49  81 110 158 204 269 323 394 467
#     4  11  24  45  80 122 158 207 259 334 399 475
#     4  12  25  45  79 116 160 197 264 321 407 470
#     4  12  24  46  78 118 154 213 259 326 393 477
#     4  11  24  47  78 119 160 203 265 332 395 465
#     4  11  21  42  78 115 160 207 262 326 396 466
#
# _framework density 28.575945999999998
#
# number of rings (size 3 to 8) (size 9 to 14) (size 15 to 20)
#    0.000    0.615    4.615    4.154    0.000    1.231 
#    2.769    2.308    0.000    2.769    0.000    0.000 
#    0.000    0.000    0.000    0.000    0.000    0.000 
#
# Total GULP energy -72691.179585 kJ/mol
# GULP energy per Si atom -5591.629199 kJ/mol
# Density = 2.851091 g / cm^3
# Si number density = 28.575946 Si / 1000 Ang^3
#
#
#
# Elastic Constant Matrix: (Units=GPa)
#
#
# Indices 1 2 3 4 5 6 
#
# 1 140.9007 78.3547 68.5277 12.8513 26.5575 14.3812
# 2 78.3547 164.7326 75.1508 -25.8929 10.7231 33.7981
# 3 68.5277 75.1508 159.5900 -29.6058 27.6434 -9.7498
# 4 12.8513 -25.8929 -29.6058 71.0368 -1.5171 -7.0241
# 5 26.5575 10.7231 27.6434 -1.5171 50.2642 0.3498
# 6 14.3812 33.7981 -9.7498 -7.0241 0.3498 62.1672
#
#
#
# Elastic Compliance Matrix: (Units=1/GPa)
#
#
# Indices 1 2 3 4 5 6 
#
# 1 0.013135 -0.004800 -0.003918 -0.006011 -0.003931 -0.001700
# 2 -0.004800 0.011320 -0.003376 0.003115 0.002109 -0.005233
# 3 -0.003918 -0.003376 0.011274 0.004605 -0.003306 0.005049
# 4 -0.006011 0.003115 0.004605 0.018478 0.000519 0.002504
# 5 -0.003931 0.002109 -0.003306 0.000519 0.023362 -0.000828
# 6 -0.001700 -0.005233 0.005049 0.002504 -0.000828 0.020404
#
#
# Mechanical properties :
#
#
# Convention : Reuss Voigt Hill
#
# Bulk Modulus (GPa) = 86.65808 101.03221 93.84514
# Shear Modulus (GPa) = 39.68040 52.90630 46.29335
#
# Velocity S-wave (km/s) = 3.73043 4.30749 4.02930
# Velocity P-wave (km/s) = 6.99615 7.75704 7.38640
#
# Compressibility (1/GPa) = 0.01153961
#
# Stress axis : x y z
#
# Youngs Moduli (GPa) = 76.13458 88.33799 88.70253
#
# Poissons Ratio (x) = 0.42406 0.34750
# Poissons Ratio (y) = 0.36547 0.29950
# Poissons Ratio (z) = 0.29826 0.29827
#
# Static dielectric constant tensor:
#      x y z
#    x 2.223360 -0.036270 -0.001900 
#    y -0.036270 2.298610 -0.107720 
#    z -0.001900 -0.107720 2.072220 
# 
# From -- ./inp_files/233366.got.cif
#   From: 2010.05.17/outbox.cif.g08.bks.cpg/sg2_117_cif.got.tgz:233366.got - 2010.06.03 11:33:40.
