data_PCOD9055508
_publ_section_title
;
Structure prediction by ZEFSAII (Michael W. Deem and Ramdas Pophale) SiO2 
 PCOD9055508
Probable space group: P -1
;
_chemical_formula_sum "Si O2"
_cell_formula_units_Z 16
_cell_length_a 8.586550
_cell_length_b 23.076111
_cell_length_c 10.284381
_cell_angle_alpha 39.794857
_cell_angle_beta 132.884200
_cell_angle_gamma 148.544282
_cell_volume 678.695721
_symmetry_space_group_name_H-M "P -1"
_symmetry_group_IT_number 2
_symmetry_cell_setting 'triclinic'
loop_
_space_group_symop_operation_xyz
x,y,z
-x,-y,-z
loop_
_atom_site_type_symbol
_atom_site_label
_atom_site_fract_x
_atom_site_fract_y
_atom_site_fract_z
Si Si1 0.679565 0.712980 0.286184
Si Si2 0.690140 0.784953 0.593558
Si Si3 0.973846 0.042422 0.748053
Si Si4 0.684668 0.456484 0.391598
Si Si5 0.656158 0.230386 0.143443
Si Si6 0.445014 0.032820 0.047259
Si Si7 0.025861 0.290241 0.008331
Si Si8 0.725087 0.195730 0.538113
O O1 0.858246 0.834989 0.276129
O O2 0.464737 0.592165 0.468047
O O3 0.941405 0.727968 0.352841
O O4 0.482390 0.713808 0.073416
O O5 0.946429 0.906141 0.442015
O O6 0.517443 0.661169 0.619488
O O7 0.459572 0.788577 0.509639
O O8 0.842576 0.770921 0.815363
O O9 0.136566 0.994910 0.941001
O O10 0.623282 0.921765 0.777907
O O11 0.000000 0.500000 0.500000
O O12 0.754634 0.575149 0.167935
O O13 0.933600 0.292023 0.099632
O O14 0.742443 0.239218 0.326488
O O15 0.698694 0.185241 0.940332
O O16 0.444734 0.951438 0.291046
O O17 0.500000 0.000000 0.000000
#
# Coordination Sequence:
#
# PCOD9055508 Si02
#       8
#     2   2   2   2   2   2   2   2
#     4  11  23  45  70 101 134 180 234 290 335 408
#     4  11  26  44  68 102 141 178 228 286 343 411
#     4  11  21  42  68 100 137 182 232 280 339 412
#     4  11  23  48  77  94 126 184 247 278 332 410
#     4  12  23  41  67 104 138 178 228 281 345 410
#     4  12  24  41  72 103 141 180 228 285 344 408
#     4  12  25  45  73 100 134 187 235 281 339 412
#     4  12  27  42  68 107 147 176 219 289 356 407
#
# _framework density 23.574629000000002
#
# number of rings (size 3 to 8) (size 9 to 14) (size 15 to 20)
#    0.000    0.500    5.000    4.500    1.750    2.500 
#    0.000    3.125    0.000    0.000    0.000    0.000 
#    0.000    0.000    0.000    0.000    0.000    0.000 
#
# Total GULP energy -89597.131749 kJ/mol
# GULP energy per Si atom -5599.820734 kJ/mol
# Density = 2.352097 g / cm^3
# Si number density = 23.574629 Si / 1000 Ang^3
#
#
#
# Elastic Constant Matrix: (Units=GPa)
#
#
# Indices 1 2 3 4 5 6 
#
# 1 78.6010 11.4018 59.7938 -8.1146 5.7146 26.0309
# 2 11.4018 55.7380 30.2815 -7.7289 -1.5035 23.8803
# 3 59.7938 30.2815 179.0480 -17.2381 -7.2247 20.2007
# 4 -8.1146 -7.7289 -17.2381 42.0611 16.4877 -3.9787
# 5 5.7146 -1.5035 -7.2247 16.4877 41.3846 8.6129
# 6 26.0309 23.8803 20.2007 -3.9787 8.6129 35.7143
#
#
#
# Elastic Compliance Matrix: (Units=1/GPa)
#
#
# Indices 1 2 3 4 5 6 
#
# 1 0.022534 0.006169 -0.006617 0.001760 -0.001355 -0.016284
# 2 0.006169 0.028636 -0.004155 0.001284 0.003531 -0.022003
# 3 -0.006617 -0.004155 0.008351 0.001175 0.001186 0.002722
# 4 0.001760 0.001284 0.001175 0.030183 -0.012773 0.003637
# 5 -0.001355 0.003531 0.001186 -0.012773 0.032108 -0.011210
# 6 -0.016284 -0.022003 0.002722 0.003637 -0.011210 0.056150
#
#
# Mechanical properties :
#
#
# Convention : Reuss Voigt Hill
#
# Bulk Modulus (GPa) = 19.87378 57.37124 38.62251
# Shear Modulus (GPa) = 24.51701 37.95933 31.23817
#
# Velocity S-wave (km/s) = 3.22836 4.01705 3.64411
# Velocity P-wave (km/s) = 4.72704 6.77528 5.84163
#
# Compressibility (1/GPa) = 0.05031754
#
# Stress axis : x y z
#
# Youngs Moduli (GPa) = 44.37686 34.92049 119.74055
#
# Poissons Ratio (x) = -0.21544 0.79230
# Poissons Ratio (y) = -0.27378 0.49752
# Poissons Ratio (z) = 0.29363 0.14509
#
# Static dielectric constant tensor:
#      x y z
#    x 1.898120 -0.001330 -0.025700 
#    y -0.001330 1.916940 0.019530 
#    z -0.025700 0.019530 1.936210 
# 
# From -- ./inp_files/306964.got.cif
#   From: 2010.05.17/outbox.cif.g08.bks.cpg/sg2_154_cif.got.tgz:306964.got - 2010.06.03 11:33:40.
