data_PCOD9055808
_publ_section_title
;
Structure prediction by ZEFSAII (Michael W. Deem and Ramdas Pophale) SiO2 
 PCOD9055808
Probable space group: P -1
;
_chemical_formula_sum "Si O2"
_cell_formula_units_Z 14
_cell_length_a 8.158875
_cell_length_b 28.967745
_cell_length_c 29.010481
_cell_angle_alpha 170.403843
_cell_angle_beta 146.736042
_cell_angle_gamma 32.950362
_cell_volume 618.782948
_symmetry_space_group_name_H-M "P -1"
_symmetry_group_IT_number 2
_symmetry_cell_setting 'triclinic'
loop_
_space_group_symop_operation_xyz
x,y,z
-x,-y,-z
loop_
_atom_site_type_symbol
_atom_site_label
_atom_site_fract_x
_atom_site_fract_y
_atom_site_fract_z
Si Si1 0.034010 0.087853 0.760102
Si Si2 0.873222 0.031111 0.233949
Si Si3 0.742408 0.675799 0.581902
Si Si4 0.802150 0.508803 0.268779
Si Si5 0.678261 0.195974 0.023515
Si Si6 0.333880 0.334579 0.760892
Si Si7 0.766989 0.287351 0.729014
O O1 0.822181 0.932503 0.524845
O O2 0.996724 0.949750 0.664998
O O3 0.939224 0.416609 0.068946
O O4 0.383810 0.065745 0.808947
O O5 0.521871 0.153143 0.279679
O O6 0.034804 0.220410 0.424316
O O7 0.981225 0.712883 0.930652
O O8 0.619453 0.443334 0.291708
O O9 0.000000 0.500000 0.500000
O O10 0.860498 0.919265 0.818749
O O11 0.790408 0.350239 0.158032
O O12 0.469028 0.610298 0.267483
O O13 0.554480 0.276987 0.713029
O O14 0.500000 0.500000 0.000000
O O15 0.000000 0.000000 0.500000
O O16 0.000000 0.500000 0.000000
#
# Coordination Sequence:
#
# PCOD9055808 Si02
#       7
#     2   2   2   2   2   2   2
#     4  11  21  44  65  93 126 181 232 280 326 411
#     4  11  21  43  72  93 130 186 225 269 342 414
#     4  11  24  47  74 108 142 174 220 279 345 421
#     4  12  24  45  68  99 138 180 237 282 333 417
#     4  11  25  43  72 105 136 178 232 277 343 405
#     4  12  25  43  65  94 131 175 240 286 344 396
#     4  12  26  45  64  94 139 183 229 292 357 384
#
# _framework density 22.625060000000001
#
# number of rings (size 3 to 8) (size 9 to 14) (size 15 to 20)
#    0.000    0.571    2.857    6.857    2.000    0.000 
#    2.571    4.286    0.000    0.000    0.000    0.000 
#    0.000    0.000    0.000    0.000    0.000    0.000 
#
# Total GULP energy -78177.774731 kJ/mol
# GULP energy per Si atom -5584.126766 kJ/mol
# Density = 2.257356 g / cm^3
# Si number density = 22.625060 Si / 1000 Ang^3
#
#
#
# Elastic Constant Matrix: (Units=GPa)
#
#
# Indices 1 2 3 4 5 6 
#
# 1 38.4453 18.1731 -10.4091 3.7795 8.0845 14.8749
# 2 18.1731 96.6399 13.8817 25.2462 -17.2180 -0.1239
# 3 -10.4091 13.8817 124.5652 20.7050 -1.4940 1.4735
# 4 3.7795 25.2462 20.7050 44.3772 -3.6582 5.3723
# 5 8.0845 -17.2180 -1.4940 -3.6582 38.2095 16.0951
# 6 14.8749 -0.1239 1.4735 5.3723 16.0951 25.8802
#
#
#
# Elastic Compliance Matrix: (Units=1/GPa)
#
#
# Indices 1 2 3 4 5 6 
#
# 1 0.040660 -0.009460 0.004287 0.002350 -0.003119 -0.022208
# 2 -0.009460 0.015440 -0.001274 -0.007116 0.007119 0.002634
# 3 0.004287 -0.001274 0.009166 -0.003767 -0.000749 -0.001744
# 4 0.002350 -0.007116 -0.003767 0.029457 0.002761 -0.009002
# 5 -0.003119 0.007119 -0.000749 0.002761 0.040281 -0.023755
# 6 -0.022208 0.002634 -0.001744 -0.009002 -0.023755 0.068157
#
#
# Mechanical properties :
#
#
# Convention : Reuss Voigt Hill
#
# Bulk Modulus (GPa) = 19.09433 33.66019 26.37726
# Shear Modulus (GPa) = 21.41194 37.56037 29.48616
#
# Velocity S-wave (km/s) = 3.07967 4.07888 3.61397
# Velocity P-wave (km/s) = 4.59387 6.09038 5.39427
#
# Compressibility (1/GPa) = 0.05237157
#
# Stress axis : x y z
#
# Youngs Moduli (GPa) = 24.59390 64.76533 109.09910
#
# Poissons Ratio (x) = 0.61268 -0.46767
# Poissons Ratio (y) = 0.23266 0.13901
# Poissons Ratio (z) = -0.10542 0.08252
#
# Static dielectric constant tensor:
#      x y z
#    x 1.795570 -0.125350 -0.207620 
#    y -0.125350 1.492250 -0.593860 
#    z -0.207620 -0.593860 1.082350 
# 
# From -- ./inp_files/622785.got.cif
#   From: 2010.05.17/outbox.cif.g08.bks.cpg/sg2_312_cif.got.tgz:622785.got - 2010.06.03 11:33:40.
