data_PCOD9055631
_publ_section_title
;
Structure prediction by ZEFSAII (Michael W. Deem and Ramdas Pophale) SiO2 
 PCOD9055631
Probable space group: P -1
;
_chemical_formula_sum "Si O2"
_cell_formula_units_Z 16
_cell_length_a 5.439215
_cell_length_b 21.371193
_cell_length_c 9.055122
_cell_angle_alpha 140.714444
_cell_angle_beta 80.001461
_cell_angle_gamma 97.180886
_cell_volume 656.288350
_symmetry_space_group_name_H-M "P -1"
_symmetry_group_IT_number 2
_symmetry_cell_setting 'triclinic'
loop_
_space_group_symop_operation_xyz
x,y,z
-x,-y,-z
loop_
_atom_site_type_symbol
_atom_site_label
_atom_site_fract_x
_atom_site_fract_y
_atom_site_fract_z
Si Si1 0.010517 0.080305 0.921985
Si Si2 0.364881 0.248721 0.583872
Si Si3 0.242391 0.702407 0.952192
Si Si4 0.871565 0.138205 0.372541
Si Si5 0.440077 0.357179 0.481845
Si Si6 0.141156 0.396888 0.326311
Si Si7 0.475284 0.578110 0.913737
Si Si8 0.453423 0.902062 0.229416
O O1 0.776216 0.083185 0.837271
O O2 0.275231 0.122494 0.915015
O O3 0.927972 0.128892 0.174063
O O4 0.082740 0.967387 0.749478
O O5 0.585761 0.175270 0.480829
O O6 0.426000 0.275060 0.455835
O O7 0.088522 0.206337 0.540533
O O8 0.398245 0.350376 0.854404
O O9 0.365641 0.668314 0.716415
O O10 0.230666 0.633379 0.974577
O O11 0.960756 0.699119 0.919361
O O12 0.362861 0.807361 0.159316
O O13 0.182574 0.375493 0.453267
O O14 0.483543 0.464181 0.746020
O O15 0.392605 0.417231 0.250663
O O16 0.000000 0.500000 0.500000
O O17 0.500000 0.000000 0.500000
#
# Coordination Sequence:
#
# PCOD9055631 Si02
#       8
#     2   2   2   2   2   2   2   2
#     4  11  25  50  73 100 141 183 243 288 358 420
#     4  12  28  43  73 106 144 181 242 294 360 410
#     4  11  24  42  72  97 142 189 234 283 355 429
#     4  11  26  48  75  98 137 194 233 293 351 435
#     4  11  23  44  67 103 140 186 242 284 343 428
#     4  11  21  42  72  98 136 191 243 284 346 430
#     4  11  25  42  65 105 145 188 230 297 355 413
#     4  12  28  44  73 111 144 177 234 303 354 417
#
# _framework density 24.379525000000001
#
# number of rings (size 3 to 8) (size 9 to 14) (size 15 to 20)
#    0.000    0.750    2.500    4.500   12.250    2.000 
#    0.000    1.875    0.000    0.000    0.000    0.000 
#    0.000    0.000    0.000    0.000    0.000    0.000 
#
# Total GULP energy -89353.268071 kJ/mol
# GULP energy per Si atom -5584.579254 kJ/mol
# Density = 2.432404 g / cm^3
# Si number density = 24.379525 Si / 1000 Ang^3
#
#
#
# Elastic Constant Matrix: (Units=GPa)
#
#
# Indices 1 2 3 4 5 6 
#
# 1 117.2478 25.2688 22.9145 -1.4860 14.7207 -20.9265
# 2 25.2688 80.2417 3.7995 -0.1764 1.8947 -16.1840
# 3 22.9145 3.7995 111.0325 8.8491 21.4387 -11.4997
# 4 -1.4860 -0.1764 8.8491 34.5767 2.0810 8.5144
# 5 14.7207 1.8947 21.4387 2.0810 41.0406 0.9338
# 6 -20.9265 -16.1840 -11.4997 8.5144 0.9338 34.4906
#
#
#
# Elastic Compliance Matrix: (Units=1/GPa)
#
#
# Indices 1 2 3 4 5 6 
#
# 1 0.010512 -0.002125 -0.000874 -0.000438 -0.003314 0.005287
# 2 -0.002125 0.014336 0.000790 -0.001708 -0.000365 0.006132
# 3 -0.000874 0.000790 0.010955 -0.003631 -0.005364 0.004534
# 4 -0.000438 -0.001708 -0.003631 0.032309 0.000728 -0.010273
# 5 -0.003314 -0.000365 -0.005364 0.000728 0.028449 -0.004920
# 6 0.005287 0.006132 0.004534 -0.010273 -0.004920 0.039260
#
#
# Mechanical properties :
#
#
# Convention : Reuss Voigt Hill
#
# Bulk Modulus (GPa) = 31.86478 45.83195 38.84837
# Shear Modulus (GPa) = 33.17843 39.12418 36.15131
#
# Velocity S-wave (km/s) = 3.69306 4.01034 3.85496
# Velocity P-wave (km/s) = 5.59317 6.34696 5.98195
#
# Compressibility (1/GPa) = 0.03138261
#
# Stress axis : x y z
#
# Youngs Moduli (GPa) = 95.12956 69.75483 91.28658
#
# Poissons Ratio (x) = 0.14825 0.07982
# Poissons Ratio (y) = 0.20218 -0.07210
# Poissons Ratio (z) = 0.08318 -0.05509
#
# Static dielectric constant tensor:
#      x y z
#    x 1.810840 0.209700 0.163390 
#    y 0.209700 1.702990 -0.142770 
#    z 0.163390 -0.142770 1.880860 
# 
# From -- ./inp_files/47416.got.cif
#   From: 2010.05.17/outbox.cif.g08.bks.cpg/sg2_24_cif.got.tgz:47416.got - 2010.06.03 11:33:40.
