data_PCOD9055669
_publ_section_title
;
Structure prediction by ZEFSAII (Michael W. Deem and Ramdas Pophale) SiO2 
 PCOD9055669
Probable space group: P -1
;
_chemical_formula_sum "Si O2"
_cell_formula_units_Z 16
_cell_length_a 15.595781
_cell_length_b 13.118417
_cell_length_c 7.819023
_cell_angle_alpha 144.482231
_cell_angle_beta 68.623451
_cell_angle_gamma 120.996068
_cell_volume 791.835636
_symmetry_space_group_name_H-M "P -1"
_symmetry_group_IT_number 2
_symmetry_cell_setting 'triclinic'
loop_
_space_group_symop_operation_xyz
x,y,z
-x,-y,-z
loop_
_atom_site_type_symbol
_atom_site_label
_atom_site_fract_x
_atom_site_fract_y
_atom_site_fract_z
Si Si1 0.876988 0.725191 0.136490
Si Si2 0.456116 0.471035 0.181478
Si Si3 0.592779 0.855390 0.783217
Si Si4 0.791991 0.810754 0.642374
Si Si5 0.232493 0.411985 0.315654
Si Si6 0.528215 0.156766 0.839932
Si Si7 0.279846 0.774663 0.016846
Si Si8 0.097656 0.866517 0.247878
O O1 0.807224 0.685333 0.302408
O O2 0.983196 0.722861 0.108477
O O3 0.899800 0.951374 0.394946
O O4 0.829519 0.611333 0.844974
O O5 0.504431 0.672951 0.518145
O O6 0.336489 0.397942 0.168043
O O7 0.500000 0.500000 0.000000
O O8 0.494127 0.324639 0.043850
O O9 0.677154 0.787762 0.703460
O O10 0.540893 0.937325 0.073568
O O11 0.653815 0.015548 0.821458
O O12 0.819468 0.746755 0.715723
O O13 0.858059 0.026367 0.820286
O O14 0.259400 0.613013 0.667295
O O15 0.500000 0.000000 0.500000
O O16 0.646174 0.243255 0.917170
O O17 0.173238 0.780242 0.148347
#
# Coordination Sequence:
#
# PCOD9055669 Si02
#       8
#     2   2   2   2   2   2   2   2
#     4   9  20  42  69  88 120 166 212 260 322 381
#     4  12  25  40  61  89 125 177 209 254 312 381
#     4  11  21  43  59  82 133 164 208 252 311 378
#     4   9  19  39  64  89 120 163 209 258 306 384
#     4  12  23  37  65  91 126 166 214 260 316 374
#     4  12  25  38  60  93 127 162 211 261 309 375
#     4  11  24  39  61  92 125 167 204 267 313 364
#     4   8  20  43  66  87 125 160 210 265 319 375
#
# _framework density 20.206213000000002
#
# number of rings (size 3 to 8) (size 9 to 14) (size 15 to 20)
#    0.750    0.750    2.500    3.000    3.500    1.000 
#    0.000    0.625    0.000    0.000    0.000    0.000 
#    0.000    0.000    0.000    0.000    0.000    0.000 
#
# Total GULP energy -89277.013077 kJ/mol
# GULP energy per Si atom -5579.813317 kJ/mol
# Density = 2.016022 g / cm^3
# Si number density = 20.206213 Si / 1000 Ang^3
#
#
#
# Elastic Constant Matrix: (Units=GPa)
#
#
# Indices 1 2 3 4 5 6 
#
# 1 133.0629 8.3990 37.1963 -6.4016 3.7426 26.9261
# 2 8.3990 36.5763 4.6623 -10.1533 3.9112 6.1208
# 3 37.1963 4.6623 87.7817 -14.4626 18.5170 10.1823
# 4 -6.4016 -10.1533 -14.4626 29.4481 -7.0501 -4.2704
# 5 3.7426 3.9112 18.5170 -7.0501 24.7640 -1.1437
# 6 26.9261 6.1208 10.1823 -4.2704 -1.1437 17.8426
#
#
#
# Elastic Compliance Matrix: (Units=1/GPa)
#
#
# Indices 1 2 3 4 5 6 
#
# 1 0.011604 0.000086 -0.003179 -0.001479 -0.000556 -0.016117
# 2 0.000086 0.031853 0.001901 0.009446 -0.004245 -0.010154
# 3 -0.003179 0.001901 0.016241 0.004660 -0.010854 -0.004704
# 4 -0.001479 0.009446 0.004660 0.041976 0.007514 0.006860
# 5 -0.000556 -0.004245 -0.010854 0.007514 0.052020 0.013622
# 6 -0.016117 -0.010154 -0.004704 0.006860 0.013622 0.089050
#
#
# Mechanical properties :
#
#
# Convention : Reuss Voigt Hill
#
# Bulk Modulus (GPa) = 17.44699 39.77068 28.60883
# Shear Modulus (GPa) = 18.92275 28.22183 23.57229
#
# Velocity S-wave (km/s) = 3.06352 3.74129 3.41924
# Velocity P-wave (km/s) = 4.60073 6.19581 5.45687
#
# Compressibility (1/GPa) = 0.05731648
#
# Stress axis : x y z
#
# Youngs Moduli (GPa) = 86.17563 31.39399 61.57299
#
# Poissons Ratio (x) = -0.00271 0.19572
# Poissons Ratio (y) = -0.00745 -0.11706
# Poissons Ratio (z) = 0.27392 -0.05969
#
# Static dielectric constant tensor:
#      x y z
#    x 1.742510 -0.040790 -0.010680 
#    y -0.040790 1.801850 0.019970 
#    z -0.010680 0.019970 1.814740 
# 
# From -- ./inp_files/316190.got.cif
#   From: 2010.05.17/outbox.cif.g08.bks.cpg/sg2_159_cif.got.tgz:316190.got - 2010.06.03 11:33:40.
