data_PCOD9055731
_publ_section_title
;
Structure prediction by ZEFSAII (Michael W. Deem and Ramdas Pophale) SiO2 
 PCOD9055731
Probable space group: P -1
;
_chemical_formula_sum "Si O2"
_cell_formula_units_Z 15
_cell_length_a 8.760057
_cell_length_b 15.472609
_cell_length_c 13.155096
_cell_angle_alpha 28.182061
_cell_angle_beta 55.158537
_cell_angle_gamma 64.844431
_cell_volume 676.812076
_symmetry_space_group_name_H-M "P -1"
_symmetry_group_IT_number 2
_symmetry_cell_setting 'triclinic'
loop_
_space_group_symop_operation_xyz
x,y,z
-x,-y,-z
loop_
_atom_site_type_symbol
_atom_site_label
_atom_site_fract_x
_atom_site_fract_y
_atom_site_fract_z
Si Si1 0.192196 0.110044 0.865180
Si Si2 0.500000 0.000000 0.000000
Si Si3 0.729485 0.631336 0.612998
Si Si4 0.988029 0.369023 0.808817
Si Si5 0.739838 0.334434 0.462528
Si Si6 0.293166 0.882906 0.667595
Si Si7 0.913985 0.798720 0.579516
Si Si8 0.319517 0.542731 0.864564
O O1 0.302991 0.224691 0.610269
O O2 0.116650 0.252268 0.821533
O O3 0.312322 0.982718 0.011901
O O4 0.000000 0.000000 0.000000
O O5 0.434127 0.780646 0.289152
O O6 0.817425 0.742372 0.564598
O O7 0.527424 0.503628 0.850810
O O8 0.873031 0.503476 0.653134
O O9 0.123248 0.508980 0.687675
O O10 0.825671 0.229370 0.078273
O O11 0.694052 0.430861 0.277169
O O12 0.861706 0.177788 0.545842
O O13 0.310523 0.732108 0.731612
O O14 0.500000 0.000000 0.500000
O O15 0.164371 0.026786 0.531407
O O16 0.843261 0.621635 0.861931
#
# Coordination Sequence:
#
# PCOD9055731 Si02
#       8
#     2   1   2   2   2   2   2   2
#     4  12  26  48  74 105 147 196 250 307 377 445
#     4  12  26  50  72 106 150 190 254 316 358 448
#     4  11  21  43  69 103 138 189 240 302 366 434
#     4  11  25  46  72 106 146 195 250 303 376 448
#     4  11  25  47  69 101 151 193 240 315 371 440
#     4  12  23  39  72 107 143 192 243 304 369 442
#     4  11  23  43  70 103 150 185 241 303 367 444
#     4  12  23  45  69 107 149 189 244 301 378 441
#
# _framework density 22.162725999999999
#
# number of rings (size 3 to 8) (size 9 to 14) (size 15 to 20)
#    0.000    0.533    5.333    5.200    0.000    1.067 
#    4.800    0.000    0.000    0.000    0.000    0.000 
#    0.000    0.000    0.000    0.000    0.000    0.000 
#
# Total GULP energy -83648.779755 kJ/mol
# GULP energy per Si atom -5576.585317 kJ/mol
# Density = 2.211228 g / cm^3
# Si number density = 22.162726 Si / 1000 Ang^3
#
#
#
# Elastic Constant Matrix: (Units=GPa)
#
#
# Indices 1 2 3 4 5 6 
#
# 1 77.8038 6.0516 1.2113 -3.3039 16.6587 -1.1740
# 2 6.0516 65.4085 3.2556 -13.0388 13.3427 -6.0281
# 3 1.2113 3.2556 95.9718 -0.0509 4.8625 22.9365
# 4 -3.3039 -13.0388 -0.0509 29.2943 -2.0738 4.8302
# 5 16.6587 13.3427 4.8625 -2.0738 44.1310 4.5219
# 6 -1.1740 -6.0281 22.9365 4.8302 4.5219 16.2500
#
#
#
# Elastic Compliance Matrix: (Units=1/GPa)
#
#
# Indices 1 2 3 4 5 6 
#
# 1 0.014143 0.000376 -0.000761 0.000765 -0.005701 0.003595
# 2 0.000376 0.018982 -0.003015 0.006173 -0.006414 0.011274
# 3 -0.000761 -0.003015 0.016702 0.003090 0.002196 -0.026277
# 4 0.000765 0.006173 0.003090 0.039326 0.000779 -0.013922
# 5 -0.005701 -0.006414 0.002196 0.000779 0.027971 -0.013906
# 6 0.003595 0.011274 -0.026277 -0.013922 -0.013906 0.111078
#
#
# Mechanical properties :
#
#
# Convention : Reuss Voigt Hill
#
# Bulk Modulus (GPa) = 23.24124 28.91345 26.07735
# Shear Modulus (GPa) = 20.05266 33.17941 26.61603
#
# Velocity S-wave (km/s) = 3.01124 3.87341 3.46921
# Velocity P-wave (km/s) = 4.75389 5.75141 5.27628
#
# Compressibility (1/GPa) = 0.04302696
#
# Stress axis : x y z
#
# Youngs Moduli (GPa) = 70.70736 52.68236 59.87283
#
# Poissons Ratio (x) = -0.01981 0.04557
# Poissons Ratio (y) = -0.02659 0.18050
# Poissons Ratio (z) = 0.05382 0.15882
#
# Static dielectric constant tensor:
#      x y z
#    x 1.841120 -0.044000 -0.018840 
#    y -0.044000 1.812000 0.031470 
#    z -0.018840 0.031470 1.837020 
# 
# From -- ./inp_files/257849.got.cif
#   From: 2010.05.17/outbox.cif.g08.bks.cpg/sg2_129_cif.got.tgz:257849.got - 2010.06.03 11:33:40.
