data_PCOD9055546
_publ_section_title
;
Structure prediction by ZEFSAII (Michael W. Deem and Ramdas Pophale) SiO2 
 PCOD9055546
Probable space group: P -1
;
_chemical_formula_sum "Si O2"
_cell_formula_units_Z 16
_cell_length_a 10.070340
_cell_length_b 19.299414
_cell_length_c 11.997755
_cell_angle_alpha 132.851717
_cell_angle_beta 138.995474
_cell_angle_gamma 78.865073
_cell_volume 837.145189
_symmetry_space_group_name_H-M "P -1"
_symmetry_group_IT_number 2
_symmetry_cell_setting 'triclinic'
loop_
_space_group_symop_operation_xyz
x,y,z
-x,-y,-z
loop_
_atom_site_type_symbol
_atom_site_label
_atom_site_fract_x
_atom_site_fract_y
_atom_site_fract_z
Si Si1 0.025930 0.556816 0.701317
Si Si2 0.418338 0.365670 0.789920
Si Si3 0.685857 0.978997 0.145116
Si Si4 0.019046 0.244094 0.197295
Si Si5 0.895119 0.858520 0.069663
Si Si6 0.486043 0.399030 0.309543
Si Si7 0.246978 0.248680 0.784417
Si Si8 0.455370 0.110915 0.799194
O O1 0.000000 0.500000 0.500000
O O2 0.983265 0.654623 0.755061
O O3 0.786855 0.457445 0.529216
O O4 0.310623 0.613314 0.998227
O O5 0.252918 0.305906 0.505494
O O6 0.231425 0.281488 0.685485
O O7 0.500000 0.500000 0.000000
O O8 0.749762 0.914510 0.030635
O O9 0.558895 0.896509 0.085267
O O10 0.967545 0.117189 0.504572
O O11 0.500000 0.000000 0.000000
O O12 0.056331 0.176710 0.054365
O O13 0.727038 0.148750 0.967177
O O14 0.701374 0.732096 0.883871
O O15 0.187291 0.974182 0.435233
O O16 0.500000 0.500000 0.500000
O O17 0.347871 0.359118 0.055407
O O18 0.442600 0.217358 0.873474
#
# Coordination Sequence:
#
# PCOD9055546 Si02
#       8
#     2   2   2   2   2   2   2   2
#     4  12  23  42  68  95 134 187 228 269 336 402
#     4  12  25  41  68 103 136 181 237 274 328 418
#     4  11  23  42  68 101 134 178 228 284 336 411
#     4  12  24  44  67 101 140 173 224 289 339 397
#     4  11  24  44  67 103 134 174 230 280 354 402
#     4  12  22  40  69  98 135 177 225 281 340 405
#     4  11  21  42  69  96 132 178 233 274 333 410
#     4  11  21  44  74  95 131 184 230 278 338 413
#
# _framework density 19.112575
#
# number of rings (size 3 to 8) (size 9 to 14) (size 15 to 20)
#    0.000    0.500    7.500    1.875    0.000    1.000 
#    4.500    3.750    0.000    0.000    0.000    0.000 
#    0.000    0.000    0.000    0.000    0.000    0.000 
#
# Total GULP energy -89340.461430 kJ/mol
# GULP energy per Si atom -5583.778839 kJ/mol
# Density = 1.906907 g / cm^3
# Si number density = 19.112575 Si / 1000 Ang^3
#
#
#
# Elastic Constant Matrix: (Units=GPa)
#
#
# Indices 1 2 3 4 5 6 
#
# 1 143.9034 42.0644 62.2329 -2.9057 -6.3042 -20.2779
# 2 42.0644 99.9362 50.5630 -9.5565 -11.2038 -10.7662
# 3 62.2329 50.5630 105.1781 -4.7620 -4.2537 -19.8823
# 4 -2.9057 -9.5565 -4.7620 36.3957 0.0673 3.4913
# 5 -6.3042 -11.2038 -4.2537 0.0673 43.6343 10.6025
# 6 -20.2779 -10.7662 -19.8823 3.4913 10.6025 31.6641
#
#
#
# Elastic Compliance Matrix: (Units=1/GPa)
#
#
# Indices 1 2 3 4 5 6 
#
# 1 0.009752 -0.001587 -0.004468 -0.000511 -0.000165 0.003012
# 2 -0.001587 0.014118 -0.005824 0.002932 0.003125 -0.001243
# 3 -0.004468 -0.005824 0.015968 -0.000359 -0.002017 0.005901
# 4 -0.000511 0.002932 -0.000359 0.028458 0.001366 -0.003151
# 5 -0.000165 0.003125 -0.002017 0.001366 0.025700 -0.009066
# 6 0.003012 -0.001243 0.005901 -0.003151 -0.009066 0.040176
#
#
# Mechanical properties :
#
#
# Convention : Reuss Voigt Hill
#
# Bulk Modulus (GPa) = 62.18414 73.19313 67.68864
# Shear Modulus (GPa) = 30.62051 35.28266 32.95158
#
# Velocity S-wave (km/s) = 4.00698 4.30122 4.15671
# Velocity P-wave (km/s) = 7.34944 7.94017 7.65051
#
# Compressibility (1/GPa) = 0.01608127
#
# Stress axis : x y z
#
# Youngs Moduli (GPa) = 102.54297 70.83261 62.62421
#
# Poissons Ratio (x) = 0.11243 0.27978
# Poissons Ratio (y) = 0.16277 0.36469
# Poissons Ratio (z) = 0.45812 0.41250
#
# Static dielectric constant tensor:
#      x y z
#    x 1.673040 0.008880 0.055420 
#    y 0.008880 1.676050 -0.001250 
#    z 0.055420 -0.001250 1.733720 
# 
# From -- ./inp_files/261092.got.cif
#   From: 2010.05.17/outbox.cif.g08.bks.cpg/sg2_131_cif.got.tgz:261092.got - 2010.06.03 11:33:40.
