data_PCOD9055376
_publ_section_title
;
Structure prediction by ZEFSAII (Michael W. Deem and Ramdas Pophale) SiO2 
 PCOD9055376
Probable space group: P -1
;
_chemical_formula_sum "Si O2"
_cell_formula_units_Z 16
_cell_length_a 8.554007
_cell_length_b 15.718577
_cell_length_c 8.538426
_cell_angle_alpha 109.914700
_cell_angle_beta 131.384213
_cell_angle_gamma 97.620705
_cell_volume 697.958342
_symmetry_space_group_name_H-M "P -1"
_symmetry_group_IT_number 2
_symmetry_cell_setting 'triclinic'
loop_
_space_group_symop_operation_xyz
x,y,z
-x,-y,-z
loop_
_atom_site_type_symbol
_atom_site_label
_atom_site_fract_x
_atom_site_fract_y
_atom_site_fract_z
Si Si1 0.202409 0.562641 0.040919
Si Si2 0.649489 0.113218 0.515215
Si Si3 0.631904 0.599559 0.535289
Si Si4 0.117184 0.743678 0.991644
Si Si5 0.069856 0.059468 0.749040
Si Si6 0.793064 0.078864 0.062127
Si Si7 0.365325 0.800260 0.752468
Si Si8 0.076146 0.423337 0.578048
O O1 0.440491 0.622537 0.342378
O O2 0.163905 0.646192 0.968768
O O3 0.199395 0.479010 0.860630
O O4 0.000000 0.500000 0.000000
O O5 0.649780 0.165910 0.709985
O O6 0.687744 0.198709 0.464282
O O7 0.876429 0.095637 0.668961
O O8 0.414503 0.008476 0.239650
O O9 0.500000 0.500000 0.500000
O O10 0.760552 0.585951 0.455702
O O11 0.843229 0.686725 0.838551
O O12 0.084059 0.810520 0.874724
O O13 0.056967 0.974143 0.811943
O O14 0.350567 0.154728 0.998077
O O15 0.000000 0.000000 0.500000
O O16 0.681573 0.109178 0.153376
O O17 0.168154 0.688031 0.620054
O O18 0.000000 0.500000 0.500000
#
# Coordination Sequence:
#
# PCOD9055376 Si02
#       8
#     2   2   2   2   2   2   2   2
#     4  12  25  49  74  99 148 191 235 300 356 417
#     4  11  24  41  71 100 137 186 229 285 359 421
#     4  12  26  46  72 103 142 187 243 294 353 424
#     4  12  26  46  66 103 142 185 234 293 355 419
#     4  11  21  41  70 100 136 180 229 290 354 421
#     4  11  22  43  67 100 140 175 232 294 343 432
#     4  11  22  42  70  99 136 178 234 286 350 425
#     4  12  24  48  73 106 142 189 241 295 355 424
#
# _framework density 22.924005999999999
#
# number of rings (size 3 to 8) (size 9 to 14) (size 15 to 20)
#    0.000    0.500    6.250    2.250    0.000    5.500 
#    6.750    0.000    0.000    0.000    0.000    0.000 
#    0.000    0.000    0.000    0.000    0.000    0.000 
#
# Total GULP energy -89194.917831 kJ/mol
# GULP energy per Si atom -5574.682364 kJ/mol
# Density = 2.287183 g / cm^3
# Si number density = 22.924006 Si / 1000 Ang^3
#
#
#
# Elastic Constant Matrix: (Units=GPa)
#
#
# Indices 1 2 3 4 5 6 
#
# 1 52.6500 35.6014 5.1754 1.9519 3.2685 2.1743
# 2 35.6014 172.5852 56.6643 6.5739 20.9356 21.1781
# 3 5.1754 56.6643 97.3823 -15.8115 -0.7369 -16.2476
# 4 1.9519 6.5739 -15.8115 34.8914 -11.4277 3.9859
# 5 3.2685 20.9356 -0.7369 -11.4277 34.7514 -5.9817
# 6 2.1743 21.1781 -16.2476 3.9859 -5.9817 38.3204
#
#
#
# Elastic Compliance Matrix: (Units=1/GPa)
#
#
# Indices 1 2 3 4 5 6 
#
# 1 0.023028 -0.007493 0.004507 0.002993 0.004307 0.005106
# 2 -0.007493 0.016182 -0.013741 -0.012343 -0.016074 -0.015569
# 3 0.004507 -0.013741 0.023927 0.016646 0.017004 0.018406
# 4 0.002993 -0.012343 0.016646 0.044914 0.024490 0.012861
# 5 0.004307 -0.016074 0.017004 0.024490 0.050104 0.021122
# 6 0.005106 -0.015569 0.018406 0.012861 0.021122 0.044174
#
#
# Mechanical properties :
#
#
# Convention : Reuss Voigt Hill
#
# Bulk Modulus (GPa) = 33.68995 57.49997 45.59496
# Shear Modulus (GPa) = 20.35184 36.60437 28.47811
#
# Velocity S-wave (km/s) = 2.98282 4.00030 3.52843
# Velocity P-wave (km/s) = 5.15667 6.81717 6.04421
#
# Compressibility (1/GPa) = 0.02968245
#
# Stress axis : x y z
#
# Youngs Moduli (GPa) = 43.42576 61.79718 41.79342
#
# Poissons Ratio (x) = 0.46304 -0.18835
# Poissons Ratio (y) = 0.32539 0.57428
# Poissons Ratio (z) = -0.19570 0.84915
#
# Static dielectric constant tensor:
#      x y z
#    x 1.973300 0.039270 -0.030780 
#    y 0.039270 1.865950 0.004760 
#    z -0.030780 0.004760 1.959340 
# 
# From -- ./inp_files/208540.got.cif
#   From: 2010.05.17/outbox.cif.g08.bks.cpg/sg2_105_cif.got.tgz:208540.got - 2010.06.03 11:33:40.
