data_PCOD9055186
_publ_section_title
;
Structure prediction by ZEFSAII (Michael W. Deem and Ramdas Pophale) SiO2 
 PCOD9055186
Probable space group: P -1
;
_chemical_formula_sum "Si O2"
_cell_formula_units_Z 16
_cell_length_a 17.802163
_cell_length_b 19.001918
_cell_length_c 8.013483
_cell_angle_alpha 136.945403
_cell_angle_beta 145.523613
_cell_angle_gamma 32.012406
_cell_volume 808.876020
_symmetry_space_group_name_H-M "P -1"
_symmetry_group_IT_number 2
_symmetry_cell_setting 'triclinic'
loop_
_space_group_symop_operation_xyz
x,y,z
-x,-y,-z
loop_
_atom_site_type_symbol
_atom_site_label
_atom_site_fract_x
_atom_site_fract_y
_atom_site_fract_z
Si Si1 0.799063 0.707884 0.767545
Si Si2 0.883281 0.981532 0.649290
Si Si3 0.087733 0.878754 0.326793
Si Si4 0.181299 0.169558 0.314814
Si Si5 0.878178 0.436244 0.351885
Si Si6 0.557642 0.044076 0.333620
Si Si7 0.699273 0.411497 0.669985
Si Si8 0.097145 0.667161 0.429616
O O1 0.808814 0.790683 0.784758
O O2 0.843733 0.573696 0.546530
O O3 0.606563 0.808192 0.659365
O O4 0.941713 0.667310 0.095079
O O5 0.001898 0.825975 0.541179
O O6 0.821829 0.088457 0.577680
O O7 0.720439 0.024455 0.527299
O O8 0.000000 0.000000 0.000000
O O9 0.221958 0.740031 0.421592
O O10 0.000000 0.000000 0.500000
O O11 0.941677 0.871428 0.978334
O O12 0.077375 0.306905 0.466713
O O13 0.362732 0.056030 0.535651
O O14 0.828431 0.401538 0.372426
O O15 0.784663 0.440374 0.020996
O O16 0.500000 0.000000 0.000000
O O17 0.500000 0.500000 0.500000
O O18 0.763795 0.409197 0.598115
#
# Coordination Sequence:
#
# PCOD9055186 Si02
#       8
#     2   2   2   2   2   2   2   2
#     4  12  24  43  70 101 139 181 228 284 353 409
#     4  12  22  42  71  97 136 182 229 281 345 412
#     4  11  21  40  70  93 129 180 228 271 347 405
#     4  11  22  44  67  98 138 180 225 287 336 412
#     4  11  24  44  70  98 134 186 230 275 352 418
#     4  12  25  42  65 106 139 173 236 289 334 402
#     4  11  26  45  66 101 139 178 236 289 339 413
#     4  12  23  45  72  95 141 182 225 292 346 409
#
# _framework density 19.780535
#
# number of rings (size 3 to 8) (size 9 to 14) (size 15 to 20)
#    0.000    0.500    7.500    1.875    0.000    3.500 
#    2.250    0.000    0.000    0.000    0.000    0.000 
#    0.000    0.000    0.000    0.000    0.000    0.000 
#
# Total GULP energy -89319.829438 kJ/mol
# GULP energy per Si atom -5582.489340 kJ/mol
# Density = 1.973551 g / cm^3
# Si number density = 19.780535 Si / 1000 Ang^3
#
#
#
# Elastic Constant Matrix: (Units=GPa)
#
#
# Indices 1 2 3 4 5 6 
#
# 1 107.3386 2.4647 18.7350 -0.8355 3.2392 -10.7624
# 2 2.4647 100.9945 44.7741 14.7414 8.2973 -25.6039
# 3 18.7350 44.7741 70.9647 10.5765 8.4482 -17.6807
# 4 -0.8355 14.7414 10.5765 37.6480 -1.9751 4.7088
# 5 3.2392 8.2973 8.4482 -1.9751 26.5072 -0.6037
# 6 -10.7624 -25.6039 -17.6807 4.7088 -0.6037 38.0181
#
#
#
# Elastic Compliance Matrix: (Units=1/GPa)
#
#
# Indices 1 2 3 4 5 6 
#
# 1 0.010103 0.001863 -0.003083 -0.000014 -0.000775 0.002670
# 2 0.001863 0.016480 -0.007488 -0.005575 -0.003215 0.008784
# 3 -0.003083 -0.007488 0.021959 -0.004133 -0.004478 0.004738
# 4 -0.000014 -0.005575 -0.004133 0.031364 0.005185 -0.009483
# 5 -0.000775 -0.003215 -0.004478 0.005185 0.040539 -0.004466
# 6 0.002670 0.008784 0.004738 -0.009483 -0.004466 0.036282
#
#
# Mechanical properties :
#
#
# Convention : Reuss Voigt Hill
#
# Bulk Modulus (GPa) = 32.12674 45.69392 38.91033
# Shear Modulus (GPa) = 27.09775 34.65627 30.87701
#
# Velocity S-wave (km/s) = 3.70526 4.19028 3.95521
# Velocity P-wave (km/s) = 5.88066 6.82362 6.36961
#
# Compressibility (1/GPa) = 0.03112671
#
# Stress axis : x y z
#
# Youngs Moduli (GPa) = 98.98406 60.67834 45.53917
#
# Poissons Ratio (x) = -0.11303 0.14039
# Poissons Ratio (y) = -0.18439 0.34098
# Poissons Ratio (z) = 0.30515 0.45434
#
# Static dielectric constant tensor:
#      x y z
#    x 0.569390 -0.351060 0.121440 
#    y -0.351060 1.555240 0.039040 
#    z 0.121440 0.039040 1.670910 
# 
# From -- ./inp_files/281424.got.cif
#   From: 2010.05.17/outbox.cif.g08.bks.cpg/sg2_141_cif.got.tgz:281424.got - 2010.06.03 11:33:40.
