data_PCOD9055541
_publ_section_title
;
Structure prediction by ZEFSAII (Michael W. Deem and Ramdas Pophale) SiO2 
 PCOD9055541
Probable space group: P -1
;
_chemical_formula_sum "Si O2"
_cell_formula_units_Z 16
_cell_length_a 17.799836
_cell_length_b 11.806393
_cell_length_c 9.604533
_cell_angle_alpha 98.137301
_cell_angle_beta 135.578873
_cell_angle_gamma 46.264012
_cell_volume 732.480669
_symmetry_space_group_name_H-M "P -1"
_symmetry_group_IT_number 2
_symmetry_cell_setting 'triclinic'
loop_
_space_group_symop_operation_xyz
x,y,z
-x,-y,-z
loop_
_atom_site_type_symbol
_atom_site_label
_atom_site_fract_x
_atom_site_fract_y
_atom_site_fract_z
Si Si1 0.115434 0.124887 0.544185
Si Si2 0.916821 0.453155 0.567737
Si Si3 0.829102 0.446335 0.756430
Si Si4 0.469810 0.150939 0.051780
Si Si5 0.525057 0.422761 0.669256
Si Si6 0.156926 0.468950 0.915295
Si Si7 0.322822 0.703709 0.697064
Si Si8 0.960360 0.956070 0.077499
O O1 0.072430 0.227656 0.651684
O O2 0.928239 0.336134 0.234127
O O3 0.187939 0.928661 0.621635
O O4 0.312647 0.990151 0.698753
O O5 0.868610 0.470385 0.666261
O O6 0.702614 0.633865 0.234918
O O7 0.004505 0.502715 0.679783
O O8 0.624812 0.551292 0.507963
O O9 0.823461 0.534397 0.895592
O O10 0.023329 0.185202 0.987205
O O11 0.372281 0.241618 0.090422
O O12 0.500000 0.000000 0.000000
O O13 0.500000 0.500000 0.500000
O O14 0.462316 0.580953 0.720193
O O15 0.758306 0.171175 0.931128
O O16 0.500000 0.500000 0.000000
O O17 0.139483 0.794971 0.403779
O O18 0.000000 0.000000 0.000000
#
# Coordination Sequence:
#
# PCOD9055541 Si02
#       8
#     2   2   2   2   2   2   2   2
#     4  11  24  42  71  96 136 184 221 277 348 406
#     4  11  24  44  65 100 139 175 223 286 345 399
#     4  11  26  41  69  99 137 179 224 281 348 397
#     4  11  21  42  69  93 135 178 226 275 336 409
#     4  11  25  47  68  96 138 181 235 280 340 419
#     4  11  23  43  69 101 131 181 234 272 332 422
#     4  11  27  43  69 109 136 173 236 288 344 404
#     4  11  23  47  69  94 138 184 224 281 338 412
#
# _framework density 21.843578000000001
#
# number of rings (size 3 to 8) (size 9 to 14) (size 15 to 20)
#    0.000    1.000    5.000    1.875    7.000    1.500 
#    0.000    0.625    0.000    0.000    0.000    0.000 
#    0.000    0.000    0.000    0.000    0.000    0.000 
#
# Total GULP energy -89182.423886 kJ/mol
# GULP energy per Si atom -5573.901493 kJ/mol
# Density = 2.179386 g / cm^3
# Si number density = 21.843578 Si / 1000 Ang^3
#
#
#
# Elastic Constant Matrix: (Units=GPa)
#
#
# Indices 1 2 3 4 5 6 
#
# 1 71.1065 34.0704 21.3243 0.4131 -12.6203 -28.4706
# 2 34.0704 164.5708 39.3646 -10.7123 -12.4202 -36.1685
# 3 21.3243 39.3646 71.8924 -11.3958 1.8101 -19.7554
# 4 0.4131 -10.7123 -11.3958 34.3838 -17.0824 0.1352
# 5 -12.6203 -12.4202 1.8101 -17.0824 35.1389 3.5434
# 6 -28.4706 -36.1685 -19.7554 0.1352 3.5434 40.5615
#
#
#
# Elastic Compliance Matrix: (Units=1/GPa)
#
#
# Indices 1 2 3 4 5 6 
#
# 1 0.021464 -0.000256 -0.002439 0.002638 0.007719 0.012966
# 2 -0.000256 0.008621 -0.002496 0.004055 0.004461 0.005889
# 3 -0.002439 -0.002496 0.018149 0.004827 -0.000847 0.004959
# 4 0.002638 0.004055 0.004827 0.043067 0.022493 0.005710
# 5 0.007719 0.004461 -0.000847 0.022493 0.043269 0.005129
# 6 0.012966 0.005889 0.004959 0.005710 0.005129 0.040954
#
#
# Mechanical properties :
#
#
# Convention : Reuss Voigt Hill
#
# Bulk Modulus (GPa) = 26.41930 55.23203 40.82567
# Shear Modulus (GPa) = 25.18572 36.20421 30.69496
#
# Velocity S-wave (km/s) = 3.39927 4.07557 3.75269
# Velocity P-wave (km/s) = 5.24669 6.89109 6.12434
#
# Compressibility (1/GPa) = 0.03785112
#
# Stress axis : x y z
#
# Youngs Moduli (GPa) = 46.58969 115.99085 55.09911
#
# Poissons Ratio (x) = 0.02972 0.13441
# Poissons Ratio (y) = 0.01194 0.13752
# Poissons Ratio (z) = 0.11366 0.28950
#
# Static dielectric constant tensor:
#      x y z
#    x 1.808680 0.059670 0.032000 
#    y 0.059670 1.946880 -0.016890 
#    z 0.032000 -0.016890 1.855700 
# 
# From -- ./inp_files/333431.got.cif
#   From: 2010.05.17/outbox.cif.g08.bks.cpg/sg2_167_cif.got.tgz:333431.got - 2010.06.03 11:33:40.
