data_PCOD9055775
_publ_section_title
;
Structure prediction by ZEFSAII (Michael W. Deem and Ramdas Pophale) SiO2 
 PCOD9055775
Probable space group: P -1
;
_chemical_formula_sum "Si O2"
_cell_formula_units_Z 15
_cell_length_a 25.338549
_cell_length_b 9.275435
_cell_length_c 7.023540
_cell_angle_alpha 108.728482
_cell_angle_beta 138.902570
_cell_angle_gamma 40.497675
_cell_volume 568.823785
_symmetry_space_group_name_H-M "P -1"
_symmetry_group_IT_number 2
_symmetry_cell_setting 'triclinic'
loop_
_space_group_symop_operation_xyz
x,y,z
-x,-y,-z
loop_
_atom_site_type_symbol
_atom_site_label
_atom_site_fract_x
_atom_site_fract_y
_atom_site_fract_z
Si Si1 0.000000 0.500000 0.500000
Si Si2 0.222712 0.758535 0.258198
Si Si3 0.428902 0.006190 0.574397
Si Si4 0.004619 0.832812 0.677055
Si Si5 0.284674 0.583052 0.793961
Si Si6 0.841705 0.514183 0.695677
Si Si7 0.531577 0.160566 0.799962
Si Si8 0.170614 0.168031 0.426515
O O1 0.040674 0.611448 0.598769
O O2 0.097033 0.281931 0.484396
O O3 0.263081 0.657806 0.546068
O O4 0.379985 0.482510 0.473435
O O5 0.166814 0.019566 0.226559
O O6 0.106855 0.815374 0.895827
O O7 0.403292 0.017612 0.288161
O O8 0.281271 0.234978 0.385153
O O9 0.490047 0.082329 0.788239
O O10 0.546275 0.695150 0.822065
O O11 0.043515 0.756239 0.976804
O O12 0.834336 0.128034 0.301867
O O13 0.225905 0.504677 0.632184
O O14 0.883756 0.598043 0.736567
O O15 0.655746 0.073552 0.178736
#
# Coordination Sequence:
#
# PCOD9055775 Si02
#       8
#     1   2   2   2   2   2   2   2
#     4  12  28  48  70 102 154 186 240 296 366 432
#     4  11  23  46  76 103 147 191 242 296 367 432
#     4  11  22  41  74 108 146 188 247 298 362 426
#     4  11  25  49  74 101 150 195 236 303 363 434
#     4  11  21  43  71 104 141 196 240 292 358 437
#     4  11  22  44  77 103 141 197 249 288 359 435
#     4  11  23  43  73 109 147 191 238 308 364 419
#     4  12  26  45  74 111 145 191 245 304 358 430
#
# _framework density 26.370206
#
# number of rings (size 3 to 8) (size 9 to 14) (size 15 to 20)
#    0.000    0.800    5.333    4.000    1.867    0.533 
#    2.400    2.667    0.000    0.000    0.000    0.000 
#    0.000    0.000    0.000    0.000    0.000    0.000 
#
# Total GULP energy -83731.305056 kJ/mol
# GULP energy per Si atom -5582.087004 kJ/mol
# Density = 2.631019 g / cm^3
# Si number density = 26.370206 Si / 1000 Ang^3
#
#
#
# Elastic Constant Matrix: (Units=GPa)
#
#
# Indices 1 2 3 4 5 6 
#
# 1 119.3626 32.9882 21.5678 -9.2127 20.8713 -3.4155
# 2 32.9882 181.6517 35.1215 -12.2096 19.6807 11.9391
# 3 21.5678 35.1215 90.9611 -39.3760 6.8219 -1.0915
# 4 -9.2127 -12.2096 -39.3760 51.1293 8.5333 6.8183
# 5 20.8713 19.6807 6.8219 8.5333 36.7915 -8.7239
# 6 -3.4155 11.9391 -1.0915 6.8183 -8.7239 43.1286
#
#
#
# Elastic Compliance Matrix: (Units=1/GPa)
#
#
# Indices 1 2 3 4 5 6 
#
# 1 0.009866 -0.000888 -0.000722 0.001993 -0.005552 -0.000429
# 2 -0.000888 0.006649 -0.001586 0.001215 -0.003727 -0.002897
# 3 -0.000722 -0.001586 0.018991 0.015606 -0.006579 -0.002936
# 4 0.001993 0.001215 0.015606 0.035862 -0.015005 -0.008488
# 5 -0.005552 -0.003727 -0.006579 -0.015005 0.039586 0.010805
# 6 -0.000429 -0.002897 -0.002936 -0.008488 0.010805 0.027408
#
#
# Mechanical properties :
#
#
# Convention : Reuss Voigt Hill
#
# Bulk Modulus (GPa) = 34.34897 63.48115 48.91506
# Shear Modulus (GPa) = 32.37087 46.36308 39.36697
#
# Velocity S-wave (km/s) = 3.50745 4.19759 3.86794
# Velocity P-wave (km/s) = 5.42742 6.90061 6.20787
#
# Compressibility (1/GPa) = 0.02911296
#
# Stress axis : x y z
#
# Youngs Moduli (GPa) = 101.35604 150.40089 52.65563
#
# Poissons Ratio (x) = 0.13361 0.03803
# Poissons Ratio (y) = 0.09004 0.08351
# Poissons Ratio (z) = 0.07321 0.23854
#
# Static dielectric constant tensor:
#      x y z
#    x 2.128140 -0.019500 0.005090 
#    y -0.019500 2.036320 -0.008020 
#    z 0.005090 -0.008020 2.201950 
# 
# From -- ./inp_files/356490.got.cif
#   From: 2010.05.17/outbox.cif.g08.bks.cpg/sg2_179_cif.got.tgz:356490.got - 2010.06.03 11:33:40.
