data_PCOD9055208
_publ_section_title
;
Structure prediction by ZEFSAII (Michael W. Deem and Ramdas Pophale) SiO2 
 PCOD9055208
Probable space group: P -1
;
_chemical_formula_sum "Si O2"
_cell_formula_units_Z 12
_cell_length_a 11.630540
_cell_length_b 8.851751
_cell_length_c 7.672648
_cell_angle_alpha 107.855867
_cell_angle_beta 137.828933
_cell_angle_gamma 70.222512
_cell_volume 497.065441
_symmetry_space_group_name_H-M "P -1"
_symmetry_group_IT_number 2
_symmetry_cell_setting 'triclinic'
loop_
_space_group_symop_operation_xyz
x,y,z
-x,-y,-z
loop_
_atom_site_type_symbol
_atom_site_label
_atom_site_fract_x
_atom_site_fract_y
_atom_site_fract_z
Si Si1 0.819281 0.115987 0.782751
Si Si2 0.308502 0.605973 0.491320
Si Si3 0.099913 0.098171 0.516304
Si Si4 0.432115 0.190692 0.976364
Si Si5 0.538506 0.302347 0.757919
Si Si6 0.854050 0.393087 0.314945
O O1 0.807852 0.300570 0.761164
O O2 0.654212 0.148514 0.739079
O O3 0.790859 0.017641 0.540933
O O4 0.000000 0.000000 0.000000
O O5 0.401478 0.418211 0.522785
O O6 0.192814 0.617470 0.539340
O O7 0.459605 0.709190 0.744100
O O8 0.227907 0.201837 0.789789
O O9 0.949727 0.219851 0.295995
O O10 0.000000 0.000000 0.500000
O O11 0.454226 0.248130 0.821296
O O12 0.500000 0.000000 0.000000
O O13 0.673109 0.417045 0.018112
O O14 0.000000 0.500000 0.500000
#
# Coordination Sequence:
#
# PCOD9055208 Si02
#       6
#     2   2   2   2   2   2
#     4  12  25  43  67  96 140 177 216 276 337 386
#     4  11  23  45  67  98 133 175 222 275 326 396
#     4  12  22  43  69  96 131 175 225 270 324 399
#     4  11  22  41  72 102 127 176 227 272 325 391
#     4  11  24  43  67 101 137 169 223 275 333 392
#     4  11  21  40  71  97 128 173 222 272 327 394
#
# _framework density 24.141687999999998
#
# number of rings (size 3 to 8) (size 9 to 14) (size 15 to 20)
#    0.000    0.667    5.000    5.500    0.000    0.667 
#    0.000    0.833    0.000    0.000    0.000    0.000 
#    0.000    0.000    0.000    0.000    0.000    0.000 
#
# Total GULP energy -66944.120986 kJ/mol
# GULP energy per Si atom -5578.676749 kJ/mol
# Density = 2.408674 g / cm^3
# Si number density = 24.141688 Si / 1000 Ang^3
#
#
#
# Elastic Constant Matrix: (Units=GPa)
#
#
# Indices 1 2 3 4 5 6 
#
# 1 126.9187 41.2281 43.1076 12.9291 8.5253 -3.0507
# 2 41.2281 156.4099 39.1291 -43.3860 6.5215 -9.1323
# 3 43.1076 39.1291 71.5474 -22.0653 20.7343 18.4020
# 4 12.9291 -43.3860 -22.0653 58.7696 7.1303 6.1412
# 5 8.5253 6.5215 20.7343 7.1303 35.7332 2.5122
# 6 -3.0507 -9.1323 18.4020 6.1412 2.5122 47.2863
#
#
#
# Elastic Compliance Matrix: (Units=1/GPa)
#
#
# Indices 1 2 3 4 5 6 
#
# 1 0.015869 -0.003983 -0.016527 -0.014560 0.008866 0.008106
# 2 -0.003983 0.009898 0.000281 0.008564 -0.002769 0.000580
# 3 -0.016527 0.000281 0.044301 0.025687 -0.025517 -0.020233
# 4 -0.014560 0.008564 0.025687 0.040018 -0.020036 -0.013414
# 5 0.008866 -0.002769 -0.025517 -0.020036 0.044462 0.010208
# 6 0.008106 0.000580 -0.020233 -0.013414 0.010208 0.030856
#
#
# Mechanical properties :
#
#
# Convention : Reuss Voigt Hill
#
# Bulk Modulus (GPa) = 33.77270 66.86730 50.32000
# Shear Modulus (GPa) = 21.21050 43.78524 32.49787
#
# Velocity S-wave (km/s) = 2.96731 4.26335 3.67295
# Velocity P-wave (km/s) = 5.07539 7.21061 6.23508
#
# Compressibility (1/GPa) = 0.02960971
#
# Stress axis : x y z
#
# Youngs Moduli (GPa) = 63.01658 101.03057 22.57289
#
# Poissons Ratio (x) = 0.40244 0.37306
# Poissons Ratio (y) = 0.25102 -0.00635
# Poissons Ratio (z) = 1.04148 -0.02843
#
# Static dielectric constant tensor:
#      x y z
#    x 1.961030 -0.122340 -0.046850 
#    y -0.122340 2.228700 -0.083760 
#    z -0.046850 -0.083760 2.055560 
# 
# From -- ./inp_files/160601.got.cif
#   From: 2010.05.17/outbox.cif.g08.bks.cpg/sg2_81_cif.got.tgz:160601.got - 2010.06.03 11:33:40.
