data_PCOD9055867
_publ_section_title
;
Structure prediction by ZEFSAII (Michael W. Deem and Ramdas Pophale) SiO2 
 PCOD9055867
Probable space group: P -1
;
_chemical_formula_sum "Si O2"
_cell_formula_units_Z 16
_cell_length_a 8.729153
_cell_length_b 11.898294
_cell_length_c 9.739157
_cell_angle_alpha 119.500933
_cell_angle_beta 113.150654
_cell_angle_gamma 51.190373
_cell_volume 680.673640
_symmetry_space_group_name_H-M "P -1"
_symmetry_group_IT_number 2
_symmetry_cell_setting 'triclinic'
loop_
_space_group_symop_operation_xyz
x,y,z
-x,-y,-z
loop_
_atom_site_type_symbol
_atom_site_label
_atom_site_fract_x
_atom_site_fract_y
_atom_site_fract_z
Si Si1 0.788041 0.089979 0.908776
Si Si2 0.783370 0.028991 0.409687
Si Si3 0.647305 0.474014 0.413039
Si Si4 0.203073 0.274639 0.690450
Si Si5 0.539643 0.135888 0.110591
Si Si6 0.430529 0.725353 0.278758
Si Si7 0.854048 0.595264 0.744155
Si Si8 0.056086 0.232088 0.330367
O O1 0.314097 0.903259 0.731881
O O2 0.802619 0.949561 0.746232
O O3 0.000000 0.000000 0.000000
O O4 0.634322 0.147092 0.011709
O O5 0.789276 0.871073 0.331008
O O6 0.253727 0.782628 0.141725
O O7 0.643026 0.152902 0.549402
O O8 0.000000 0.000000 0.500000
O O9 0.500000 0.500000 0.500000
O O10 0.523963 0.562871 0.288281
O O11 0.760484 0.551578 0.559510
O O12 0.828257 0.302707 0.336766
O O13 0.405008 0.269133 0.749789
O O14 0.149207 0.273367 0.511490
O O15 0.022537 0.437881 0.778772
O O16 0.329726 0.290577 0.158011
O O17 0.500000 0.000000 0.000000
O O18 0.943904 0.684738 0.758409
#
# Coordination Sequence:
#
# PCOD9055867 Si02
#       8
#     2   2   2   2   2   2   2   2
#     4  12  28  45  68  99 147 188 232 289 364 426
#     4  12  26  42  69 107 141 178 248 303 345 417
#     4  11  24  39  73 107 138 173 238 302 349 409
#     4  11  22  41  72 104 129 179 241 292 341 424
#     4  12  25  45  69 103 142 192 229 293 363 427
#     4  12  23  45  72 100 134 188 243 281 351 428
#     4  11  22  43  68 102 140 179 233 290 356 426
#     4  11  21  44  67 100 142 178 225 293 357 415
#
# _framework density 23.506125000000001
#
# number of rings (size 3 to 8) (size 9 to 14) (size 15 to 20)
#    0.000    0.500    6.250    2.625    5.250    0.000 
#    0.000    4.375    0.000    0.000    0.000    0.000 
#    0.000    0.000    0.000    0.000    0.000    0.000 
#
# Total GULP energy -89542.342838 kJ/mol
# GULP energy per Si atom -5596.396427 kJ/mol
# Density = 2.345262 g / cm^3
# Si number density = 23.506125 Si / 1000 Ang^3
#
#
#
# Elastic Constant Matrix: (Units=GPa)
#
#
# Indices 1 2 3 4 5 6 
#
# 1 95.6604 38.3403 20.7896 -1.7742 -24.2343 -0.6516
# 2 38.3403 119.6742 31.1462 -11.2578 -26.1505 -7.5566
# 3 20.7896 31.1462 83.2567 5.8934 -32.3829 -13.2735
# 4 -1.7742 -11.2578 5.8934 43.9347 -7.6123 -4.4668
# 5 -24.2343 -26.1505 -32.3829 -7.6123 40.8875 3.0402
# 6 -0.6516 -7.5566 -13.2735 -4.4668 3.0402 33.8099
#
#
#
# Elastic Compliance Matrix: (Units=1/GPa)
#
#
# Indices 1 2 3 4 5 6 
#
# 1 0.013173 -0.002843 -0.000006 0.000792 0.006194 -0.000836
# 2 -0.002843 0.011239 -0.001584 0.004014 0.004852 0.001929
# 3 -0.000006 -0.001584 0.018739 -0.000010 0.013392 0.005797
# 4 0.000792 0.004014 -0.000010 0.025490 0.007507 0.003601
# 5 0.006194 0.004852 0.013392 0.007507 0.042969 0.003589
# 6 -0.000836 0.001929 0.005797 0.003601 0.003589 0.032421
#
#
# Mechanical properties :
#
#
# Convention : Reuss Voigt Hill
#
# Bulk Modulus (GPa) = 29.16759 53.23817 41.20288
# Shear Modulus (GPa) = 30.42763 37.61411 34.02087
#
# Velocity S-wave (km/s) = 3.60176 4.00457 3.80849
# Velocity P-wave (km/s) = 5.45273 6.63927 6.07504
#
# Compressibility (1/GPa) = 0.03428463
#
# Stress axis : x y z
#
# Youngs Moduli (GPa) = 75.91433 88.97645 53.36572
#
# Poissons Ratio (x) = 0.25300 0.00031
# Poissons Ratio (y) = 0.21586 0.08451
# Poissons Ratio (z) = 0.00044 0.14091
#
# Static dielectric constant tensor:
#      x y z
#    x 1.796640 -0.118540 -0.051600 
#    y -0.118540 1.857670 -0.041290 
#    z -0.051600 -0.041290 1.872100 
# 
# From -- ./inp_files/560488.got.cif
#   From: 2010.05.17/outbox.cif.g08.bks.cpg/sg2_281_cif.got.tgz:560488.got - 2010.06.03 11:33:40.
