data_PCOD9055148
_publ_section_title
;
Structure prediction by ZEFSAII (Michael W. Deem and Ramdas Pophale) SiO2 
 PCOD9055148
Probable space group: P -1
;
_chemical_formula_sum "Si O2"
_cell_formula_units_Z 16
_cell_length_a 17.197045
_cell_length_b 12.489872
_cell_length_c 7.689664
_cell_angle_alpha 66.969572
_cell_angle_beta 123.447859
_cell_angle_gamma 147.721914
_cell_volume 725.517516
_symmetry_space_group_name_H-M "P -1"
_symmetry_group_IT_number 2
_symmetry_cell_setting 'triclinic'
loop_
_space_group_symop_operation_xyz
x,y,z
-x,-y,-z
loop_
_atom_site_type_symbol
_atom_site_label
_atom_site_fract_x
_atom_site_fract_y
_atom_site_fract_z
Si Si1 0.513565 0.442779 0.795880
Si Si2 0.037591 0.752054 0.261883
Si Si3 0.538051 0.909845 0.669310
Si Si4 0.396307 0.210924 0.459616
Si Si5 0.190459 0.224123 0.557393
Si Si6 0.860162 0.342058 0.791413
Si Si7 0.221534 0.505490 0.591514
Si Si8 0.144165 0.231323 0.097620
O O1 0.464633 0.298481 0.680723
O O2 0.551446 0.614950 0.675748
O O3 0.335421 0.285616 0.767257
O O4 0.705467 0.606538 0.957874
O O5 0.921015 0.630692 0.359712
O O6 0.079779 0.668381 0.295951
O O7 0.939907 0.728820 0.014590
O O8 0.203577 0.989648 0.362038
O O9 0.538015 0.826000 0.554865
O O10 0.403366 0.719069 0.751201
O O11 0.500000 0.000000 0.500000
O O12 0.718239 0.112114 0.836515
O O13 0.217970 0.378751 0.573718
O O14 0.206228 0.250353 0.349550
O O15 0.000000 0.000000 0.500000
O O16 0.803770 0.412768 0.623641
O O17 0.000000 0.500000 0.000000
O O18 0.000000 0.000000 0.000000
#
# Coordination Sequence:
#
# PCOD9055148 Si02
#       8
#     2   2   2   2   2   2   2   2
#     4  11  19  36  59  83 122 161 205 242 301 359
#     4  11  23  38  62  88 122 158 203 249 305 362
#     4   9  19  35  61  84 116 159 200 247 303 360
#     4  10  17  36  56  83 116 163 200 241 299 364
#     4  12  23  38  62  91 122 160 206 255 302 362
#     4  10  22  41  64  89 117 158 200 250 307 360
#     4  11  21  40  60  90 119 155 203 251 303 358
#     4  12  21  37  57  85 120 164 201 245 303 359
#
# _framework density 22.053225000000001
#
# number of rings (size 3 to 8) (size 9 to 14) (size 15 to 20)
#    0.000    1.250    5.000    2.625    0.000    1.000 
#    0.000    8.125    0.000    0.000    0.000    0.000 
#    0.000    0.000    0.000    0.000    0.000    0.000 
#
# Total GULP energy -89180.803255 kJ/mol
# GULP energy per Si atom -5573.800203 kJ/mol
# Density = 2.200303 g / cm^3
# Si number density = 22.053225 Si / 1000 Ang^3
#
#
#
# Elastic Constant Matrix: (Units=GPa)
#
#
# Indices 1 2 3 4 5 6 
#
# 1 74.4036 69.4909 13.2916 23.8457 11.1546 7.9874
# 2 69.4909 147.9648 30.5678 39.0008 -0.6783 18.6476
# 3 13.2916 30.5678 37.9426 20.6690 1.0832 -0.1491
# 4 23.8457 39.0008 20.6690 34.8823 2.4177 3.2735
# 5 11.1546 -0.6783 1.0832 2.4177 26.7686 6.3876
# 6 7.9874 18.6476 -0.1491 3.2735 6.3876 54.9822
#
#
#
# Elastic Compliance Matrix: (Units=1/GPa)
#
#
# Indices 1 2 3 4 5 6 
#
# 1 0.028410 -0.012675 0.004605 -0.007326 -0.012170 0.002034
# 2 -0.012675 0.015990 -0.005286 -0.006213 0.007438 -0.004090
# 3 0.004605 -0.005286 0.040796 -0.021505 -0.002429 0.002797
# 4 -0.007326 -0.006213 -0.021505 0.053434 -0.001074 0.000057
# 5 -0.012170 0.007438 -0.002429 -0.001074 0.044204 -0.005833
# 6 0.002034 -0.004090 0.002797 0.000057 -0.005833 0.019961
#
#
# Mechanical properties :
#
#
# Convention : Reuss Voigt Hill
#
# Bulk Modulus (GPa) = 17.09857 54.11238 35.60548
# Shear Modulus (GPa) = 20.08015 33.12401 26.60208
#
# Velocity S-wave (km/s) = 3.02077 3.87977 3.47690
# Velocity P-wave (km/s) = 4.46508 6.68286 5.68320
#
# Compressibility (1/GPa) = 0.05848442
#
# Stress axis : x y z
#
# Youngs Moduli (GPa) = 35.19944 62.53728 24.51213
#
# Poissons Ratio (x) = 0.79266 -0.11289
# Poissons Ratio (y) = 0.44615 0.12957
# Poissons Ratio (z) = -0.16210 0.33058
#
# Static dielectric constant tensor:
#      x y z
#    x 1.926010 0.109840 0.087120 
#    y 0.109840 1.838300 0.034330 
#    z 0.087120 0.034330 1.894730 
# 
# From -- ./inp_files/328546.got.cif
#   From: 2010.05.17/outbox.cif.g08.bks.cpg/sg2_165_cif.got.tgz:328546.got - 2010.06.03 11:33:40.
