data_PCOD9055287
_publ_section_title
;
Structure prediction by ZEFSAII (Michael W. Deem and Ramdas Pophale) SiO2 
 PCOD9055287
Probable space group: P -1
;
_chemical_formula_sum "Si O2"
_cell_formula_units_Z 12
_cell_length_a 12.534419
_cell_length_b 9.528064
_cell_length_c 15.542021
_cell_angle_alpha 36.932289
_cell_angle_beta 148.114779
_cell_angle_gamma 129.949636
_cell_volume 585.197017
_symmetry_space_group_name_H-M "P -1"
_symmetry_group_IT_number 2
_symmetry_cell_setting 'triclinic'
loop_
_space_group_symop_operation_xyz
x,y,z
-x,-y,-z
loop_
_atom_site_type_symbol
_atom_site_label
_atom_site_fract_x
_atom_site_fract_y
_atom_site_fract_z
Si Si1 0.324467 0.045449 0.789875
Si Si2 0.674883 0.790840 0.700185
Si Si3 0.086855 0.080850 0.355430
Si Si4 0.397327 0.526874 0.510267
Si Si5 0.314679 0.684868 0.808186
Si Si6 0.025055 0.454003 0.834119
O O1 0.345437 0.281823 0.635898
O O2 0.348121 0.829400 0.846106
O O3 0.115219 0.035456 0.702817
O O4 0.500000 0.000000 0.000000
O O5 0.858737 0.864681 0.731012
O O6 0.552489 0.626048 0.635230
O O7 0.500000 0.000000 0.500000
O O8 0.790523 0.679319 0.918432
O O9 0.061482 0.322108 0.274986
O O10 0.265533 0.888320 0.604849
O O11 0.500000 0.500000 0.500000
O O12 0.173235 0.668421 0.269300
O O13 0.124090 0.548398 0.769787
O O14 0.500000 0.500000 0.000000
#
# Coordination Sequence:
#
# PCOD9055287 Si02
#       6
#     2   2   2   2   2   2
#     4  11  23  41  66  97 123 171 222 258 310 393
#     4  12  27  44  64 100 135 166 213 279 331 370
#     4  11  21  44  66  92 129 170 216 258 321 390
#     4  12  23  42  70  96 126 173 226 258 313 399
#     4  11  21  41  66  94 132 164 206 274 327 365
#     4  11  22  42  70  93 128 176 218 259 320 393
#
# _framework density 20.505914000000001
#
# number of rings (size 3 to 8) (size 9 to 14) (size 15 to 20)
#    0.000    0.667    5.000    4.500    2.333    0.667 
#    3.000    1.667    0.000    0.000    0.000    0.000 
#    0.000    0.000    0.000    0.000    0.000    0.000 
#
# Total GULP energy -66980.518686 kJ/mol
# GULP energy per Si atom -5581.709891 kJ/mol
# Density = 2.045924 g / cm^3
# Si number density = 20.505914 Si / 1000 Ang^3
#
#
#
# Elastic Constant Matrix: (Units=GPa)
#
#
# Indices 1 2 3 4 5 6 
#
# 1 82.5855 25.0309 1.9930 -7.1279 11.3368 24.3547
# 2 25.0309 59.6278 28.4768 15.8297 7.5205 16.4545
# 3 1.9930 28.4768 129.0964 4.1966 1.7968 2.3692
# 4 -7.1279 15.8297 4.1966 37.6990 -7.4826 2.2600
# 5 11.3368 7.5205 1.7968 -7.4826 38.5981 -2.3421
# 6 24.3547 16.4545 2.3692 2.2600 -2.3421 19.8601
#
#
#
# Elastic Compliance Matrix: (Units=1/GPa)
#
#
# Indices 1 2 3 4 5 6 
#
# 1 0.022061 -0.003180 0.000739 0.005715 -0.006359 -0.025907
# 2 -0.003180 0.031460 -0.005939 -0.013648 -0.008836 -0.020946
# 3 0.000739 -0.005939 0.008923 0.001671 0.001023 0.002881
# 4 0.005715 -0.013648 0.001671 0.034611 0.007677 0.001067
# 5 -0.006359 -0.008836 0.001023 0.007677 0.032024 0.017899
# 6 -0.025907 -0.020946 0.002881 0.001067 0.017899 0.101123
#
#
# Mechanical properties :
#
#
# Convention : Reuss Voigt Hill
#
# Bulk Modulus (GPa) = 21.88962 42.47900 32.18431
# Shear Modulus (GPa) = 19.07010 33.61868 26.34439
#
# Velocity S-wave (km/s) = 3.05287 4.05342 3.58819
# Velocity P-wave (km/s) = 4.80881 6.53203 5.73551
#
# Compressibility (1/GPa) = 0.04568375
#
# Stress axis : x y z
#
# Youngs Moduli (GPa) = 45.32916 31.78650 112.06396
#
# Poissons Ratio (x) = 0.10107 -0.08282
# Poissons Ratio (y) = 0.14414 0.66560
# Poissons Ratio (z) = -0.03350 0.18879
#
# Static dielectric constant tensor:
#      x y z
#    x 1.691350 0.043520 -0.005040 
#    y 0.043520 1.749340 0.021880 
#    z -0.005040 0.021880 1.776590 
# 
# From -- ./inp_files/148329.got.cif
#   From: 2010.05.17/outbox.cif.g08.bks.cpg/sg2_75_cif.got.tgz:148329.got - 2010.06.03 11:33:40.
