data_PCOD9055433
_publ_section_title
;
Structure prediction by ZEFSAII (Michael W. Deem and Ramdas Pophale) SiO2 
 PCOD9055433
Probable space group: P -1
;
_chemical_formula_sum "Si O2"
_cell_formula_units_Z 16
_cell_length_a 14.817999
_cell_length_b 8.413490
_cell_length_c 14.552701
_cell_angle_alpha 136.623039
_cell_angle_beta 141.315980
_cell_angle_gamma 40.202050
_cell_volume 692.528139
_symmetry_space_group_name_H-M "P -1"
_symmetry_group_IT_number 2
_symmetry_cell_setting 'triclinic'
loop_
_space_group_symop_operation_xyz
x,y,z
-x,-y,-z
loop_
_atom_site_type_symbol
_atom_site_label
_atom_site_fract_x
_atom_site_fract_y
_atom_site_fract_z
Si Si1 0.651218 0.227936 0.308076
Si Si2 0.368467 0.976752 0.317729
Si Si3 0.304536 0.060738 0.966388
Si Si4 0.027237 0.913700 0.280526
Si Si5 0.460058 0.275248 0.838758
Si Si6 0.120687 0.543846 0.374367
Si Si7 0.289025 0.590530 0.201514
Si Si8 0.138926 0.272336 0.611054
O O1 0.762102 0.370792 0.439770
O O2 0.483324 0.432421 0.306101
O O3 0.631209 0.109807 0.146342
O O4 0.752273 0.992123 0.356863
O O5 0.464058 0.821629 0.240289
O O6 0.279091 0.822713 0.227199
O O7 0.500000 0.000000 0.500000
O O8 0.233743 0.264235 0.305231
O O9 0.151267 0.029127 0.870055
O O10 0.251104 0.365400 0.034595
O O11 0.446339 0.954510 0.109732
O O12 0.041376 0.762234 0.324650
O O13 0.171628 0.718730 0.248056
O O14 0.053100 0.168586 0.424862
O O15 0.269930 0.358706 0.717819
O O16 0.500000 0.500000 0.000000
O O17 0.989916 0.540563 0.339570
#
# Coordination Sequence:
#
# PCOD9055433 Si02
#       8
#     2   2   2   2   2   2   2   2
#     4  11  21  41  73 104 135 183 238 296 353 423
#     4  12  27  48  69 106 149 197 237 294 360 430
#     4  12  24  47  70 106 147 185 238 300 365 429
#     4  11  24  45  73 109 137 188 247 295 356 433
#     4  12  29  46  73 110 149 188 241 299 366 426
#     4  11  23  44  75 104 144 179 251 297 347 423
#     4  12  25  41  72 101 142 188 235 295 363 421
#     4  11  23  45  73 106 137 191 240 297 354 426
#
# _framework density 23.103755
#
# number of rings (size 3 to 8) (size 9 to 14) (size 15 to 20)
#    0.000    0.500    5.000    3.750    1.750    2.000 
#    0.000    3.750    0.000    0.000    0.000    0.000 
#    0.000    0.000    0.000    0.000    0.000    0.000 
#
# Total GULP energy -89576.364637 kJ/mol
# GULP energy per Si atom -5598.522790 kJ/mol
# Density = 2.305117 g / cm^3
# Si number density = 23.103755 Si / 1000 Ang^3
#
#
#
# Elastic Constant Matrix: (Units=GPa)
#
#
# Indices 1 2 3 4 5 6 
#
# 1 113.4902 17.8190 55.9121 10.5361 19.4546 -36.2336
# 2 17.8190 51.8162 19.7777 4.4449 6.3242 -13.1902
# 3 55.9121 19.7777 117.7422 16.3107 15.0516 -9.3429
# 4 10.5361 4.4449 16.3107 39.0899 0.7458 4.5777
# 5 19.4546 6.3242 15.0516 0.7458 37.6179 -0.9282
# 6 -36.2336 -13.1902 -9.3429 4.5777 -0.9282 50.3905
#
#
#
# Elastic Compliance Matrix: (Units=1/GPa)
#
#
# Indices 1 2 3 4 5 6 
#
# 1 0.016441 0.000362 -0.005789 -0.003236 -0.005911 0.011029
# 2 0.000362 0.022196 -0.002832 -0.002056 -0.002605 0.005684
# 3 -0.005789 -0.002832 0.012096 -0.002854 -0.001373 -0.002427
# 4 -0.003236 -0.002056 -0.002854 0.028528 0.002449 -0.005941
# 5 -0.005911 -0.002605 -0.001373 0.002449 0.030459 -0.004848
# 6 0.011029 0.005684 -0.002427 -0.005941 -0.004848 0.029264
#
#
# Mechanical properties :
#
#
# Convention : Reuss Voigt Hill
#
# Bulk Modulus (GPa) = 29.22532 52.22958 40.72745
# Shear Modulus (GPa) = 29.95657 38.05564 34.00610
#
# Velocity S-wave (km/s) = 3.60475 4.06293 3.84068
# Velocity P-wave (km/s) = 5.47747 6.68322 6.11016
#
# Compressibility (1/GPa) = 0.03421691
#
# Stress axis : x y z
#
# Youngs Moduli (GPa) = 60.82180 45.05215 82.66988
#
# Poissons Ratio (x) = -0.01632 0.47860
# Poissons Ratio (y) = -0.02203 0.23408
# Poissons Ratio (z) = 0.35212 0.12757
#
# Static dielectric constant tensor:
#      x y z
#    x 1.845350 0.040880 0.036580 
#    y 0.040880 1.925210 -0.006050 
#    z 0.036580 -0.006050 1.866020 
# 
# From -- ./inp_files/530258.got.cif
#   From: 2010.05.17/outbox.cif.g08.bks.cpg/sg2_266_cif.got.tgz:530258.got - 2010.06.03 11:33:40.
