data_PCOD9055323
_publ_section_title
;
Structure prediction by ZEFSAII (Michael W. Deem and Ramdas Pophale) SiO2 
 PCOD9055323
Probable space group: P -1
;
_chemical_formula_sum "Si O2"
_cell_formula_units_Z 14
_cell_length_a 12.783712
_cell_length_b 7.296537
_cell_length_c 14.092840
_cell_angle_alpha 116.540030
_cell_angle_beta 150.956958
_cell_angle_gamma 55.384504
_cell_volume 521.099216
_symmetry_space_group_name_H-M "P -1"
_symmetry_group_IT_number 2
_symmetry_cell_setting 'triclinic'
loop_
_space_group_symop_operation_xyz
x,y,z
-x,-y,-z
loop_
_atom_site_type_symbol
_atom_site_label
_atom_site_fract_x
_atom_site_fract_y
_atom_site_fract_z
Si Si1 0.908592 0.163810 0.707663
Si Si2 0.933523 0.462385 0.527392
Si Si3 0.195189 0.405439 0.926994
Si Si4 0.043080 0.195282 0.026598
Si Si5 0.503644 0.876974 0.241151
Si Si6 0.688870 0.186930 0.356539
Si Si7 0.224981 0.659513 0.842970
O O1 0.699142 0.275566 0.492176
O O2 0.130159 0.199101 0.847088
O O3 0.991633 0.900582 0.701779
O O4 0.893116 0.244870 0.821521
O O5 0.689987 0.681761 0.407768
O O6 0.898329 0.239135 0.484713
O O7 0.875455 0.445342 0.358606
O O8 0.117362 0.487418 0.775836
O O9 0.043923 0.594652 0.924179
O O10 0.467184 0.325744 0.146764
O O11 0.321047 0.100655 0.200560
O O12 0.000000 0.000000 0.000000
O O13 0.642637 0.960403 0.290645
O O14 0.321535 0.780147 0.034218
O O15 0.500000 0.500000 0.000000
#
# Coordination Sequence:
#
# PCOD9055323 Si02
#       7
#     2   2   2   2   2   2   2
#     4  11  23  39  67  99 140 184 221 276 327 390
#     4  12  27  47  72 100 131 173 230 289 347 408
#     4  12  22  42  68 100 144 180 225 268 327 407
#     4  11  21  41  67  99 143 187 220 267 326 400
#     4  11  24  44  68  97 141 175 218 283 334 390
#     4  12  24  43  69 101 133 179 225 277 337 394
#     4  11  22  45  70  96 140 178 218 283 343 392
#
# _framework density 26.866284
#
# number of rings (size 3 to 8) (size 9 to 14) (size 15 to 20)
#    0.000    0.571   10.000    0.429    0.000    1.714 
#    0.000    2.143    0.000    0.000    0.000    0.000 
#    0.000    0.000    0.000    0.000    0.000    0.000 
#
# Total GULP energy -78064.222051 kJ/mol
# GULP energy per Si atom -5576.015861 kJ/mol
# Density = 2.680513 g / cm^3
# Si number density = 26.866284 Si / 1000 Ang^3
#
#
#
# Elastic Constant Matrix: (Units=GPa)
#
#
# Indices 1 2 3 4 5 6 
#
# 1 146.8399 30.4082 49.4028 19.7928 -20.0755 35.3260
# 2 30.4082 75.5833 -0.8832 5.8645 3.1690 33.5660
# 3 49.4028 -0.8832 198.4893 14.9585 -13.7804 19.0681
# 4 19.7928 5.8645 14.9585 36.3128 15.0712 4.1145
# 5 -20.0755 3.1690 -13.7804 15.0712 74.1850 11.0328
# 6 35.3260 33.5660 19.0681 4.1145 11.0328 65.0107
#
#
#
# Elastic Compliance Matrix: (Units=1/GPa)
#
#
# Indices 1 2 3 4 5 6 
#
# 1 0.010159 -0.001784 -0.001328 -0.006045 0.004489 -0.004589
# 2 -0.001784 0.017979 0.001559 -0.001880 0.000726 -0.008775
# 3 -0.001328 0.001559 0.005827 -0.002297 0.001403 -0.001885
# 4 -0.006045 -0.001880 -0.002297 0.035691 -0.009880 0.004347
# 5 0.004489 0.000726 0.001403 -0.009880 0.017767 -0.005616
# 6 -0.004589 -0.008775 -0.001885 0.004347 -0.005616 0.023637
#
#
# Mechanical properties :
#
#
# Convention : Reuss Voigt Hill
#
# Bulk Modulus (GPa) = 32.40606 64.30756 48.35681
# Shear Modulus (GPa) = 40.17598 57.90068 49.03833
#
# Velocity S-wave (km/s) = 3.87124 4.64739 4.27696
# Velocity P-wave (km/s) = 5.66305 7.26538 6.51368
#
# Compressibility (1/GPa) = 0.03085842
#
# Stress axis : x y z
#
# Youngs Moduli (GPa) = 98.43440 55.62160 171.60742
#
# Poissons Ratio (x) = 0.09923 0.22796
# Poissons Ratio (y) = 0.17560 -0.26755
# Poissons Ratio (z) = 0.13076 -0.08672
#
# Static dielectric constant tensor:
#      x y z
#    x 2.112120 0.021040 -0.029510 
#    y 0.021040 2.209230 0.111140 
#    z -0.029510 0.111140 2.177160 
# 
# From -- ./inp_files/526806.got.cif
#   From: 2010.05.17/outbox.cif.g08.bks.cpg/sg2_264_cif.got.tgz:526806.got - 2010.06.03 11:33:40.
