data_PCOD9055786
_publ_section_title
;
Structure prediction by ZEFSAII (Michael W. Deem and Ramdas Pophale) SiO2 
 PCOD9055786
Probable space group: P -1
;
_chemical_formula_sum "Si O2"
_cell_formula_units_Z 12
_cell_length_a 12.015326
_cell_length_b 8.961002
_cell_length_c 8.744605
_cell_angle_alpha 59.007552
_cell_angle_beta 44.846861
_cell_angle_gamma 60.973500
_cell_volume 557.832935
_symmetry_space_group_name_H-M "P -1"
_symmetry_group_IT_number 2
_symmetry_cell_setting 'triclinic'
loop_
_space_group_symop_operation_xyz
x,y,z
-x,-y,-z
loop_
_atom_site_type_symbol
_atom_site_label
_atom_site_fract_x
_atom_site_fract_y
_atom_site_fract_z
Si Si1 0.855505 0.838968 0.058719
Si Si2 0.864500 0.008588 0.430071
Si Si3 0.340449 0.147294 0.050636
Si Si4 0.391234 0.519604 0.944349
Si Si5 0.631356 0.117365 0.338928
Si Si6 0.017335 0.656264 0.286308
O O1 0.920006 0.688838 0.203130
O O2 0.776632 0.017960 0.136634
O O3 0.719627 0.810867 0.086005
O O4 0.010007 0.863607 0.793344
O O5 0.800605 0.939315 0.686032
O O6 0.950766 0.831564 0.353729
O O7 0.705012 0.091673 0.448376
O O8 0.377806 0.327831 0.992867
O O9 0.500000 0.000000 0.000000
O O10 0.448615 0.676035 0.712118
O O11 0.500000 0.500000 0.000000
O O12 0.206366 0.616784 0.093986
O O13 0.500000 0.000000 0.500000
O O14 0.000000 0.500000 0.500000
#
# Coordination Sequence:
#
# PCOD9055786 Si02
#       6
#     2   2   2   2   2   2
#     4  11  23  44  69 100 139 174 227 290 341 397
#     4  11  21  43  71  96 132 183 228 279 335 407
#     4  12  27  45  65 105 144 180 222 285 351 401
#     4  12  24  43  69  96 138 178 233 276 338 408
#     4  11  22  42  71  98 132 181 232 278 335 408
#     4  11  22  43  72 102 126 176 241 277 330 411
#
# _framework density 21.511816
#
# number of rings (size 3 to 8) (size 9 to 14) (size 15 to 20)
#    0.000    0.667    5.000    4.500    2.333    0.667 
#    0.000    3.333    0.000    0.000    0.000    0.000 
#    0.000    0.000    0.000    0.000    0.000    0.000 
#
# Total GULP energy -66895.881374 kJ/mol
# GULP energy per Si atom -5574.656781 kJ/mol
# Density = 2.146285 g / cm^3
# Si number density = 21.511816 Si / 1000 Ang^3
#
#
#
# Elastic Constant Matrix: (Units=GPa)
#
#
# Indices 1 2 3 4 5 6 
#
# 1 167.6975 43.0975 30.7769 -11.7745 26.5391 -41.1534
# 2 43.0975 104.8851 22.8022 -22.2645 10.8983 -36.0953
# 3 30.7769 22.8022 89.0188 -14.1877 3.7492 -8.6628
# 4 -11.7745 -22.2645 -14.1877 38.5550 -6.5763 0.5515
# 5 26.5391 10.8983 3.7492 -6.5763 33.3788 -0.4227
# 6 -41.1534 -36.0953 -8.6628 0.5515 -0.4227 26.8188
#
#
#
# Elastic Compliance Matrix: (Units=1/GPa)
#
#
# Indices 1 2 3 4 5 6 
#
# 1 0.014637 0.008152 -0.002583 0.005635 -0.012490 0.032285
# 2 0.008152 0.027907 -0.002322 0.015048 -0.011749 0.048824
# 3 -0.002583 -0.002322 0.012822 0.002958 0.001917 -0.002978
# 4 0.005635 0.015048 0.002958 0.036656 -0.002136 0.029068
# 5 -0.012490 -0.011749 0.001917 -0.002136 0.042664 -0.033644
# 6 0.032285 0.048824 -0.002978 0.029068 -0.033644 0.150451
#
#
# Mechanical properties :
#
#
# Convention : Reuss Voigt Hill
#
# Bulk Modulus (GPa) = 16.16555 61.66161 38.91358
# Shear Modulus (GPa) = 16.70763 37.41217 27.05990
#
# Velocity S-wave (km/s) = 2.78991 4.17483 3.55055
# Velocity P-wave (km/s) = 4.23192 7.20869 5.91077
#
# Compressibility (1/GPa) = 0.06185996
#
# Stress axis : x y z
#
# Youngs Moduli (GPa) = 68.31813 35.83331 77.98872
#
# Poissons Ratio (x) = -0.29210 0.20143
# Poissons Ratio (y) = -0.55690 0.18111
# Poissons Ratio (z) = 0.17645 0.08321
#
# Static dielectric constant tensor:
#      x y z
#    x 1.733730 -0.006860 0.047270 
#    y -0.006860 1.807900 -0.105360 
#    z 0.047270 -0.105360 1.991920 
# 
# From -- ./inp_files/144584.got.cif
#   From: 2010.05.17/outbox.cif.g08.bks.cpg/sg2_73_cif.got.tgz:144584.got - 2010.06.03 11:33:40.
