data_PCOD9055962
_publ_section_title
;
Structure prediction by ZEFSAII (Michael W. Deem and Ramdas Pophale) SiO2 
 PCOD9055962
Probable space group: P -1
;
_chemical_formula_sum "Si O2"
_cell_formula_units_Z 16
_cell_length_a 12.120126
_cell_length_b 10.743902
_cell_length_c 11.494759
_cell_angle_alpha 83.179372
_cell_angle_beta 66.741038
_cell_angle_gamma 138.383500
_cell_volume 670.938347
_symmetry_space_group_name_H-M "P -1"
_symmetry_group_IT_number 2
_symmetry_cell_setting 'triclinic'
loop_
_space_group_symop_operation_xyz
x,y,z
-x,-y,-z
loop_
_atom_site_type_symbol
_atom_site_label
_atom_site_fract_x
_atom_site_fract_y
_atom_site_fract_z
Si Si1 0.768048 0.797439 0.870179
Si Si2 0.961976 0.162841 0.923458
Si Si3 0.118152 0.480435 0.004195
Si Si4 0.357284 0.079726 0.199943
Si Si5 0.106401 0.870562 0.668129
Si Si6 0.897665 0.607646 0.538450
Si Si7 0.406755 0.558349 0.517153
Si Si8 0.509091 0.131347 0.903849
O O1 0.778368 0.909677 0.748726
O O2 0.957482 0.860414 0.760903
O O3 0.500000 0.500000 0.000000
O O4 0.834616 0.920573 0.955125
O O5 0.180954 0.375969 0.717856
O O6 0.073427 0.301535 0.984594
O O7 0.753852 0.080738 0.017057
O O8 0.997933 0.345261 0.195415
O O9 0.414096 0.759310 0.839198
O O10 0.000000 0.500000 0.000000
O O11 0.499399 0.224539 0.000974
O O12 0.120487 0.775252 0.340411
O O13 0.056262 0.804480 0.559373
O O14 0.379312 0.151515 0.566562
O O15 0.702518 0.514246 0.557854
O O16 0.721293 0.345799 0.700835
O O17 0.500000 0.500000 0.500000
O O18 0.500000 0.000000 0.000000
#
# Coordination Sequence:
#
# PCOD9055962 Si02
#       8
#     2   2   2   2   2   2   2   2
#     4  11  21  44  73 105 147 193 253 312 389 464
#     4  11  24  46  69 105 152 194 249 319 382 457
#     4  12  26  48  72 106 158 202 260 326 377 456
#     4  11  23  46  69 106 146 193 256 306 390 459
#     4  12  25  45  73 111 151 199 254 311 393 454
#     4  12  25  47  76 107 152 200 252 317 383 459
#     4  12  25  48  72 118 159 193 257 317 393 479
#     4  11  23  46  72 101 146 195 256 316 368 446
#
# _framework density 23.847199
#
# number of rings (size 3 to 8) (size 9 to 14) (size 15 to 20)
#    0.000    0.500    6.250    3.000    0.000    4.000 
#    6.750    1.250    0.000    0.000    0.000    0.000 
#    0.000    0.000    0.000    0.000    0.000    0.000 
#
# Total GULP energy -89087.162097 kJ/mol
# GULP energy per Si atom -5567.947631 kJ/mol
# Density = 2.379292 g / cm^3
# Si number density = 23.847199 Si / 1000 Ang^3
#
#
#
# Elastic Constant Matrix: (Units=GPa)
#
#
# Indices 1 2 3 4 5 6 
#
# 1 142.6901 21.4858 47.5933 -15.9486 8.8928 6.4331
# 2 21.4858 101.0690 24.1274 -17.4047 -6.4350 17.4778
# 3 47.5933 24.1274 119.0188 -42.9379 12.6588 9.0237
# 4 -15.9486 -17.4047 -42.9379 48.7888 11.2563 -4.7605
# 5 8.8928 -6.4350 12.6588 11.2563 32.1450 -0.8091
# 6 6.4331 17.4778 9.0237 -4.7605 -0.8091 28.6089
#
#
#
# Elastic Compliance Matrix: (Units=1/GPa)
#
#
# Indices 1 2 3 4 5 6 
#
# 1 0.008241 -0.001089 -0.002881 0.000061 -0.001392 -0.000308
# 2 -0.001089 0.011942 -0.001124 0.001751 0.002362 -0.006338
# 3 -0.002881 -0.001124 0.017012 0.016198 -0.011841 -0.001671
# 4 0.000061 0.001751 0.016198 0.040015 -0.020059 -0.000102
# 5 -0.001392 0.002362 -0.011841 -0.020059 0.043667 0.000502
# 6 -0.000308 -0.006338 -0.001671 -0.000102 0.000502 0.039420
#
#
# Mechanical properties :
#
#
# Convention : Reuss Voigt Hill
#
# Bulk Modulus (GPa) = 37.02896 61.02122 49.02509
# Shear Modulus (GPa) = 27.85727 39.87997 33.86862
#
# Velocity S-wave (km/s) = 3.42154 4.09383 3.77269
# Velocity P-wave (km/s) = 5.58306 6.92747 6.29128
#
# Compressibility (1/GPa) = 0.02700589
#
# Stress axis : x y z
#
# Youngs Moduli (GPa) = 121.35038 83.73730 58.78292
#
# Poissons Ratio (x) = 0.09118 0.16936
# Poissons Ratio (y) = 0.13214 0.06609
# Poissons Ratio (z) = 0.34963 0.09414
#
# Static dielectric constant tensor:
#      x y z
#    x 2.158220 -0.062010 0.065910 
#    y -0.062010 2.183360 0.011770 
#    z 0.065910 0.011770 2.076300 
# 
# From -- ./inp_files/428153.got.cif
#   From: 2010.05.17/outbox.cif.g08.bks.cpg/sg2_215_cif.got.tgz:428153.got - 2010.06.03 11:33:40.
