data_PCOD9055414
_publ_section_title
;
Structure prediction by ZEFSAII (Michael W. Deem and Ramdas Pophale) SiO2 
 PCOD9055414
Probable space group: P -1
;
_chemical_formula_sum "Si O2"
_cell_formula_units_Z 16
_cell_length_a 9.376372
_cell_length_b 14.142207
_cell_length_c 11.962560
_cell_angle_alpha 52.327103
_cell_angle_beta 77.362558
_cell_angle_gamma 38.543673
_cell_volume 665.571521
_symmetry_space_group_name_H-M "P -1"
_symmetry_group_IT_number 2
_symmetry_cell_setting 'triclinic'
loop_
_space_group_symop_operation_xyz
x,y,z
-x,-y,-z
loop_
_atom_site_type_symbol
_atom_site_label
_atom_site_fract_x
_atom_site_fract_y
_atom_site_fract_z
Si Si1 0.468627 0.538752 0.347200
Si Si2 0.308396 0.413069 0.326438
Si Si3 0.488348 0.836417 0.941931
Si Si4 0.031150 0.970172 0.864084
Si Si5 0.865927 0.373229 0.228816
Si Si6 0.189723 0.840325 0.688545
Si Si7 0.807746 0.875154 0.996964
Si Si8 0.436893 0.980547 0.314965
O O1 0.500000 0.500000 0.500000
O O2 0.385949 0.471204 0.352343
O O3 0.727039 0.424052 0.330091
O O4 0.218832 0.800074 0.196997
O O5 0.532230 0.278957 0.287805
O O6 0.361381 0.256765 0.500943
O O7 0.005174 0.631820 0.174152
O O8 0.290550 0.864122 0.930380
O O9 0.451785 0.963288 0.763598
O O10 0.405974 0.949348 0.994811
O O11 0.770984 0.573743 0.079523
O O12 0.022526 0.988592 0.718714
O O13 0.019175 0.839284 0.984732
O O14 0.762424 0.336327 0.191635
O O15 0.184399 0.151792 0.318609
O O16 0.000000 0.000000 0.500000
O O17 0.678607 0.964779 0.830791
#
# Coordination Sequence:
#
# PCOD9055414 Si02
#       8
#     2   2   2   2   2   2   2   2
#     4  11  22  39  72 109 140 179 237 304 350 408
#     4  11  25  43  70 104 141 181 242 290 350 431
#     4  12  27  45  69 106 142 186 242 293 355 431
#     4  12  22  43  73 105 139 180 243 304 346 412
#     4  11  23  43  71 101 140 188 235 286 355 423
#     4  11  21  41  71 107 141 182 237 296 357 418
#     4  12  24  49  74 103 137 192 242 293 356 419
#     4  12  27  50  70 102 150 193 230 288 367 431
#
# _framework density 24.039489
#
# number of rings (size 3 to 8) (size 9 to 14) (size 15 to 20)
#    0.000    0.500    5.000    4.875    1.750    1.500 
#    0.000    1.875    0.000    0.000    0.000    0.000 
#    0.000    0.000    0.000    0.000    0.000    0.000 
#
# Total GULP energy -89524.928689 kJ/mol
# GULP energy per Si atom -5595.308043 kJ/mol
# Density = 2.398477 g / cm^3
# Si number density = 24.039489 Si / 1000 Ang^3
#
#
#
# Elastic Constant Matrix: (Units=GPa)
#
#
# Indices 1 2 3 4 5 6 
#
# 1 53.2779 9.6546 16.7195 -4.1175 -18.1626 4.0897
# 2 9.6546 117.3447 33.8536 0.6608 -11.9395 -3.8692
# 3 16.7195 33.8536 122.1143 -24.9119 -24.1109 13.7428
# 4 -4.1175 0.6608 -24.9119 46.5519 2.5019 -5.8124
# 5 -18.1626 -11.9395 -24.1109 2.5019 37.7124 -3.4784
# 6 4.0897 -3.8692 13.7428 -5.8124 -3.4784 20.1029
#
#
#
# Elastic Compliance Matrix: (Units=1/GPa)
#
#
# Indices 1 2 3 4 5 6 
#
# 1 0.022771 -0.000807 -0.000418 0.000948 0.010153 -0.002471
# 2 -0.000807 0.009738 -0.003094 -0.001436 0.001175 0.003942
# 3 -0.000418 -0.003094 0.011991 0.005351 0.005559 -0.006199
# 4 0.000948 -0.001436 0.005351 0.024760 0.002093 0.003394
# 5 0.010153 0.001175 0.005559 0.002093 0.035292 0.001073
# 6 -0.002471 0.003942 -0.006199 0.003394 0.001073 0.056410
#
#
# Mechanical properties :
#
#
# Convention : Reuss Voigt Hill
#
# Bulk Modulus (GPa) = 27.88365 45.91024 36.89694
# Shear Modulus (GPa) = 27.53998 36.37407 31.95702
#
# Velocity S-wave (km/s) = 3.38836 3.89407 3.64999
# Velocity P-wave (km/s) = 5.18963 6.27357 5.75717
#
# Compressibility (1/GPa) = 0.03586332
#
# Stress axis : x y z
#
# Youngs Moduli (GPa) = 43.91544 102.68527 83.39793
#
# Poissons Ratio (x) = 0.08283 0.03486
# Poissons Ratio (y) = 0.03543 0.25802
# Poissons Ratio (z) = 0.01835 0.31769
#
# Static dielectric constant tensor:
#      x y z
#    x 1.939520 0.011440 0.022660 
#    y 0.011440 1.929010 -0.030710 
#    z 0.022660 -0.030710 1.986260 
# 
# From -- ./inp_files/392347.got.cif
#   From: 2010.05.17/outbox.cif.g08.bks.cpg/sg2_197_cif.got.tgz:392347.got - 2010.06.03 11:33:40.
