data_PCOD9055419
_publ_section_title
;
Structure prediction by ZEFSAII (Michael W. Deem and Ramdas Pophale) SiO2 
 PCOD9055419
Probable space group: P -1
;
_chemical_formula_sum "Si O2"
_cell_formula_units_Z 16
_cell_length_a 9.728263
_cell_length_b 8.144089
_cell_length_c 12.857107
_cell_angle_alpha 59.594339
_cell_angle_beta 122.137625
_cell_angle_gamma 107.774627
_cell_volume 743.017885
_symmetry_space_group_name_H-M "P -1"
_symmetry_group_IT_number 2
_symmetry_cell_setting 'triclinic'
loop_
_space_group_symop_operation_xyz
x,y,z
-x,-y,-z
loop_
_atom_site_type_symbol
_atom_site_label
_atom_site_fract_x
_atom_site_fract_y
_atom_site_fract_z
Si Si1 0.801733 0.708347 0.810199
Si Si2 0.965961 0.568016 0.721208
Si Si3 0.476824 0.137422 0.043302
Si Si4 0.112260 0.190080 0.960132
Si Si5 0.312679 0.924852 0.450311
Si Si6 0.729947 0.190408 0.304975
Si Si7 0.652860 0.502809 0.481724
Si Si8 0.470131 0.479565 0.786809
O O1 0.905692 0.601233 0.803074
O O2 0.859199 0.706993 0.951084
O O3 0.623278 0.607353 0.768114
O O4 0.788284 0.928479 0.702316
O O5 0.812142 0.584649 0.578165
O O6 0.101495 0.734204 0.699805
O O7 0.032835 0.354512 0.806661
O O8 0.289291 0.136472 0.005622
O O9 0.599807 0.103400 0.198004
O O10 0.520806 0.340893 0.942570
O O11 0.500000 0.000000 0.000000
O O12 0.000000 0.000000 0.000000
O O13 0.254649 0.928629 0.545319
O O14 0.310332 0.712953 0.469857
O O15 0.500000 0.000000 0.500000
O O16 0.652538 0.381984 0.254492
O O17 0.500000 0.500000 0.500000
O O18 0.609214 0.608110 0.322473
#
# Coordination Sequence:
#
# PCOD9055419 Si02
#       8
#     2   2   2   2   2   2   2   2
#     4  12  24  44  71 100 136 184 226 275 345 411
#     4  12  26  44  70 103 136 180 230 281 344 405
#     4  12  27  45  71 101 136 179 229 284 343 406
#     4  12  27  46  68 101 141 176 228 289 339 407
#     4  11  21  41  71  99 134 180 227 275 338 405
#     4  11  24  46  70  97 136 181 225 282 341 402
#     4  11  23  43  69 102 138 180 228 276 339 408
#     4  11  22  45  72  93 134 187 222 272 347 405
#
# _framework density 21.533802999999999
#
# number of rings (size 3 to 8) (size 9 to 14) (size 15 to 20)
#    0.000    0.500    6.250    2.250    3.500    5.500 
#    2.250    0.000    0.000    0.000    0.000    0.000 
#    0.000    0.000    0.000    0.000    0.000    0.000 
#
# Total GULP energy -89460.648415 kJ/mol
# GULP energy per Si atom -5591.290526 kJ/mol
# Density = 2.148479 g / cm^3
# Si number density = 21.533803 Si / 1000 Ang^3
#
#
#
# Elastic Constant Matrix: (Units=GPa)
#
#
# Indices 1 2 3 4 5 6 
#
# 1 60.6507 17.6216 25.8658 27.8237 1.0946 3.4528
# 2 17.6216 49.0790 15.1735 11.9666 3.3423 -5.3861
# 3 25.8658 15.1735 89.3257 15.4528 -3.8603 3.3881
# 4 27.8237 11.9666 15.4528 44.6930 -0.7370 -8.3009
# 5 1.0946 3.3423 -3.8603 -0.7370 29.7701 5.1784
# 6 3.4528 -5.3861 3.3881 -8.3009 5.1784 28.8007
#
#
#
# Elastic Compliance Matrix: (Units=1/GPa)
#
#
# Indices 1 2 3 4 5 6 
#
# 1 0.027602 -0.005779 -0.003934 -0.015858 0.000216 -0.008536
# 2 -0.005779 0.024453 -0.002714 -0.000958 -0.003956 0.006020
# 3 -0.003934 -0.002714 0.013330 -0.001875 0.002585 -0.002609
# 4 -0.015858 -0.000958 -0.001875 0.035423 -0.000815 0.012298
# 5 0.000216 -0.003956 0.002585 -0.000815 0.035685 -0.007721
# 6 -0.008536 0.006020 -0.002609 0.012298 -0.007721 0.042110
#
#
# Mechanical properties :
#
#
# Convention : Reuss Voigt Hill
#
# Bulk Modulus (GPa) = 24.67281 35.15302 29.91292
# Shear Modulus (GPa) = 23.04490 30.01239 26.52864
#
# Velocity S-wave (km/s) = 3.27490 3.73732 3.51373
# Velocity P-wave (km/s) = 5.07765 5.91468 5.51208
#
# Compressibility (1/GPa) = 0.04053044
#
# Stress axis : x y z
#
# Youngs Moduli (GPa) = 36.22976 40.89485 75.01684
#
# Poissons Ratio (x) = 0.23633 0.29515
# Poissons Ratio (y) = 0.20937 0.20359
# Poissons Ratio (z) = 0.14255 0.11098
#
# Static dielectric constant tensor:
#      x y z
#    x 1.679860 0.033770 -0.003740 
#    y 0.033770 1.789110 -0.012580 
#    z -0.003740 -0.012580 1.823500 
# 
# From -- ./inp_files/243411.got.cif
#   From: 2010.05.17/outbox.cif.g08.bks.cpg/sg2_122_cif.got.tgz:243411.got - 2010.06.03 11:33:40.
