data_PCOD9055088
_publ_section_title
;
Structure prediction by ZEFSAII (Michael W. Deem and Ramdas Pophale) SiO2 
 PCOD9055088
Probable space group: P -1
;
_chemical_formula_sum "Si O2"
_cell_formula_units_Z 16
_cell_length_a 24.260489
_cell_length_b 6.629279
_cell_length_c 13.044391
_cell_angle_alpha 132.207101
_cell_angle_beta 152.991878
_cell_angle_gamma 54.276428
_cell_volume 705.015441
_symmetry_space_group_name_H-M "P -1"
_symmetry_group_IT_number 2
_symmetry_cell_setting 'triclinic'
loop_
_space_group_symop_operation_xyz
x,y,z
-x,-y,-z
loop_
_atom_site_type_symbol
_atom_site_label
_atom_site_fract_x
_atom_site_fract_y
_atom_site_fract_z
Si Si1 0.562783 0.975621 0.834879
Si Si2 0.381668 0.172874 0.334367
Si Si3 0.801190 0.294447 0.051765
Si Si4 0.372806 0.460997 0.835445
Si Si5 0.269369 0.177552 0.757319
Si Si6 0.696454 0.267565 0.642171
Si Si7 0.979529 0.945207 0.769609
Si Si8 0.141875 0.218354 0.288248
O O1 0.595440 0.777243 0.730869
O O2 0.420415 0.937560 0.604587
O O3 0.635280 0.929498 0.041874
O O4 0.615384 0.266855 0.983801
O O5 0.349269 0.481574 0.416631
O O6 0.500000 0.000000 0.500000
O O7 0.270323 0.973877 0.114397
O O8 0.779484 0.545792 0.177110
O O9 0.937953 0.212484 0.227075
O O10 0.746980 0.347301 0.866332
O O11 0.342578 0.232096 0.791814
O O12 0.257252 0.429197 0.557526
O O13 0.500000 0.500000 0.000000
O O14 0.148026 0.992119 0.472151
O O15 0.800715 0.081367 0.707898
O O16 0.938737 0.752661 0.733527
O O17 0.061364 0.187224 0.041771
#
# Coordination Sequence:
#
# PCOD9055088 Si02
#       8
#     2   2   2   2   2   2   2   2
#     4  12  23  39  62  99 133 164 214 263 329 387
#     4  12  23  38  63 101 132 168 211 264 330 386
#     4  11  21  40  66  95 127 169 217 268 320 378
#     4  11  23  42  65  96 130 168 210 264 325 384
#     4  11  23  41  64  96 132 170 213 267 320 385
#     4  11  22  39  66  96 132 168 208 267 330 388
#     4   9  21  42  66  88 125 178 218 259 318 377
#     4   9  20  44  67  91 127 172 218 261 318 388
#
# _framework density 22.694538000000001
#
# number of rings (size 3 to 8) (size 9 to 14) (size 15 to 20)
#    0.000    1.250    5.000    1.500    0.000    0.500 
#    0.000    8.125    0.000    0.000    0.000    0.000 
#    0.000    0.000    0.000    0.000    0.000    0.000 
#
# Total GULP energy -89184.631439 kJ/mol
# GULP energy per Si atom -5574.039465 kJ/mol
# Density = 2.264288 g / cm^3
# Si number density = 22.694538 Si / 1000 Ang^3
#
#
#
# Elastic Constant Matrix: (Units=GPa)
#
#
# Indices 1 2 3 4 5 6 
#
# 1 114.4189 1.5494 22.3026 -7.2141 19.4419 -3.1486
# 2 1.5494 56.4265 5.3428 -6.2178 10.8092 -2.0706
# 3 22.3026 5.3428 118.5665 -10.4651 23.8888 1.6406
# 4 -7.2141 -6.2178 -10.4651 33.4996 1.0777 -6.3357
# 5 19.4419 10.8092 23.8888 1.0777 42.7855 -2.8818
# 6 -3.1486 -2.0706 1.6406 -6.3357 -2.8818 16.7532
#
#
#
# Elastic Compliance Matrix: (Units=1/GPa)
#
#
# Indices 1 2 3 4 5 6 
#
# 1 0.009826 0.000977 -0.000861 0.002601 -0.004140 0.002323
# 2 0.000977 0.019349 0.000416 0.004748 -0.005455 0.003392
# 3 -0.000861 0.000416 0.009943 0.003006 -0.005400 -0.000876
# 4 0.002601 0.004748 0.003006 0.034872 -0.004044 0.013274
# 5 -0.004140 -0.005455 -0.005400 -0.004044 0.029930 0.002696
# 6 0.002323 0.003392 -0.000876 0.013274 0.002696 0.066115
#
#
# Mechanical properties :
#
#
# Convention : Reuss Voigt Hill
#
# Bulk Modulus (GPa) = 24.88773 38.64461 31.76617
# Shear Modulus (GPa) = 27.41753 35.95546 31.68650
#
# Velocity S-wave (km/s) = 3.47956 3.98467 3.74065
# Velocity P-wave (km/s) = 5.20897 6.18347 5.71702
#
# Compressibility (1/GPa) = 0.04018044
#
# Stress axis : x y z
#
# Youngs Moduli (GPa) = 101.77344 51.68304 100.57655
#
# Poissons Ratio (x) = -0.05047 0.08657
# Poissons Ratio (y) = -0.09939 -0.04181
# Poissons Ratio (z) = 0.08760 -0.02149
#
# Static dielectric constant tensor:
#      x y z
#    x 1.888070 -0.064690 -0.039010 
#    y -0.064690 1.921670 0.000070 
#    z -0.039010 0.000070 1.865030 
# 
# From -- ./inp_files/367786.got.cif
#   From: 2010.05.17/outbox.cif.g08.bks.cpg/sg2_184_cif.got.tgz:367786.got - 2010.06.03 11:33:40.
