data_PCOD9055343
_publ_section_title
;
Structure prediction by ZEFSAII (Michael W. Deem and Ramdas Pophale) SiO2 
 PCOD9055343
Probable space group: P -1
;
_chemical_formula_sum "Si O2"
_cell_formula_units_Z 12
_cell_length_a 17.144040
_cell_length_b 14.443634
_cell_length_c 11.633984
_cell_angle_alpha 148.864457
_cell_angle_beta 30.680904
_cell_angle_gamma 159.254284
_cell_volume 498.947831
_symmetry_space_group_name_H-M "P -1"
_symmetry_group_IT_number 2
_symmetry_cell_setting 'triclinic'
loop_
_space_group_symop_operation_xyz
x,y,z
-x,-y,-z
loop_
_atom_site_type_symbol
_atom_site_label
_atom_site_fract_x
_atom_site_fract_y
_atom_site_fract_z
Si Si1 0.363902 0.696984 0.871218
Si Si2 0.784631 0.545708 0.451751
Si Si3 0.184668 0.012583 0.312890
Si Si4 0.048742 0.755188 0.734602
Si Si5 0.874375 0.266750 0.137562
Si Si6 0.376787 0.354437 0.879315
O O1 0.263943 0.561342 0.729585
O O2 0.551379 0.723116 0.707607
O O3 0.152519 0.529852 0.048806
O O4 0.500000 0.000000 0.000000
O O5 0.762113 0.363768 0.376414
O O6 0.595905 0.527363 0.700475
O O7 0.057007 0.832520 0.400426
O O8 0.200130 0.899787 0.061316
O O9 0.000000 0.000000 0.500000
O O10 0.000000 0.500000 0.500000
O O11 0.159414 0.857812 0.831331
O O12 0.805536 0.649587 0.923608
O O13 0.226981 0.035108 0.730955
O O14 0.500000 0.500000 0.000000
#
# Coordination Sequence:
#
# PCOD9055343 Si02
#       6
#     2   2   2   2   2   2
#     4  11  21  41  68  96 137 179 218 280 347 410
#     4  11  24  42  67 100 135 178 230 284 341 416
#     4  11  25  39  65 102 138 175 223 280 346 414
#     4  11  28  49  73 103 138 186 239 291 352 414
#     4  11  24  42  67 101 132 180 233 278 345 417
#     4  11  28  49  72 103 140 183 239 295 348 413
#
# _framework density 24.050612000000001
#
# number of rings (size 3 to 8) (size 9 to 14) (size 15 to 20)
#    0.000    1.000    3.333    2.000    9.333    5.333 
#    0.000    0.000    0.000    0.000    0.000    0.000 
#    0.000    0.000    0.000    0.000    0.000    0.000 
#
# Total GULP energy -67047.783808 kJ/mol
# GULP energy per Si atom -5587.315317 kJ/mol
# Density = 2.399587 g / cm^3
# Si number density = 24.050612 Si / 1000 Ang^3
#
#
#
# Elastic Constant Matrix: (Units=GPa)
#
#
# Indices 1 2 3 4 5 6 
#
# 1 104.9059 0.4354 17.1661 -5.9690 -32.9024 1.7571
# 2 0.4354 65.7341 36.3543 2.2486 -15.5468 6.3541
# 3 17.1661 36.3543 96.6835 -1.0987 -26.4030 -2.7477
# 4 -5.9690 2.2486 -1.0987 42.5072 1.1636 -12.2644
# 5 -32.9024 -15.5468 -26.4030 1.1636 43.9367 -13.6095
# 6 1.7571 6.3541 -2.7477 -12.2644 -13.6095 33.3993
#
#
#
# Elastic Compliance Matrix: (Units=1/GPa)
#
#
# Indices 1 2 3 4 5 6 
#
# 1 0.013488 0.002038 0.000467 0.002943 0.012625 0.005166
# 2 0.002038 0.020488 -0.007358 -0.002278 0.003122 -0.004175
# 3 0.000467 -0.007358 0.015891 0.002800 0.009580 0.007614
# 4 0.002943 -0.002278 0.002800 0.027810 0.006483 0.013362
# 5 0.012625 0.003122 0.009580 0.006483 0.045201 0.020329
# 6 0.005166 -0.004175 0.007614 0.013362 0.020329 0.044280
#
#
# Mechanical properties :
#
#
# Convention : Reuss Voigt Hill
#
# Bulk Modulus (GPa) = 24.89917 41.69276 33.29597
# Shear Modulus (GPa) = 26.28109 38.19316 32.23713
#
# Velocity S-wave (km/s) = 3.30925 3.98934 3.66510
# Velocity P-wave (km/s) = 4.99768 6.21231 5.63780
#
# Compressibility (1/GPa) = 0.04016198
#
# Stress axis : x y z
#
# Youngs Moduli (GPa) = 74.13985 48.80825 62.92811
#
# Poissons Ratio (x) = -0.09949 -0.02936
# Poissons Ratio (y) = -0.15113 0.46301
# Poissons Ratio (z) = -0.03459 0.35912
#
# Static dielectric constant tensor:
#      x y z
#    x 1.972170 -0.080100 -0.055310 
#    y -0.080100 2.043540 0.095160 
#    z -0.055310 0.095160 1.938590 
# 
# From -- ./inp_files/23026.got.cif
#   From: 2010.05.17/outbox.cif.g08.bks.cpg/sg2_12_cif.got.tgz:23026.got - 2010.06.03 11:33:40.
