data_PCOD9055471
_publ_section_title
;
Structure prediction by ZEFSAII (Michael W. Deem and Ramdas Pophale) SiO2 
 PCOD9055471
Probable space group: P -1
;
_chemical_formula_sum "Si O2"
_cell_formula_units_Z 16
_cell_length_a 11.667152
_cell_length_b 8.807241
_cell_length_c 8.787290
_cell_angle_alpha 123.150208
_cell_angle_beta 114.567052
_cell_angle_gamma 62.878990
_cell_volume 655.850972
_symmetry_space_group_name_H-M "P -1"
_symmetry_group_IT_number 2
_symmetry_cell_setting 'triclinic'
loop_
_space_group_symop_operation_xyz
x,y,z
-x,-y,-z
loop_
_atom_site_type_symbol
_atom_site_label
_atom_site_fract_x
_atom_site_fract_y
_atom_site_fract_z
Si Si1 0.368169 0.713065 0.389276
Si Si2 0.069134 0.177600 0.792341
Si Si3 0.359755 0.035182 0.757343
Si Si4 0.968612 0.181962 0.275004
Si Si5 0.278113 0.793092 0.047775
Si Si6 0.169802 0.595955 0.407903
Si Si7 0.198732 0.199085 0.197848
Si Si8 0.513477 0.302876 0.120158
O O1 0.406056 0.903951 0.559692
O O2 0.292535 0.744544 0.203767
O O3 0.267078 0.706295 0.463744
O O4 0.461954 0.496786 0.296103
O O5 0.955350 0.342810 0.741380
O O6 0.200152 0.114670 0.726246
O O7 0.015789 0.999055 0.705633
O O8 0.119064 0.223720 0.009063
O O9 0.413670 0.876703 0.832056
O O10 0.409560 0.218940 0.924394
O O11 0.890759 0.353980 0.432394
O O12 0.100219 0.200609 0.283568
O O13 0.868573 0.174445 0.079068
O O14 0.304352 0.995546 0.148091
O O15 0.384026 0.656149 0.921830
O O16 0.251572 0.376523 0.330135
#
# Coordination Sequence:
#
# PCOD9055471 Si02
#       8
#     2   2   2   2   2   2   2   2
#     4  12  25  44  72 102 131 181 224 275 335 399
#     4  11  21  42  65  94 134 175 222 269 334 402
#     4  11  24  43  73 100 133 177 225 282 330 391
#     4  11  22  41  64  96 134 179 210 272 339 398
#     4  11  24  46  66  94 138 176 219 272 342 394
#     4  12  24  39  67 103 132 171 229 271 329 409
#     4  11  23  40  63  97 136 178 211 276 338 393
#     4  11  24  47  69  99 136 174 229 279 330 395
#
# _framework density 24.395786000000001
#
# number of rings (size 3 to 8) (size 9 to 14) (size 15 to 20)
#    0.000    0.750    3.750    5.625    3.500    1.500 
#    2.250    0.000    0.000    0.000    0.000    0.000 
#    0.000    0.000    0.000    0.000    0.000    0.000 
#
# Total GULP energy -89457.077771 kJ/mol
# GULP energy per Si atom -5591.067361 kJ/mol
# Density = 2.434026 g / cm^3
# Si number density = 24.395786 Si / 1000 Ang^3
#
#
#
# Elastic Constant Matrix: (Units=GPa)
#
#
# Indices 1 2 3 4 5 6 
#
# 1 81.0440 3.1044 27.9608 4.8574 -9.0834 -8.9639
# 2 3.1044 66.2852 4.5790 9.6234 5.8306 -7.9808
# 3 27.9608 4.5790 74.6370 10.5004 -19.5414 6.8939
# 4 4.8574 9.6234 10.5004 39.0814 -3.6167 -4.3081
# 5 -9.0834 5.8306 -19.5414 -3.6167 26.5613 6.8751
# 6 -8.9639 -7.9808 6.8939 -4.3081 6.8751 22.5937
#
#
#
# Elastic Compliance Matrix: (Units=1/GPa)
#
#
# Indices 1 2 3 4 5 6 
#
# 1 0.015719 0.001209 -0.007830 0.000676 -0.003185 0.010151
# 2 0.001209 0.018027 -0.004844 -0.003044 -0.010342 0.010892
# 3 -0.007830 -0.004844 0.024555 -0.004655 0.020878 -0.019551
# 4 0.000676 -0.003044 -0.004655 0.028148 -0.000261 0.006060
# 5 -0.003185 -0.010342 0.020878 -0.000261 0.061970 -0.030194
# 6 0.010151 0.010892 -0.019551 0.006060 -0.030194 0.068443
#
#
# Mechanical properties :
#
#
# Convention : Reuss Voigt Hill
#
# Bulk Modulus (GPa) = 28.27107 32.58386 30.42747
# Shear Modulus (GPa) = 19.87414 30.06874 24.97144
#
# Velocity S-wave (km/s) = 2.85731 3.51456 3.20284
# Velocity P-wave (km/s) = 4.74334 5.46396 5.11635
#
# Compressibility (1/GPa) = 0.03537184
#
# Stress axis : x y z
#
# Youngs Moduli (GPa) = 63.61673 55.47124 40.72411
#
# Poissons Ratio (x) = -0.06705 0.31886
# Poissons Ratio (y) = -0.07690 0.19728
# Poissons Ratio (z) = 0.49810 0.26871
#
# Static dielectric constant tensor:
#      x y z
#    x 1.894590 -0.019180 0.021060 
#    y -0.019180 1.952990 0.074140 
#    z 0.021060 0.074140 2.026120 
# 
# From -- ./inp_files/217833.got.cif
#   From: 2010.05.17/outbox.cif.g08.bks.cpg/sg2_109_cif.got.tgz:217833.got - 2010.06.03 11:33:40.
