data_PCOD9055960
_publ_section_title
;
Structure prediction by ZEFSAII (Michael W. Deem and Ramdas Pophale) SiO2 
 PCOD9055960
Probable space group: P -1
;
_chemical_formula_sum "Si O2"
_cell_formula_units_Z 16
_cell_length_a 12.233993
_cell_length_b 10.746963
_cell_length_c 8.333350
_cell_angle_alpha 62.302792
_cell_angle_beta 99.301999
_cell_angle_gamma 132.710924
_cell_volume 692.662324
_symmetry_space_group_name_H-M "P -1"
_symmetry_group_IT_number 2
_symmetry_cell_setting 'triclinic'
loop_
_space_group_symop_operation_xyz
x,y,z
-x,-y,-z
loop_
_atom_site_type_symbol
_atom_site_label
_atom_site_fract_x
_atom_site_fract_y
_atom_site_fract_z
Si Si1 0.793892 0.530733 0.680420
Si Si2 0.936695 0.705700 0.925748
Si Si3 0.511440 0.733599 0.054582
Si Si4 0.166477 0.902599 0.118965
Si Si5 0.927980 0.873131 0.278450
Si Si6 0.657407 0.571735 0.150145
Si Si7 0.415057 0.790216 0.681063
Si Si8 0.179155 0.665204 0.469075
O O1 0.891179 0.579295 0.833840
O O2 0.895371 0.741438 0.496981
O O3 0.763155 0.386711 0.625921
O O4 0.624074 0.421383 0.764123
O O5 0.775913 0.621059 0.012729
O O6 0.031408 0.933337 0.778454
O O7 0.044440 0.729275 0.071272
O O8 0.448624 0.791696 0.874857
O O9 0.675337 0.932763 0.035189
O O10 0.565477 0.632431 0.053229
O O11 0.218193 0.856132 0.311291
O O12 0.066786 0.939028 0.157436
O O13 0.771701 0.715196 0.235374
O O14 0.559114 0.345382 0.303144
O O15 0.243314 0.674825 0.648877
O O16 0.500000 0.000000 0.500000
O O17 0.000000 0.500000 0.500000
#
# Coordination Sequence:
#
# PCOD9055960 Si02
#       8
#     2   2   2   2   2   2   2   2
#     4  12  27  41  68 106 146 172 234 304 346 406
#     4  11  22  43  73 107 137 180 245 284 335 425
#     4  12  25  45  71 108 139 184 227 297 358 399
#     4  11  22  45  76  96 133 197 238 273 351 426
#     4  11  21  44  73 104 136 187 240 283 337 427
#     4  11  21  45  75  99 145 190 231 283 349 417
#     4  12  25  45  71 104 137 186 238 281 344 438
#     4  12  25  49  71  92 139 192 233 281 354 424
#
# _framework density 23.09928
#
# number of rings (size 3 to 8) (size 9 to 14) (size 15 to 20)
#    0.000    0.500    7.500    2.250    0.000    1.500 
#    0.000    1.250    0.000    0.000    0.000    0.000 
#    0.000    0.000    0.000    0.000    0.000    0.000 
#
# Total GULP energy -89193.614599 kJ/mol
# GULP energy per Si atom -5574.600912 kJ/mol
# Density = 2.304670 g / cm^3
# Si number density = 23.099280 Si / 1000 Ang^3
#
#
#
# Elastic Constant Matrix: (Units=GPa)
#
#
# Indices 1 2 3 4 5 6 
#
# 1 63.2208 22.0444 34.2385 5.3192 12.9635 19.1124
# 2 22.0444 80.3201 20.3697 -14.4548 -9.4902 17.4832
# 3 34.2385 20.3697 81.0310 -2.9760 14.6927 9.9269
# 4 5.3192 -14.4548 -2.9760 44.0202 -0.2463 9.4365
# 5 12.9635 -9.4902 14.6927 -0.2463 38.3312 -10.8579
# 6 19.1124 17.4832 9.9269 9.4365 -10.8579 28.9133
#
#
#
# Elastic Compliance Matrix: (Units=1/GPa)
#
#
# Indices 1 2 3 4 5 6 
#
# 1 0.029882 -0.004072 -0.006616 -0.001192 -0.014245 -0.019979
# 2 -0.004072 0.017921 -0.002257 0.008040 0.004364 -0.008355
# 3 -0.006616 -0.002257 0.017157 0.001804 -0.005703 -0.002883
# 4 -0.001192 0.008040 0.001804 0.028822 -0.002358 -0.014985
# 5 -0.014245 0.004364 -0.005703 -0.002358 0.041237 0.024991
# 6 -0.019979 -0.008355 -0.002883 -0.014985 0.024991 0.068110
#
#
# Mechanical properties :
#
#
# Convention : Reuss Voigt Hill
#
# Bulk Modulus (GPa) = 25.59468 41.98636 33.79052
# Shear Modulus (GPa) = 20.65753 32.11424 26.38589
#
# Velocity S-wave (km/s) = 2.99372 3.73268 3.38343
# Velocity P-wave (km/s) = 4.80147 6.06573 5.47025
#
# Compressibility (1/GPa) = 0.03907063
#
# Stress axis : x y z
#
# Youngs Moduli (GPa) = 33.46535 55.79932 58.28442
#
# Poissons Ratio (x) = 0.22723 0.38558
# Poissons Ratio (y) = 0.13628 0.13155
# Poissons Ratio (z) = 0.22139 0.12594
#
# Static dielectric constant tensor:
#      x y z
#    x 1.837660 0.049830 0.032070 
#    y 0.049830 1.889950 -0.018660 
#    z 0.032070 -0.018660 1.929850 
# 
# From -- ./inp_files/256973.got.cif
#   From: 2010.05.17/outbox.cif.g08.bks.cpg/sg2_129_cif.got.tgz:256973.got - 2010.06.03 11:33:40.
