data_PCOD9055870
_publ_section_title
;
Structure prediction by ZEFSAII (Michael W. Deem and Ramdas Pophale) SiO2 
 PCOD9055870
Probable space group: P -1
;
_chemical_formula_sum "Si O2"
_cell_formula_units_Z 16
_cell_length_a 13.137170
_cell_length_b 9.189376
_cell_length_c 19.579139
_cell_angle_alpha 123.322418
_cell_angle_beta 153.480784
_cell_angle_gamma 48.016327
_cell_volume 775.823773
_symmetry_space_group_name_H-M "P -1"
_symmetry_group_IT_number 2
_symmetry_cell_setting 'triclinic'
loop_
_space_group_symop_operation_xyz
x,y,z
-x,-y,-z
loop_
_atom_site_type_symbol
_atom_site_label
_atom_site_fract_x
_atom_site_fract_y
_atom_site_fract_z
Si Si1 0.537950 0.253678 0.909604
Si Si2 0.363504 0.525095 0.678842
Si Si3 0.988983 0.323588 0.149314
Si Si4 0.843454 0.589631 0.997222
Si Si5 0.270419 0.004835 0.908934
Si Si6 0.930939 0.555887 0.631753
Si Si7 0.068996 0.154611 0.402590
Si Si8 0.583406 0.078799 0.751418
O O1 0.604758 0.088806 0.848310
O O2 0.231868 0.397935 0.760367
O O3 0.712379 0.356325 0.020166
O O4 0.617456 0.163204 0.009062
O O5 0.248450 0.517476 0.533944
O O6 0.511146 0.299068 0.737428
O O7 0.125621 0.658499 0.620227
O O8 0.555678 0.618079 0.819710
O O9 0.111727 0.394793 0.301484
O O10 0.951130 0.445073 0.089349
O O11 0.165071 0.093019 0.177300
O O12 0.851813 0.788133 0.072319
O O13 0.000000 0.500000 0.000000
O O14 0.070139 0.972809 0.733579
O O15 0.500000 0.000000 0.000000
O O16 0.883640 0.754447 0.614882
O O17 0.339602 0.047261 0.576651
#
# Coordination Sequence:
#
# PCOD9055870 Si02
#       8
#     2   2   2   2   2   2   2   2
#     4  12  22  42  69  99 128 172 228 270 316 391
#     4  11  22  43  68  98 135 171 217 273 339 385
#     4  12  25  42  67 104 130 169 231 274 317 391
#     4  12  27  46  66  95 141 178 209 270 343 395
#     4  12  26  42  67  99 135 174 218 267 332 395
#     4  11  22  40  71 100 129 169 223 281 320 378
#     4  11  21  44  67 101 133 171 218 275 334 384
#     4  11  23  40  71 100 129 168 226 277 325 384
#
# _framework density 20.623239999999999
#
# number of rings (size 3 to 8) (size 9 to 14) (size 15 to 20)
#    0.000    0.500    6.250    3.000    1.750    3.000 
#    0.000    7.500    0.000    0.000    0.000    0.000 
#    0.000    0.000    0.000    0.000    0.000    0.000 
#
# Total GULP energy -89523.682269 kJ/mol
# GULP energy per Si atom -5595.230142 kJ/mol
# Density = 2.057630 g / cm^3
# Si number density = 20.623240 Si / 1000 Ang^3
#
#
#
# Elastic Constant Matrix: (Units=GPa)
#
#
# Indices 1 2 3 4 5 6 
#
# 1 99.6207 10.9452 16.1782 3.0750 -26.6192 -4.4127
# 2 10.9452 77.0804 18.0794 14.5895 -4.8767 -16.8838
# 3 16.1782 18.0794 102.1555 29.8332 -19.4402 0.3085
# 4 3.0750 14.5895 29.8332 39.5975 -7.3939 -1.5333
# 5 -26.6192 -4.8767 -19.4402 -7.3939 31.3608 5.0346
# 6 -4.4127 -16.8838 0.3085 -1.5333 5.0346 34.0442
#
#
#
# Elastic Compliance Matrix: (Units=1/GPa)
#
#
# Indices 1 2 3 4 5 6 
#
# 1 0.013197 -0.001605 -0.000159 0.001785 0.011385 -0.000687
# 2 -0.001605 0.016063 -0.001691 -0.004639 -0.002274 0.007901
# 3 -0.000159 -0.001691 0.013911 -0.008714 0.006548 -0.002346
# 4 0.001785 -0.004639 -0.008714 0.034018 0.003571 -0.000986
# 5 0.011385 -0.002274 0.006548 0.003571 0.047145 -0.006523
# 6 -0.000687 0.007901 -0.002346 -0.000986 -0.006523 0.034144
#
#
# Mechanical properties :
#
#
# Convention : Reuss Voigt Hill
#
# Bulk Modulus (GPa) = 27.57688 41.02913 34.30300
# Shear Modulus (GPa) = 28.17322 36.57741 32.37531
#
# Velocity S-wave (km/s) = 3.70008 4.21598 3.96643
# Velocity P-wave (km/s) = 5.62627 6.60584 6.13563
#
# Compressibility (1/GPa) = 0.03626226
#
# Stress axis : x y z
#
# Youngs Moduli (GPa) = 75.77676 62.25657 71.88407
#
# Poissons Ratio (x) = 0.09991 0.01141
# Poissons Ratio (y) = 0.12161 0.12153
# Poissons Ratio (z) = 0.01203 0.10525
#
# Static dielectric constant tensor:
#      x y z
#    x 1.724510 -0.001200 -0.000230 
#    y -0.001200 1.737060 0.008310 
#    z -0.000230 0.008310 1.747210 
# 
# From -- ./inp_files/184318.got.cif
#   From: 2010.05.17/outbox.cif.g08.bks.cpg/sg2_93_cif.got.tgz:184318.got - 2010.06.03 11:33:40.
