data_PCOD9055012
_publ_section_title
;
Structure prediction by ZEFSAII (Michael W. Deem and Ramdas Pophale) SiO2 
 PCOD9055012
Probable space group: P -1
;
_chemical_formula_sum "Si O2"
_cell_formula_units_Z 14
_cell_length_a 11.859504
_cell_length_b 11.329005
_cell_length_c 8.069454
_cell_angle_alpha 77.287673
_cell_angle_beta 122.308412
_cell_angle_gamma 141.304690
_cell_volume 531.527218
_symmetry_space_group_name_H-M "P -1"
_symmetry_group_IT_number 2
_symmetry_cell_setting 'triclinic'
loop_
_space_group_symop_operation_xyz
x,y,z
-x,-y,-z
loop_
_atom_site_type_symbol
_atom_site_label
_atom_site_fract_x
_atom_site_fract_y
_atom_site_fract_z
Si Si1 0.931110 0.126016 0.322263
Si Si2 0.317389 0.435944 0.986522
Si Si3 0.235242 0.754260 0.959350
Si Si4 0.245643 0.726439 0.329125
Si Si5 0.657785 0.737187 0.410005
Si Si6 0.742887 0.351073 0.303013
Si Si7 0.158749 0.922649 0.358477
O O1 0.849440 0.170047 0.123085
O O2 0.916920 0.169290 0.484173
O O3 0.177348 0.255591 0.441313
O O4 0.768075 0.892007 0.291474
O O5 0.416066 0.526367 0.219323
O O6 0.500000 0.500000 0.000000
O O7 0.284488 0.540706 0.837819
O O8 0.071112 0.198896 0.868236
O O9 0.356190 0.811986 0.863263
O O10 0.006341 0.507217 0.831965
O O11 0.351335 0.799157 0.206630
O O12 0.353234 0.729326 0.562796
O O13 0.234344 0.856332 0.345505
O O14 0.683569 0.847583 0.548926
O O15 0.000000 0.500000 0.500000
#
# Coordination Sequence:
#
# PCOD9055012 Si02
#       7
#     2   2   2   2   2   2   2
#     4   9  16  35  54  82 119 144 193 240 277 347
#     4  12  19  31  62  90 110 156 196 231 295 344
#     4  10  18  31  60  86 107 156 199 231 291 343
#     4  10  19  32  58  88 108 154 200 232 287 347
#     4   9  20  31  55  89 113 154 190 236 291 345
#     4  10  18  34  56  85 114 145 196 238 276 352
#     4  10  17  36  55  82 121 144 194 237 282 347
#
# _framework density 26.339196000000001
#
# number of rings (size 3 to 8) (size 9 to 14) (size 15 to 20)
#    0.857    1.143    5.714    0.857    0.000    0.000 
#    0.000    3.571    0.000    6.857    0.000    0.000 
#    0.000    0.000    0.000    0.000    0.000    0.000 
#
# Total GULP energy -78278.286117 kJ/mol
# GULP energy per Si atom -5591.306151 kJ/mol
# Density = 2.627925 g / cm^3
# Si number density = 26.339196 Si / 1000 Ang^3
#
#
#
# Elastic Constant Matrix: (Units=GPa)
#
#
# Indices 1 2 3 4 5 6 
#
# 1 95.8620 33.5362 60.3256 -9.7185 1.4099 -15.6980
# 2 33.5362 69.6693 39.0801 8.1125 5.7523 -8.7523
# 3 60.3256 39.0801 137.2931 11.6054 -12.7095 -6.2402
# 4 -9.7185 8.1125 11.6054 40.3628 -2.1904 3.4339
# 5 1.4099 5.7523 -12.7095 -2.1904 53.9180 -5.5143
# 6 -15.6980 -8.7523 -6.2402 3.4339 -5.5143 35.8482
#
#
#
# Elastic Compliance Matrix: (Units=1/GPa)
#
#
# Indices 1 2 3 4 5 6 
#
# 1 0.018005 -0.004907 -0.006960 0.006879 -0.000829 0.004689
# 2 -0.004907 0.019498 -0.003165 -0.004512 -0.002668 0.002083
# 3 -0.006960 -0.003165 0.011840 -0.004203 0.003049 -0.000888
# 4 0.006879 -0.004512 -0.004203 0.028694 0.000321 -0.001520
# 5 -0.000829 -0.002668 0.003049 0.000321 0.019844 0.002538
# 6 0.004689 0.002083 -0.000888 -0.001520 0.002538 0.030839
#
#
# Mechanical properties :
#
#
# Convention : Reuss Voigt Hill
#
# Bulk Modulus (GPa) = 51.86635 63.18983 57.52809
# Shear Modulus (GPa) = 30.26452 37.35130 33.80791
#
# Velocity S-wave (km/s) = 3.39341 3.76984 3.58657
# Velocity P-wave (km/s) = 5.92352 6.55681 6.24819
#
# Compressibility (1/GPa) = 0.01928032
#
# Stress axis : x y z
#
# Youngs Moduli (GPa) = 55.53904 51.28684 84.46006
#
# Poissons Ratio (x) = 0.25164 0.58783
# Poissons Ratio (y) = 0.27251 0.26733
# Poissons Ratio (z) = 0.38654 0.16233
#
# Static dielectric constant tensor:
#      x y z
#    x 2.167420 0.132720 -0.041360 
#    y 0.132720 2.194230 0.035120 
#    z -0.041360 0.035120 2.039140 
# 
# From -- ./inp_files/303147.got.cif
#   From: 2010.05.17/outbox.cif.g08.bks.cpg/sg2_152_cif.got.tgz:303147.got - 2010.06.03 11:33:40.
