data_PCOD9055915
_publ_section_title
;
Structure prediction by ZEFSAII (Michael W. Deem and Ramdas Pophale) SiO2 
 PCOD9055915
Probable space group: P -1
;
_chemical_formula_sum "Si O2"
_cell_formula_units_Z 14
_cell_length_a 9.697108
_cell_length_b 12.277946
_cell_length_c 13.315778
_cell_angle_alpha 145.287983
_cell_angle_beta 127.155598
_cell_angle_gamma 44.531961
_cell_volume 632.497035
_symmetry_space_group_name_H-M "P -1"
_symmetry_group_IT_number 2
_symmetry_cell_setting 'triclinic'
loop_
_space_group_symop_operation_xyz
x,y,z
-x,-y,-z
loop_
_atom_site_type_symbol
_atom_site_label
_atom_site_fract_x
_atom_site_fract_y
_atom_site_fract_z
Si Si1 0.269244 0.036607 0.811333
Si Si2 0.588557 0.346722 0.550515
Si Si3 0.180728 0.825697 0.289567
Si Si4 0.200615 0.376492 0.432296
Si Si5 0.177159 0.388343 0.194458
Si Si6 0.734248 0.627553 0.094588
Si Si7 0.601232 0.054081 0.677979
O O1 0.304056 0.187644 0.862479
O O2 0.050557 0.071197 0.722995
O O3 0.404409 0.788393 0.649414
O O4 0.266716 0.148254 0.001300
O O5 0.713158 0.168711 0.556836
O O6 0.361468 0.464572 0.575688
O O7 0.699057 0.487773 0.687160
O O8 0.226775 0.923060 0.285060
O O9 0.270413 0.570930 0.113830
O O10 0.156127 0.377880 0.296325
O O11 0.000000 0.500000 0.500000
O O12 0.312806 0.135907 0.346578
O O13 0.956311 0.530904 0.160967
O O14 0.567157 0.728232 0.181335
O O15 0.500000 0.000000 0.500000
#
# Coordination Sequence:
#
# PCOD9055915 Si02
#       7
#     2   2   2   2   2   2   2
#     4  11  22  42  73 106 134 173 230 283 338 400
#     4  12  23  43  75  99 132 184 227 279 340 402
#     4  11  22  40  72 106 131 172 233 282 336 398
#     4  12  28  46  66  99 141 185 224 279 342 401
#     4  11  25  45  70 104 141 171 225 288 339 404
#     4  11  21  44  71 102 137 174 226 288 333 402
#     4  12  24  42  68  98 135 185 230 273 333 412
#
# _framework density 22.134492000000002
#
# number of rings (size 3 to 8) (size 9 to 14) (size 15 to 20)
#    0.000    0.571    5.714    3.000    4.000    0.571 
#    0.000    2.857    0.000    0.000    0.000    0.000 
#    0.000    0.000    0.000    0.000    0.000    0.000 
#
# Total GULP energy -78315.415258 kJ/mol
# GULP energy per Si atom -5593.958233 kJ/mol
# Density = 2.208411 g / cm^3
# Si number density = 22.134492 Si / 1000 Ang^3
#
#
#
# Elastic Constant Matrix: (Units=GPa)
#
#
# Indices 1 2 3 4 5 6 
#
# 1 77.7829 -10.0318 41.9076 4.2946 -38.7952 19.0935
# 2 -10.0318 41.9152 18.9145 -2.1620 -21.0781 17.2370
# 3 41.9076 18.9145 95.2288 -4.8316 -15.5364 0.2859
# 4 4.2946 -2.1620 -4.8316 24.3824 6.8439 -21.3978
# 5 -38.7952 -21.0781 -15.5364 6.8439 30.4502 12.3927
# 6 19.0935 17.2370 0.2859 -21.3978 12.3927 31.3332
#
#
#
# Elastic Compliance Matrix: (Units=1/GPa)
#
#
# Indices 1 2 3 4 5 6 
#
# 1 0.004352 -0.007519 -0.001218 0.012402 -0.008492 0.013324
# 2 -0.007519 0.012503 0.000002 0.016731 -0.010012 0.013090
# 3 -0.001218 0.000002 0.012091 -0.004059 0.007631 -0.005159
# 4 0.012402 0.016731 -0.004059 0.032521 0.018796 -0.001950
# 5 -0.008492 -0.010012 0.007631 0.018796 0.006217 0.020990
# 6 0.013324 0.013090 -0.005159 -0.001950 0.020990 0.007008
#
#
# Mechanical properties :
#
#
# Convention : Reuss Voigt Hill
#
# Bulk Modulus (GPa) = 87.14562 35.16750 61.15656
# Shear Modulus (GPa) = 52.09053 28.17561 40.13307
#
# Velocity S-wave (km/s) = 4.85641 3.57168 4.26272
# Velocity P-wave (km/s) = 8.42038 5.73862 7.20536
#
# Compressibility (1/GPa) = 0.01147505
#
# Stress axis : x y z
#
# Youngs Moduli (GPa) = 229.79943 79.98378 82.70560
#
# Poissons Ratio (x) = 0.60140 0.10072
# Poissons Ratio (y) = 1.72788 -0.00015
# Poissons Ratio (z) = 0.27985 -0.00014
#
# Static dielectric constant tensor:
#      x y z
#    x 1.849480 0.025070 0.001150 
#    y 0.025070 1.838440 0.003130 
#    z 0.001150 0.003130 1.826970 
# 
# From -- ./inp_files/154892.got.cif
#   From: 2010.05.17/outbox.cif.g08.bks.cpg/sg2_78_cif.got.tgz:154892.got - 2010.06.03 11:33:40.
