data_PCOD9055382
_publ_section_title
;
Structure prediction by ZEFSAII (Michael W. Deem and Ramdas Pophale) SiO2 
 PCOD9055382
Probable space group: P -1
;
_chemical_formula_sum "Si O2"
_cell_formula_units_Z 14
_cell_length_a 9.348672
_cell_length_b 11.800382
_cell_length_c 5.518632
_cell_angle_alpha 76.800652
_cell_angle_beta 104.608084
_cell_angle_gamma 83.258028
_cell_volume 563.579198
_symmetry_space_group_name_H-M "P -1"
_symmetry_group_IT_number 2
_symmetry_cell_setting 'triclinic'
loop_
_space_group_symop_operation_xyz
x,y,z
-x,-y,-z
loop_
_atom_site_type_symbol
_atom_site_label
_atom_site_fract_x
_atom_site_fract_y
_atom_site_fract_z
Si Si1 0.144073 0.664160 0.257324
Si Si2 0.677286 0.719976 0.538482
Si Si3 0.940312 0.090915 0.141133
Si Si4 0.349388 0.580956 0.994558
Si Si5 0.824185 0.601223 0.164887
Si Si6 0.362057 0.777900 0.583780
Si Si7 0.748885 0.975180 0.423417
O O1 0.206845 0.741730 0.449704
O O2 0.000987 0.603350 0.261177
O O3 0.088764 0.770516 0.992716
O O4 0.287643 0.579023 0.241374
O O5 0.746626 0.657484 0.352121
O O6 0.502839 0.717286 0.513771
O O7 0.680724 0.858847 0.433472
O O8 0.761331 0.670982 0.852772
O O9 0.081759 0.072108 0.390103
O O10 0.786880 0.048536 0.171606
O O11 0.000000 0.000000 0.000000
O O12 0.219087 0.527927 0.821779
O O13 0.380678 0.710676 0.881323
O O14 0.500000 0.500000 0.000000
O O15 0.343404 0.918732 0.509153
#
# Coordination Sequence:
#
# PCOD9055382 Si02
#       7
#     2   2   2   2   2   2   2
#     4  12  26  46  78 113 148 201 257 311 381 453
#     4  12  28  50  76 113 155 202 249 317 382 451
#     4  11  21  41  70 109 149 189 244 314 377 444
#     4  12  27  51  76 107 155 200 255 317 376 450
#     4  12  29  50  79 111 153 201 257 315 378 444
#     4  12  27  46  77 111 148 206 252 308 390 450
#     4  11  24  42  73 109 151 193 251 310 378 455
#
# _framework density 24.841229999999999
#
# number of rings (size 3 to 8) (size 9 to 14) (size 15 to 20)
#    0.000    0.286    5.714    2.571    6.000    1.714 
#    0.000    2.143    0.000    0.000    0.000    0.000 
#    0.000    0.000    0.000    0.000    0.000    0.000 
#
# Total GULP energy -78187.334172 kJ/mol
# GULP energy per Si atom -5584.809584 kJ/mol
# Density = 2.478469 g / cm^3
# Si number density = 24.841230 Si / 1000 Ang^3
#
#
#
# Elastic Constant Matrix: (Units=GPa)
#
#
# Indices 1 2 3 4 5 6 
#
# 1 134.1105 25.0976 19.6224 4.6081 -17.5643 11.2015
# 2 25.0976 124.5571 24.0805 -10.0900 -17.7651 14.3864
# 3 19.6224 24.0805 60.5586 3.9586 -14.8106 -1.9829
# 4 4.6081 -10.0900 3.9586 37.5949 0.9198 -4.5162
# 5 -17.5643 -17.7651 -14.8106 0.9198 36.0880 5.1120
# 6 11.2015 14.3864 -1.9829 -4.5162 5.1120 54.4335
#
#
#
# Elastic Compliance Matrix: (Units=1/GPa)
#
#
# Indices 1 2 3 4 5 6 
#
# 1 0.008504 -0.000801 -0.001574 -0.001420 0.003423 -0.002035
# 2 -0.000801 0.009795 -0.003041 0.002644 0.003491 -0.002643
# 3 -0.001574 -0.003041 0.019866 -0.002727 0.005807 0.001080
# 4 -0.001420 0.002644 -0.002727 0.028043 -0.001501 0.001962
# 5 0.003423 0.003491 0.005807 -0.001501 0.034189 -0.004751
# 6 -0.002035 -0.002643 0.001080 0.001962 -0.004751 0.020137
#
#
# Mechanical properties :
#
#
# Convention : Reuss Voigt Hill
#
# Bulk Modulus (GPa) = 36.58502 50.75858 43.67180
# Shear Modulus (GPa) = 35.59347 42.31834 38.95590
#
# Velocity S-wave (km/s) = 3.78939 4.13189 3.96434
# Velocity P-wave (km/s) = 5.82284 6.57578 6.21073
#
# Compressibility (1/GPa) = 0.02733359
#
# Stress axis : x y z
#
# Youngs Moduli (GPa) = 117.59529 102.09099 50.33781
#
# Poissons Ratio (x) = 0.08178 0.07921
# Poissons Ratio (y) = 0.09420 0.15308
# Poissons Ratio (z) = 0.18504 0.31046
#
# Static dielectric constant tensor:
#      x y z
#    x 1.971800 0.007420 -0.031200 
#    y 0.007420 2.097250 -0.067880 
#    z -0.031200 -0.067880 2.216650 
# 
# From -- ./inp_files/26980.got.cif
#   From: 2010.05.17/outbox.cif.g08.bks.cpg/sg2_14_cif.got.tgz:26980.got - 2010.06.03 11:33:40.
