data_PCOD9055772
_publ_section_title
;
Structure prediction by ZEFSAII (Michael W. Deem and Ramdas Pophale) SiO2 
 PCOD9055772
Probable space group: P -1
;
_chemical_formula_sum "Si O2"
_cell_formula_units_Z 16
_cell_length_a 9.662883
_cell_length_b 16.477802
_cell_length_c 9.045338
_cell_angle_alpha 80.739606
_cell_angle_beta 109.723679
_cell_angle_gamma 143.749950
_cell_volume 785.484901
_symmetry_space_group_name_H-M "P -1"
_symmetry_group_IT_number 2
_symmetry_cell_setting 'triclinic'
loop_
_space_group_symop_operation_xyz
x,y,z
-x,-y,-z
loop_
_atom_site_type_symbol
_atom_site_label
_atom_site_fract_x
_atom_site_fract_y
_atom_site_fract_z
Si Si1 0.357615 0.256089 0.330177
Si Si2 0.777472 0.952892 0.863067
Si Si3 0.405586 0.175154 0.649377
Si Si4 0.565083 0.435638 0.068272
Si Si5 0.078191 0.623267 0.060784
Si Si6 0.359214 0.868876 0.885944
Si Si7 0.073418 0.866469 0.599102
Si Si8 0.827962 0.796817 0.248563
O O1 0.334594 0.160892 0.260431
O O2 0.465803 0.271653 0.519611
O O3 0.493404 0.375430 0.225502
O O4 0.099636 0.182955 0.310446
O O5 0.565852 0.894982 0.906622
O O6 0.923065 0.091517 0.792589
O O7 0.000000 0.000000 0.000000
O O8 0.662039 0.266608 0.790974
O O9 0.225642 0.139392 0.712786
O O10 0.254120 0.026500 0.583562
O O11 0.852927 0.548257 0.106372
O O12 0.500000 0.500000 0.000000
O O13 0.399606 0.318220 0.913210
O O14 0.137262 0.719756 0.932230
O O15 0.000000 0.500000 0.000000
O O16 0.239815 0.864916 0.707950
O O17 0.500000 0.000000 0.000000
O O18 0.891101 0.768960 0.421494
#
# Coordination Sequence:
#
# PCOD9055772 Si02
#       8
#     2   2   2   2   2   2   2   2
#     4  11  22  42  70  96 130 173 222 273 327 400
#     4  12  21  37  70  99 125 167 224 268 330 394
#     4  11  21  43  71 101 130 172 222 276 338 396
#     4  12  27  43  63  95 133 182 224 267 330 396
#     4  12  25  46  66  90 138 181 223 263 332 415
#     4  12  26  41  68 102 135 174 219 287 339 380
#     4  11  22  43  69 105 134 162 222 285 344 379
#     4  11  22  41  69  96 133 174 215 274 326 404
#
# _framework density 20.369582999999999
#
# number of rings (size 3 to 8) (size 9 to 14) (size 15 to 20)
#    0.000    0.500    6.250    3.750    1.750    1.000 
#    4.500    1.875    0.000    0.000    0.000    0.000 
#    0.000    0.000    0.000    0.000    0.000    0.000 
#
# Total GULP energy -89303.992914 kJ/mol
# GULP energy per Si atom -5581.499557 kJ/mol
# Density = 2.032322 g / cm^3
# Si number density = 20.369583 Si / 1000 Ang^3
#
#
#
# Elastic Constant Matrix: (Units=GPa)
#
#
# Indices 1 2 3 4 5 6 
#
# 1 80.1890 15.7252 23.6642 -17.1062 5.4967 18.5904
# 2 15.7252 70.5168 24.4861 -26.4393 -2.9228 14.9635
# 3 23.6642 24.4861 101.0685 -28.5585 12.1793 11.2623
# 4 -17.1062 -26.4393 -28.5585 33.3638 1.8830 -2.2935
# 5 5.4967 -2.9228 12.1793 1.8830 35.1254 -2.0721
# 6 18.5904 14.9635 11.2623 -2.2935 -2.0721 34.3521
#
#
#
# Elastic Compliance Matrix: (Units=1/GPa)
#
#
# Indices 1 2 3 4 5 6 
#
# 1 0.016526 0.001618 -0.000264 0.009091 -0.003388 -0.009159
# 2 0.001618 0.022647 0.000449 0.018501 -0.000086 -0.009658
# 3 -0.000264 0.000449 0.014673 0.012816 -0.005954 -0.004367
# 4 0.009091 0.018501 0.012816 0.059795 -0.008340 -0.013692
# 5 -0.003388 -0.000086 -0.005954 -0.008340 0.031810 0.005185
# 6 -0.009159 -0.009658 -0.004367 -0.013692 0.005185 0.039104
#
#
# Mechanical properties :
#
#
# Convention : Reuss Voigt Hill
#
# Bulk Modulus (GPa) = 17.40579 42.16948 29.78763
# Shear Modulus (GPa) = 24.98769 33.09483 29.04126
#
# Velocity S-wave (km/s) = 3.50625 4.03515 3.77996
# Velocity P-wave (km/s) = 4.99552 6.51591 5.80570
#
# Compressibility (1/GPa) = 0.05745216
#
# Stress axis : x y z
#
# Youngs Moduli (GPa) = 60.51049 44.15606 68.15429
#
# Poissons Ratio (x) = -0.07145 0.01797
# Poissons Ratio (y) = -0.09791 -0.03059
# Poissons Ratio (z) = 0.01595 -0.01982
#
# Static dielectric constant tensor:
#      x y z
#    x 1.700780 -0.044780 -0.027310 
#    y -0.044780 1.701230 0.020820 
#    z -0.027310 0.020820 1.902510 
# 
# From -- ./inp_files/206499.got.cif
#   From: 2010.05.17/outbox.cif.g08.bks.cpg/sg2_104_cif.got.tgz:206499.got - 2010.06.03 11:33:40.
