data_PCOD9055617
_publ_section_title
;
Structure prediction by ZEFSAII (Michael W. Deem and Ramdas Pophale) SiO2 
 PCOD9055617
Probable space group: P -1
;
_chemical_formula_sum "Si O2"
_cell_formula_units_Z 12
_cell_length_a 15.969724
_cell_length_b 12.200464
_cell_length_c 9.040232
_cell_angle_alpha 88.454726
_cell_angle_beta 72.036755
_cell_angle_gamma 153.199050
_cell_volume 536.036620
_symmetry_space_group_name_H-M "P -1"
_symmetry_group_IT_number 2
_symmetry_cell_setting 'triclinic'
loop_
_space_group_symop_operation_xyz
x,y,z
-x,-y,-z
loop_
_atom_site_type_symbol
_atom_site_label
_atom_site_fract_x
_atom_site_fract_y
_atom_site_fract_z
Si Si1 0.796138 0.410027 0.358381
Si Si2 0.258425 0.261347 0.238250
Si Si3 0.198658 0.146731 0.603953
Si Si4 0.760370 0.239823 0.910363
Si Si5 0.955823 0.226084 0.103230
Si Si6 0.585799 0.337631 0.690342
O O1 0.778018 0.484180 0.487088
O O2 0.012501 0.573196 0.293103
O O3 0.500000 0.000000 0.500000
O O4 0.905345 0.597284 0.140603
O O5 0.238512 0.168864 0.405299
O O6 0.321777 0.460671 0.251243
O O7 0.500000 0.500000 0.000000
O O8 0.975187 0.944336 0.312534
O O9 0.500000 0.500000 0.500000
O O10 0.008596 0.841194 0.816609
O O11 0.938068 0.543123 0.877838
O O12 0.500000 0.000000 0.000000
O O13 0.613146 0.983170 0.109753
O O14 0.627839 0.850395 0.288500
#
# Coordination Sequence:
#
# PCOD9055617 Si02
#       6
#     2   2   2   2   2   2
#     4  11  21  42  72 101 140 192 228 284 359 425
#     4  11  27  50  75 103 143 189 246 301 356 419
#     4  11  25  48  74 105 141 189 245 297 355 425
#     4  11  23  39  66 104 146 179 235 291 355 426
#     4  11  22  42  71 105 142 183 237 288 354 430
#     4  11  22  45  70 101 142 186 237 291 355 428
#
# _framework density 22.386527999999998
#
# number of rings (size 3 to 8) (size 9 to 14) (size 15 to 20)
#    0.000    1.000    5.000    2.000    0.000    8.000 
#    0.000    0.000    0.000    0.000    0.000    0.000 
#    0.000    0.000    0.000    0.000    0.000    0.000 
#
# Total GULP energy -66830.031378 kJ/mol
# GULP energy per Si atom -5569.169281 kJ/mol
# Density = 2.233557 g / cm^3
# Si number density = 22.386528 Si / 1000 Ang^3
#
#
#
# Elastic Constant Matrix: (Units=GPa)
#
#
# Indices 1 2 3 4 5 6 
#
# 1 137.5797 56.2386 62.3214 -2.4075 -4.0157 8.0363
# 2 56.2386 118.8733 42.2008 -9.7765 -21.8599 4.3757
# 3 62.3214 42.2008 149.6640 -3.0812 -29.2879 1.5364
# 4 -2.4075 -9.7765 -3.0812 22.6699 -5.9624 -5.2281
# 5 -4.0157 -21.8599 -29.2879 -5.9624 55.9173 -8.7095
# 6 8.0363 4.3757 1.5364 -5.2281 -8.7095 44.1685
#
#
#
# Elastic Compliance Matrix: (Units=1/GPa)
#
#
# Indices 1 2 3 4 5 6 
#
# 1 0.010973 -0.004610 -0.004057 -0.002964 -0.003846 -0.002508
# 2 -0.004610 0.012142 -0.000388 0.006364 0.005111 0.001410
# 3 -0.004057 -0.000388 0.009503 0.002425 0.005063 0.001731
# 4 -0.002964 0.006364 0.002425 0.051398 0.010261 0.007932
# 5 -0.003846 0.005111 0.005063 0.010261 0.024289 0.006021
# 6 -0.002508 0.001410 0.001731 0.007932 0.006021 0.025023
#
#
# Mechanical properties :
#
#
# Convention : Reuss Voigt Hill
#
# Bulk Modulus (GPa) = 68.92082 80.84872 74.88477
# Shear Modulus (GPa) = 31.99502 40.90821 36.45161
#
# Velocity S-wave (km/s) = 3.78459 4.27940 4.03958
# Velocity P-wave (km/s) = 7.06761 7.78530 7.43512
#
# Compressibility (1/GPa) = 0.01450940
#
# Stress axis : x y z
#
# Youngs Moduli (GPa) = 91.13206 82.35903 105.22617
#
# Poissons Ratio (x) = 0.37964 0.42694
# Poissons Ratio (y) = 0.42008 0.04078
# Poissons Ratio (z) = 0.36976 0.03192
#
# Static dielectric constant tensor:
#      x y z
#    x 1.234850 4.163620 -2.525550 
#    y 4.163620 -26.329840 17.668290 
#    z -2.525550 17.668290 -9.275740 
# 
# From -- ./inp_files/305241.got.cif
#   From: 2010.05.17/outbox.cif.g08.bks.cpg/sg2_153_cif.got.tgz:305241.got - 2010.06.03 11:33:40.
