data_PCOD9055489
_publ_section_title
;
Structure prediction by ZEFSAII (Michael W. Deem and Ramdas Pophale) SiO2 
 PCOD9055489
Probable space group: P -1
;
_chemical_formula_sum "Si O2"
_cell_formula_units_Z 16
_cell_length_a 12.282256
_cell_length_b 17.790144
_cell_length_c 8.722547
_cell_angle_alpha 41.023104
_cell_angle_beta 37.010229
_cell_angle_gamma 41.898224
_cell_volume 702.796426
_symmetry_space_group_name_H-M "P -1"
_symmetry_group_IT_number 2
_symmetry_cell_setting 'triclinic'
loop_
_space_group_symop_operation_xyz
x,y,z
-x,-y,-z
loop_
_atom_site_type_symbol
_atom_site_label
_atom_site_fract_x
_atom_site_fract_y
_atom_site_fract_z
Si Si1 0.436101 0.345490 0.213028
Si Si2 0.034828 0.856240 0.764111
Si Si3 0.299600 0.500000 0.662659
Si Si4 0.183469 0.316352 0.292180
Si Si5 0.181876 0.619367 0.176553
Si Si6 0.659538 0.052407 0.805600
Si Si7 0.634786 0.708881 0.293564
Si Si8 0.022741 0.244638 0.317005
O O1 0.372539 0.284310 0.234659
O O2 0.283627 0.486498 0.186737
O O3 0.417289 0.274692 0.496582
O O4 0.648961 0.351728 0.966582
O O5 0.192404 0.919493 0.523487
O O6 0.053063 0.834189 0.591925
O O7 0.099690 0.727915 0.976489
O O8 0.813390 0.948349 0.897492
O O9 0.500000 0.500000 0.500000
O O10 0.347671 0.426994 0.562184
O O11 0.153578 0.636991 0.615399
O O12 0.205521 0.420657 0.993970
O O13 0.148975 0.213208 0.380302
O O14 0.999030 0.370688 0.527728
O O15 0.523392 0.191140 0.788298
O O16 0.500000 0.000000 0.000000
O O17 0.837486 0.720682 0.011880
#
# Coordination Sequence:
#
# PCOD9055489 Si02
#       8
#     2   2   2   2   2   2   2   2
#     4  11  23  38  64  95 140 174 207 262 340 400
#     4  11  23  42  71  99 125 172 225 278 320 381
#     4  11  24  38  64  94 139 175 215 266 334 396
#     4  11  24  38  58  94 133 173 203 265 323 400
#     4  11  23  39  63  98 136 170 218 263 336 397
#     4  11  23  42  69  97 126 168 232 284 310 367
#     4  11  21  42  66  99 129 172 223 271 318 390
#     4  11  22  40  65  97 133 170 220 266 331 394
#
# _framework density 22.766193000000001
#
# number of rings (size 3 to 8) (size 9 to 14) (size 15 to 20)
#    0.000    1.000    2.500    5.625    5.250    0.000 
#    0.000    0.000    0.000    9.750    0.000    0.000 
#    0.000    0.000    0.000    0.000    0.000    0.000 
#
# Total GULP energy -89295.834877 kJ/mol
# GULP energy per Si atom -5580.989680 kJ/mol
# Density = 2.271438 g / cm^3
# Si number density = 22.766193 Si / 1000 Ang^3
#
#
#
# Elastic Constant Matrix: (Units=GPa)
#
#
# Indices 1 2 3 4 5 6 
#
# 1 132.6259 24.0646 38.5586 5.0699 -6.3022 -16.4257
# 2 24.0646 109.8970 17.1455 -9.2582 0.8729 -25.4168
# 3 38.5586 17.1455 74.6428 8.0820 -15.9182 -8.4400
# 4 5.0699 -9.2582 8.0820 22.6785 -9.2075 -3.9577
# 5 -6.3022 0.8729 -15.9182 -9.2075 35.9621 10.6918
# 6 -16.4257 -25.4168 -8.4400 -3.9577 10.6918 31.9821
#
#
#
# Elastic Compliance Matrix: (Units=1/GPa)
#
#
# Indices 1 2 3 4 5 6 
#
# 1 0.009368 -0.000546 -0.004574 -0.000717 -0.001631 0.003627
# 2 -0.000546 0.012852 -0.002852 0.007036 -0.003172 0.011112
# 3 -0.004574 -0.002852 0.018055 -0.004212 0.006986 -0.002708
# 4 -0.000717 0.007036 -0.004212 0.053750 0.009328 0.007645
# 5 -0.001631 -0.003172 0.006986 0.009328 0.036848 -0.012679
# 6 0.003627 0.011112 -0.002708 0.007645 -0.012679 0.046431
#
#
# Mechanical properties :
#
#
# Convention : Reuss Voigt Hill
#
# Bulk Modulus (GPa) = 41.10104 52.96701 47.03403
# Shear Modulus (GPa) = 24.83137 33.95100 29.39118
#
# Velocity S-wave (km/s) = 3.30618 3.86591 3.59695
# Velocity P-wave (km/s) = 5.71552 6.57596 6.16078
#
# Compressibility (1/GPa) = 0.02433028
#
# Stress axis : x y z
#
# Youngs Moduli (GPa) = 106.74647 77.80994 55.38717
#
# Poissons Ratio (x) = 0.04251 0.25334
# Poissons Ratio (y) = 0.05832 0.15795
# Poissons Ratio (z) = 0.48826 0.22190
#
# Static dielectric constant tensor:
#      x y z
#    x 2.034840 0.014610 -0.021070 
#    y 0.014610 1.878810 -0.021070 
#    z -0.021070 -0.021070 1.862480 
# 
# From -- ./inp_files/282672.got.cif
#   From: 2010.05.17/outbox.cif.g08.bks.cpg/sg2_142_cif.got.tgz:282672.got - 2010.06.03 11:33:40.
