data_PCOD9055932
_publ_section_title
;
Structure prediction by ZEFSAII (Michael W. Deem and Ramdas Pophale) SiO2 
 PCOD9055932
Probable space group: P -1
;
_chemical_formula_sum "Si O2"
_cell_formula_units_Z 14
_cell_length_a 9.508825
_cell_length_b 14.672734
_cell_length_c 7.694179
_cell_angle_alpha 69.377867
_cell_angle_beta 81.191204
_cell_angle_gamma 36.804692
_cell_volume 585.798163
_symmetry_space_group_name_H-M "P -1"
_symmetry_group_IT_number 2
_symmetry_cell_setting 'triclinic'
loop_
_space_group_symop_operation_xyz
x,y,z
-x,-y,-z
loop_
_atom_site_type_symbol
_atom_site_label
_atom_site_fract_x
_atom_site_fract_y
_atom_site_fract_z
Si Si1 0.353561 0.860639 0.290701
Si Si2 0.556439 0.851529 0.575494
Si Si3 0.983312 0.331458 0.241197
Si Si4 0.879668 0.290740 0.659853
Si Si5 0.770041 0.885568 0.003546
Si Si6 0.133719 0.953105 0.751681
Si Si7 0.541345 0.353093 0.850234
O O1 0.528907 0.825282 0.404309
O O2 0.483676 0.698611 0.284939
O O3 0.269267 0.977228 0.074024
O O4 0.093646 0.977303 0.345161
O O5 0.354100 0.896076 0.673342
O O6 0.820210 0.697699 0.714092
O O7 0.500000 0.000000 0.500000
O O8 0.915832 0.310424 0.445906
O O9 0.720348 0.505772 0.107286
O O10 0.115671 0.201636 0.146987
O O11 0.626528 0.412790 0.725594
O O12 0.971438 0.128867 0.744220
O O13 0.057895 0.246385 0.788064
O O14 0.500000 0.000000 0.000000
O O15 0.267416 0.799369 0.949604
#
# Coordination Sequence:
#
# PCOD9055932 Si02
#       7
#     2   2   2   2   2   2   2
#     4  11  22  43  70  99 133 188 238 285 343 421
#     4  12  23  41  69 102 138 184 243 289 340 426
#     4  12  27  44  67 108 145 179 234 297 352 416
#     4  11  21  46  71  98 142 192 236 279 347 435
#     4  12  23  42  74 102 135 190 240 284 348 425
#     4  11  21  44  72 100 136 183 240 290 343 418
#     4  11  25  44  67 102 146 178 231 298 358 407
#
# _framework density 23.899017000000001
#
# number of rings (size 3 to 8) (size 9 to 14) (size 15 to 20)
#    0.000    0.571    5.714    3.429    0.000    2.857 
#    2.571    0.000    0.000    0.000    0.000    0.000 
#    0.000    0.000    0.000    0.000    0.000    0.000 
#
# Total GULP energy -78020.328169 kJ/mol
# GULP energy per Si atom -5572.880584 kJ/mol
# Density = 2.384462 g / cm^3
# Si number density = 23.899017 Si / 1000 Ang^3
#
#
#
# Elastic Constant Matrix: (Units=GPa)
#
#
# Indices 1 2 3 4 5 6 
#
# 1 132.4283 36.6713 7.7842 5.8507 5.2822 -31.0107
# 2 36.6713 86.1993 5.2672 6.7243 5.1632 -34.0939
# 3 7.7842 5.2672 32.6838 13.7248 -3.8528 4.3733
# 4 5.8507 6.7243 13.7248 20.0148 -10.2870 1.3069
# 5 5.2822 5.1632 -3.8528 -10.2870 50.0352 6.8368
# 6 -31.0107 -34.0939 4.3733 1.3069 6.8368 36.8250
#
#
#
# Elastic Compliance Matrix: (Units=1/GPa)
#
#
# Indices 1 2 3 4 5 6 
#
# 1 0.010273 0.000208 -0.002684 -0.003636 -0.003416 0.009925
# 2 0.000208 0.022034 -0.002973 -0.010969 -0.007893 0.022782
# 3 -0.002684 -0.002973 0.044948 -0.028745 -0.000599 -0.009219
# 4 -0.003636 -0.010969 -0.028745 0.085296 0.019076 -0.016372
# 5 -0.003416 -0.007893 -0.000599 0.019076 0.027201 -0.015840
# 6 0.009925 0.022782 -0.009219 -0.016372 -0.015840 0.061222
#
#
# Mechanical properties :
#
#
# Convention : Reuss Voigt Hill
#
# Bulk Modulus (GPa) = 15.07032 38.97300 27.02166
# Shear Modulus (GPa) = 17.60621 34.81424 26.21022
#
# Velocity S-wave (km/s) = 2.71715 3.82084 3.31525
# Velocity P-wave (km/s) = 4.02037 5.98397 5.09761
#
# Compressibility (1/GPa) = 0.06635559
#
# Stress axis : x y z
#
# Youngs Moduli (GPa) = 97.34692 45.38531 22.24784
#
# Poissons Ratio (x) = -0.00942 0.05971
# Poissons Ratio (y) = -0.02021 0.06614
# Poissons Ratio (z) = 0.26126 0.13493
#
# Static dielectric constant tensor:
#      x y z
#    x 1.981630 -0.086520 -0.049220 
#    y -0.086520 1.996530 0.064140 
#    z -0.049220 0.064140 2.062690 
# 
# From -- ./inp_files/206290.got.cif
#   From: 2010.05.17/outbox.cif.g08.bks.cpg/sg2_104_cif.got.tgz:206290.got - 2010.06.03 11:33:40.
