data_PCOD9055046
_publ_section_title
;
Structure prediction by ZEFSAII (Michael W. Deem and Ramdas Pophale) SiO2 
 PCOD9055046
Probable space group: P -1
;
_chemical_formula_sum "Si O2"
_cell_formula_units_Z 16
_cell_length_a 12.222604
_cell_length_b 12.511217
_cell_length_c 8.411346
_cell_angle_alpha 116.180564
_cell_angle_beta 112.282592
_cell_angle_gamma 112.387091
_cell_volume 802.322053
_symmetry_space_group_name_H-M "P -1"
_symmetry_group_IT_number 2
_symmetry_cell_setting 'triclinic'
loop_
_space_group_symop_operation_xyz
x,y,z
-x,-y,-z
loop_
_atom_site_type_symbol
_atom_site_label
_atom_site_fract_x
_atom_site_fract_y
_atom_site_fract_z
Si Si1 0.636658 0.490869 0.558066
Si Si2 0.006709 0.876578 0.515365
Si Si3 0.302561 0.413269 0.996182
Si Si4 0.577046 0.738703 0.189804
Si Si5 0.911078 0.795823 0.776169
Si Si6 0.486458 0.133093 0.265033
Si Si7 0.655072 0.013516 0.245588
Si Si8 0.217779 0.050828 0.267341
O O1 0.500000 0.500000 0.500000
O O2 0.772214 0.606766 0.579742
O O3 0.562652 0.311572 0.387409
O O4 0.720106 0.562969 0.821207
O O5 0.169386 0.918901 0.593750
O O6 0.861163 0.702185 0.259665
O O7 0.986789 0.866415 0.689745
O O8 0.000000 0.000000 0.500000
O O9 0.372629 0.325941 0.955576
O O10 0.430790 0.585455 0.101521
O O11 0.719469 0.854576 0.469827
O O12 0.545738 0.844122 0.162402
O O13 0.814914 0.853810 0.795788
O O14 0.050773 0.873819 0.033552
O O15 0.616934 0.119076 0.357255
O O16 0.361997 0.069791 0.295290
O O17 0.387073 0.022318 0.986532
#
# Coordination Sequence:
#
# PCOD9055046 Si02
#       8
#     2   2   2   2   2   2   2   2
#     4  12  24  40  66  94 132 170 212 271 316 382
#     4  12  24  42  65  99 132 165 216 270 322 378
#     4  11  24  37  63 101 128 160 215 269 324 376
#     4  11  22  40  64  96 129 164 212 269 323 378
#     4  11  24  37  66  99 127 166 210 274 323 370
#     4  11  24  45  64  94 130 175 222 248 327 391
#     4  11  25  43  68  90 133 179 208 265 316 394
#     4  11  21  40  63  97 127 162 218 261 319 385
#
# _framework density 19.942115999999999
#
# number of rings (size 3 to 8) (size 9 to 14) (size 15 to 20)
#    0.000    0.750    6.250    0.750    8.750    0.500 
#    0.000    2.500    0.000    0.000    0.000    0.000 
#    0.000    0.000    0.000    0.000    0.000    0.000 
#
# Total GULP energy -89311.848070 kJ/mol
# GULP energy per Si atom -5581.990504 kJ/mol
# Density = 1.989673 g / cm^3
# Si number density = 19.942116 Si / 1000 Ang^3
#
#
#
# Elastic Constant Matrix: (Units=GPa)
#
#
# Indices 1 2 3 4 5 6 
#
# 1 125.3072 47.4036 26.6135 15.9224 6.5468 -12.2349
# 2 47.4036 65.5680 3.4974 20.4904 4.4290 0.6631
# 3 26.6135 3.4974 73.4634 5.3183 8.3322 6.3225
# 4 15.9224 20.4904 5.3183 27.9298 3.8133 -1.5415
# 5 6.5468 4.4290 8.3322 3.8133 30.9617 1.6619
# 6 -12.2349 0.6631 6.3225 -1.5415 1.6619 30.6263
#
#
#
# Elastic Compliance Matrix: (Units=1/GPa)
#
#
# Indices 1 2 3 4 5 6 
#
# 1 0.013207 -0.009589 -0.004893 0.000878 -0.000565 0.006568
# 2 -0.009589 0.026830 0.003883 -0.015193 -0.000665 -0.005942
# 3 -0.004893 0.003883 0.016246 -0.003008 -0.003234 -0.005368
# 4 0.000878 -0.015193 -0.003008 0.047686 -0.003284 0.003879
# 5 -0.000565 -0.000665 -0.003234 -0.003284 0.033870 -0.001547
# 6 0.006568 -0.005942 -0.005368 0.003879 -0.001547 0.036792
#
#
# Mechanical properties :
#
#
# Convention : Reuss Voigt Hill
#
# Bulk Modulus (GPa) = 28.50148 46.59640 37.54894
# Shear Modulus (GPa) = 24.09369 30.35851 27.22610
#
# Velocity S-wave (km/s) = 3.47966 3.90594 3.69895
# Velocity P-wave (km/s) = 5.51971 6.61501 6.09203
#
# Compressibility (1/GPa) = 0.03508590
#
# Stress axis : x y z
#
# Youngs Moduli (GPa) = 75.72029 37.27145 61.55207
#
# Poissons Ratio (x) = 0.35741 0.30115
# Poissons Ratio (y) = 0.72612 -0.23903
# Poissons Ratio (z) = 0.37047 -0.14474
#
# Static dielectric constant tensor:
#      x y z
#    x 1.718770 0.023340 -0.003330 
#    y 0.023340 1.736780 -0.026900 
#    z -0.003330 -0.026900 1.742220 
# 
# From -- ./inp_files/257440.got.cif
#   From: 2010.05.17/outbox.cif.g08.bks.cpg/sg2_129_cif.got.tgz:257440.got - 2010.06.03 11:33:40.
