data_PCOD9055607
_publ_section_title
;
Structure prediction by ZEFSAII (Michael W. Deem and Ramdas Pophale) SiO2 
 PCOD9055607
Probable space group: P -1
;
_chemical_formula_sum "Si O2"
_cell_formula_units_Z 16
_cell_length_a 8.836829
_cell_length_b 10.907234
_cell_length_c 16.609248
_cell_angle_alpha 70.029898
_cell_angle_beta 125.318020
_cell_angle_gamma 67.953746
_cell_volume 816.339065
_symmetry_space_group_name_H-M "P -1"
_symmetry_group_IT_number 2
_symmetry_cell_setting 'triclinic'
loop_
_space_group_symop_operation_xyz
x,y,z
-x,-y,-z
loop_
_atom_site_type_symbol
_atom_site_label
_atom_site_fract_x
_atom_site_fract_y
_atom_site_fract_z
Si Si1 0.211493 0.817945 0.200778
Si Si2 0.839842 0.557842 0.183982
Si Si3 0.830142 0.144499 0.638637
Si Si4 0.587910 0.125893 0.890578
Si Si5 0.546739 0.098942 0.133926
Si Si6 0.202064 0.144078 0.330739
Si Si7 0.278234 0.297860 0.172903
Si Si8 0.647764 0.543855 0.700657
O O1 0.293284 0.770281 0.329499
O O2 0.373547 0.841504 0.195069
O O3 0.270383 0.647780 0.216150
O O4 0.877751 0.014273 0.047940
O O5 0.672966 0.676101 0.187176
O O6 0.970137 0.346015 0.263947
O O7 0.100264 0.517998 0.256598
O O8 0.623874 0.703050 0.013011
O O9 0.623825 0.305490 0.471457
O O10 0.866456 0.970795 0.675266
O O11 0.127323 0.057611 0.745485
O O12 0.556230 0.986988 0.910465
O O13 0.477356 0.151312 0.194680
O O14 0.219576 0.209008 0.235603
O O15 0.500000 0.000000 0.500000
O O16 0.390155 0.353564 0.252758
O O17 0.000000 0.500000 0.000000
#
# Coordination Sequence:
#
# PCOD9055607 Si02
#       8
#     2   2   2   2   2   2   2   2
#     4  11  23  42  68  96 134 170 224 272 336 391
#     4  11  21  43  70  92 131 176 217 272 329 392
#     4  12  25  42  66 100 132 178 218 271 340 393
#     4  11  23  42  67 100 129 171 222 286 318 390
#     4  12  23  42  68 101 132 171 226 273 328 394
#     4  11  23  45  67  96 136 176 214 272 338 388
#     4  11  21  42  71  96 127 179 225 269 327 393
#     4  11  23  43  67  94 134 176 216 272 339 392
#
# _framework density 19.599699000000001
#
# number of rings (size 3 to 8) (size 9 to 14) (size 15 to 20)
#    0.000    0.750    7.500    2.250    0.000    3.000 
#    2.250    1.250    0.000    0.000    0.000    0.000 
#    0.000    0.000    0.000    0.000    0.000    0.000 
#
# Total GULP energy -89443.524343 kJ/mol
# GULP energy per Si atom -5590.220271 kJ/mol
# Density = 1.955509 g / cm^3
# Si number density = 19.599699 Si / 1000 Ang^3
#
#
#
# Elastic Constant Matrix: (Units=GPa)
#
#
# Indices 1 2 3 4 5 6 
#
# 1 52.4040 16.6306 19.4521 1.6165 1.3424 -8.1730
# 2 16.6306 92.5584 -2.4184 -5.0281 2.4405 -20.1876
# 3 19.4521 -2.4184 85.5359 3.2193 4.5139 -19.0487
# 4 1.6165 -5.0281 3.2193 29.8829 0.7143 -5.2023
# 5 1.3424 2.4405 4.5139 0.7143 20.9791 2.6791
# 6 -8.1730 -20.1876 -19.0487 -5.2023 2.6791 36.0037
#
#
#
# Elastic Compliance Matrix: (Units=1/GPa)
#
#
# Indices 1 2 3 4 5 6 
#
# 1 0.022386 -0.004322 -0.005253 -0.001440 0.000294 -0.000351
# 2 -0.004322 0.014083 0.003561 0.003981 -0.003494 0.009635
# 3 -0.005253 0.003561 0.015279 0.000979 -0.004596 0.009372
# 4 -0.001440 0.003981 0.000979 0.035524 -0.002782 0.007763
# 5 0.000294 -0.003494 -0.004596 -0.002782 0.050219 -0.008463
# 6 -0.000351 0.009635 0.009372 0.007763 -0.008463 0.039807
#
#
# Mechanical properties :
#
#
# Convention : Reuss Voigt Hill
#
# Bulk Modulus (GPa) = 25.17495 33.09187 29.13341
# Shear Modulus (GPa) = 24.68338 30.49540 27.58939
#
# Velocity S-wave (km/s) = 3.55262 3.94878 3.75593
# Velocity P-wave (km/s) = 5.44982 6.14093 5.80567
#
# Compressibility (1/GPa) = 0.03972203
#
# Stress axis : x y z
#
# Youngs Moduli (GPa) = 44.67074 71.00546 65.44963
#
# Poissons Ratio (x) = 0.30688 0.34378
# Poissons Ratio (y) = 0.19307 -0.23309
# Poissons Ratio (z) = 0.23463 -0.25287
#
# Static dielectric constant tensor:
#      x y z
#    x 1.675520 -0.002370 -0.009520 
#    y -0.002370 1.691740 -0.001990 
#    z -0.009520 -0.001990 1.670520 
# 
# From -- ./inp_files/179361.got.cif
#   From: 2010.05.17/outbox.cif.g08.bks.cpg/sg2_90_cif.got.tgz:179361.got - 2010.06.03 11:33:40.
