data_PCOD9055049
_publ_section_title
;
Structure prediction by ZEFSAII (Michael W. Deem and Ramdas Pophale) SiO2 
 PCOD9055049
Probable space group: P -1
;
_chemical_formula_sum "Si O2"
_cell_formula_units_Z 14
_cell_length_a 7.089708
_cell_length_b 9.676159
_cell_length_c 10.231849
_cell_angle_alpha 108.474744
_cell_angle_beta 62.996955
_cell_angle_gamma 119.236935
_cell_volume 541.624521
_symmetry_space_group_name_H-M "P -1"
_symmetry_group_IT_number 2
_symmetry_cell_setting 'triclinic'
loop_
_space_group_symop_operation_xyz
x,y,z
-x,-y,-z
loop_
_atom_site_type_symbol
_atom_site_label
_atom_site_fract_x
_atom_site_fract_y
_atom_site_fract_z
Si Si1 0.677190 0.666455 0.082981
Si Si2 0.498063 0.215403 0.042108
Si Si3 0.992416 0.975582 0.198395
Si Si4 0.634719 0.451651 0.613014
Si Si5 0.786082 0.476823 0.197551
Si Si6 0.854168 0.221146 0.724211
Si Si7 0.123090 0.755412 0.575150
O O1 0.582038 0.652963 0.962218
O O2 0.470580 0.636987 0.242682
O O3 0.815389 0.570671 0.075796
O O4 0.858099 0.850272 0.092235
O O5 0.631046 0.170991 0.871598
O O6 0.262923 0.077234 0.119331
O O7 0.674682 0.295431 0.129569
O O8 0.879054 0.100638 0.295926
O O9 0.985608 0.862676 0.290654
O O10 0.424046 0.497881 0.655905
O O11 0.865759 0.611917 0.608622
O O12 0.704533 0.329140 0.471276
O O13 0.009260 0.586229 0.241072
O O14 0.818963 0.182391 0.572584
#
# Coordination Sequence:
#
# PCOD9055049 Si02
#       7
#     2   2   2   2   2   2   2
#     4   9  20  38  60  86 115 150 195 242 282 339
#     4  12  20  40  60  84 120 157 191 240 282 342
#     4  11  23  39  58  88 121 155 191 232 293 349
#     4   9  20  41  60  89 110 145 205 248 276 339
#     4   9  20  38  60  86 115 150 195 242 282 339
#     4  11  23  39  58  88 121 155 191 232 293 349
#     4  11  21  40  64  84 115 155 190 246 292 335
#
# _framework density 25.848163
#
# number of rings (size 3 to 8) (size 9 to 14) (size 15 to 20)
#    0.857    0.857    2.857    2.143    0.000    1.143 
#    0.000    0.000    6.286    0.000    0.000    0.000 
#    0.000    0.000    0.000    0.000    0.000    0.000 
#
# Total GULP energy -78245.241763 kJ/mol
# GULP energy per Si atom -5588.945840 kJ/mol
# Density = 2.578933 g / cm^3
# Si number density = 25.848163 Si / 1000 Ang^3
#
#
#
# Elastic Constant Matrix: (Units=GPa)
#
#
# Indices 1 2 3 4 5 6 
#
# 1 75.5994 4.8626 13.0983 4.6422 -8.4974 -5.1623
# 2 4.8626 77.0893 37.2744 2.8251 -8.1750 8.9791
# 3 13.0983 37.2744 95.6284 -0.7912 -17.3895 13.5014
# 4 4.6422 2.8251 -0.7912 31.5462 3.4289 1.9037
# 5 -8.4974 -8.1750 -17.3895 3.4289 36.1107 -3.8219
# 6 -5.1623 8.9791 13.5014 1.9037 -3.8219 44.1945
#
#
#
# Elastic Compliance Matrix: (Units=1/GPa)
#
#
# Indices 1 2 3 4 5 6 
#
# 1 0.014212 0.000101 -0.001823 -0.002629 0.003011 0.002570
# 2 0.000101 0.016162 -0.005996 -0.001622 0.000812 -0.001300
# 3 -0.001823 -0.005996 0.014333 0.000833 0.004719 -0.003001
# 4 -0.002629 -0.001622 0.000833 0.032797 -0.003909 -0.001983
# 5 0.003011 0.000812 0.004719 -0.003909 0.031401 0.001629
# 6 0.002570 -0.001300 -0.003001 -0.001983 0.001629 0.024335
#
#
# Mechanical properties :
#
#
# Convention : Reuss Voigt Hill
#
# Bulk Modulus (GPa) = 34.16304 39.86528 37.01416
# Shear Modulus (GPa) = 31.55938 35.24240 33.40089
#
# Velocity S-wave (km/s) = 3.49800 3.69648 3.59861
# Velocity P-wave (km/s) = 5.43693 5.80302 5.62295
#
# Compressibility (1/GPa) = 0.02927140
#
# Stress axis : x y z
#
# Youngs Moduli (GPa) = 70.36137 61.87515 69.77085
#
# Poissons Ratio (x) = -0.00627 0.12721
# Poissons Ratio (y) = -0.00713 0.41832
# Poissons Ratio (z) = 0.12829 0.37098
#
# Static dielectric constant tensor:
#      x y z
#    x 2.115260 -0.099280 -0.033970 
#    y -0.099280 2.086190 0.002150 
#    z -0.033970 0.002150 1.999630 
# 
# From -- ./inp_files/298287.got.cif
#   From: 2010.05.17/outbox.cif.g08.bks.cpg/sg2_150_cif.got.tgz:298287.got - 2010.06.03 11:33:40.
