data_PCOD9055943
_publ_section_title
;
Structure prediction by ZEFSAII (Michael W. Deem and Ramdas Pophale) SiO2 
 PCOD9055943
Probable space group: P -1
;
_chemical_formula_sum "Si O2"
_cell_formula_units_Z 16
_cell_length_a 9.375040
_cell_length_b 18.249080
_cell_length_c 18.293689
_cell_angle_alpha 30.725688
_cell_angle_beta 30.112332
_cell_angle_gamma 43.423200
_cell_volume 800.430745
_symmetry_space_group_name_H-M "P -1"
_symmetry_group_IT_number 2
_symmetry_cell_setting 'triclinic'
loop_
_space_group_symop_operation_xyz
x,y,z
-x,-y,-z
loop_
_atom_site_type_symbol
_atom_site_label
_atom_site_fract_x
_atom_site_fract_y
_atom_site_fract_z
Si Si1 0.191719 0.378840 0.491023
Si Si2 0.057370 0.726894 0.944428
Si Si3 0.832560 0.456081 0.187254
Si Si4 0.340744 0.019839 0.132348
Si Si5 0.650172 0.601428 0.756021
Si Si6 0.621199 0.263247 0.062007
Si Si7 0.173617 0.871320 0.061885
Si Si8 0.966840 0.766481 0.597407
O O1 0.509604 0.424820 0.334110
O O2 0.183791 0.366766 0.418503
O O3 0.000000 0.500000 0.500000
O O4 0.064859 0.232969 0.705763
O O5 0.375075 0.695792 0.801262
O O6 0.119123 0.741102 0.991778
O O7 0.901497 0.866171 0.868996
O O8 0.874632 0.588173 0.112491
O O9 0.919350 0.312764 0.313690
O O10 0.000000 0.500000 0.000000
O O11 0.181861 0.879225 0.362738
O O12 0.580298 0.081460 0.030225
O O13 0.500000 0.000000 0.000000
O O14 0.861381 0.643297 0.692218
O O15 0.557019 0.432118 0.943327
O O16 0.336520 0.174972 0.293580
O O17 0.696967 0.209016 0.995589
O O18 0.000000 0.000000 0.000000
#
# Coordination Sequence:
#
# PCOD9055943 Si02
#       8
#     2   2   2   2   2   2   2   2
#     4  12  24  40  68 100 139 184 228 287 354 398
#     4  11  23  42  72  98 139 181 225 300 338 412
#     4  12  23  42  71 108 137 175 241 292 339 416
#     4  12  28  48  66 102 145 184 237 288 349 421
#     4  11  21  44  72 104 138 176 236 288 349 413
#     4  11  22  44  71 103 139 176 236 290 349 412
#     4  12  27  46  66  96 144 188 227 289 351 420
#     4  11  24  44  73 100 137 187 229 286 354 415
#
# _framework density 19.989236999999999
#
# number of rings (size 3 to 8) (size 9 to 14) (size 15 to 20)
#    0.000    0.500    5.000    3.750    1.750    3.500 
#    0.000    1.875    0.000    0.000    0.000    0.000 
#    0.000    0.000    0.000    0.000    0.000    0.000 
#
# Total GULP energy -89356.305250 kJ/mol
# GULP energy per Si atom -5584.769078 kJ/mol
# Density = 1.994374 g / cm^3
# Si number density = 19.989237 Si / 1000 Ang^3
#
#
#
# Elastic Constant Matrix: (Units=GPa)
#
#
# Indices 1 2 3 4 5 6 
#
# 1 158.7731 68.3164 65.5726 15.1371 12.9353 8.0660
# 2 68.3164 99.4378 54.9652 -4.1742 4.8649 -13.5482
# 3 65.5726 54.9652 177.7002 6.6910 14.5204 2.3468
# 4 15.1371 -4.1742 6.6910 27.8265 -6.0314 8.2048
# 5 12.9353 4.8649 14.5204 -6.0314 31.6528 -1.8043
# 6 8.0660 -13.5482 2.3468 8.2048 -1.8043 43.0078
#
#
#
# Elastic Compliance Matrix: (Units=1/GPa)
#
#
# Indices 1 2 3 4 5 6 
#
# 1 0.011235 -0.007626 -0.001119 -0.006971 -0.004422 -0.003304
# 2 -0.007626 0.018136 -0.003414 0.006618 0.003510 0.006214
# 3 -0.001119 -0.003414 0.007419 -0.002011 -0.002862 -0.001007
# 4 -0.006971 0.006618 -0.002011 0.044962 0.011058 -0.004612
# 5 -0.004422 0.003510 -0.002862 0.011058 0.036366 0.001507
# 6 -0.003304 0.006214 -0.001007 -0.004612 0.001507 0.026827
#
#
# Mechanical properties :
#
#
# Convention : Reuss Voigt Hill
#
# Bulk Modulus (GPa) = 80.18469 90.40215 85.29342
# Shear Modulus (GPa) = 28.83179 36.96789 32.89984
#
# Velocity S-wave (km/s) = 3.80197 4.30512 4.06134
# Velocity P-wave (km/s) = 7.71196 8.36873 8.04705
#
# Compressibility (1/GPa) = 0.01247121
#
# Stress axis : x y z
#
# Youngs Moduli (GPa) = 89.01040 55.14022 134.78507
#
# Poissons Ratio (x) = 0.42051 0.15087
# Poissons Ratio (y) = 0.67881 0.46010
# Poissons Ratio (z) = 0.09963 0.18823
#
# Static dielectric constant tensor:
#      x y z
#    x 1.720960 0.008800 -0.006250 
#    y 0.008800 1.725860 -0.020660 
#    z -0.006250 -0.020660 1.675350 
# 
# From -- ./inp_files/336647.got.cif
#   From: 2010.05.17/outbox.cif.g08.bks.cpg/sg2_169_cif.got.tgz:336647.got - 2010.06.03 11:33:40.
