data_PCOD9055314
_publ_section_title
;
Structure prediction by ZEFSAII (Michael W. Deem and Ramdas Pophale) SiO2 
 PCOD9055314
Probable space group: P -1
;
_chemical_formula_sum "Si O2"
_cell_formula_units_Z 16
_cell_length_a 11.906880
_cell_length_b 9.667779
_cell_length_c 16.830244
_cell_angle_alpha 62.819403
_cell_angle_beta 52.839704
_cell_angle_gamma 107.845409
_cell_volume 783.232134
_symmetry_space_group_name_H-M "P -1"
_symmetry_group_IT_number 2
_symmetry_cell_setting 'triclinic'
loop_
_space_group_symop_operation_xyz
x,y,z
-x,-y,-z
loop_
_atom_site_type_symbol
_atom_site_label
_atom_site_fract_x
_atom_site_fract_y
_atom_site_fract_z
Si Si1 0.737912 0.882270 0.859581
Si Si2 0.054516 0.991158 0.567065
Si Si3 0.987373 0.322028 0.771831
Si Si4 0.793671 0.939484 0.083702
Si Si5 0.767460 0.430436 0.890329
Si Si6 0.990957 0.650210 0.912285
Si Si7 0.458681 0.271756 0.587438
Si Si8 0.589919 0.531771 0.153148
O O1 0.939692 0.002536 0.679238
O O2 0.521193 0.785833 0.936391
O O3 0.607744 0.620425 0.032707
O O4 0.879547 0.112131 0.804775
O O5 0.917917 0.709170 0.716989
O O6 0.347217 0.235150 0.371333
O O7 0.000000 0.000000 0.500000
O O8 0.282012 0.579857 0.572405
O O9 0.845495 0.355440 0.822966
O O10 0.925985 0.201429 0.916976
O O11 0.636025 0.834029 0.254937
O O12 0.627225 0.712534 0.146519
O O13 0.000000 0.000000 0.000000
O O14 0.864563 0.499772 0.920820
O O15 0.245034 0.983242 0.705871
O O16 0.000000 0.500000 0.000000
O O17 0.811085 0.610159 0.042939
O O18 0.500000 0.500000 0.500000
#
# Coordination Sequence:
#
# PCOD9055314 Si02
#       8
#     2   2   2   2   2   2   2   2
#     4  11  23  51  71  99 137 186 237 291 354 426
#     4  12  24  42  73 102 134 182 234 286 349 426
#     4  11  26  44  71 102 140 186 233 299 356 417
#     4  11  21  41  67  95 134 182 235 280 337 416
#     4  12  26  45  70 103 145 181 233 300 360 414
#     4  12  27  44  69 104 151 190 226 299 366 418
#     4  12  24  44  69 102 140 191 246 279 345 437
#     4  11  23  42  70  99 132 183 236 282 346 423
#
# _framework density 20.428170999999999
#
# number of rings (size 3 to 8) (size 9 to 14) (size 15 to 20)
#    0.000    0.500    5.000    3.750    3.500    0.500 
#    2.250    0.625    0.000    0.000    0.000    0.000 
#    0.000    0.000    0.000    0.000    0.000    0.000 
#
# Total GULP energy -89306.120811 kJ/mol
# GULP energy per Si atom -5581.632551 kJ/mol
# Density = 2.038168 g / cm^3
# Si number density = 20.428171 Si / 1000 Ang^3
#
#
#
# Elastic Constant Matrix: (Units=GPa)
#
#
# Indices 1 2 3 4 5 6 
#
# 1 99.5731 21.5530 39.4555 -0.6098 3.3735 -8.5764
# 2 21.5530 68.4364 34.4108 10.7372 3.4651 -11.1820
# 3 39.4555 34.4108 142.4912 5.4596 -10.1155 0.3871
# 4 -0.6098 10.7372 5.4596 34.7164 13.7200 -3.2039
# 5 3.3735 3.4651 -10.1155 13.7200 34.5848 10.9309
# 6 -8.5764 -11.1820 0.3871 -3.2039 10.9309 32.0122
#
#
#
# Elastic Compliance Matrix: (Units=1/GPa)
#
#
# Indices 1 2 3 4 5 6 
#
# 1 0.012437 -0.001647 -0.003570 0.003782 -0.005153 0.004938
# 2 -0.001647 0.019243 -0.004403 -0.002907 -0.004273 0.007502
# 3 -0.003570 -0.004403 0.009676 -0.003295 0.006565 -0.005183
# 4 0.003782 -0.002907 -0.003295 0.039187 -0.019997 0.010788
# 5 -0.005153 -0.004273 0.006565 -0.019997 0.046256 -0.020748
# 6 0.004938 0.007502 -0.005183 0.010788 -0.020748 0.043409
#
#
# Mechanical properties :
#
#
# Convention : Reuss Voigt Hill
#
# Bulk Modulus (GPa) = 45.21813 55.70436 50.46125
# Shear Modulus (GPa) = 25.40378 34.60143 30.00261
#
# Velocity S-wave (km/s) = 3.53025 4.12006 3.83650
# Velocity P-wave (km/s) = 6.22897 7.06829 6.66186
#
# Compressibility (1/GPa) = 0.02211502
#
# Stress axis : x y z
#
# Youngs Moduli (GPa) = 80.40421 51.96667 103.34511
#
# Poissons Ratio (x) = 0.08561 0.36896
# Poissons Ratio (y) = 0.13245 0.45506
# Poissons Ratio (z) = 0.28705 0.22882
#
# Static dielectric constant tensor:
#      x y z
#    x 1.707900 0.054980 0.011830 
#    y 0.054980 1.830150 -0.108000 
#    z 0.011830 -0.108000 1.756480 
# 
# From -- ./inp_files/515339.got.cif
#   From: 2010.05.17/outbox.cif.g08.bks.cpg/sg2_258_cif.got.tgz:515339.got - 2010.06.03 11:33:40.
