data_PCOD9055653
_publ_section_title
;
Structure prediction by ZEFSAII (Michael W. Deem and Ramdas Pophale) SiO2 
 PCOD9055653
Probable space group: P -1
;
_chemical_formula_sum "Si O2"
_cell_formula_units_Z 14
_cell_length_a 18.317031
_cell_length_b 12.839784
_cell_length_c 9.436767
_cell_angle_alpha 33.597657
_cell_angle_beta 129.340684
_cell_angle_gamma 148.409765
_cell_volume 621.084696
_symmetry_space_group_name_H-M "P -1"
_symmetry_group_IT_number 2
_symmetry_cell_setting 'triclinic'
loop_
_space_group_symop_operation_xyz
x,y,z
-x,-y,-z
loop_
_atom_site_type_symbol
_atom_site_label
_atom_site_fract_x
_atom_site_fract_y
_atom_site_fract_z
Si Si1 0.035861 0.505711 0.377737
Si Si2 0.668731 0.230327 0.623521
Si Si3 0.277062 0.998980 0.516042
Si Si4 0.951936 0.233708 0.163937
Si Si5 0.272568 0.637697 0.123916
Si Si6 0.472817 0.240518 0.231633
Si Si7 0.644039 0.622288 0.598520
O O1 0.168037 0.566062 0.451550
O O2 0.000000 0.500000 0.500000
O O3 0.888878 0.200845 0.480908
O O4 0.065605 0.735044 0.057855
O O5 0.671917 0.259448 0.763742
O O6 0.603215 0.313017 0.371592
O O7 0.577275 0.916841 0.802774
O O8 0.339188 0.005087 0.442442
O O9 0.350979 0.299671 0.322082
O O10 0.294554 0.864348 0.808945
O O11 0.098660 0.335297 0.251058
O O12 0.796775 0.929376 0.372200
O O13 0.000000 0.500000 0.000000
O O14 0.351847 0.590213 0.192838
O O15 0.500000 0.500000 0.000000
O O16 0.500000 0.500000 0.500000
#
# Coordination Sequence:
#
# PCOD9055653 Si02
#       7
#     2   2   2   2   2   2   2
#     4  11  21  42  74  98 130 190 233 279 351 414
#     4  11  23  44  72  98 135 187 231 284 363 404
#     4  11  24  47  68 104 143 180 231 297 345 420
#     4  11  21  45  73  98 146 184 228 293 352 417
#     4  11  24  44  76 101 139 185 236 289 359 410
#     4  11  27  46  66  98 147 187 233 286 354 426
#     4  12  25  41  71 111 141 178 236 289 348 417
#
# _framework density 22.541208999999998
#
# number of rings (size 3 to 8) (size 9 to 14) (size 15 to 20)
#    0.000    0.857    5.714    1.286    0.000   10.286 
#    0.000    2.143    0.000    0.000    0.000    0.000 
#    0.000    0.000    0.000    0.000    0.000    0.000 
#
# Total GULP energy -78265.831461 kJ/mol
# GULP energy per Si atom -5590.416533 kJ/mol
# Density = 2.248990 g / cm^3
# Si number density = 22.541209 Si / 1000 Ang^3
#
#
#
# Elastic Constant Matrix: (Units=GPa)
#
#
# Indices 1 2 3 4 5 6 
#
# 1 142.3564 68.6998 39.5979 8.4492 30.7056 -5.5395
# 2 68.6998 136.6817 46.8924 12.6127 22.3530 12.7378
# 3 39.5979 46.8924 55.2781 1.6403 14.4529 -10.6788
# 4 8.4492 12.6127 1.6403 19.4399 -1.6242 2.6915
# 5 30.7056 22.3530 14.4529 -1.6242 45.4674 11.0739
# 6 -5.5395 12.7378 -10.6788 2.6915 11.0739 58.1444
#
#
#
# Elastic Compliance Matrix: (Units=1/GPa)
#
#
# Indices 1 2 3 4 5 6 
#
# 1 0.011017 -0.003640 -0.002796 -0.002997 -0.005482 0.002516
# 2 -0.003640 0.013372 -0.009434 -0.005659 -0.000171 -0.004714
# 3 -0.002796 -0.009434 0.030987 0.003128 -0.005244 0.008345
# 4 -0.002997 -0.005659 0.003128 0.057010 0.006417 -0.002332
# 5 -0.005482 -0.000171 -0.005244 0.006417 0.029468 -0.007357
# 6 0.002516 -0.004714 0.008345 -0.002332 -0.007357 0.021513
#
#
# Mechanical properties :
#
#
# Convention : Reuss Voigt Hill
#
# Bulk Modulus (GPa) = 42.30839 71.63294 56.97067
# Shear Modulus (GPa) = 24.63225 36.55209 30.59217
#
# Velocity S-wave (km/s) = 3.30929 4.03124 3.68797
# Velocity P-wave (km/s) = 5.78031 7.31543 6.59270
#
# Compressibility (1/GPa) = 0.02363597
#
# Stress axis : x y z
#
# Youngs Moduli (GPa) = 90.76832 74.78415 32.27161
#
# Poissons Ratio (x) = 0.27218 0.09024
# Poissons Ratio (y) = 0.33035 0.30446
# Poissons Ratio (z) = 0.25381 0.70553
#
# Static dielectric constant tensor:
#      x y z
#    x 1.853130 -0.003750 -0.011250 
#    y -0.003750 1.849660 -0.025500 
#    z -0.011250 -0.025500 1.905400 
# 
# From -- ./inp_files/332751.got.cif
#   From: 2010.05.17/outbox.cif.g08.bks.cpg/sg2_167_cif.got.tgz:332751.got - 2010.06.03 11:33:40.
