data_PCOD9055252
_publ_section_title
;
Structure prediction by ZEFSAII (Michael W. Deem and Ramdas Pophale) SiO2 
 PCOD9055252
Probable space group: P -1
;
_chemical_formula_sum "Si O2"
_cell_formula_units_Z 14
_cell_length_a 12.862838
_cell_length_b 15.748810
_cell_length_c 11.985142
_cell_angle_alpha 140.271024
_cell_angle_beta 47.769652
_cell_angle_gamma 151.716916
_cell_volume 735.179395
_symmetry_space_group_name_H-M "P -1"
_symmetry_group_IT_number 2
_symmetry_cell_setting 'triclinic'
loop_
_space_group_symop_operation_xyz
x,y,z
-x,-y,-z
loop_
_atom_site_type_symbol
_atom_site_label
_atom_site_fract_x
_atom_site_fract_y
_atom_site_fract_z
Si Si1 0.399470 0.050162 0.555479
Si Si2 0.923169 0.252895 0.711682
Si Si3 0.256906 0.273250 0.408537
Si Si4 0.773972 0.325674 0.199138
Si Si5 0.270914 0.976437 0.145827
Si Si6 0.021301 0.135351 0.207118
Si Si7 0.813268 0.464604 0.559234
O O1 0.596281 0.282684 0.603241
O O2 0.500000 0.000000 0.500000
O O3 0.276645 0.903208 0.387769
O O4 0.214228 0.996336 0.702287
O O5 0.829414 0.159931 0.807479
O O6 0.089696 0.253114 0.567098
O O7 0.051731 0.479578 0.812739
O O8 0.500000 0.500000 0.500000
O O9 0.195244 0.236569 0.284527
O O10 0.211822 0.087246 0.285587
O O11 0.777736 0.406384 0.394846
O O12 0.534216 0.168219 0.159355
O O13 0.802311 0.187746 0.057457
O O14 0.103942 0.326430 0.278486
O O15 0.000000 0.000000 0.000000
O O16 0.000000 0.500000 0.500000
#
# Coordination Sequence:
#
# PCOD9055252 Si02
#       7
#     2   2   2   2   2   2   2
#     4  11  22  41  69  94 125 177 218 263 336 396
#     4  11  21  41  64  92 127 167 220 265 320 392
#     4  11  22  43  65  91 133 174 209 260 335 386
#     4  11  22  40  61  97 124 163 214 269 310 383
#     4  11  23  37  64  92 129 163 214 263 319 379
#     4  11  26  45  67 101 134 166 225 279 318 398
#     4  12  22  42  71  88 129 175 213 265 337 385
#
# _framework density 19.042971000000001
#
# number of rings (size 3 to 8) (size 9 to 14) (size 15 to 20)
#    0.000    0.857    7.143    0.857    2.000    0.571 
#    0.000    1.429    0.000    0.000    0.000    0.000 
#    0.000    0.000    0.000    0.000    0.000    0.000 
#
# Total GULP energy -78159.643798 kJ/mol
# GULP energy per Si atom -5582.831700 kJ/mol
# Density = 1.899963 g / cm^3
# Si number density = 19.042971 Si / 1000 Ang^3
#
#
#
# Elastic Constant Matrix: (Units=GPa)
#
#
# Indices 1 2 3 4 5 6 
#
# 1 95.0263 45.4925 42.1462 13.6149 -12.5753 -0.6517
# 2 45.4925 150.0878 41.5420 24.5153 -6.5312 -15.8559
# 3 42.1462 41.5420 126.4659 27.3840 -14.0639 -9.7749
# 4 13.6149 24.5153 27.3840 28.1798 -14.2018 -4.9382
# 5 -12.5753 -6.5312 -14.0639 -14.2018 23.3162 6.1198
# 6 -0.6517 -15.8559 -9.7749 -4.9382 6.1198 32.4878
#
#
#
# Elastic Compliance Matrix: (Units=1/GPa)
#
#
# Indices 1 2 3 4 5 6 
#
# 1 0.014561 -0.003960 -0.003677 0.003040 0.007340 -0.003668
# 2 -0.003960 0.009496 -0.000339 -0.008185 -0.005795 0.004301
# 3 -0.003677 -0.000339 0.011236 -0.009224 -0.001447 0.002012
# 4 0.003040 -0.008185 -0.009224 0.067576 0.035777 -0.003177
# 5 0.007340 -0.005795 -0.001447 0.035777 0.068942 -0.010665
# 6 -0.003668 0.004301 0.002012 -0.003177 -0.010665 0.034938
#
#
# Mechanical properties :
#
#
# Convention : Reuss Voigt Hill
#
# Bulk Modulus (GPa) = 51.70741 69.99349 60.85045
# Shear Modulus (GPa) = 21.81990 32.95672 27.38831
#
# Velocity S-wave (km/s) = 3.38868 4.16462 3.79652
# Velocity P-wave (km/s) = 6.52095 7.74343 7.15834
#
# Compressibility (1/GPa) = 0.01933959
#
# Stress axis : x y z
#
# Youngs Moduli (GPa) = 68.67701 105.30553 88.99989
#
# Poissons Ratio (x) = 0.41705 0.32727
# Poissons Ratio (y) = 0.27199 0.03019
# Poissons Ratio (z) = 0.25254 0.03572
#
# Static dielectric constant tensor:
#      x y z
#    x 4.875170 0.341510 -1.370970 
#    y 0.341510 1.677880 -0.137870 
#    z -1.370970 -0.137870 2.248590 
# 
# From -- ./inp_files/179754.got.cif
#   From: 2010.05.17/outbox.cif.g08.bks.cpg/sg2_90_cif.got.tgz:179754.got - 2010.06.03 11:33:40.
