data_PCOD9055479
_publ_section_title
;
Structure prediction by ZEFSAII (Michael W. Deem and Ramdas Pophale) SiO2 
 PCOD9055479
Probable space group: P -1
;
_chemical_formula_sum "Si O2"
_cell_formula_units_Z 16
_cell_length_a 15.252109
_cell_length_b 15.783121
_cell_length_c 8.279978
_cell_angle_alpha 122.255045
_cell_angle_beta 83.050830
_cell_angle_gamma 144.514940
_cell_volume 752.846529
_symmetry_space_group_name_H-M "P -1"
_symmetry_group_IT_number 2
_symmetry_cell_setting 'triclinic'
loop_
_space_group_symop_operation_xyz
x,y,z
-x,-y,-z
loop_
_atom_site_type_symbol
_atom_site_label
_atom_site_fract_x
_atom_site_fract_y
_atom_site_fract_z
Si Si1 0.947536 0.571015 0.927701
Si Si2 0.758572 0.466780 0.184614
Si Si3 0.030270 0.152666 0.295841
Si Si4 0.018197 0.587021 0.428344
Si Si5 0.012416 0.943284 0.282978
Si Si6 0.305464 0.063396 0.427877
Si Si7 0.682120 0.929898 0.180016
Si Si8 0.751448 0.539628 0.746776
O O1 0.866778 0.554799 0.779421
O O2 0.935038 0.442206 0.757684
O O3 0.817521 0.475564 0.011040
O O4 0.170506 0.831970 0.175789
O O5 0.896339 0.702730 0.424627
O O6 0.822709 0.450868 0.288369
O O7 0.535815 0.275989 0.045447
O O8 0.050337 0.058430 0.244916
O O9 0.163852 0.324417 0.294160
O O10 0.805534 0.959207 0.120800
O O11 0.000000 0.500000 0.500000
O O12 0.188020 0.841729 0.662171
O O13 0.182588 0.034599 0.364119
O O14 0.000000 0.000000 0.500000
O O15 0.814952 0.681348 0.019250
O O16 0.522274 0.285800 0.533672
O O17 0.327515 0.087394 0.641030
#
# Coordination Sequence:
#
# PCOD9055479 Si02
#       8
#     2   2   2   2   2   2   2   2
#     4  11  21  42  66  92 128 167 214 260 310 382
#     4  11  23  40  68  93 123 170 217 254 313 386
#     4  11  23  44  63  96 134 164 208 271 317 364
#     4  11  25  42  63  96 133 162 207 269 319 368
#     4  11  23  42  67  93 129 171 216 255 310 383
#     4  11  23  41  66  96 124 169 218 257 312 376
#     4  11  23  42  67  92 126 171 214 255 317 377
#     4  11  25  40  66  96 130 163 210 268 320 365
#
# _framework density 21.252670999999999
#
# number of rings (size 3 to 8) (size 9 to 14) (size 15 to 20)
#    0.000    1.000    5.000    3.000    0.000    7.000 
#    0.000    0.000    0.000    0.000    0.000    0.000 
#    0.000    0.000    0.000    0.000    0.000    0.000 
#
# Total GULP energy -89499.760346 kJ/mol
# GULP energy per Si atom -5593.735022 kJ/mol
# Density = 2.120430 g / cm^3
# Si number density = 21.252671 Si / 1000 Ang^3
#
#
#
# Elastic Constant Matrix: (Units=GPa)
#
#
# Indices 1 2 3 4 5 6 
#
# 1 94.2034 22.7437 38.5397 15.7889 15.8592 -21.0835
# 2 22.7437 93.0707 7.2618 4.3849 29.2166 -9.3605
# 3 38.5397 7.2618 59.5090 13.3053 21.6724 12.3376
# 4 15.7889 4.3849 13.3053 29.6657 12.2194 6.7850
# 5 15.8592 29.2166 21.6724 12.2194 42.6720 -0.7705
# 6 -21.0835 -9.3605 12.3376 6.7850 -0.7705 42.1988
#
#
#
# Elastic Compliance Matrix: (Units=1/GPa)
#
#
# Indices 1 2 3 4 5 6 
#
# 1 0.024381 -0.004296 -0.019322 -0.010915 0.007158 0.018763
# 2 -0.004296 0.014938 0.004837 0.003064 -0.011982 -0.000959
# 3 -0.019322 0.004837 0.038358 0.004199 -0.017190 -0.020785
# 4 -0.010915 0.003064 0.004199 0.045884 -0.013559 -0.013627
# 5 0.007158 -0.011982 -0.017190 -0.013559 0.041752 0.008887
# 6 0.018763 -0.000959 -0.020785 -0.013627 0.008887 0.041289
#
#
# Mechanical properties :
#
#
# Convention : Reuss Voigt Hill
#
# Bulk Modulus (GPa) = 24.92891 42.65261 33.79076
# Shear Modulus (GPa) = 19.41478 34.78984 27.10231
#
# Velocity S-wave (km/s) = 3.02573 4.05033 3.57493
# Velocity P-wave (km/s) = 4.89510 6.47969 5.74232
#
# Compressibility (1/GPa) = 0.04011407
#
# Stress axis : x y z
#
# Youngs Moduli (GPa) = 41.01510 66.94519 26.07011
#
# Poissons Ratio (x) = 0.28760 0.50373
# Poissons Ratio (y) = 0.17621 -0.12610
# Poissons Ratio (z) = 0.79250 -0.32381
#
# Static dielectric constant tensor:
#      x y z
#    x 1.751050 -0.002000 -0.011640 
#    y -0.002000 1.793590 -0.073500 
#    z -0.011640 -0.073500 1.791070 
# 
# From -- ./inp_files/215081.got.cif
#   From: 2010.05.17/outbox.cif.g08.bks.cpg/sg2_108_cif.got.tgz:215081.got - 2010.06.03 11:33:40.
