data_PCOD9055993
_publ_section_title
;
Structure prediction by ZEFSAII (Michael W. Deem and Ramdas Pophale) SiO2 
 PCOD9055993
Probable space group: P -1
;
_chemical_formula_sum "Si O2"
_cell_formula_units_Z 15
_cell_length_a 9.139540
_cell_length_b 7.283014
_cell_length_c 14.623429
_cell_angle_alpha 102.621224
_cell_angle_beta 130.745363
_cell_angle_gamma 106.680201
_cell_volume 585.637790
_symmetry_space_group_name_H-M "P -1"
_symmetry_group_IT_number 2
_symmetry_cell_setting 'triclinic'
loop_
_space_group_symop_operation_xyz
x,y,z
-x,-y,-z
loop_
_atom_site_type_symbol
_atom_site_label
_atom_site_fract_x
_atom_site_fract_y
_atom_site_fract_z
Si Si1 0.449335 0.778469 0.545065
Si Si2 0.476915 0.681092 0.195382
Si Si3 0.000000 0.000000 0.000000
Si Si4 0.066236 0.405327 0.741655
Si Si5 0.165572 0.014494 0.755279
Si Si6 0.577368 0.761520 0.931817
Si Si7 0.349207 0.360072 0.548313
Si Si8 0.127500 0.733805 0.160543
O O1 0.180321 0.694980 0.420926
O O2 0.472340 0.630137 0.614841
O O3 0.518020 0.708110 0.472413
O O4 0.640670 0.045555 0.670351
O O5 0.633159 0.916535 0.228884
O O6 0.429268 0.471460 0.091499
O O7 0.627985 0.694850 0.345324
O O8 0.238083 0.633618 0.132010
O O9 0.028472 0.853183 0.075468
O O10 0.733155 0.901556 0.922890
O O11 0.026813 0.434079 0.835878
O O12 0.100722 0.199026 0.733252
O O13 0.294339 0.637176 0.815455
O O14 0.280887 0.069664 0.907343
O O15 0.918510 0.772853 0.611428
#
# Coordination Sequence:
#
# PCOD9055993 Si02
#       8
#     2   2   1   2   2   2   2   2
#     4  11  23  41  71 107 143 186 232 296 359 407
#     4  11  24  42  73 106 135 184 249 283 347 421
#     4  12  26  46  70  98 146 178 236 286 356 414
#     4  11  21  44  75  96 140 190 234 277 358 422
#     4  11  23  46  69  99 146 192 232 286 356 422
#     4  11  26  49  70 103 143 193 226 296 356 424
#     4  11  22  41  69 106 142 183 238 295 348 411
#     4  12  24  45  72 107 142 187 234 297 348 421
#
# _framework density 25.613099999999999
#
# number of rings (size 3 to 8) (size 9 to 14) (size 15 to 20)
#    0.000    0.800    4.000    4.000    0.000    3.733 
#    0.000    5.333    0.000    0.000    0.000    0.000 
#    0.000    0.000    0.000    0.000    0.000    0.000 
#
# Total GULP energy -83802.059519 kJ/mol
# GULP energy per Si atom -5586.803968 kJ/mol
# Density = 2.555480 g / cm^3
# Si number density = 25.613100 Si / 1000 Ang^3
#
#
#
# Elastic Constant Matrix: (Units=GPa)
#
#
# Indices 1 2 3 4 5 6 
#
# 1 120.2210 30.7368 36.7401 8.2350 24.3440 31.6865
# 2 30.7368 81.2863 23.7926 11.9174 1.9674 30.2246
# 3 36.7401 23.7926 124.2148 1.6564 16.3238 10.8068
# 4 8.2350 11.9174 1.6564 33.4466 10.6226 10.3192
# 5 24.3440 1.9674 16.3238 10.6226 43.6888 7.2275
# 6 31.6865 30.2246 10.8068 10.3192 7.2275 52.6163
#
#
#
# Elastic Compliance Matrix: (Units=1/GPa)
#
#
# Indices 1 2 3 4 5 6 
#
# 1 0.011727 -0.002034 -0.001983 0.001112 -0.005146 -0.004998
# 2 -0.002034 0.017232 -0.002433 -0.004243 0.003594 -0.007836
# 3 -0.001983 -0.002433 0.009385 0.001547 -0.002791 0.000744
# 4 0.001112 -0.004243 0.001547 0.035179 -0.008860 -0.004233
# 5 -0.005146 0.003594 -0.002791 -0.008860 0.028895 -0.000624
# 6 -0.004998 -0.007836 0.000744 -0.004233 -0.000624 0.027279
#
#
# Mechanical properties :
#
#
# Convention : Reuss Voigt Hill
#
# Bulk Modulus (GPa) = 39.30271 56.47348 47.88809
# Shear Modulus (GPa) = 33.09536 41.58053 37.33794
#
# Velocity S-wave (km/s) = 3.59852 4.03353 3.82221
# Velocity P-wave (km/s) = 5.71348 6.61732 6.18194
#
# Compressibility (1/GPa) = 0.02544354
#
# Stress axis : x y z
#
# Youngs Moduli (GPa) = 85.27286 58.03129 106.55829
#
# Poissons Ratio (x) = 0.11804 0.21128
# Poissons Ratio (y) = 0.17346 0.25927
# Poissons Ratio (z) = 0.16908 0.14120
#
# Static dielectric constant tensor:
#      x y z
#    x 2.058620 -0.011200 0.022470 
#    y -0.011200 1.960880 0.005150 
#    z 0.022470 0.005150 2.078750 
# 
# From -- ./inp_files/495312.got.cif
#   From: 2010.05.17/outbox.cif.g08.bks.cpg/sg2_248_cif.got.tgz:495312.got - 2010.06.03 11:33:40.
