data_PCOD9055366
_publ_section_title
;
Structure prediction by ZEFSAII (Michael W. Deem and Ramdas Pophale) SiO2 
 PCOD9055366
Probable space group: P -1
;
_chemical_formula_sum "Si O2"
_cell_formula_units_Z 14
_cell_length_a 12.344855
_cell_length_b 13.272359
_cell_length_c 7.423362
_cell_angle_alpha 43.851438
_cell_angle_beta 46.390879
_cell_angle_gamma 44.350309
_cell_volume 549.673322
_symmetry_space_group_name_H-M "P -1"
_symmetry_group_IT_number 2
_symmetry_cell_setting 'triclinic'
loop_
_space_group_symop_operation_xyz
x,y,z
-x,-y,-z
loop_
_atom_site_type_symbol
_atom_site_label
_atom_site_fract_x
_atom_site_fract_y
_atom_site_fract_z
Si Si1 0.322199 0.004717 0.639880
Si Si2 0.241209 0.508808 0.551162
Si Si3 0.987001 0.847692 0.937056
Si Si4 0.638044 0.253017 0.808002
Si Si5 0.178225 0.492241 0.259378
Si Si6 0.999170 0.845425 0.522945
Si Si7 0.316471 0.252896 0.078578
O O1 0.286882 0.096993 0.365960
O O2 0.500000 0.000000 0.500000
O O3 0.167548 0.118232 0.796896
O O4 0.342949 0.829176 0.909117
O O5 0.380383 0.565896 0.382457
O O6 0.278273 0.449505 0.383363
O O7 0.067522 0.676069 0.552009
O O8 0.229959 0.370505 0.862168
O O9 0.927785 0.845869 0.801010
O O10 0.054737 0.981457 0.731461
O O11 0.136200 0.673135 0.018992
O O12 0.814985 0.170924 0.614841
O O13 0.509525 0.211901 0.897533
O O14 0.262926 0.367803 0.166013
O O15 0.000000 0.500000 0.500000
#
# Coordination Sequence:
#
# PCOD9055366 Si02
#       7
#     2   2   2   2   2   2   2
#     4   9  18  34  61  86 113 157 192 235 299 350
#     4  10  22  37  58  89 117 157 202 235 295 348
#     4  10  17  36  57  84 117 153 192 244 285 348
#     4   8  18  38  62  86 114 155 199 237 294 350
#     4  12  24  36  56  86 122 159 195 242 299 345
#     4   8  18  35  60  86 111 151 200 238 287 344
#     4  11  20  38  62  88 123 151 188 250 297 349
#
# _framework density 25.469671000000002
#
# number of rings (size 3 to 8) (size 9 to 14) (size 15 to 20)
#    0.857    1.429    2.857    0.429    0.000    1.714 
#    0.000    0.000    3.143    7.714    0.000    0.000 
#    0.000    0.000    0.000    0.000    0.000    0.000 
#
# Total GULP energy -78090.579808 kJ/mol
# GULP energy per Si atom -5577.898558 kJ/mol
# Density = 2.541170 g / cm^3
# Si number density = 25.469671 Si / 1000 Ang^3
#
#
#
# Elastic Constant Matrix: (Units=GPa)
#
#
# Indices 1 2 3 4 5 6 
#
# 1 4.0527 24.3987 6.3017 -16.7559 -20.5695 35.0727
# 2 24.3987 59.7511 27.0197 -15.3867 -0.6290 3.7415
# 3 6.3017 27.0197 142.4112 -34.3529 4.0425 22.3312
# 4 -16.7559 -15.3867 -34.3529 42.1261 2.2703 1.5572
# 5 -20.5695 -0.6290 4.0425 2.2703 47.6379 -2.3639
# 6 35.0727 3.7415 22.3312 1.5572 -2.3639 15.8510
#
#
#
# Elastic Compliance Matrix: (Units=1/GPa)
#
#
# Indices 1 2 3 4 5 6 
#
# 1 -0.007409 0.002086 -0.005763 -0.007735 -0.001092 0.024616
# 2 0.002086 0.018592 -0.000329 0.007675 0.000350 -0.009244
# 3 -0.005763 -0.000329 0.008670 0.004860 -0.003479 -0.000382
# 4 -0.007735 0.007675 0.004860 0.027495 -0.004711 0.005054
# 5 -0.001092 0.000350 -0.003479 -0.004711 0.021586 0.010917
# 6 0.024616 -0.009244 -0.000382 0.005054 0.010917 0.012472
#
#
# Mechanical properties :
#
#
# Convention : Reuss Voigt Hill
#
# Bulk Modulus (GPa) = 84.43986 35.73948 60.08967
# Shear Modulus (GPa) = 53.55338 31.02265 42.28801
#
# Velocity S-wave (km/s) = 4.59042 3.49381 4.07913
# Velocity P-wave (km/s) = 7.83078 5.50801 6.76976
#
# Compressibility (1/GPa) = 0.01184275
#
# Stress axis : x y z
#
# Youngs Moduli (GPa) = -134.97851 53.78724 115.33755
#
# Poissons Ratio (x) = -0.11222 0.66469
# Poissons Ratio (y) = 0.28162 0.03791
# Poissons Ratio (z) = -0.77788 0.01768
#
# Static dielectric constant tensor:
#      x y z
#    x 2.251010 -0.067040 0.014900 
#    y -0.067040 2.034480 -0.078170 
#    z 0.014900 -0.078170 2.078550 
# 
# From -- ./inp_files/95708.got.cif
#   From: 2010.05.17/outbox.cif.g08.bks.cpg/sg2_48_cif.got.tgz:95708.got - 2010.06.03 11:33:40.
