data_PCOD9055345
_publ_section_title
;
Structure prediction by ZEFSAII (Michael W. Deem and Ramdas Pophale) SiO2 
 PCOD9055345
Probable space group: P -1
;
_chemical_formula_sum "Si O2"
_cell_formula_units_Z 16
_cell_length_a 13.178402
_cell_length_b 8.711860
_cell_length_c 9.717807
_cell_angle_alpha 75.374428
_cell_angle_beta 139.209728
_cell_angle_gamma 93.577956
_cell_volume 690.464059
_symmetry_space_group_name_H-M "P -1"
_symmetry_group_IT_number 2
_symmetry_cell_setting 'triclinic'
loop_
_space_group_symop_operation_xyz
x,y,z
-x,-y,-z
loop_
_atom_site_type_symbol
_atom_site_label
_atom_site_fract_x
_atom_site_fract_y
_atom_site_fract_z
Si Si1 0.085738 0.339363 0.042940
Si Si2 0.828123 0.961962 0.958422
Si Si3 0.893585 0.123629 0.261051
Si Si4 0.360381 0.367457 0.515479
Si Si5 0.096207 0.525585 0.728859
Si Si6 0.532981 0.178367 0.981961
Si Si7 0.382133 0.709981 0.424474
Si Si8 0.609528 0.719856 0.906915
O O1 0.065626 0.160724 0.012327
O O2 0.245041 0.295704 0.311306
O O3 0.079178 0.416512 0.866859
O O4 0.000000 0.500000 0.000000
O O5 0.719586 0.111019 0.733267
O O6 0.713379 0.857963 0.947867
O O7 0.910803 0.046408 0.144708
O O8 0.944762 0.293800 0.296819
O O9 0.708685 0.161228 0.105836
O O10 0.000000 0.000000 0.500000
O O11 0.297582 0.562073 0.409495
O O12 0.531635 0.335342 0.622789
O O13 0.400146 0.285810 0.722391
O O14 0.279801 0.452253 0.901082
O O15 0.000000 0.500000 0.500000
O O16 0.511929 0.238678 0.102586
O O17 0.500000 0.000000 0.000000
O O18 0.516780 0.702462 0.677382
#
# Coordination Sequence:
#
# PCOD9055345 Si02
#       8
#     2   2   2   2   2   2   2   2
#     4  11  26  45  68  99 139 186 236 293 357 425
#     4  11  22  43  72 100 135 186 237 288 358 422
#     4  12  25  45  71 101 144 188 235 288 360 425
#     4  11  23  41  69  96 137 182 230 292 350 415
#     4  11  25  46  71  98 143 194 233 287 362 429
#     4  12  26  42  72 108 142 181 246 297 345 417
#     4  11  21  41  68  97 131 177 233 288 351 418
#     4  11  23  42  68 100 138 182 233 292 353 413
#
# _framework density 23.172823000000001
#
# number of rings (size 3 to 8) (size 9 to 14) (size 15 to 20)
#    0.000    0.750    5.000    3.375    3.500    2.000 
#    2.250    1.250    0.000    0.000    0.000    0.000 
#    0.000    0.000    0.000    0.000    0.000    0.000 
#
# Total GULP energy -89312.713536 kJ/mol
# GULP energy per Si atom -5582.044596 kJ/mol
# Density = 2.312008 g / cm^3
# Si number density = 23.172823 Si / 1000 Ang^3
#
#
#
# Elastic Constant Matrix: (Units=GPa)
#
#
# Indices 1 2 3 4 5 6 
#
# 1 66.9490 12.1463 8.4390 2.4313 -11.8831 -21.2055
# 2 12.1463 174.2452 41.1776 -8.6774 -0.1485 -20.5006
# 3 8.4390 41.1776 133.4696 -1.4951 -6.0158 2.4057
# 4 2.4313 -8.6774 -1.4951 50.4592 -5.5715 -3.1936
# 5 -11.8831 -0.1485 -6.0158 -5.5715 23.3944 -4.3969
# 6 -21.2055 -20.5006 2.4057 -3.1936 -4.3969 39.9771
#
#
#
# Elastic Compliance Matrix: (Units=1/GPa)
#
#
# Indices 1 2 3 4 5 6 
#
# 1 0.021561 0.000400 -0.001104 0.001328 0.013486 0.013297
# 2 0.000400 0.006757 -0.002131 0.001420 0.000789 0.004006
# 3 -0.001104 -0.002131 0.008308 -0.000069 0.001159 -0.002056
# 4 0.001328 0.001420 -0.000069 0.020941 0.006369 0.003810
# 5 0.013486 0.000789 0.001159 0.006369 0.054035 0.013940
# 6 0.013297 0.004006 -0.002056 0.003810 0.013940 0.036083
#
#
# Mechanical properties :
#
#
# Convention : Reuss Voigt Hill
#
# Bulk Modulus (GPa) = 32.30262 55.35439 43.82851
# Shear Modulus (GPa) = 30.54864 43.62619 37.08741
#
# Velocity S-wave (km/s) = 3.63477 4.34365 4.00493
# Velocity P-wave (km/s) = 5.62010 7.00685 6.35144
#
# Compressibility (1/GPa) = 0.03095724
#
# Stress axis : x y z
#
# Youngs Moduli (GPa) = 46.38095 147.98550 120.36532
#
# Poissons Ratio (x) = -0.05919 0.13283
# Poissons Ratio (y) = -0.01855 0.25647
# Poissons Ratio (z) = 0.05119 0.31532
#
# Static dielectric constant tensor:
#      x y z
#    x 2.100080 -0.022270 0.088890 
#    y -0.022270 1.974940 0.013980 
#    z 0.088890 0.013980 1.857780 
# 
# From -- ./inp_files/298405.got.cif
#   From: 2010.05.17/outbox.cif.g08.bks.cpg/sg2_150_cif.got.tgz:298405.got - 2010.06.03 11:33:40.
