data_PCOD9055815
_publ_section_title
;
Structure prediction by ZEFSAII (Michael W. Deem and Ramdas Pophale) SiO2 
 PCOD9055815
Probable space group: P -1
;
_chemical_formula_sum "Si O2"
_cell_formula_units_Z 14
_cell_length_a 12.786904
_cell_length_b 18.831047
_cell_length_c 12.798412
_cell_angle_alpha 144.620739
_cell_angle_beta 24.443290
_cell_angle_gamma 151.504620
_cell_volume 606.564165
_symmetry_space_group_name_H-M "P -1"
_symmetry_group_IT_number 2
_symmetry_cell_setting 'triclinic'
loop_
_space_group_symop_operation_xyz
x,y,z
-x,-y,-z
loop_
_atom_site_type_symbol
_atom_site_label
_atom_site_fract_x
_atom_site_fract_y
_atom_site_fract_z
Si Si1 0.058248 0.929176 0.462284
Si Si2 0.135107 0.151993 0.995524
Si Si3 0.450588 0.392917 0.508522
Si Si4 0.148273 0.663644 0.809502
Si Si5 0.345577 0.637581 0.378357
Si Si6 0.500596 0.549528 0.867070
Si Si7 0.772296 0.064583 0.012452
O O1 0.878321 0.755587 0.392671
O O2 0.409327 0.986947 0.234307
O O3 0.000000 0.000000 0.500000
O O4 0.902736 0.968033 0.742589
O O5 0.455857 0.234690 0.734943
O O6 0.229089 0.283045 0.150202
O O7 0.888468 0.117264 0.088570
O O8 0.000000 0.000000 0.000000
O O9 0.500000 0.500000 0.500000
O O10 0.666722 0.333495 0.256483
O O11 0.518485 0.486793 0.665124
O O12 0.333790 0.700912 0.577083
O O13 0.078653 0.788916 0.021931
O O14 0.845902 0.495627 0.872887
O O15 0.508679 0.554921 0.159315
O O16 0.000000 0.500000 0.500000
#
# Coordination Sequence:
#
# PCOD9055815 Si02
#       7
#     2   2   2   2   2   2   2
#     4  12  26  49  78 110 150 202 264 316 382 474
#     4  12  27  46  75 115 157 198 254 334 397 459
#     4  11  28  46  73 108 149 200 255 331 384 458
#     4  11  22  44  77 107 143 200 261 310 380 473
#     4  11  21  43  73 105 143 200 255 305 371 474
#     4  11  24  46  74 105 141 201 261 300 393 471
#     4  12  26  47  78 114 153 205 256 319 393 465
#
# _framework density 23.080822999999999
#
# number of rings (size 3 to 8) (size 9 to 14) (size 15 to 20)
#    0.000    0.571    4.286    3.429    4.000    1.714 
#    0.000    3.571    0.000    0.000    0.000    0.000 
#    0.000    0.000    0.000    0.000    0.000    0.000 
#
# Total GULP energy -78180.902124 kJ/mol
# GULP energy per Si atom -5584.350152 kJ/mol
# Density = 2.302829 g / cm^3
# Si number density = 23.080823 Si / 1000 Ang^3
#
#
#
# Elastic Constant Matrix: (Units=GPa)
#
#
# Indices 1 2 3 4 5 6 
#
# 1 153.7757 87.5698 48.7910 -16.4396 -9.6891 7.8494
# 2 87.5698 191.1899 47.5966 -11.5289 -0.9623 8.6064
# 3 48.7910 47.5966 86.5730 -3.1064 -5.7626 15.3338
# 4 -16.4396 -11.5289 -3.1064 35.3748 21.2423 -1.6229
# 5 -9.6891 -0.9623 -5.7626 21.2423 38.0643 -11.5335
# 6 7.8494 8.6064 15.3338 -1.6229 -11.5335 57.4017
#
#
#
# Elastic Compliance Matrix: (Units=1/GPa)
#
#
# Indices 1 2 3 4 5 6 
#
# 1 0.009967 -0.003495 -0.003616 0.003003 0.000308 0.000274
# 2 -0.003495 0.007494 -0.002147 0.001970 -0.002267 -0.000472
# 3 -0.003616 -0.002147 0.015335 -0.002155 0.001637 -0.003012
# 4 0.003003 0.001970 -0.002155 0.045698 -0.026261 -0.004115
# 5 0.000308 -0.002267 0.001637 -0.026261 0.043582 0.007875
# 6 0.000274 -0.000472 -0.003012 -0.004115 0.007875 0.019725
#
#
# Mechanical properties :
#
#
# Convention : Reuss Voigt Hill
#
# Bulk Modulus (GPa) = 70.03013 88.82817 79.42915
# Shear Modulus (GPa) = 30.28912 42.67357 36.48135
#
# Velocity S-wave (km/s) = 3.62651 4.30452 3.97998
# Velocity P-wave (km/s) = 6.92406 7.95452 7.45711
#
# Compressibility (1/GPa) = 0.01427957
#
# Stress axis : x y z
#
# Youngs Moduli (GPa) = 100.33318 133.43672 65.21191
#
# Poissons Ratio (x) = 0.46630 0.23581
# Poissons Ratio (y) = 0.35062 0.14004
# Poissons Ratio (z) = 0.36281 0.28654
#
# Static dielectric constant tensor:
#      x y z
#    x 1.865140 0.062750 -0.004470 
#    y 0.062750 1.926150 -0.001500 
#    z -0.004470 -0.001500 2.045790 
# 
# From -- ./inp_files/411147.got.cif
#   From: 2010.05.17/outbox.cif.g08.bks.cpg/sg2_206_cif.got.tgz:411147.got - 2010.06.03 11:33:40.
