data_PCOD9055150
_publ_section_title
;
Structure prediction by ZEFSAII (Michael W. Deem and Ramdas Pophale) SiO2 
 PCOD9055150
Probable space group: P -1
;
_chemical_formula_sum "Si O2"
_cell_formula_units_Z 16
_cell_length_a 15.257898
_cell_length_b 11.297860
_cell_length_c 9.205973
_cell_angle_alpha 110.861858
_cell_angle_beta 32.974519
_cell_angle_gamma 98.689426
_cell_volume 772.322613
_symmetry_space_group_name_H-M "P -1"
_symmetry_group_IT_number 2
_symmetry_cell_setting 'triclinic'
loop_
_space_group_symop_operation_xyz
x,y,z
-x,-y,-z
loop_
_atom_site_type_symbol
_atom_site_label
_atom_site_fract_x
_atom_site_fract_y
_atom_site_fract_z
Si Si1 0.783148 0.308183 0.269782
Si Si2 0.399767 0.334304 0.532099
Si Si3 0.172863 0.901474 0.663224
Si Si4 0.442613 0.489819 0.800417
Si Si5 0.662802 0.909802 0.654239
Si Si6 0.977289 0.563032 0.845940
Si Si7 0.096040 0.680472 0.467645
Si Si8 0.030586 0.268741 0.658009
O O1 0.751149 0.182869 0.337492
O O2 0.625182 0.430842 0.591682
O O3 0.942768 0.341541 0.134214
O O4 0.855809 0.278526 0.992730
O O5 0.437322 0.360287 0.658425
O O6 0.524957 0.396582 0.298304
O O7 0.391894 0.197599 0.415494
O O8 0.206927 0.424513 0.832073
O O9 0.142158 0.796753 0.543134
O O10 0.274691 0.991690 0.491627
O O11 0.000000 0.000000 0.000000
O O12 0.269319 0.561457 0.150883
O O13 0.814068 0.837886 0.525428
O O14 0.500000 0.000000 0.000000
O O15 0.979813 0.616968 0.702507
O O16 0.072025 0.409553 0.667397
O O17 0.011152 0.738378 0.458157
#
# Coordination Sequence:
#
# PCOD9055150 Si02
#       8
#     2   2   2   2   2   2   2   2
#     4  11  22  40  72  95 130 181 212 264 328 401
#     4  11  21  42  67  94 136 170 204 278 330 390
#     4  11  24  48  64  89 133 184 221 257 315 393
#     4  11  22  39  67 107 131 153 219 277 342 373
#     4  12  26  43  65  93 132 178 228 262 311 387
#     4  11  21  40  69 100 133 165 214 264 345 390
#     4  11  25  40  68 102 135 161 212 289 322 382
#     4  12  21  40  68  97 126 173 215 265 330 392
#
# _framework density 20.716732
#
# number of rings (size 3 to 8) (size 9 to 14) (size 15 to 20)
#    0.000    0.750    5.000    3.750    0.000    3.500 
#    2.250    0.625    0.000    0.000    0.000    0.000 
#    0.000    0.000    0.000    0.000    0.000    0.000 
#
# Total GULP energy -89216.949329 kJ/mol
# GULP energy per Si atom -5576.059333 kJ/mol
# Density = 2.066958 g / cm^3
# Si number density = 20.716732 Si / 1000 Ang^3
#
#
#
# Elastic Constant Matrix: (Units=GPa)
#
#
# Indices 1 2 3 4 5 6 
#
# 1 69.8502 39.9133 28.3066 -5.7411 14.7983 -9.5616
# 2 39.9133 125.5430 49.3720 -2.4884 16.1541 -10.9873
# 3 28.3066 49.3720 118.6967 5.3346 5.2606 4.9296
# 4 -5.7411 -2.4884 5.3346 32.0389 0.4712 0.9656
# 5 14.7983 16.1541 5.2606 0.4712 31.2430 1.6516
# 6 -9.5616 -10.9873 4.9296 0.9656 1.6516 22.7373
#
#
#
# Elastic Compliance Matrix: (Units=1/GPa)
#
#
# Indices 1 2 3 4 5 6 
#
# 1 0.020937 -0.003309 -0.003789 0.003990 -0.008074 0.008444
# 2 -0.003309 0.011661 -0.004146 0.000900 -0.004063 0.005399
# 3 -0.003789 -0.004146 0.011323 -0.002737 0.002396 -0.006109
# 4 0.003990 0.000900 -0.002737 0.032444 -0.002463 0.001507
# 5 -0.008074 -0.004063 0.002396 -0.002463 0.038017 -0.008535
# 6 0.008444 0.005399 -0.006109 0.001507 -0.008535 0.052021
#
#
# Mechanical properties :
#
#
# Convention : Reuss Voigt Hill
#
# Bulk Modulus (GPa) = 46.65532 61.03042 53.84287
# Shear Modulus (GPa) = 25.50555 30.30369 27.90462
#
# Velocity S-wave (km/s) = 3.51259 3.82876 3.67408
# Velocity P-wave (km/s) = 6.24664 7.00495 6.63664
#
# Compressibility (1/GPa) = 0.02143378
#
# Stress axis : x y z
#
# Youngs Moduli (GPa) = 47.76200 85.75521 88.31288
#
# Poissons Ratio (x) = 0.28380 0.33458
# Poissons Ratio (y) = 0.15807 0.36613
# Poissons Ratio (z) = 0.18095 0.35553
#
# Static dielectric constant tensor:
#      x y z
#    x 1.860860 -0.020680 0.017970 
#    y -0.020680 1.714520 0.017470 
#    z 0.017970 0.017470 1.759930 
# 
# From -- ./inp_files/307863.got.cif
#   From: 2010.05.17/outbox.cif.g08.bks.cpg/sg2_154_cif.got.tgz:307863.got - 2010.06.03 11:33:40.
