data_PCOD9055720
_publ_section_title
;
Structure prediction by ZEFSAII (Michael W. Deem and Ramdas Pophale) SiO2 
 PCOD9055720
Probable space group: P -1
;
_chemical_formula_sum "Si O2"
_cell_formula_units_Z 16
_cell_length_a 11.263132
_cell_length_b 8.208940
_cell_length_c 17.612740
_cell_angle_alpha 131.725453
_cell_angle_beta 29.246332
_cell_angle_gamma 126.909235
_cell_volume 592.913113
_symmetry_space_group_name_H-M "P -1"
_symmetry_group_IT_number 2
_symmetry_cell_setting 'triclinic'
loop_
_space_group_symop_operation_xyz
x,y,z
-x,-y,-z
loop_
_atom_site_type_symbol
_atom_site_label
_atom_site_fract_x
_atom_site_fract_y
_atom_site_fract_z
Si Si1 0.195523 0.622844 0.599431
Si Si2 0.557806 0.452509 0.109743
Si Si3 0.037508 0.053193 0.584011
Si Si4 0.109302 0.284330 0.836879
Si Si5 0.728764 0.888893 0.937402
Si Si6 0.395368 0.222061 0.275283
Si Si7 0.076068 0.493667 0.771270
Si Si8 0.587125 0.176681 0.614416
O O1 0.289868 0.385536 0.446634
O O2 0.249159 0.641992 0.666203
O O3 0.288833 0.764507 0.517976
O O4 0.915915 0.698724 0.787997
O O5 0.466830 0.243419 0.047126
O O6 0.546392 0.372118 0.178295
O O7 0.373052 0.643488 0.284146
O O8 0.816706 0.559845 0.970523
O O9 0.289454 0.019315 0.474673
O O10 0.834850 0.878507 0.675399
O O11 0.978809 0.296306 0.710509
O O12 0.000000 0.000000 0.500000
O O13 0.212583 0.387082 0.732532
O O14 0.304619 0.172758 0.746726
O O15 0.906231 0.091332 0.871141
O O16 0.000000 0.500000 0.000000
O O17 0.568470 0.018063 0.130120
#
# Coordination Sequence:
#
# PCOD9055720 Si02
#       8
#     2   2   2   2   2   2   2   2
#     4  11  26  44  68 118 152 195 254 318 380 458
#     4  11  22  42  76 109 144 197 258 318 372 454
#     4  12  25  44  74 114 154 194 262 325 380 454
#     4  12  25  51  77 110 154 207 260 310 386 475
#     4  12  24  43  80 108 144 203 260 311 386 456
#     4  11  21  43  68 109 153 189 246 325 386 432
#     4  12  24  44  73 111 156 198 256 317 380 454
#     4  11  26  48  76 108 154 208 250 317 396 457
#
# _framework density 26.985406000000001
#
# number of rings (size 3 to 8) (size 9 to 14) (size 15 to 20)
#    0.000    0.500    5.000    4.125    0.000    6.000 
#    0.000    0.625    0.000    0.000    0.000    0.000 
#    0.000    0.000    0.000    0.000    0.000    0.000 
#
# Total GULP energy -89103.537538 kJ/mol
# GULP energy per Si atom -5568.971096 kJ/mol
# Density = 2.692399 g / cm^3
# Si number density = 26.985406 Si / 1000 Ang^3
#
#
#
# Elastic Constant Matrix: (Units=GPa)
#
#
# Indices 1 2 3 4 5 6 
#
# 1 109.3142 36.0819 64.2328 -6.8532 0.4569 -13.5798
# 2 36.0819 85.5577 53.2140 1.3557 0.2609 5.5482
# 3 64.2328 53.2140 205.4695 27.8429 10.4295 -12.1811
# 4 -6.8532 1.3557 27.8429 49.1060 0.0921 -2.8551
# 5 0.4569 0.2609 10.4295 0.0921 49.3910 -4.2768
# 6 -13.5798 5.5482 -12.1811 -2.8551 -4.2768 38.9148
#
#
#
# Elastic Compliance Matrix: (Units=1/GPa)
#
#
# Indices 1 2 3 4 5 6 
#
# 1 0.013287 -0.003765 -0.003537 0.004223 0.001025 0.004489
# 2 -0.003765 0.015551 -0.003210 0.000605 0.000243 -0.004465
# 3 -0.003537 -0.003210 0.007570 -0.004631 -0.001445 0.001094
# 4 0.004223 0.000605 -0.004631 0.023664 0.001046 0.001789
# 5 0.001025 0.000243 -0.001445 0.001046 0.020732 0.002226
# 6 0.004489 -0.004465 0.001094 0.001789 0.002226 0.028618
#
#
# Mechanical properties :
#
#
# Convention : Reuss Voigt Hill
#
# Bulk Modulus (GPa) = 64.99732 78.59987 71.79860
# Shear Modulus (GPa) = 36.88056 43.93654 40.40855
#
# Velocity S-wave (km/s) = 3.70088 4.03942 3.87385
# Velocity P-wave (km/s) = 6.51156 7.13764 6.83178
#
# Compressibility (1/GPa) = 0.01538525
#
# Stress axis : x y z
#
# Youngs Moduli (GPa) = 75.26246 64.30371 132.10908
#
# Poissons Ratio (x) = 0.24209 0.46723
# Poissons Ratio (y) = 0.28335 0.42402
# Poissons Ratio (z) = 0.26618 0.20639
#
# Static dielectric constant tensor:
#      x y z
#    x 2.158900 -0.023100 -0.029750 
#    y -0.023100 2.317190 -0.067470 
#    z -0.029750 -0.067470 2.287440 
# 
# From -- ./inp_files/566884.got.cif
#   From: 2010.05.17/outbox.cif.g08.bks.cpg/sg2_284_cif.got.tgz:566884.got - 2010.06.03 11:33:40.
