data_PCOD9055121
_publ_section_title
;
Structure prediction by ZEFSAII (Michael W. Deem and Ramdas Pophale) SiO2 
 PCOD9055121
Probable space group: P -1
;
_chemical_formula_sum "Si O2"
_cell_formula_units_Z 16
_cell_length_a 19.708989
_cell_length_b 8.738079
_cell_length_c 16.718264
_cell_angle_alpha 140.316440
_cell_angle_beta 149.603185
_cell_angle_gamma 30.822497
_cell_volume 741.810604
_symmetry_space_group_name_H-M "P -1"
_symmetry_group_IT_number 2
_symmetry_cell_setting 'triclinic'
loop_
_space_group_symop_operation_xyz
x,y,z
-x,-y,-z
loop_
_atom_site_type_symbol
_atom_site_label
_atom_site_fract_x
_atom_site_fract_y
_atom_site_fract_z
Si Si1 0.580359 0.139016 0.590561
Si Si2 0.642162 0.711165 0.714551
Si Si3 0.863362 0.763717 0.406985
Si Si4 0.512536 0.749906 0.767444
Si Si5 0.797135 0.056444 0.995958
Si Si6 0.248505 0.427403 0.930298
Si Si7 0.954515 0.704063 0.857110
Si Si8 0.947166 0.192767 0.705814
O O1 0.528836 0.160862 0.455088
O O2 0.507353 0.475999 0.677193
O O3 0.500000 0.000000 0.500000
O O4 0.776710 0.931702 0.724609
O O5 0.627598 0.642949 0.762847
O O6 0.788292 0.428247 0.696688
O O7 0.680106 0.953170 0.848091
O O8 0.838334 0.664111 0.255647
O O9 0.000000 0.500000 0.500000
O O10 0.672927 0.961062 0.326582
O O11 0.910856 0.991329 0.540093
O O12 0.595920 0.805167 0.947618
O O13 0.932104 0.824877 0.973009
O O14 0.708742 0.384848 0.002835
O O15 0.895474 0.013618 0.158729
O O16 0.104341 0.652445 0.938288
O O17 0.980676 0.390531 0.766643
#
# Coordination Sequence:
#
# PCOD9055121 Si02
#       8
#     2   2   2   2   2   2   2   2
#     4  12  21  39  65 104 135 165 206 272 337 385
#     4  11  23  39  68 101 130 164 212 278 339 377
#     4  12  27  45  66  91 132 180 223 264 317 391
#     4  12  25  44  68  96 133 172 222 269 325 387
#     4  11  21  40  67  98 135 165 211 273 329 386
#     4  12  25  43  69  94 133 180 221 259 323 391
#     4  11  23  39  69 102 130 166 217 270 332 388
#     4  11  22  42  66  97 134 169 211 271 328 385
#
# _framework density 21.568847999999999
#
# number of rings (size 3 to 8) (size 9 to 14) (size 15 to 20)
#    0.000    0.500    6.250    4.125    3.500    0.500 
#    0.000    0.625    2.750    0.000    0.000    0.000 
#    0.000    0.000    0.000    0.000    0.000    0.000 
#
# Total GULP energy -89460.902872 kJ/mol
# GULP energy per Si atom -5591.306429 kJ/mol
# Density = 2.151976 g / cm^3
# Si number density = 21.568848 Si / 1000 Ang^3
#
#
#
# Elastic Constant Matrix: (Units=GPa)
#
#
# Indices 1 2 3 4 5 6 
#
# 1 57.5753 20.9651 24.5826 1.8187 -5.6887 11.5138
# 2 20.9651 66.4354 33.3134 -9.3040 -1.4545 24.5219
# 3 24.5826 33.3134 151.7863 -2.7147 -26.8753 15.1125
# 4 1.8187 -9.3040 -2.7147 50.1674 0.8744 0.3811
# 5 -5.6887 -1.4545 -26.8753 0.8744 33.7081 -3.4223
# 6 11.5138 24.5219 15.1125 0.3811 -3.4223 22.2783
#
#
#
# Elastic Compliance Matrix: (Units=1/GPa)
#
#
# Indices 1 2 3 4 5 6 
#
# 1 0.020762 -0.004105 -0.001752 -0.001598 0.001487 -0.004768
# 2 -0.004105 0.029581 -0.003842 0.005742 -0.005551 -0.028783
# 3 -0.001752 -0.003842 0.008870 -0.000286 0.006633 0.000141
# 4 -0.001598 0.005742 -0.000286 0.021110 -0.001394 -0.005876
# 5 0.001487 -0.005551 0.006633 -0.001394 0.035646 0.006341
# 6 -0.004768 -0.028783 0.000141 -0.005876 0.006341 0.080012
#
#
# Mechanical properties :
#
#
# Convention : Reuss Voigt Hill
#
# Bulk Modulus (GPa) = 25.11564 48.16880 36.64222
# Shear Modulus (GPa) = 21.86741 34.35982 28.11361
#
# Velocity S-wave (km/s) = 3.18754 3.99561 3.61423
# Velocity P-wave (km/s) = 5.02165 6.60814 5.86875
#
# Compressibility (1/GPa) = 0.03981583
#
# Stress axis : x y z
#
# Youngs Moduli (GPa) = 48.16429 33.80568 112.73445
#
# Poissons Ratio (x) = 0.13877 0.19754
# Poissons Ratio (y) = 0.19771 0.43310
# Poissons Ratio (z) = 0.08439 0.12987
#
# Static dielectric constant tensor:
#      x y z
#    x 1.752690 -0.005910 -0.012850 
#    y -0.005910 1.818470 0.006520 
#    z -0.012850 0.006520 1.794520 
# 
# From -- ./inp_files/389114.got.cif
#   From: 2010.05.17/outbox.cif.g08.bks.cpg/sg2_195_cif.got.tgz:389114.got - 2010.06.03 11:33:40.
