data_PCOD9055109
_publ_section_title
;
Structure prediction by ZEFSAII (Michael W. Deem and Ramdas Pophale) SiO2 
 PCOD9055109
Probable space group: P -1
;
_chemical_formula_sum "Si O2"
_cell_formula_units_Z 12
_cell_length_a 12.175887
_cell_length_b 7.639236
_cell_length_c 17.744878
_cell_angle_alpha 46.147562
_cell_angle_beta 150.864706
_cell_angle_gamma 134.760624
_cell_volume 555.981506
_symmetry_space_group_name_H-M "P -1"
_symmetry_group_IT_number 2
_symmetry_cell_setting 'triclinic'
loop_
_space_group_symop_operation_xyz
x,y,z
-x,-y,-z
loop_
_atom_site_type_symbol
_atom_site_label
_atom_site_fract_x
_atom_site_fract_y
_atom_site_fract_z
Si Si1 0.668371 0.345850 0.721811
Si Si2 0.773781 0.138342 0.134833
Si Si3 0.039041 0.840422 0.927566
Si Si4 0.227344 0.111142 0.456500
Si Si5 0.323380 0.384955 0.996017
Si Si6 0.407314 0.131286 0.271498
O O1 0.386412 0.203190 0.599686
O O2 0.708928 0.626470 0.631223
O O3 0.273066 0.845466 0.247780
O O4 0.826823 0.323566 0.894132
O O5 0.882149 0.163450 0.109210
O O6 0.792949 0.403099 0.107973
O O7 0.947486 0.015158 0.322781
O O8 0.500000 0.000000 0.000000
O O9 0.153983 0.126045 0.940543
O O10 0.762342 0.783361 0.797872
O O11 0.342449 0.910935 0.544690
O O12 0.500000 0.500000 0.000000
O O13 0.439120 0.306761 0.164272
#
# Coordination Sequence:
#
# PCOD9055109 Si02
#       6
#     2   2   2   2   2   2
#     4   8  17  36  62  95 118 157 199 258 310 352
#     4  12  25  40  60  91 127 166 207 245 307 371
#     4  11  21  40  67  92 120 161 208 253 304 368
#     4   9  19  36  62  92 128 151 205 259 304 361
#     4  11  22  41  63  88 126 166 201 248 305 370
#     4   9  19  36  66  92 116 158 206 252 307 355
#
# _framework density 21.583451
#
# number of rings (size 3 to 8) (size 9 to 14) (size 15 to 20)
#    1.000    1.000    1.667    4.000    0.000    3.333 
#    0.000    4.167    0.000    0.000    0.000    0.000 
#    0.000    0.000    0.000    0.000    0.000    0.000 
#
# Total GULP energy -66825.054001 kJ/mol
# GULP energy per Si atom -5568.754500 kJ/mol
# Density = 2.153433 g / cm^3
# Si number density = 21.583451 Si / 1000 Ang^3
#
#
#
# Elastic Constant Matrix: (Units=GPa)
#
#
# Indices 1 2 3 4 5 6 
#
# 1 117.2019 22.9966 56.7803 -18.6109 28.0764 -9.2029
# 2 22.9966 54.8055 28.0728 7.1704 19.4944 3.3241
# 3 56.7803 28.0728 141.1749 7.9232 41.0492 6.3430
# 4 -18.6109 7.1704 7.9232 40.2767 0.1623 5.3007
# 5 28.0764 19.4944 41.0492 0.1623 26.0348 -0.0162
# 6 -9.2029 3.3241 6.3430 5.3007 -0.0162 31.5440
#
#
#
# Elastic Compliance Matrix: (Units=1/GPa)
#
#
# Indices 1 2 3 4 5 6 
#
# 1 0.013991 -0.002476 -0.003407 0.007104 -0.007904 0.003830
# 2 -0.002476 0.026397 0.002154 -0.005793 -0.020457 -0.002974
# 3 -0.003407 0.002154 0.014425 -0.004263 -0.020657 -0.003416
# 4 0.007104 -0.005793 -0.004263 0.030169 0.003209 -0.001528
# 5 -0.007904 -0.020457 -0.020657 0.003209 0.094804 0.003513
# 6 0.003830 -0.002974 -0.003416 -0.001528 0.003513 0.034078
#
#
# Mechanical properties :
#
#
# Convention : Reuss Voigt Hill
#
# Bulk Modulus (GPa) = 21.11757 58.76462 39.94109
# Shear Modulus (GPa) = 21.08753 33.25995 27.17374
#
# Velocity S-wave (km/s) = 3.12913 3.92981 3.55210
# Velocity P-wave (km/s) = 4.78128 6.91932 5.94717
#
# Compressibility (1/GPa) = 0.04735394
#
# Stress axis : x y z
#
# Youngs Moduli (GPa) = 71.47443 37.88314 69.32522
#
# Poissons Ratio (x) = 0.09378 0.23623
# Poissons Ratio (y) = 0.17694 -0.14931
# Poissons Ratio (z) = 0.24355 -0.08159
#
# Static dielectric constant tensor:
#      x y z
#    x 1.778360 -0.003910 0.023960 
#    y -0.003910 1.858550 0.049840 
#    z 0.023960 0.049840 1.898820 
# 
# From -- ./inp_files/564678.got.cif
#   From: 2010.05.17/outbox.cif.g08.bks.cpg/sg2_283_cif.got.tgz:564678.got - 2010.06.03 11:33:40.
