data_PCOD9055904
_publ_section_title
;
Structure prediction by ZEFSAII (Michael W. Deem and Ramdas Pophale) SiO2 
 PCOD9055904
Probable space group: P -1
;
_chemical_formula_sum "Si O2"
_cell_formula_units_Z 14
_cell_length_a 6.409878
_cell_length_b 14.252651
_cell_length_c 9.286793
_cell_angle_alpha 129.912833
_cell_angle_beta 86.793727
_cell_angle_gamma 83.166639
_cell_volume 636.313853
_symmetry_space_group_name_H-M "P -1"
_symmetry_group_IT_number 2
_symmetry_cell_setting 'triclinic'
loop_
_space_group_symop_operation_xyz
x,y,z
-x,-y,-z
loop_
_atom_site_type_symbol
_atom_site_label
_atom_site_fract_x
_atom_site_fract_y
_atom_site_fract_z
Si Si1 0.831978 0.540960 0.830158
Si Si2 0.235806 0.320503 0.294318
Si Si3 0.400882 0.906965 0.017973
Si Si4 0.502661 0.399854 0.606730
Si Si5 0.112231 0.819652 0.715494
Si Si6 0.170592 0.321615 0.744645
Si Si7 0.109002 0.048270 0.404564
O O1 0.909003 0.593823 0.732254
O O2 0.600582 0.515913 0.769041
O O3 0.974405 0.414063 0.763158
O O4 0.834424 0.641389 0.052657
O O5 0.344252 0.403876 0.481423
O O6 0.096314 0.237056 0.301957
O O7 0.421155 0.220325 0.109376
O O8 0.312416 0.963120 0.231023
O O9 0.198443 0.877575 0.909625
O O10 0.500000 0.000000 0.000000
O O11 0.701620 0.293351 0.450053
O O12 0.380048 0.355167 0.700338
O O13 0.063259 0.916624 0.682529
O O14 0.166338 0.179124 0.577260
O O15 0.000000 0.000000 0.500000
#
# Coordination Sequence:
#
# PCOD9055904 Si02
#       7
#     2   2   2   2   2   2   2
#     4  11  25  43  72  97 140 183 224 289 340 422
#     4  11  24  42  71 104 133 177 235 278 351 408
#     4  11  24  44  71 100 139 184 231 288 342 407
#     4  11  21  44  70 101 136 176 227 289 344 405
#     4  11  23  44  70  98 142 175 227 294 341 404
#     4  11  25  47  65 100 143 179 229 278 356 410
#     4  12  25  45  71  99 137 185 231 282 344 411
#
# _framework density 22.001721
#
# number of rings (size 3 to 8) (size 9 to 14) (size 15 to 20)
#    0.000    0.857    4.286    2.143    2.000    5.714 
#    2.571    2.143    0.000    0.000    0.000    0.000 
#    0.000    0.000    0.000    0.000    0.000    0.000 
#
# Total GULP energy -78278.627625 kJ/mol
# GULP energy per Si atom -5591.330545 kJ/mol
# Density = 2.195164 g / cm^3
# Si number density = 22.001721 Si / 1000 Ang^3
#
#
#
# Elastic Constant Matrix: (Units=GPa)
#
#
# Indices 1 2 3 4 5 6 
#
# 1 87.4099 30.7660 51.5542 -4.5550 -7.9090 -1.8985
# 2 30.7660 90.0776 17.6272 -28.7641 7.6820 6.2647
# 3 51.5542 17.6272 106.1848 -15.2471 5.6640 -7.3442
# 4 -4.5550 -28.7641 -15.2471 31.2274 12.5630 2.3555
# 5 -7.9090 7.6820 5.6640 12.5630 23.7285 -3.7402
# 6 -1.8985 6.2647 -7.3442 2.3555 -3.7402 30.1649
#
#
#
# Elastic Compliance Matrix: (Units=1/GPa)
#
#
# Indices 1 2 3 4 5 6 
#
# 1 0.071315 -0.073830 -0.047191 -0.139008 0.138261 0.036330
# 2 -0.073830 0.103411 0.050959 0.183663 -0.175341 -0.049799
# 3 -0.047191 0.050959 0.042390 0.103034 -0.100641 -0.023757
# 4 -0.139008 0.183663 0.103034 0.377049 -0.344833 -0.094006
# 5 0.138261 -0.175341 -0.100641 -0.344833 0.366239 0.092951
# 6 0.036330 -0.049799 -0.023757 -0.094006 0.092951 0.058861
#
#
# Mechanical properties :
#
#
# Convention : Reuss Voigt Hill
#
# Bulk Modulus (GPa) = 12.98808 53.72966 33.35887
# Shear Modulus (GPa) = 4.21923 29.27248 16.74586
#
# Velocity S-wave (km/s) = 1.38631 3.65151 2.76183
# Velocity P-wave (km/s) = 2.91178 6.50013 5.03638
#
# Compressibility (1/GPa) = 0.07699366
#
# Stress axis : x y z
#
# Youngs Moduli (GPa) = 14.02238 9.67013 23.59071
#
# Poissons Ratio (x) = 0.71394 1.11326
# Poissons Ratio (y) = 1.03527 -1.20217
# Poissons Ratio (z) = 0.66172 -0.49278
#
# Static dielectric constant tensor:
#      x y z
#    x 1.813820 -0.009020 -0.000020 
#    y -0.009020 1.829020 0.009920 
#    z -0.000020 0.009920 1.820790 
# 
# From -- ./inp_files/27865.got.cif
#   From: 2010.05.17/outbox.cif.g08.bks.cpg/sg2_14_cif.got.tgz:27865.got - 2010.06.03 11:33:40.
