data_PCOD9055259
_publ_section_title
;
Structure prediction by ZEFSAII (Michael W. Deem and Ramdas Pophale) SiO2 
 PCOD9055259
Probable space group: P -1
;
_chemical_formula_sum "Si O2"
_cell_formula_units_Z 14
_cell_length_a 12.859451
_cell_length_b 11.654244
_cell_length_c 12.206270
_cell_angle_alpha 52.114839
_cell_angle_beta 82.477405
_cell_angle_gamma 127.712330
_cell_volume 667.735669
_symmetry_space_group_name_H-M "P -1"
_symmetry_group_IT_number 2
_symmetry_cell_setting 'triclinic'
loop_
_space_group_symop_operation_xyz
x,y,z
-x,-y,-z
loop_
_atom_site_type_symbol
_atom_site_label
_atom_site_fract_x
_atom_site_fract_y
_atom_site_fract_z
Si Si1 0.341486 0.943201 0.025809
Si Si2 0.159154 0.311133 0.239768
Si Si3 0.827958 0.491130 0.076706
Si Si4 0.297870 0.939077 0.789356
Si Si5 0.626848 0.770085 0.963812
Si Si6 0.060329 0.737908 0.553438
Si Si7 0.476772 0.267971 0.353693
O O1 0.077649 0.571690 0.283786
O O2 0.366186 0.107911 0.008530
O O3 0.399882 0.059798 0.824706
O O4 0.500000 0.000000 0.000000
O O5 0.133494 0.412022 0.267985
O O6 0.081856 0.273626 0.155451
O O7 0.406189 0.549577 0.055955
O O8 0.000000 0.000000 0.500000
O O9 0.705438 0.223393 0.172592
O O10 0.655064 0.358056 0.257300
O O11 0.037511 0.667250 0.997601
O O12 0.405074 0.174549 0.545064
O O13 0.835224 0.049317 0.689297
O O14 0.581524 0.551490 0.139412
O O15 0.261352 0.971002 0.478561
#
# Coordination Sequence:
#
# PCOD9055259 Si02
#       7
#     2   2   2   2   2   2   2
#     4  12  26  47  67  94 134 183 221 266 332 405
#     4  12  20  38  68 101 135 168 215 278 331 380
#     4  11  21  41  65 101 132 166 225 274 328 386
#     4  11  23  44  66  94 134 174 221 272 329 394
#     4  12  25  42  66 102 140 175 217 268 335 394
#     4  12  22  41  69  98 133 169 222 275 321 387
#     4  12  24  41  72 104 129 169 222 282 329 380
#
# _framework density 20.966380000000001
#
# number of rings (size 3 to 8) (size 9 to 14) (size 15 to 20)
#    0.000    0.286    7.143    3.000    0.000    0.571 
#    2.571    0.714    0.000    0.000    0.000    0.000 
#    0.000    0.000    0.000    0.000    0.000    0.000 
#
# Total GULP energy -78246.698473 kJ/mol
# GULP energy per Si atom -5589.049891 kJ/mol
# Density = 2.091866 g / cm^3
# Si number density = 20.966380 Si / 1000 Ang^3
#
#
#
# Elastic Constant Matrix: (Units=GPa)
#
#
# Indices 1 2 3 4 5 6 
#
# 1 86.1957 31.4210 31.8609 9.2787 -5.4211 -9.1972
# 2 31.4210 101.3259 36.1673 15.6418 11.5919 3.9202
# 3 31.8609 36.1673 121.8935 16.7438 10.0914 7.1695
# 4 9.2787 15.6418 16.7438 34.5568 -0.8262 10.4047
# 5 -5.4211 11.5919 10.0914 -0.8262 32.8933 7.4366
# 6 -9.1972 3.9202 7.1695 10.4047 7.4366 23.5591
#
#
#
# Elastic Compliance Matrix: (Units=1/GPa)
#
#
# Indices 1 2 3 4 5 6 
#
# 1 0.015612 -0.003841 -0.003217 -0.003303 0.002969 0.008234
# 2 -0.003841 0.012897 -0.001882 -0.004076 -0.004754 0.000228
# 3 -0.003217 -0.001882 0.010317 -0.002731 -0.002639 -0.002044
# 4 -0.003303 -0.004076 -0.002731 0.038944 0.007050 -0.019205
# 5 0.002969 -0.004754 -0.002639 0.007050 0.036219 -0.011793
# 6 0.008234 0.000228 -0.002044 -0.019205 -0.011793 0.058449
#
#
# Mechanical properties :
#
#
# Convention : Reuss Voigt Hill
#
# Bulk Modulus (GPa) = 47.74745 56.47927 52.11336
# Shear Modulus (GPa) = 25.34200 32.19955 28.77077
#
# Velocity S-wave (km/s) = 3.48040 3.92314 3.70839
# Velocity P-wave (km/s) = 6.24289 6.89332 6.57615
#
# Compressibility (1/GPa) = 0.02094353
#
# Stress axis : x y z
#
# Youngs Moduli (GPa) = 64.05368 77.53992 96.92582
#
# Poissons Ratio (x) = 0.29785 0.31185
# Poissons Ratio (y) = 0.24604 0.18245
# Poissons Ratio (z) = 0.20609 0.14596
#
# Static dielectric constant tensor:
#      x y z
#    x 1.803040 -0.030080 0.017780 
#    y -0.030080 1.766500 0.003870 
#    z 0.017780 0.003870 1.781290 
# 
# From -- ./inp_files/402903.got.cif
#   From: 2010.05.17/outbox.cif.g08.bks.cpg/sg2_202_cif.got.tgz:402903.got - 2010.06.03 11:33:40.
