data_PCOD9055938
_publ_section_title
;
Structure prediction by ZEFSAII (Michael W. Deem and Ramdas Pophale) SiO2 
 PCOD9055938
Probable space group: P -1
;
_chemical_formula_sum "Si O2"
_cell_formula_units_Z 16
_cell_length_a 13.402673
_cell_length_b 8.452170
_cell_length_c 9.599252
_cell_angle_alpha 115.122098
_cell_angle_beta 79.710625
_cell_angle_gamma 140.738898
_cell_volume 601.323638
_symmetry_space_group_name_H-M "P -1"
_symmetry_group_IT_number 2
_symmetry_cell_setting 'triclinic'
loop_
_space_group_symop_operation_xyz
x,y,z
-x,-y,-z
loop_
_atom_site_type_symbol
_atom_site_label
_atom_site_fract_x
_atom_site_fract_y
_atom_site_fract_z
Si Si1 0.189498 0.891145 0.300624
Si Si2 0.712492 0.591982 0.459927
Si Si3 0.437579 0.052323 0.832166
Si Si4 0.345516 0.564213 0.305676
Si Si5 0.830290 0.168926 0.399447
Si Si6 0.548962 0.693230 0.820053
Si Si7 0.851685 0.537523 0.210461
Si Si8 0.969303 0.006888 0.170981
O O1 0.233870 0.906483 0.453652
O O2 0.998394 0.596313 0.207042
O O3 0.212952 0.133167 0.391096
O O4 0.304798 0.004503 0.183859
O O5 0.605465 0.348036 0.511866
O O6 0.596251 0.495525 0.326651
O O7 0.854609 0.660972 0.394383
O O8 0.297589 0.918245 0.706489
O O9 0.335565 0.778961 0.850950
O O10 0.590178 0.229545 0.758033
O O11 0.487070 0.267152 0.009830
O O12 0.401219 0.440108 0.212353
O O13 0.152303 0.312383 0.276707
O O14 0.000000 0.500000 0.500000
O O15 0.862854 0.022699 0.266345
O O16 0.896092 0.730033 0.149379
O O17 0.000000 0.000000 0.000000
#
# Coordination Sequence:
#
# PCOD9055938 Si02
#       8
#     2   2   2   2   2   2   2   2
#     4  11  21  44  72 102 132 190 241 296 350 433
#     4  11  22  42  75  98 135 189 245 288 355 436
#     4  12  28  45  69 109 151 186 235 306 370 426
#     4  11  24  46  72 103 144 187 245 296 363 430
#     4  12  25  45  75 109 146 189 248 303 360 432
#     4  11  24  43  71 101 144 191 241 294 362 435
#     4  12  25  45  72 101 144 185 241 295 365 427
#     4  12  27  48  77 109 147 193 246 302 370 434
#
# _framework density 26.607968
#
# number of rings (size 3 to 8) (size 9 to 14) (size 15 to 20)
#    0.000    0.500    5.000    5.250    1.750    2.500 
#    2.250    0.000    0.000    0.000    0.000    0.000 
#    0.000    0.000    0.000    0.000    0.000    0.000 
#
# Total GULP energy -89480.432708 kJ/mol
# GULP energy per Si atom -5592.527044 kJ/mol
# Density = 2.654741 g / cm^3
# Si number density = 26.607968 Si / 1000 Ang^3
#
#
#
# Elastic Constant Matrix: (Units=GPa)
#
#
# Indices 1 2 3 4 5 6 
#
# 1 53.7955 9.9291 0.6611 -10.4469 -1.2599 6.4186
# 2 9.9291 157.8902 36.0891 -44.6877 -5.4409 13.6501
# 3 0.6611 36.0891 114.9161 -45.9753 -14.3498 -8.6587
# 4 -10.4469 -44.6877 -45.9753 53.3448 9.5895 -5.1029
# 5 -1.2599 -5.4409 -14.3498 9.5895 17.9863 3.6815
# 6 6.4186 13.6501 -8.6587 -5.1029 3.6815 34.6218
#
#
#
# Elastic Compliance Matrix: (Units=1/GPa)
#
#
# Indices 1 2 3 4 5 6 
#
# 1 0.019875 0.000027 0.001812 0.005117 0.000641 -0.002556
# 2 0.000027 0.008494 -0.000185 0.006879 -0.000773 -0.002304
# 3 0.001812 -0.000185 0.014641 0.012545 0.004078 0.004814
# 4 0.005117 0.006879 0.012545 0.038602 -0.009394 0.006165
# 5 0.000641 -0.000773 0.004078 -0.009394 0.065125 -0.007104
# 6 -0.002556 -0.002304 0.004814 0.006165 -0.007104 0.033134
#
#
# Mechanical properties :
#
#
# Convention : Reuss Voigt Hill
#
# Bulk Modulus (GPa) = 21.59040 46.66227 34.12634
# Shear Modulus (GPa) = 26.04136 39.85207 32.94671
#
# Velocity S-wave (km/s) = 3.13182 3.87428 3.52266
# Velocity P-wave (km/s) = 4.60539 6.13094 5.42208
#
# Compressibility (1/GPa) = 0.04631689
#
# Stress axis : x y z
#
# Youngs Moduli (GPa) = 50.31371 117.73231 68.30264
#
# Poissons Ratio (x) = -0.00322 -0.12374
# Poissons Ratio (y) = -0.00138 0.01266
# Poissons Ratio (z) = -0.09115 0.02183
#
# Static dielectric constant tensor:
#      x y z
#    x 2.130470 -0.043720 0.069440 
#    y -0.043720 2.224590 -0.021150 
#    z 0.069440 -0.021150 2.187620 
# 
# From -- ./inp_files/298851.got.cif
#   From: 2010.05.17/outbox.cif.g08.bks.cpg/sg2_150_cif.got.tgz:298851.got - 2010.06.03 11:33:40.
