data_PCOD9055622
_publ_section_title
;
Structure prediction by ZEFSAII (Michael W. Deem and Ramdas Pophale) SiO2 
 PCOD9055622
Probable space group: P -1
;
_chemical_formula_sum "Si O2"
_cell_formula_units_Z 16
_cell_length_a 27.434610
_cell_length_b 16.547447
_cell_length_c 21.860049
_cell_angle_alpha 158.849283
_cell_angle_beta 169.349258
_cell_angle_gamma 22.279549
_cell_volume 656.043207
_symmetry_space_group_name_H-M "P -1"
_symmetry_group_IT_number 2
_symmetry_cell_setting 'triclinic'
loop_
_space_group_symop_operation_xyz
x,y,z
-x,-y,-z
loop_
_atom_site_type_symbol
_atom_site_label
_atom_site_fract_x
_atom_site_fract_y
_atom_site_fract_z
Si Si1 0.893032 0.230279 0.564629
Si Si2 0.295204 0.245597 0.686692
Si Si3 0.027457 0.963067 0.773102
Si Si4 0.430331 0.504924 0.232500
Si Si5 0.970977 0.628995 0.851554
Si Si6 0.237286 0.148779 0.048024
Si Si7 0.548425 0.685922 0.272620
Si Si8 0.013078 0.752145 0.810753
O O1 0.597321 0.265867 0.253777
O O2 0.891168 0.428706 0.653031
O O3 0.000000 0.000000 0.500000
O O4 0.090982 0.251825 0.880339
O O5 0.055306 0.227012 0.329803
O O6 0.166778 0.215509 0.572962
O O7 0.525676 0.042202 0.814042
O O8 0.416740 0.471633 0.981385
O O9 0.324490 0.866019 0.093530
O O10 0.044250 0.029622 0.770465
O O11 0.935752 0.185444 0.857357
O O12 0.639053 0.664429 0.628096
O O13 0.199865 0.523491 0.012469
O O14 0.289892 0.622215 0.082273
O O15 0.725180 0.747612 0.591485
O O16 0.773216 0.632939 0.460088
O O17 0.000000 0.000000 0.000000
#
# Coordination Sequence:
#
# PCOD9055622 Si02
#       8
#     2   2   2   2   2   2   2   2
#     4  12  29  51  74 106 148 194 249 312 373 432
#     4  12  24  44  70 113 154 196 239 305 375 434
#     4  12  24  42  74 110 146 202 244 294 367 446
#     4  11  24  47  76 110 140 195 249 306 360 435
#     4  11  25  46  76 109 145 201 247 300 366 447
#     4  12  25  48  75 106 150 191 254 306 358 442
#     4  11  24  43  68 111 162 188 241 304 369 436
#     4  11  21  42  72 107 153 190 243 296 363 444
#
# _framework density 24.388636000000002
#
# number of rings (size 3 to 8) (size 9 to 14) (size 15 to 20)
#    0.000    0.500    5.000    3.000    1.750    2.000 
#    2.250    0.000    0.000    0.000    0.000    0.000 
#    0.000    0.000    0.000    0.000    0.000    0.000 
#
# Total GULP energy -89704.416913 kJ/mol
# GULP energy per Si atom -5606.526057 kJ/mol
# Density = 2.433313 g / cm^3
# Si number density = 24.388636 Si / 1000 Ang^3
#
#
#
# Elastic Constant Matrix: (Units=GPa)
#
#
# Indices 1 2 3 4 5 6 
#
# 1 100.1639 18.9538 35.0085 -12.8187 13.0457 9.8845
# 2 18.9538 96.7920 19.6710 -26.6448 3.5159 -21.4444
# 3 35.0085 19.6710 73.1155 -0.7867 1.2960 -11.0959
# 4 -12.8187 -26.6448 -0.7867 38.7104 5.1949 10.4050
# 5 13.0457 3.5159 1.2960 5.1949 42.0479 -2.7542
# 6 9.8845 -21.4444 -11.0959 10.4050 -2.7542 37.0362
#
#
#
# Elastic Compliance Matrix: (Units=1/GPa)
#
#
# Indices 1 2 3 4 5 6 
#
# 1 0.016142 -0.001265 -0.008764 0.007926 -0.006290 -0.010361
# 2 -0.001265 0.014647 -0.002359 0.008277 -0.001410 0.005682
# 3 -0.008764 -0.002359 0.019756 -0.007096 0.003785 0.009167
# 4 0.007926 0.008277 -0.007096 0.038018 -0.008334 -0.010749
# 5 -0.006290 -0.001410 0.003785 -0.008334 0.027181 0.006359
# 6 -0.010361 0.005682 0.009167 -0.010749 0.006359 0.039295
#
#
# Mechanical properties :
#
#
# Convention : Reuss Voigt Hill
#
# Bulk Modulus (GPa) = 38.80631 46.37090 42.58860
# Shear Modulus (GPa) = 26.53863 36.65477 31.59670
#
# Velocity S-wave (km/s) = 3.30230 3.88099 3.60328
# Velocity P-wave (km/s) = 5.52145 6.25599 5.90016
#
# Compressibility (1/GPa) = 0.02576901
#
# Stress axis : x y z
#
# Youngs Moduli (GPa) = 61.94924 68.27386 50.61803
#
# Poissons Ratio (x) = 0.08637 0.44363
# Poissons Ratio (y) = 0.07837 0.11939
# Poissons Ratio (z) = 0.54294 0.16103
#
# Static dielectric constant tensor:
#      x y z
#    x 1.944840 -0.037890 0.017500 
#    y -0.037890 1.926170 0.016720 
#    z 0.017500 0.016720 1.938910 
# 
# From -- ./inp_files/614554.got.cif
#   From: 2010.05.17/outbox.cif.g08.bks.cpg/sg2_308_cif.got.tgz:614554.got - 2010.06.03 11:33:40.
