data_PCOD9055439
_publ_section_title
;
Structure prediction by ZEFSAII (Michael W. Deem and Ramdas Pophale) SiO2 
 PCOD9055439
Probable space group: P -1
;
_chemical_formula_sum "Si O2"
_cell_formula_units_Z 16
_cell_length_a 11.840732
_cell_length_b 18.150285
_cell_length_c 9.103302
_cell_angle_alpha 83.507683
_cell_angle_beta 127.353817
_cell_angle_gamma 140.110033
_cell_volume 720.557588
_symmetry_space_group_name_H-M "P -1"
_symmetry_group_IT_number 2
_symmetry_cell_setting 'triclinic'
loop_
_space_group_symop_operation_xyz
x,y,z
-x,-y,-z
loop_
_atom_site_type_symbol
_atom_site_label
_atom_site_fract_x
_atom_site_fract_y
_atom_site_fract_z
Si Si1 0.292183 0.624260 0.096639
Si Si2 0.851876 0.640147 0.717091
Si Si3 0.647242 0.135019 0.678878
Si Si4 0.180546 0.013562 0.508896
Si Si5 0.084330 0.475127 0.405842
Si Si6 0.085029 0.001348 0.914362
Si Si7 0.275839 0.717051 0.554100
Si Si8 0.817949 0.774010 0.538921
O O1 0.550240 0.802774 0.299455
O O2 0.466648 0.626702 0.248809
O O3 0.000000 0.500000 0.000000
O O4 0.186471 0.598833 0.857950
O O5 0.500000 0.500000 0.500000
O O6 0.866556 0.568403 0.660328
O O7 0.936244 0.745476 0.648480
O O8 0.080027 0.750207 0.012480
O O9 0.353588 0.028833 0.558644
O O10 0.759567 0.250346 0.626573
O O11 0.500000 0.000000 0.500000
O O12 0.933009 0.940505 0.230254
O O13 0.027843 0.914707 0.557964
O O14 0.328808 0.653952 0.572958
O O15 0.987237 0.400249 0.504909
O O16 0.412416 0.114914 0.160343
O O17 0.861505 0.833938 0.717228
O O18 0.000000 0.000000 0.000000
#
# Coordination Sequence:
#
# PCOD9055439 Si02
#       8
#     2   2   2   2   2   2   2   2
#     4  11  21  41  74 100 137 184 241 289 348 431
#     4  12  29  47  71 107 145 195 244 304 374 440
#     4  12  27  45  72 102 146 190 239 303 375 437
#     4  11  23  43  69 103 134 189 239 297 354 433
#     4  11  25  44  74 101 139 190 241 293 360 439
#     4  11  22  40  69 103 139 178 233 291 355 425
#     4  11  25  45  70 105 140 188 240 298 359 438
#     4  11  26  43  70 104 142 184 242 303 356 434
#
# _framework density 22.205026
#
# number of rings (size 3 to 8) (size 9 to 14) (size 15 to 20)
#    0.000    0.750    2.500    5.250    7.000    0.500 
#    0.000    0.625    0.000    0.000    0.000    0.000 
#    0.000    0.000    0.000    0.000    0.000    0.000 
#
# Total GULP energy -89370.291968 kJ/mol
# GULP energy per Si atom -5585.643248 kJ/mol
# Density = 2.215449 g / cm^3
# Si number density = 22.205026 Si / 1000 Ang^3
#
#
#
# Elastic Constant Matrix: (Units=GPa)
#
#
# Indices 1 2 3 4 5 6 
#
# 1 126.5582 42.7606 41.6953 -3.3753 -10.4233 -1.7448
# 2 42.7606 126.0164 40.7033 -16.4591 1.0186 12.4616
# 3 41.6953 40.7033 122.6778 -15.0329 9.1129 0.5205
# 4 -3.3753 -16.4591 -15.0329 34.2730 -2.6132 -1.5049
# 5 -10.4233 1.0186 9.1129 -2.6132 33.0250 0.0836
# 6 -1.7448 12.4616 0.5205 -1.5049 0.0836 31.3070
#
#
#
# Elastic Compliance Matrix: (Units=1/GPa)
#
#
# Indices 1 2 3 4 5 6 
#
# 1 0.010164 -0.002857 -0.002970 -0.001294 0.004009 0.001680
# 2 -0.002857 0.010436 -0.002000 0.003644 -0.000373 -0.004104
# 3 -0.002970 -0.002000 0.010462 0.003095 -0.003519 0.000615
# 4 -0.001294 0.003644 0.003095 0.032246 0.001177 -0.000027
# 5 0.004009 -0.000373 -0.003519 0.001177 0.032620 0.000400
# 6 0.001680 -0.004104 0.000615 -0.000027 0.000400 0.033656
#
#
# Mechanical properties :
#
#
# Convention : Reuss Voigt Hill
#
# Bulk Modulus (GPa) = 64.89984 69.50787 67.20386
# Shear Modulus (GPa) = 33.25015 36.39388 34.82201
#
# Velocity S-wave (km/s) = 3.87384 4.05284 3.96435
# Velocity P-wave (km/s) = 7.02139 7.29873 7.16140
#
# Compressibility (1/GPa) = 0.01540836
#
# Stress axis : x y z
#
# Youngs Moduli (GPa) = 98.38400 95.82454 95.57993
#
# Poissons Ratio (x) = 0.27380 0.28388
# Poissons Ratio (y) = 0.28111 0.19112
# Poissons Ratio (z) = 0.29221 0.19161
#
# Static dielectric constant tensor:
#      x y z
#    x 1.843070 -0.059600 -0.019710 
#    y -0.059600 1.933730 0.040600 
#    z -0.019710 0.040600 1.901940 
# 
# From -- ./inp_files/279443.got.cif
#   From: 2010.05.17/outbox.cif.g08.bks.cpg/sg2_140_cif.got.tgz:279443.got - 2010.06.03 11:33:40.
