data_PCOD9055861
_publ_section_title
;
Structure prediction by ZEFSAII (Michael W. Deem and Ramdas Pophale) SiO2 
 PCOD9055861
Probable space group: P -1
;
_chemical_formula_sum "Si O2"
_cell_formula_units_Z 16
_cell_length_a 20.753769
_cell_length_b 15.530954
_cell_length_c 9.081893
_cell_angle_alpha 134.720592
_cell_angle_beta 41.176732
_cell_angle_gamma 160.924562
_cell_volume 629.464586
_symmetry_space_group_name_H-M "P -1"
_symmetry_group_IT_number 2
_symmetry_cell_setting 'triclinic'
loop_
_space_group_symop_operation_xyz
x,y,z
-x,-y,-z
loop_
_atom_site_type_symbol
_atom_site_label
_atom_site_fract_x
_atom_site_fract_y
_atom_site_fract_z
Si Si1 0.112396 0.889142 0.229470
Si Si2 0.708047 0.809043 0.008949
Si Si3 0.097957 0.870355 0.697237
Si Si4 0.341475 0.586881 0.952212
Si Si5 0.658429 0.089772 0.173501
Si Si6 0.296907 0.659808 0.832080
Si Si7 0.871652 0.889736 0.294447
Si Si8 0.012420 0.496618 0.652156
O O1 0.862188 0.614942 0.292803
O O2 0.245599 0.065972 0.067145
O O3 0.172851 0.058527 0.443527
O O4 0.162061 0.803187 0.076446
O O5 0.500000 0.500000 0.000000
O O6 0.912337 0.944116 0.835024
O O7 0.701133 0.897252 0.262191
O O8 0.068416 0.729477 0.467380
O O9 0.087449 0.984284 0.766946
O O10 0.902599 0.646486 0.877770
O O11 0.425986 0.735814 0.832319
O O12 0.316845 0.415080 0.773510
O O13 0.459918 0.781269 0.118195
O O14 0.612453 0.158206 0.236147
O O15 0.760418 0.236340 0.332877
O O16 0.150878 0.593234 0.095910
O O17 0.000000 0.500000 0.500000
#
# Coordination Sequence:
#
# PCOD9055861 Si02
#       8
#     2   2   2   2   2   2   2   2
#     4  11  22  44  68  94 130 176 220 273 331 390
#     4  11  24  42  66  99 133 169 215 270 333 399
#     4  11  22  44  66  92 134 176 213 271 342 388
#     4  11  23  41  64  96 142 171 214 284 326 390
#     4  11  25  39  69  96 128 174 231 267 326 397
#     4  11  21  44  65  91 133 178 219 270 338 380
#     4  11  24  43  69  93 134 175 219 266 343 389
#     4  11  21  44  66  92 125 173 222 271 330 390
#
# _framework density 25.418426
#
# number of rings (size 3 to 8) (size 9 to 14) (size 15 to 20)
#    0.000    1.000    3.750    6.000    3.500    1.000 
#    2.250    1.250    0.000    0.000    0.000    0.000 
#    0.000    0.000    0.000    0.000    0.000    0.000 
#
# Total GULP energy -89423.672227 kJ/mol
# GULP energy per Si atom -5588.979514 kJ/mol
# Density = 2.536057 g / cm^3
# Si number density = 25.418426 Si / 1000 Ang^3
#
#
#
# Elastic Constant Matrix: (Units=GPa)
#
#
# Indices 1 2 3 4 5 6 
#
# 1 123.8313 55.6735 30.4062 15.6605 9.5675 -36.1747
# 2 55.6735 148.7424 49.0396 56.6547 10.9645 4.1692
# 3 30.4062 49.0396 120.7843 52.3444 14.7420 -10.8655
# 4 15.6605 56.6547 52.3444 52.8615 -0.3041 1.1513
# 5 9.5675 10.9645 14.7420 -0.3041 29.9789 6.0563
# 6 -36.1747 4.1692 -10.8655 1.1513 6.0563 40.3921
#
#
#
# Elastic Compliance Matrix: (Units=1/GPa)
#
#
# Indices 1 2 3 4 5 6 
#
# 1 0.015902 -0.006841 -0.000180 0.002426 -0.005626 0.015674
# 2 -0.006841 0.015295 0.002848 -0.017080 -0.003796 -0.005884
# 3 -0.000180 0.002848 0.018603 -0.021639 -0.011751 0.006928
# 4 0.002426 -0.017080 -0.021639 0.058171 0.017964 -0.006237
# 5 -0.005626 -0.003796 -0.011751 0.017964 0.045563 -0.015152
# 6 0.015674 -0.005884 0.006928 -0.006237 -0.015152 0.043715
#
#
# Mechanical properties :
#
#
# Convention : Reuss Voigt Hill
#
# Bulk Modulus (GPa) = 24.12298 73.73296 48.92797
# Shear Modulus (GPa) = 22.78799 41.86240 32.32519
#
# Velocity S-wave (km/s) = 2.99743 4.06264 3.56999
# Velocity P-wave (km/s) = 4.63578 7.14685 6.02361
#
# Compressibility (1/GPa) = 0.04145425
#
# Stress axis : x y z
#
# Youngs Moduli (GPa) = 62.88408 65.38120 53.75335
#
# Poissons Ratio (x) = 0.44729 0.00968
# Poissons Ratio (y) = 0.43021 -0.15310
# Poissons Ratio (z) = 0.01133 -0.18622
#
# Static dielectric constant tensor:
#      x y z
#    x 2.138010 0.049190 -0.004040 
#    y 0.049190 2.055960 -0.002970 
#    z -0.004040 -0.002970 2.060620 
# 
# From -- ./inp_files/347677.got.cif
#   From: 2010.05.17/outbox.cif.g08.bks.cpg/sg2_174_cif.got.tgz:347677.got - 2010.06.03 11:33:40.
