data_PCOD9055271
_publ_section_title
;
Structure prediction by ZEFSAII (Michael W. Deem and Ramdas Pophale) SiO2 
 PCOD9055271
Probable space group: P -1
;
_chemical_formula_sum "Si O2"
_cell_formula_units_Z 16
_cell_length_a 9.798004
_cell_length_b 13.502821
_cell_length_c 8.525485
_cell_angle_alpha 49.571918
_cell_angle_beta 89.596335
_cell_angle_gamma 66.069021
_cell_volume 729.737923
_symmetry_space_group_name_H-M "P -1"
_symmetry_group_IT_number 2
_symmetry_cell_setting 'triclinic'
loop_
_space_group_symop_operation_xyz
x,y,z
-x,-y,-z
loop_
_atom_site_type_symbol
_atom_site_label
_atom_site_fract_x
_atom_site_fract_y
_atom_site_fract_z
Si Si1 0.446570 0.885740 0.163088
Si Si2 0.586002 0.288759 0.138769
Si Si3 0.410698 0.434984 0.666780
Si Si4 0.371197 0.262302 0.400817
Si Si5 0.875808 0.010250 0.113271
Si Si6 0.871586 0.479720 0.617489
Si Si7 0.792610 0.918158 0.499626
Si Si8 0.093538 0.764654 0.886031
O O1 0.548574 0.727588 0.232858
O O2 0.475965 0.859211 0.373543
O O3 0.271980 0.947531 0.039258
O O4 0.500000 0.000000 0.000000
O O5 0.446981 0.338078 0.218027
O O6 0.741547 0.304675 0.148295
O O7 0.661414 0.102259 0.315506
O O8 0.488400 0.390906 0.883292
O O9 0.500000 0.500000 0.500000
O O10 0.227693 0.541722 0.500400
O O11 0.241769 0.377077 0.412238
O O12 0.294523 0.178247 0.396726
O O13 0.867631 0.135876 0.101425
O O14 0.882977 0.887473 0.361648
O O15 0.000000 0.000000 0.000000
O O16 0.000000 0.500000 0.500000
O O17 0.930600 0.344366 0.884110
O O18 0.932374 0.863171 0.684426
#
# Coordination Sequence:
#
# PCOD9055271 Si02
#       8
#     2   2   2   2   2   2   2   2
#     4  11  21  41  65  97 137 170 236 285 333 405
#     4  11  22  45  69 102 135 175 232 282 349 408
#     4  11  21  45  70  94 135 181 232 283 340 412
#     4  11  26  42  68 105 131 184 227 284 352 404
#     4  11  23  39  67 100 132 179 225 278 344 403
#     4  11  27  47  67  97 137 186 232 281 344 416
#     4  11  24  45  66 103 144 175 223 287 354 409
#     4  11  25  46  67  99 143 183 224 281 352 411
#
# _framework density 21.925681000000001
#
# number of rings (size 3 to 8) (size 9 to 14) (size 15 to 20)
#    0.000    1.000    5.000    1.875    7.000    1.000 
#    0.000    0.000    0.000    0.000    0.000    0.000 
#    0.000    0.000    0.000    0.000    0.000    0.000 
#
# Total GULP energy -89132.862285 kJ/mol
# GULP energy per Si atom -5570.803893 kJ/mol
# Density = 2.187578 g / cm^3
# Si number density = 21.925681 Si / 1000 Ang^3
#
#
#
# Elastic Constant Matrix: (Units=GPa)
#
#
# Indices 1 2 3 4 5 6 
#
# 1 249.4069 24.5018 79.8670 -24.1925 -59.5350 15.3807
# 2 24.5018 50.9215 17.4968 5.0980 0.1236 0.1301
# 3 79.8670 17.4968 152.5910 10.6382 -10.6284 -2.2913
# 4 -24.1925 5.0980 10.6382 45.4630 29.1632 -13.8134
# 5 -59.5350 0.1236 -10.6284 29.1632 80.2935 7.8727
# 6 15.3807 0.1301 -2.2913 -13.8134 7.8727 30.5134
#
#
#
# Elastic Compliance Matrix: (Units=1/GPa)
#
#
# Indices 1 2 3 4 5 6 
#
# 1 0.006684 -0.002165 -0.002934 -0.000422 0.005226 -0.005120
# 2 -0.002165 0.021371 -0.001172 -0.002862 -0.000735 -0.000193
# 3 -0.002934 -0.001172 0.008466 -0.003270 0.000074 0.000620
# 4 -0.000422 -0.002862 -0.003270 0.041674 -0.018186 0.023537
# 5 0.005226 -0.000735 0.000074 -0.018186 0.024633 -0.017214
# 6 -0.005120 -0.000193 0.000620 0.023537 -0.017214 0.050497
#
#
# Mechanical properties :
#
#
# Convention : Reuss Voigt Hill
#
# Bulk Modulus (GPa) = 41.70225 77.40562 59.55394
# Shear Modulus (GPa) = 28.75868 53.32424 41.04146
#
# Velocity S-wave (km/s) = 3.62559 4.93693 4.33118
# Velocity P-wave (km/s) = 6.04877 8.23881 7.22723
#
# Compressibility (1/GPa) = 0.02397952
#
# Stress axis : x y z
#
# Youngs Moduli (GPa) = 149.61151 46.79142 118.12390
#
# Poissons Ratio (x) = 0.10133 0.34652
# Poissons Ratio (y) = 0.32398 0.13841
# Poissons Ratio (z) = 0.43890 0.05483
#
# Static dielectric constant tensor:
#      x y z
#    x 1.676190 0.258140 0.322630 
#    y 0.258140 1.135180 -0.623790 
#    z 0.322630 -0.623790 1.341100 
# 
# From -- ./inp_files/205224.got.cif
#   From: 2010.05.17/outbox.cif.g08.bks.cpg/sg2_103_cif.got.tgz:205224.got - 2010.06.03 11:33:40.
