data_PCOD9055837
_publ_section_title
;
Structure prediction by ZEFSAII (Michael W. Deem and Ramdas Pophale) SiO2 
 PCOD9055837
Probable space group: P -1
;
_chemical_formula_sum "Si O2"
_cell_formula_units_Z 16
_cell_length_a 7.828818
_cell_length_b 11.600559
_cell_length_c 11.262520
_cell_angle_alpha 125.428648
_cell_angle_beta 56.630102
_cell_angle_gamma 112.756328
_cell_volume 692.569115
_symmetry_space_group_name_H-M "P -1"
_symmetry_group_IT_number 2
_symmetry_cell_setting 'triclinic'
loop_
_space_group_symop_operation_xyz
x,y,z
-x,-y,-z
loop_
_atom_site_type_symbol
_atom_site_label
_atom_site_fract_x
_atom_site_fract_y
_atom_site_fract_z
Si Si1 0.072373 0.145759 0.307761
Si Si2 0.623115 0.323023 0.909375
Si Si3 0.013964 0.543008 0.844229
Si Si4 0.098842 0.821939 0.127353
Si Si5 0.664279 0.114129 0.564500
Si Si6 0.457914 0.434596 0.606850
Si Si7 0.235543 0.401931 0.235940
Si Si8 0.221096 0.154587 0.523405
O O1 0.169215 0.255610 0.241228
O O2 0.157284 0.181050 0.429062
O O3 0.832284 0.157494 0.426902
O O4 0.105481 0.981882 0.171652
O O5 0.821622 0.439841 0.906016
O O6 0.683865 0.213893 0.923067
O O7 0.603848 0.245543 0.742869
O O8 0.409586 0.379236 0.057893
O O9 0.959108 0.546485 0.727278
O O10 0.232949 0.486020 0.753552
O O11 0.024878 0.700954 0.988418
O O12 0.938248 0.812750 0.293230
O O13 0.500000 0.000000 0.500000
O O14 0.757857 0.011017 0.564740
O O15 0.500000 0.500000 0.500000
O O16 0.641925 0.493626 0.656147
O O17 0.422312 0.264424 0.528059
#
# Coordination Sequence:
#
# PCOD9055837 Si02
#       8
#     2   2   2   2   2   2   2   2
#     4  11  23  47  66 101 142 182 231 292 350 407
#     4  12  23  47  71 103 139 188 238 281 350 423
#     4  12  27  47  71 101 145 185 234 295 342 415
#     4  11  21  43  74  93 133 191 232 279 347 414
#     4  11  25  42  72 105 135 186 238 285 346 416
#     4  12  25  45  71 102 137 186 234 282 359 412
#     4  12  29  44  71 109 144 182 234 290 355 415
#     4  11  21  44  71  97 136 183 234 285 341 417
#
# _framework density 23.102388999999999
#
# number of rings (size 3 to 8) (size 9 to 14) (size 15 to 20)
#    0.000    0.500    6.250    2.250    5.250    2.500 
#    2.250    0.000    0.000    0.000    0.000    0.000 
#    0.000    0.000    0.000    0.000    0.000    0.000 
#
# Total GULP energy -89550.180055 kJ/mol
# GULP energy per Si atom -5596.886253 kJ/mol
# Density = 2.304981 g / cm^3
# Si number density = 23.102389 Si / 1000 Ang^3
#
#
#
# Elastic Constant Matrix: (Units=GPa)
#
#
# Indices 1 2 3 4 5 6 
#
# 1 96.7275 11.8268 19.0733 5.9383 23.9527 10.7563
# 2 11.8268 138.4632 27.0800 -0.6158 6.8932 13.6440
# 3 19.0733 27.0800 63.9490 9.3744 10.1327 17.8632
# 4 5.9383 -0.6158 9.3744 33.2252 7.8979 10.3535
# 5 23.9527 6.8932 10.1327 7.8979 29.4771 9.0768
# 6 10.7563 13.6440 17.8632 10.3535 9.0768 42.5307
#
#
#
# Elastic Compliance Matrix: (Units=1/GPa)
#
#
# Indices 1 2 3 4 5 6 
#
# 1 0.013301 -0.000139 -0.002320 0.000789 -0.010070 -0.000388
# 2 -0.000139 0.008025 -0.003071 0.001675 -0.000692 -0.001510
# 3 -0.002320 -0.003071 0.019938 -0.003098 -0.001668 -0.005692
# 4 0.000789 0.001675 -0.003098 0.034555 -0.007289 -0.006292
# 5 -0.010070 -0.000692 -0.001668 -0.007289 0.046218 -0.004620
# 6 -0.000388 -0.001510 -0.005692 -0.006292 -0.004620 0.029003
#
#
# Mechanical properties :
#
#
# Convention : Reuss Voigt Hill
#
# Bulk Modulus (GPa) = 33.10810 46.12220 39.61515
# Shear Modulus (GPa) = 29.04100 37.12392 33.08246
#
# Velocity S-wave (km/s) = 3.54935 4.01300 3.78827
# Velocity P-wave (km/s) = 5.58205 6.44048 6.02657
#
# Compressibility (1/GPa) = 0.03020409
#
# Stress axis : x y z
#
# Youngs Moduli (GPa) = 75.18108 124.60577 50.15475
#
# Poissons Ratio (x) = 0.01736 0.11635
# Poissons Ratio (y) = 0.01047 0.15403
# Poissons Ratio (z) = 0.17441 0.38268
#
# Static dielectric constant tensor:
#      x y z
#    x 2.002040 -0.023720 -0.013990 
#    y -0.023720 1.853290 0.032330 
#    z -0.013990 0.032330 1.871190 
# 
# From -- ./inp_files/392983.got.cif
#   From: 2010.05.17/outbox.cif.g08.bks.cpg/sg2_197_cif.got.tgz:392983.got - 2010.06.03 11:33:40.
