data_PCOD9055447
_publ_section_title
;
Structure prediction by ZEFSAII (Michael W. Deem and Ramdas Pophale) SiO2 
 PCOD9055447
Probable space group: P -1
;
_chemical_formula_sum "Si O2"
_cell_formula_units_Z 16
_cell_length_a 12.984014
_cell_length_b 9.526113
_cell_length_c 23.151147
_cell_angle_alpha 143.649331
_cell_angle_beta 154.714580
_cell_angle_gamma 47.835870
_cell_volume 706.349454
_symmetry_space_group_name_H-M "P -1"
_symmetry_group_IT_number 2
_symmetry_cell_setting 'triclinic'
loop_
_space_group_symop_operation_xyz
x,y,z
-x,-y,-z
loop_
_atom_site_type_symbol
_atom_site_label
_atom_site_fract_x
_atom_site_fract_y
_atom_site_fract_z
Si Si1 0.003064 0.170329 0.849329
Si Si2 0.635569 0.276503 0.347891
Si Si3 0.900051 0.343076 0.274275
Si Si4 0.572197 0.460699 0.250079
Si Si5 0.938704 0.582827 0.150526
Si Si6 0.310224 0.324507 0.305640
Si Si7 0.313472 0.813677 0.194546
Si Si8 0.545690 0.754986 0.074685
O O1 0.904647 0.279096 0.777962
O O2 0.877635 0.234763 0.865278
O O3 0.967824 0.882042 0.730298
O O4 0.297385 0.291212 0.042684
O O5 0.629858 0.413993 0.329760
O O6 0.419341 0.306941 0.291413
O O7 0.897321 0.408656 0.552805
O O8 0.592675 0.992078 0.216965
O O9 0.761640 0.378710 0.275338
O O10 0.689482 0.266585 0.093545
O O11 0.555168 0.738028 0.318682
O O12 0.790777 0.763955 0.164051
O O13 0.079446 0.447623 0.221818
O O14 0.747785 0.366050 0.950240
O O15 0.500000 0.500000 0.500000
O O16 0.286411 0.067966 0.239564
O O17 0.500000 0.500000 0.000000
#
# Coordination Sequence:
#
# PCOD9055447 Si02
#       8
#     2   2   2   2   2   2   2   2
#     4  11  21  41  75 103 138 183 238 290 349 422
#     4  12  27  46  75 105 146 186 235 294 354 422
#     4  12  25  45  73 109 143 186 236 291 354 421
#     4  11  22  45  70 105 143 180 237 295 351 414
#     4  11  24  45  70 101 140 185 234 292 351 413
#     4  12  28  47  65 102 148 184 236 295 353 423
#     4  11  23  42  73 101 135 188 238 286 348 426
#     4  12  27  46  74 106 146 188 236 291 356 424
#
# _framework density 22.651675999999998
#
# number of rings (size 3 to 8) (size 9 to 14) (size 15 to 20)
#    0.000    0.500    3.750    6.375    3.500    2.500 
#    0.000    2.500    0.000    0.000    0.000    0.000 
#    0.000    0.000    0.000    0.000    0.000    0.000 
#
# Total GULP energy -89488.768621 kJ/mol
# GULP energy per Si atom -5593.048039 kJ/mol
# Density = 2.260012 g / cm^3
# Si number density = 22.651676 Si / 1000 Ang^3
#
#
#
# Elastic Constant Matrix: (Units=GPa)
#
#
# Indices 1 2 3 4 5 6 
#
# 1 6.0914 29.3482 23.9213 -45.7275 -0.7679 58.5117
# 2 29.3482 111.3996 19.9592 26.3550 -13.9832 -22.5533
# 3 23.9213 19.9592 53.8548 37.8158 -7.7785 -36.7322
# 4 -45.7275 26.3550 37.8158 -28.2940 0.0301 54.3991
# 5 -0.7679 -13.9832 -7.7785 0.0301 19.2703 -0.5515
# 6 58.5117 -22.5533 -36.7322 54.3991 -0.5515 -37.5009
#
#
#
# Elastic Compliance Matrix: (Units=1/GPa)
#
#
# Indices 1 2 3 4 5 6 
#
# 1 0.016480 -0.001253 0.004906 -0.011376 0.001893 0.005132
# 2 -0.001253 0.010131 -0.004618 0.000913 0.005371 -0.002279
# 3 0.004906 -0.004618 0.015420 0.000382 0.002949 -0.004161
# 4 -0.011376 0.000913 0.000382 0.028801 0.000979 0.023091
# 5 0.001893 0.005371 0.002949 0.000979 0.056981 -0.002584
# 6 0.005132 -0.002279 -0.004161 0.023091 -0.002584 0.020323
#
#
# Mechanical properties :
#
#
# Convention : Reuss Voigt Hill
#
# Bulk Modulus (GPa) = 24.93671 35.31145 30.12408
# Shear Modulus (GPa) = 30.59354 -2.76379 13.91487
#
# Velocity S-wave (km/s) = 3.67905 -1.10579 2.48119
# Velocity P-wave (km/s) = 5.39258 3.74064 4.64070
#
# Compressibility (1/GPa) = 0.04010152
#
# Stress axis : x y z
#
# Youngs Moduli (GPa) = 60.67845 98.70798 64.85011
#
# Poissons Ratio (x) = 0.12366 -0.31814
# Poissons Ratio (y) = 0.07602 0.29947
# Poissons Ratio (z) = -0.29767 0.45583
#
# Static dielectric constant tensor:
#      x y z
#    x 1.847200 -0.064990 0.052540 
#    y -0.064990 0.506480 0.366000 
#    z 0.052540 0.366000 1.766760 
# 
# From -- ./inp_files/594280.got.cif
#   From: 2010.05.17/outbox.cif.g08.bks.cpg/sg2_298_cif.got.tgz:594280.got - 2010.06.03 11:33:40.
