data_PCOD9055336
_publ_section_title
;
Structure prediction by ZEFSAII (Michael W. Deem and Ramdas Pophale) SiO2 
 PCOD9055336
Probable space group: P -1
;
_chemical_formula_sum "Si O2"
_cell_formula_units_Z 16
_cell_length_a 18.715865
_cell_length_b 12.712741
_cell_length_c 9.484748
_cell_angle_alpha 35.790569
_cell_angle_beta 138.967750
_cell_angle_gamma 146.902843
_cell_volume 700.632792
_symmetry_space_group_name_H-M "P -1"
_symmetry_group_IT_number 2
_symmetry_cell_setting 'triclinic'
loop_
_space_group_symop_operation_xyz
x,y,z
-x,-y,-z
loop_
_atom_site_type_symbol
_atom_site_label
_atom_site_fract_x
_atom_site_fract_y
_atom_site_fract_z
Si Si1 0.215001 0.250821 0.625748
Si Si2 0.783313 0.004006 0.598245
Si Si3 0.611569 0.497640 0.754751
Si Si4 0.889641 0.889172 0.687723
Si Si5 0.515901 0.544524 0.811158
Si Si6 0.138498 0.573339 0.199700
Si Si7 0.660462 0.184634 0.017425
Si Si8 0.117876 0.837602 0.118788
O O1 0.148971 0.119288 0.523385
O O2 0.371128 0.455878 0.628920
O O3 0.138976 0.357311 0.442135
O O4 0.202816 0.080135 0.905282
O O5 0.929358 0.075960 0.657520
O O6 0.635663 0.796775 0.679291
O O7 0.735037 0.111144 0.301926
O O8 0.848925 0.143735 0.689634
O O9 0.500000 0.500000 0.500000
O O10 0.741613 0.750668 0.693787
O O11 0.554604 0.406396 0.924161
O O12 0.673213 0.394338 0.874819
O O13 0.969917 0.783472 0.936042
O O14 0.500000 0.500000 0.000000
O O15 0.266428 0.748695 0.098449
O O16 0.142922 0.683729 0.232847
O O17 0.000000 0.500000 0.000000
O O18 0.500000 0.000000 0.000000
#
# Coordination Sequence:
#
# PCOD9055336 Si02
#       8
#     2   2   2   2   2   2   2   2
#     4  12  23  44  74  99 136 187 233 285 347 414
#     4  11  26  43  70 104 141 180 228 295 354 411
#     4  11  21  41  68  94 131 180 230 282 339 410
#     4  11  22  44  69  98 135 184 238 275 344 421
#     4  11  23  43  65  99 139 178 228 282 350 412
#     4  12  26  47  71 106 140 183 241 289 345 421
#     4  12  25  43  69 103 136 180 237 290 341 415
#     4  12  26  45  70 105 142 183 231 288 354 421
#
# _framework density 22.836500000000001
#
# number of rings (size 3 to 8) (size 9 to 14) (size 15 to 20)
#    0.000    0.500    5.000    3.750    3.500    1.000 
#    0.000    3.125    0.000    0.000    0.000    0.000 
#    0.000    0.000    0.000    0.000    0.000    0.000 
#
# Total GULP energy -89135.162775 kJ/mol
# GULP energy per Si atom -5570.947673 kJ/mol
# Density = 2.278452 g / cm^3
# Si number density = 22.836500 Si / 1000 Ang^3
#
#
#
# Elastic Constant Matrix: (Units=GPa)
#
#
# Indices 1 2 3 4 5 6 
#
# 1 208.7641 46.8676 42.0245 9.1759 -7.1224 -32.1584
# 2 46.8676 59.7552 7.9341 16.7965 -7.4979 -4.0144
# 3 42.0245 7.9341 37.4593 -5.7529 -0.8850 -28.7052
# 4 9.1759 16.7965 -5.7529 28.9944 -2.4615 4.9262
# 5 -7.1224 -7.4979 -0.8850 -2.4615 42.7140 3.3345
# 6 -32.1584 -4.0144 -28.7052 4.9262 3.3345 43.5314
#
#
#
# Elastic Compliance Matrix: (Units=1/GPa)
#
#
# Indices 1 2 3 4 5 6 
#
# 1 0.007351 -0.004407 -0.007185 -0.001252 0.000199 0.000413
# 2 -0.004407 0.024585 -0.004027 -0.012989 0.002936 -0.002399
# 3 -0.007185 -0.004027 0.064882 0.011122 -0.002734 0.036056
# 4 -0.001252 -0.012989 0.011122 0.044619 0.000302 0.000138
# 5 0.000199 0.002936 -0.002734 0.000302 0.024176 -0.003271
# 6 0.000413 -0.002399 0.036056 0.000138 -0.003271 0.047066
#
#
# Mechanical properties :
#
#
# Convention : Reuss Voigt Hill
#
# Bulk Modulus (GPa) = 15.24835 55.51455 35.38145
# Shear Modulus (GPa) = 18.81272 36.99145 27.90208
#
# Velocity S-wave (km/s) = 2.87331 4.02909 3.49925
# Velocity P-wave (km/s) = 4.20708 6.78285 5.64387
#
# Compressibility (1/GPa) = 0.06558085
#
# Stress axis : x y z
#
# Youngs Moduli (GPa) = 136.03123 40.67583 15.41254
#
# Poissons Ratio (x) = 0.17926 0.11074
# Poissons Ratio (y) = 0.59950 0.06206
# Poissons Ratio (z) = 0.97737 0.16379
#
# Static dielectric constant tensor:
#      x y z
#    x 0.641790 0.627440 -0.328630 
#    y 0.627440 1.734240 0.242530 
#    z -0.328630 0.242530 1.594470 
# 
# From -- ./inp_files/332789.got.cif
#   From: 2010.05.17/outbox.cif.g08.bks.cpg/sg2_167_cif.got.tgz:332789.got - 2010.06.03 11:33:40.
