data_PCOD9055199
_publ_section_title
;
Structure prediction by ZEFSAII (Michael W. Deem and Ramdas Pophale) SiO2 
 PCOD9055199
Probable space group: P -1
;
_chemical_formula_sum "Si O2"
_cell_formula_units_Z 12
_cell_length_a 5.592761
_cell_length_b 14.449845
_cell_length_c 9.345984
_cell_angle_alpha 133.839500
_cell_angle_beta 71.799751
_cell_angle_gamma 114.008138
_cell_volume 497.114213
_symmetry_space_group_name_H-M "P -1"
_symmetry_group_IT_number 2
_symmetry_cell_setting 'triclinic'
loop_
_space_group_symop_operation_xyz
x,y,z
-x,-y,-z
loop_
_atom_site_type_symbol
_atom_site_label
_atom_site_fract_x
_atom_site_fract_y
_atom_site_fract_z
Si Si1 0.447473 0.635887 0.721985
Si Si2 0.723583 0.136309 0.112849
Si Si3 0.784525 0.730723 0.010082
Si Si4 0.162986 0.819913 0.559170
Si Si5 0.921676 0.480515 0.665465
Si Si6 0.232191 0.127856 0.545816
O O1 0.500000 0.500000 0.500000
O O2 0.396006 0.735609 0.716210
O O3 0.621645 0.743323 0.913373
O O4 0.185218 0.567448 0.783749
O O5 0.885416 0.132885 0.222894
O O6 0.923603 0.178462 0.988561
O O7 0.500000 0.000000 0.000000
O O8 0.733932 0.570632 0.832168
O O9 0.719346 0.771597 0.220935
O O10 0.475802 0.892608 0.551739
O O11 0.148554 0.664928 0.415770
O O12 0.924309 0.827360 0.508747
O O13 0.000000 0.500000 0.500000
O O14 0.000000 0.000000 0.500000
#
# Coordination Sequence:
#
# PCOD9055199 Si02
#       6
#     2   2   2   2   2   2
#     4  11  21  40  71 101 147 178 239 309 377 414
#     4  11  25  42  73 109 137 191 259 306 363 440
#     4  11  25  45  72  99 149 196 233 309 368 436
#     4  12  27  48  77 106 146 197 245 302 372 440
#     4  11  22  43  70 109 142 178 242 314 367 427
#     4  12  31  51  70 104 157 198 242 302 369 444
#
# _framework density 24.139322
#
# number of rings (size 3 to 8) (size 9 to 14) (size 15 to 20)
#    0.000    0.667    5.000    1.500   14.000    2.000 
#    0.000    0.000    0.000    0.000    0.000    0.000 
#    0.000    0.000    0.000    0.000    0.000    0.000 
#
# Total GULP energy -66803.099838 kJ/mol
# GULP energy per Si atom -5566.924986 kJ/mol
# Density = 2.408438 g / cm^3
# Si number density = 24.139322 Si / 1000 Ang^3
#
#
#
# Elastic Constant Matrix: (Units=GPa)
#
#
# Indices 1 2 3 4 5 6 
#
# 1 102.6538 11.9210 8.9666 -16.6822 26.2083 5.8554
# 2 11.9210 80.6456 -1.0045 19.5847 10.5032 8.3272
# 3 8.9666 -1.0045 92.7383 -11.8760 20.5104 -18.6101
# 4 -16.6822 19.5847 -11.8760 38.9415 6.1605 12.1073
# 5 26.2083 10.5032 20.5104 6.1605 36.1477 -2.6296
# 6 5.8554 8.3272 -18.6101 12.1073 -2.6296 41.2549
#
#
#
# Elastic Compliance Matrix: (Units=1/GPa)
#
#
# Indices 1 2 3 4 5 6 
#
# 1 0.016099 -0.003068 0.002251 0.013143 -0.014694 -0.005444
# 2 -0.003068 0.015091 -0.000694 -0.008979 -0.000259 -0.000305
# 3 0.002251 -0.000694 0.014415 0.006152 -0.010377 0.003856
# 4 0.013143 -0.008979 0.006152 0.044236 -0.018783 -0.011457
# 5 -0.014694 -0.000259 -0.010377 -0.018783 0.047920 0.006024
# 6 -0.005444 -0.000305 0.003856 -0.011457 0.006024 0.030560
#
#
# Mechanical properties :
#
#
# Convention : Reuss Voigt Hill
#
# Bulk Modulus (GPa) = 23.48379 35.08930 29.28655
# Shear Modulus (GPa) = 26.94897 40.34580 33.64738
#
# Velocity S-wave (km/s) = 3.34487 4.09268 3.73752
# Velocity P-wave (km/s) = 4.96660 6.07462 5.54834
#
# Compressibility (1/GPa) = 0.04258256
#
# Stress axis : x y z
#
# Youngs Moduli (GPa) = 62.11542 66.26657 69.37431
#
# Poissons Ratio (x) = 0.20328 -0.15613
# Poissons Ratio (y) = 0.19055 0.04813
# Poissons Ratio (z) = -0.13980 0.04597
#
# Static dielectric constant tensor:
#      x y z
#    x 2.821690 -0.353110 0.123250 
#    y -0.353110 2.089120 -0.038090 
#    z 0.123250 -0.038090 2.066460 
# 
# From -- ./inp_files/84505.got.cif
#   From: 2010.05.17/outbox.cif.g08.bks.cpg/sg2_43_cif.got.tgz:84505.got - 2010.06.03 11:33:40.
