data_PCOD9055180
_publ_section_title
;
Structure prediction by ZEFSAII (Michael W. Deem and Ramdas Pophale) SiO2 
 PCOD9055180
Probable space group: P -1
;
_chemical_formula_sum "Si O2"
_cell_formula_units_Z 11
_cell_length_a 8.875900
_cell_length_b 9.092157
_cell_length_c 8.658596
_cell_angle_alpha 75.643849
_cell_angle_beta 49.662528
_cell_angle_gamma 106.184306
_cell_volume 414.794777
_symmetry_space_group_name_H-M "P -1"
_symmetry_group_IT_number 2
_symmetry_cell_setting 'triclinic'
loop_
_space_group_symop_operation_xyz
x,y,z
-x,-y,-z
loop_
_atom_site_type_symbol
_atom_site_label
_atom_site_fract_x
_atom_site_fract_y
_atom_site_fract_z
Si Si1 0.737404 0.387034 0.371540
Si Si2 0.096724 0.872780 0.689622
Si Si3 0.344709 0.270534 0.412675
Si Si4 0.500000 0.000000 0.000000
Si Si5 0.092826 0.817136 0.059292
Si Si6 0.518368 0.658783 0.135022
O O1 0.811023 0.248394 0.393678
O O2 0.596290 0.347643 0.314490
O O3 0.551810 0.362170 0.631423
O O4 0.982738 0.599476 0.160744
O O5 0.244035 0.072015 0.451729
O O6 0.157607 0.906164 0.823341
O O7 0.807502 0.764240 0.896062
O O8 0.376728 0.436174 0.246895
O O9 0.134324 0.208202 0.694963
O O10 0.315432 0.944211 0.993336
O O11 0.437454 0.782502 0.088468
#
# Coordination Sequence:
#
# PCOD9055180 Si02
#       6
#     2   2   2   1   2   2
#     4  11  23  41  75 110 130 170 235 294 332 394
#     4  12  22  44  75 104 137 171 229 293 339 389
#     4  11  21  40  70 104 131 171 230 283 332 398
#     4  12  26  44  72  92 142 200 212 274 350 410
#     4  11  22  42  71  99 139 183 226 271 347 406
#     4  11  24  46  67 100 138 182 229 272 344 402
#
# _framework density 26.519136
#
# number of rings (size 3 to 8) (size 9 to 14) (size 15 to 20)
#    0.000    0.727    5.455    3.818    0.000    2.909 
#    0.000    1.818    4.000    0.000    0.000    0.000 
#    0.000    0.000    0.000    0.000    0.000    0.000 
#
# Total GULP energy -61459.756143 kJ/mol
# GULP energy per Si atom -5587.250558 kJ/mol
# Density = 2.645878 g / cm^3
# Si number density = 26.519136 Si / 1000 Ang^3
#
#
#
# Elastic Constant Matrix: (Units=GPa)
#
#
# Indices 1 2 3 4 5 6 
#
# 1 86.2275 47.2334 36.1546 -7.2330 2.4259 -2.0870
# 2 47.2334 135.8211 59.3902 -59.7320 13.3416 -51.2214
# 3 36.1546 59.3902 116.3720 -3.8125 1.9882 2.7473
# 4 -7.2330 -59.7320 -3.8125 54.1582 -11.2759 11.1330
# 5 2.4259 13.3416 1.9882 -11.2759 22.1570 -8.6661
# 6 -2.0870 -51.2214 2.7473 11.1330 -8.6661 68.1078
#
#
#
# Elastic Compliance Matrix: (Units=1/GPa)
#
#
# Indices 1 2 3 4 5 6 
#
# 1 0.020474 -0.024385 0.005813 -0.021702 -0.005005 -0.015035
# 2 -0.024385 0.084841 -0.034633 0.080324 0.016463 0.053420
# 3 0.005813 -0.034633 0.024047 -0.032642 -0.007327 -0.022435
# 4 -0.021702 0.080324 -0.032642 0.097183 0.025325 0.048397
# 5 -0.005005 0.016463 -0.007327 0.025325 0.055347 0.015426
# 6 -0.015035 0.053420 -0.022435 0.048397 0.015426 0.049354
#
#
# Mechanical properties :
#
#
# Convention : Reuss Voigt Hill
#
# Bulk Modulus (GPa) = 43.56805 69.33078 56.44941
# Shear Modulus (GPa) = 11.22826 41.92744 26.57785
#
# Velocity S-wave (km/s) = 2.05991 3.98053 3.16921
# Velocity P-wave (km/s) = 4.70342 6.87943 5.89274
#
# Compressibility (1/GPa) = 0.02295260
#
# Stress axis : x y z
#
# Youngs Moduli (GPa) = 48.84345 11.78678 41.58446
#
# Poissons Ratio (x) = 0.28742 -0.24175
# Poissons Ratio (y) = 1.19103 1.44021
# Poissons Ratio (z) = -0.28395 0.40821
#
# Static dielectric constant tensor:
#      x y z
#    x 1.889300 -0.098240 0.057320 
#    y -0.098240 2.120870 0.044380 
#    z 0.057320 0.044380 2.069720 
# 
# From -- ./inp_files/148573.got.cif
#   From: 2010.05.17/outbox.cif.g08.bks.cpg/sg2_75_cif.got.tgz:148573.got - 2010.06.03 11:33:40.
