data_PCOD9055301
_publ_section_title
;
Structure prediction by ZEFSAII (Michael W. Deem and Ramdas Pophale) SiO2 
 PCOD9055301
Probable space group: P -1
;
_chemical_formula_sum "Si O2"
_cell_formula_units_Z 15
_cell_length_a 8.699733
_cell_length_b 7.472788
_cell_length_c 20.106882
_cell_angle_alpha 131.185461
_cell_angle_beta 140.203722
_cell_angle_gamma 53.236043
_cell_volume 617.923630
_symmetry_space_group_name_H-M "P -1"
_symmetry_group_IT_number 2
_symmetry_cell_setting 'triclinic'
loop_
_space_group_symop_operation_xyz
x,y,z
-x,-y,-z
loop_
_atom_site_type_symbol
_atom_site_label
_atom_site_fract_x
_atom_site_fract_y
_atom_site_fract_z
Si Si1 0.927649 0.994613 0.821013
Si Si2 0.610050 0.739303 0.106128
Si Si3 0.414700 0.567238 0.563294
Si Si4 0.000000 0.500000 0.500000
Si Si5 0.118991 0.417151 0.191442
Si Si6 0.384790 0.114702 0.704839
Si Si7 0.204390 0.611862 0.722302
Si Si8 0.681400 0.781158 0.932785
O O1 0.956956 0.805951 0.847124
O O2 0.022854 0.826523 0.749659
O O3 0.640853 0.103141 0.748309
O O4 0.096420 0.189895 0.938696
O O5 0.565617 0.845033 0.191492
O O6 0.898417 0.644769 0.170894
O O7 0.480064 0.950220 0.066421
O O8 0.500000 0.500000 0.000000
O O9 0.500000 0.500000 0.500000
O O10 0.206593 0.441621 0.494848
O O11 0.657802 0.516881 0.676711
O O12 0.314535 0.856922 0.605315
O O13 0.191737 0.616488 0.639814
O O14 0.201867 0.320852 0.122956
O O15 0.182565 0.340274 0.669371
O O16 0.474019 0.630557 0.844975
#
# Coordination Sequence:
#
# PCOD9055301 Si02
#       8
#     2   2   2   1   2   2   2   2
#     4  11  22  41  71 100 143 182 228 293 351 432
#     4  12  21  37  70 106 136 188 228 279 356 439
#     4  11  25  49  75 103 139 188 243 308 358 421
#     4  12  24  50  72  96 144 182 240 306 354 412
#     4  11  21  41  67 102 138 177 236 287 353 423
#     4  11  24  44  69 105 136 187 237 284 369 427
#     4  12  26  45  67 101 141 186 235 297 357 423
#     4  12  23  42  66 105 146 180 233 292 351 427
#
# _framework density 24.274844999999999
#
# number of rings (size 3 to 8) (size 9 to 14) (size 15 to 20)
#    0.000    0.533    6.667    3.200    0.000    2.133 
#    2.400    2.667    0.000    0.000    0.000    0.000 
#    0.000    0.000    0.000    0.000    0.000    0.000 
#
# Total GULP energy -83814.547616 kJ/mol
# GULP energy per Si atom -5587.636508 kJ/mol
# Density = 2.421959 g / cm^3
# Si number density = 24.274845 Si / 1000 Ang^3
#
#
#
# Elastic Constant Matrix: (Units=GPa)
#
#
# Indices 1 2 3 4 5 6 
#
# 1 107.7706 0.7703 46.0607 3.7982 -13.1997 -19.0262
# 2 0.7703 69.2142 9.0613 6.4106 1.2148 0.5476
# 3 46.0607 9.0613 128.0473 4.6066 -13.5572 -14.1698
# 4 3.7982 6.4106 4.6066 34.6082 -11.8829 0.9303
# 5 -13.1997 1.2148 -13.5572 -11.8829 53.9800 2.1913
# 6 -19.0262 0.5476 -14.1698 0.9303 2.1913 24.8382
#
#
#
# Elastic Compliance Matrix: (Units=1/GPa)
#
#
# Indices 1 2 3 4 5 6 
#
# 1 0.012257 0.000274 -0.003419 -0.000548 0.001715 0.007301
# 2 0.000274 0.014914 -0.001241 -0.003031 -0.001223 -0.000606
# 3 -0.003419 -0.001241 0.009594 -0.000254 0.001433 0.002765
# 4 -0.000548 -0.003031 -0.000254 0.032021 0.007013 -0.002316
# 5 0.001715 -0.001223 0.001433 0.007013 0.020874 0.000054
# 6 0.007301 -0.000606 0.002765 -0.002316 0.000054 0.047526
#
#
# Mechanical properties :
#
#
# Convention : Reuss Voigt Hill
#
# Bulk Modulus (GPa) = 35.72395 46.31297 41.01846
# Shear Modulus (GPa) = 32.19791 39.29460 35.74625
#
# Velocity S-wave (km/s) = 3.64591 4.02772 3.84156
# Velocity P-wave (km/s) = 5.69842 6.38357 6.05070
#
# Compressibility (1/GPa) = 0.02799243
#
# Stress axis : x y z
#
# Youngs Moduli (GPa) = 81.58806 67.04937 104.22969
#
# Poissons Ratio (x) = -0.01838 0.35636
# Poissons Ratio (y) = -0.02236 0.12940
# Poissons Ratio (z) = 0.27895 0.08324
#
# Static dielectric constant tensor:
#      x y z
#    x 2.327870 0.260920 0.372320 
#    y 0.260920 2.055650 0.164300 
#    z 0.372320 0.164300 2.295460 
# 
# From -- ./inp_files/203516.got.cif
#   From: 2010.05.17/outbox.cif.g08.bks.cpg/sg2_102_cif.got.tgz:203516.got - 2010.06.03 11:33:40.
