data_PCOD9055691
_publ_section_title
;
Structure prediction by ZEFSAII (Michael W. Deem and Ramdas Pophale) SiO2 
 PCOD9055691
Probable space group: P -1
;
_chemical_formula_sum "Si O2"
_cell_formula_units_Z 16
_cell_length_a 8.897858
_cell_length_b 11.120967
_cell_length_c 13.892896
_cell_angle_alpha 114.903178
_cell_angle_beta 140.996428
_cell_angle_gamma 85.242967
_cell_volume 709.276529
_symmetry_space_group_name_H-M "P -1"
_symmetry_group_IT_number 2
_symmetry_cell_setting 'triclinic'
loop_
_space_group_symop_operation_xyz
x,y,z
-x,-y,-z
loop_
_atom_site_type_symbol
_atom_site_label
_atom_site_fract_x
_atom_site_fract_y
_atom_site_fract_z
Si Si1 0.151268 0.221908 0.526783
Si Si2 0.943455 0.501588 0.085307
Si Si3 0.327355 0.296465 0.997813
Si Si4 0.617680 0.380513 0.512842
Si Si5 0.738936 0.483213 0.411966
Si Si6 0.553579 0.219489 0.891950
Si Si7 0.370889 0.888925 0.648904
Si Si8 0.788252 0.044739 0.613447
O O1 0.282522 0.368902 0.578745
O O2 0.331864 0.224029 0.708892
O O3 0.859613 0.185243 0.410916
O O4 0.146577 0.093689 0.412787
O O5 0.733547 0.568627 0.022144
O O6 0.219171 0.607450 0.306688
O O7 0.824404 0.344220 0.025849
O O8 0.000000 0.500000 0.000000
O O9 0.475491 0.251713 0.971030
O O10 0.037174 0.169361 0.831362
O O11 0.494650 0.349838 0.196406
O O12 0.500000 0.500000 0.500000
O O13 0.806094 0.458688 0.544730
O O14 0.487055 0.213138 0.351538
O O15 0.000000 0.500000 0.500000
O O16 0.541438 0.056527 0.823447
O O17 0.221332 0.901044 0.481618
O O18 0.500000 0.000000 0.500000
#
# Coordination Sequence:
#
# PCOD9055691 Si02
#       8
#     2   2   2   2   2   2   2   2
#     4  11  21  43  66 103 140 180 238 291 363 416
#     4  12  26  44  71 106 138 182 245 296 351 425
#     4  12  23  43  72 107 137 187 246 295 345 422
#     4  12  27  47  66 100 148 185 226 292 367 432
#     4  12  26  43  71 103 146 191 233 289 362 430
#     4  11  22  41  72 103 134 177 245 305 336 411
#     4  11  22  44  68  98 140 183 235 294 359 415
#     4  11  24  39  71 106 140 179 244 307 355 407
#
# _framework density 22.558198000000001
#
# number of rings (size 3 to 8) (size 9 to 14) (size 15 to 20)
#    0.000    0.500    6.250    2.625    5.250    0.000 
#    0.000    4.375    0.000    0.000    0.000    0.000 
#    0.000    0.000    0.000    0.000    0.000    0.000 
#
# Total GULP energy -89274.505980 kJ/mol
# GULP energy per Si atom -5579.656624 kJ/mol
# Density = 2.250685 g / cm^3
# Si number density = 22.558198 Si / 1000 Ang^3
#
#
#
# Elastic Constant Matrix: (Units=GPa)
#
#
# Indices 1 2 3 4 5 6 
#
# 1 98.4057 26.4460 24.3682 23.6250 -2.0046 -7.3821
# 2 26.4460 103.5400 31.7403 31.1898 -18.3418 -26.3702
# 3 24.3682 31.7403 87.8218 24.6907 -2.0830 -0.1757
# 4 23.6250 31.1898 24.6907 41.7599 4.6336 -6.4350
# 5 -2.0046 -18.3418 -2.0830 4.6336 31.0090 1.8529
# 6 -7.3821 -26.3702 -0.1757 -6.4350 1.8529 44.8675
#
#
#
# Elastic Compliance Matrix: (Units=1/GPa)
#
#
# Indices 1 2 3 4 5 6 
#
# 1 0.012107 -0.000531 -0.001590 -0.005510 0.001135 0.000836
# 2 -0.000531 0.018593 -0.002938 -0.011853 0.012021 0.008632
# 3 -0.001590 -0.002938 0.014568 -0.005973 0.000198 -0.002796
# 4 -0.005510 -0.011853 -0.005973 0.040747 -0.013769 -0.001484
# 5 0.001135 0.012021 0.000198 -0.013769 0.041290 0.003573
# 6 0.000836 0.008632 -0.002796 -0.001484 0.003573 0.027128
#
#
# Mechanical properties :
#
#
# Convention : Reuss Voigt Hill
#
# Bulk Modulus (GPa) = 28.44891 50.54184 39.49537
# Shear Modulus (GPa) = 28.36617 37.34149 32.85383
#
# Velocity S-wave (km/s) = 3.54992 4.07300 3.82043
# Velocity P-wave (km/s) = 5.42599 6.67629 6.08334
#
# Compressibility (1/GPa) = 0.03515073
#
# Stress axis : x y z
#
# Youngs Moduli (GPa) = 82.59628 53.78365 68.64479
#
# Poissons Ratio (x) = 0.02857 0.10913
# Poissons Ratio (y) = 0.04388 0.20165
# Poissons Ratio (z) = 0.13131 0.15799
#
# Static dielectric constant tensor:
#      x y z
#    x 1.795850 -0.051940 0.019990 
#    y -0.051940 1.943590 0.069540 
#    z 0.019990 0.069540 1.820040 
# 
# From -- ./inp_files/419446.got.cif
#   From: 2010.05.17/outbox.cif.g08.bks.cpg/sg2_210_cif.got.tgz:419446.got - 2010.06.03 11:33:40.
