data_PCOD9055335
_publ_section_title
;
Structure prediction by ZEFSAII (Michael W. Deem and Ramdas Pophale) SiO2 
 PCOD9055335
Probable space group: P -1
;
_chemical_formula_sum "Si O2"
_cell_formula_units_Z 16
_cell_length_a 9.320932
_cell_length_b 13.858188
_cell_length_c 23.869145
_cell_angle_alpha 18.337227
_cell_angle_beta 50.538913
_cell_angle_gamma 49.613486
_cell_volume 736.131777
_symmetry_space_group_name_H-M "P -1"
_symmetry_group_IT_number 2
_symmetry_cell_setting 'triclinic'
loop_
_space_group_symop_operation_xyz
x,y,z
-x,-y,-z
loop_
_atom_site_type_symbol
_atom_site_label
_atom_site_fract_x
_atom_site_fract_y
_atom_site_fract_z
Si Si1 0.326367 0.258342 0.238353
Si Si2 0.327154 0.160563 0.416086
Si Si3 0.629764 0.634397 0.314116
Si Si4 0.996591 0.132965 0.763942
Si Si5 0.820589 0.097987 0.947700
Si Si6 0.082090 0.977983 0.388703
Si Si7 0.625489 0.095346 0.161776
Si Si8 0.187258 0.739900 0.374691
O O1 0.365399 0.084949 0.382657
O O2 0.448583 0.109651 0.237373
O O3 0.117519 0.256213 0.267510
O O4 0.380394 0.597023 0.043018
O O5 0.276295 0.538604 0.222821
O O6 0.135628 0.047599 0.543340
O O7 0.500000 0.000000 0.500000
O O8 0.790853 0.327176 0.445226
O O9 0.410302 0.600791 0.387461
O O10 0.654151 0.808585 0.270740
O O11 0.678810 0.866134 0.126346
O O12 0.056636 0.476334 0.560978
O O13 0.895389 0.071670 0.880191
O O14 0.882191 0.098438 0.755606
O O15 0.199402 0.911125 0.836661
O O16 0.000000 0.000000 0.000000
O O17 0.153585 0.960044 0.316366
#
# Coordination Sequence:
#
# PCOD9055335 Si02
#       8
#     2   2   2   2   2   2   2   2
#     4  11  25  41  65  94 137 175 224 259 343 404
#     4  12  26  43  65  99 139 181 215 274 344 401
#     4  12  22  42  76  97 128 169 241 277 321 388
#     4  11  23  41  69  96 134 170 224 282 345 375
#     4  12  21  44  73  95 131 178 228 277 326 399
#     4  12  23  44  69  97 129 180 225 277 323 409
#     4  11  21  41  68  94 123 181 221 276 321 408
#     4  11  23  39  66 105 129 163 222 291 333 380
#
# _framework density 21.735237999999999
#
# number of rings (size 3 to 8) (size 9 to 14) (size 15 to 20)
#    0.000    0.500    7.500    1.500    1.750    1.500 
#    2.250    0.625    0.000    0.000    0.000    0.000 
#    0.000    0.000    0.000    0.000    0.000    0.000 
#
# Total GULP energy -89396.113093 kJ/mol
# GULP energy per Si atom -5587.257068 kJ/mol
# Density = 2.168577 g / cm^3
# Si number density = 21.735238 Si / 1000 Ang^3
#
#
#
# Elastic Constant Matrix: (Units=GPa)
#
#
# Indices 1 2 3 4 5 6 
#
# 1 141.8451 42.8936 44.4314 23.0994 26.1814 -2.8239
# 2 42.8936 50.4321 32.0099 22.7961 7.8988 -5.5903
# 3 44.4314 32.0099 81.2979 22.0098 8.9879 0.7416
# 4 23.0994 22.7961 22.0098 37.7057 4.1962 2.7219
# 5 26.1814 7.8988 8.9879 4.1962 36.9664 6.1083
# 6 -2.8239 -5.5903 0.7416 2.7219 6.1083 37.1543
#
#
#
# Elastic Compliance Matrix: (Units=1/GPa)
#
#
# Indices 1 2 3 4 5 6 
#
# 1 0.011029 -0.006275 -0.002698 -0.000803 -0.005884 0.000974
# 2 -0.006275 0.037375 -0.007180 -0.014903 -0.001191 0.006577
# 3 -0.002698 -0.007180 0.017792 -0.004278 -0.000181 -0.001297
# 4 -0.000803 -0.014903 -0.004278 0.038760 0.001264 -0.005265
# 5 -0.005884 -0.001191 -0.000181 0.001264 0.032372 -0.006037
# 6 0.000974 0.006577 -0.001297 -0.005265 -0.006037 0.029383
#
#
# Mechanical properties :
#
#
# Convention : Reuss Voigt Hill
#
# Bulk Modulus (GPa) = 29.50702 56.91609 43.21155
# Shear Modulus (GPa) = 23.77403 32.64795 28.21099
#
# Velocity S-wave (km/s) = 3.31085 3.87987 3.60660
# Velocity P-wave (km/s) = 5.31233 6.80544 6.10471
#
# Compressibility (1/GPa) = 0.03389024
#
# Stress axis : x y z
#
# Youngs Moduli (GPa) = 90.67054 26.75562 56.20553
#
# Poissons Ratio (x) = 0.16790 0.15162
# Poissons Ratio (y) = 0.56900 0.40355
# Poissons Ratio (z) = 0.24459 0.19210
#
# Static dielectric constant tensor:
#      x y z
#    x 1.779040 -0.008420 -0.037210 
#    y -0.008420 1.812280 -0.019960 
#    z -0.037210 -0.019960 1.879710 
# 
# From -- ./inp_files/321048.got.cif
#   From: 2010.05.17/outbox.cif.g08.bks.cpg/sg2_161_cif.got.tgz:321048.got - 2010.06.03 11:33:40.
