data_PCOD9055744
_publ_section_title
;
Structure prediction by ZEFSAII (Michael W. Deem and Ramdas Pophale) SiO2 
 PCOD9055744
Probable space group: P -1
;
_chemical_formula_sum "Si O2"
_cell_formula_units_Z 16
_cell_length_a 12.704059
_cell_length_b 14.036010
_cell_length_c 13.950587
_cell_angle_alpha 147.258187
_cell_angle_beta 39.853350
_cell_angle_gamma 117.172570
_cell_volume 722.642182
_symmetry_space_group_name_H-M "P -1"
_symmetry_group_IT_number 2
_symmetry_cell_setting 'triclinic'
loop_
_space_group_symop_operation_xyz
x,y,z
-x,-y,-z
loop_
_atom_site_type_symbol
_atom_site_label
_atom_site_fract_x
_atom_site_fract_y
_atom_site_fract_z
Si Si1 0.427129 0.254030 0.098041
Si Si2 0.168473 0.498266 0.317898
Si Si3 0.977860 0.525505 0.924141
Si Si4 0.019172 0.979948 0.855157
Si Si5 0.272192 0.178393 0.799676
Si Si6 0.357966 0.438915 0.503534
Si Si7 0.307774 0.948805 0.981367
Si Si8 0.142593 0.048306 0.387304
O O1 0.362712 0.365740 0.135761
O O2 0.374350 0.416155 0.359092
O O3 0.300059 0.154419 0.126940
O O4 0.655357 0.073497 0.796630
O O5 0.113521 0.737134 0.550346
O O6 0.000000 0.500000 0.500000
O O7 0.201668 0.366066 0.086049
O O8 0.140497 0.561639 0.798013
O O9 0.035886 0.296418 0.657857
O O10 0.000000 0.500000 0.000000
O O11 0.776351 0.710434 0.176451
O O12 0.149192 0.070521 0.809871
O O13 0.800099 0.103766 0.067776
O O14 0.000000 0.000000 0.000000
O O15 0.500000 0.000000 0.500000
O O16 0.500000 0.500000 0.500000
O O17 0.465044 0.206587 0.279525
O O18 0.199573 0.963736 0.168048
O O19 0.000000 0.000000 0.500000
#
# Coordination Sequence:
#
# PCOD9055744 Si02
#       8
#     2   2   2   2   2   2   2   2
#     4  11  22  43  71 100 137 184 238 299 362 424
#     4  12  24  46  79 105 146 194 243 307 368 435
#     4  12  27  45  70 100 146 190 235 298 365 432
#     4  12  26  44  78 111 142 194 252 301 367 445
#     4  12  30  51  72 111 155 196 246 306 370 442
#     4  11  23  40  68 103 137 176 236 296 359 428
#     4  11  21  43  69  95 138 180 232 305 351 417
#     4  11  25  42  67 101 137 185 239 290 365 436
#
# _framework density 22.140972999999999
#
# number of rings (size 3 to 8) (size 9 to 14) (size 15 to 20)
#    0.000    0.500    5.000    3.000    8.750    2.500 
#    0.000    0.000    0.000    0.000    0.000    0.000 
#    0.000    0.000    0.000    0.000    0.000    0.000 
#
# Total GULP energy -89451.001957 kJ/mol
# GULP energy per Si atom -5590.687622 kJ/mol
# Density = 2.209058 g / cm^3
# Si number density = 22.140973 Si / 1000 Ang^3
#
#
#
# Elastic Constant Matrix: (Units=GPa)
#
#
# Indices 1 2 3 4 5 6 
#
# 1 124.5775 35.7703 35.6516 8.7721 -15.5600 -5.9684
# 2 35.7703 104.7457 37.2292 7.0071 -7.5979 13.4601
# 3 35.6516 37.2292 94.7248 12.4522 -12.9518 -0.2520
# 4 8.7721 7.0071 12.4522 35.3574 5.4987 -3.4070
# 5 -15.5600 -7.5979 -12.9518 5.4987 43.7853 11.4108
# 6 -5.9684 13.4601 -0.2520 -3.4070 11.4108 41.9479
#
#
#
# Elastic Compliance Matrix: (Units=1/GPa)
#
#
# Indices 1 2 3 4 5 6 
#
# 1 0.009824 -0.002503 -0.002234 -0.001350 0.002178 0.001485
# 2 -0.002503 0.012527 -0.003588 -0.001338 0.001685 -0.004964
# 3 -0.002234 -0.003588 0.013796 -0.004130 0.003263 -0.000307
# 4 -0.001350 -0.001338 -0.004130 0.031913 -0.007181 0.004758
# 5 0.002178 0.001685 0.003263 -0.007181 0.027961 -0.008400
# 6 0.001485 -0.004964 -0.000307 0.004758 -0.008400 0.028313
#
#
# Mechanical properties :
#
#
# Convention : Reuss Voigt Hill
#
# Bulk Modulus (GPa) = 51.29415 60.15003 55.72209
# Shear Modulus (GPa) = 33.90214 38.57790 36.24002
#
# Velocity S-wave (km/s) = 3.91729 4.17871 4.05011
# Velocity P-wave (km/s) = 6.60890 7.10689 6.86242
#
# Compressibility (1/GPa) = 0.01949540
#
# Stress axis : x y z
#
# Youngs Moduli (GPa) = 101.79631 79.82956 72.48296
#
# Poissons Ratio (x) = 0.19983 0.16195
# Poissons Ratio (y) = 0.25481 0.26008
# Poissons Ratio (z) = 0.22744 0.28644
#
# Static dielectric constant tensor:
#      x y z
#    x 1.855410 -0.004960 0.005110 
#    y -0.004960 1.821170 0.100640 
#    z 0.005110 0.100640 2.103280 
# 
# From -- ./inp_files/522572.got.cif
#   From: 2010.05.17/outbox.cif.g08.bks.cpg/sg2_262_cif.got.tgz:522572.got - 2010.06.03 11:33:40.
