data_PCOD9055585
_publ_section_title
;
Structure prediction by ZEFSAII (Michael W. Deem and Ramdas Pophale) SiO2 
 PCOD9055585
Probable space group: P -1
;
_chemical_formula_sum "Si O2"
_cell_formula_units_Z 14
_cell_length_a 21.045845
_cell_length_b 8.520729
_cell_length_c 11.235364
_cell_angle_alpha 53.811938
_cell_angle_beta 39.243428
_cell_angle_gamma 28.290279
_cell_volume 575.244623
_symmetry_space_group_name_H-M "P -1"
_symmetry_group_IT_number 2
_symmetry_cell_setting 'triclinic'
loop_
_space_group_symop_operation_xyz
x,y,z
-x,-y,-z
loop_
_atom_site_type_symbol
_atom_site_label
_atom_site_fract_x
_atom_site_fract_y
_atom_site_fract_z
Si Si1 0.142802 0.684773 0.252352
Si Si2 0.208839 0.283446 0.529856
Si Si3 0.210831 0.617703 0.846223
Si Si4 0.131191 0.391740 0.207854
Si Si5 0.403170 0.616595 0.212899
Si Si6 0.435820 0.428684 0.797287
Si Si7 0.785010 0.461409 0.399115
O O1 0.155622 0.571178 0.413253
O O2 0.070943 0.627104 0.297602
O O3 0.332574 0.446583 0.028912
O O4 0.000120 0.085811 0.269221
O O5 0.259698 0.261233 0.599872
O O6 0.038521 0.417270 0.702999
O O7 0.374411 0.942303 0.364836
O O8 0.312554 0.621999 0.771195
O O9 0.255503 0.514950 0.690485
O O10 0.246277 0.352900 0.976131
O O11 0.000000 0.000000 0.000000
O O12 0.249461 0.028636 0.250397
O O13 0.527232 0.451411 0.222753
O O14 0.316119 0.546446 0.380312
O O15 0.500000 0.500000 0.000000
#
# Coordination Sequence:
#
# PCOD9055585 Si02
#       7
#     2   2   2   2   2   2   2
#     4  11  21  42  71 100 136 182 234 286 346 408
#     4  12  24  41  71 108 136 182 236 288 349 406
#     4  11  26  48  71  98 143 190 232 281 349 420
#     4  11  24  44  73  97 142 182 231 282 356 407
#     4  12  27  45  73 111 139 176 240 296 340 410
#     4  11  25  42  72  99 142 183 232 286 349 409
#     4  12  26  45  71 102 145 186 230 287 347 415
#
# _framework density 24.337474
#
# number of rings (size 3 to 8) (size 9 to 14) (size 15 to 20)
#    0.000    0.571    5.714    3.000    8.000    1.714 
#    0.000    0.000    0.000    0.000    0.000    0.000 
#    0.000    0.000    0.000    0.000    0.000    0.000 
#
# Total GULP energy -78365.415630 kJ/mol
# GULP energy per Si atom -5597.529688 kJ/mol
# Density = 2.428208 g / cm^3
# Si number density = 24.337474 Si / 1000 Ang^3
#
#
#
# Elastic Constant Matrix: (Units=GPa)
#
#
# Indices 1 2 3 4 5 6 
#
# 1 199.6466 15.2219 44.4892 4.0534 6.7608 3.3746
# 2 15.2219 25.6132 7.4744 1.6478 -5.3490 -9.6010
# 3 44.4892 7.4744 94.6076 1.6556 9.8815 7.8730
# 4 4.0534 1.6478 1.6556 26.4246 -2.0247 2.5887
# 5 6.7608 -5.3490 9.8815 -2.0247 46.3581 -0.2931
# 6 3.3746 -9.6010 7.8730 2.5887 -0.2931 29.9329
#
#
#
# Elastic Compliance Matrix: (Units=1/GPa)
#
#
# Indices 1 2 3 4 5 6 
#
# 1 0.005830 -0.003330 -0.002298 -0.000495 -0.000773 -0.001086
# 2 -0.003330 0.051042 -0.004698 -0.003615 0.007335 0.018367
# 3 -0.002298 -0.004698 0.012713 0.000077 -0.002943 -0.004627
# 4 -0.000495 -0.003615 0.000077 0.038676 0.001300 -0.004456
# 5 -0.000773 0.007335 -0.002943 0.001300 0.023235 0.003329
# 6 -0.001086 0.018367 -0.004627 -0.004456 0.003329 0.041057
#
#
# Mechanical properties :
#
#
# Convention : Reuss Voigt Hill
#
# Bulk Modulus (GPa) = 20.43683 50.47093 35.45388
# Shear Modulus (GPa) = 23.86452 37.38857 30.62655
#
# Velocity S-wave (km/s) = 3.13480 3.92376 3.55126
# Velocity P-wave (km/s) = 4.63876 6.42735 5.60486
#
# Compressibility (1/GPa) = 0.04893127
#
# Stress axis : x y z
#
# Youngs Moduli (GPa) = 171.54000 19.59182 78.65947
#
# Poissons Ratio (x) = 0.06525 0.18080
# Poissons Ratio (y) = 0.57127 0.36952
# Poissons Ratio (z) = 0.39428 0.09204
#
# Static dielectric constant tensor:
#      x y z
#    x 1.965940 -0.033720 0.004900 
#    y -0.033720 1.995420 -0.006520 
#    z 0.004900 -0.006520 1.907130 
# 
# From -- ./inp_files/182835.got.cif
#   From: 2010.05.17/outbox.cif.g08.bks.cpg/sg2_92_cif.got.tgz:182835.got - 2010.06.03 11:33:40.
