data_PCOD9055425
_publ_section_title
;
Structure prediction by ZEFSAII (Michael W. Deem and Ramdas Pophale) SiO2 
 PCOD9055425
Probable space group: P -1
;
_chemical_formula_sum "Si O2"
_cell_formula_units_Z 16
_cell_length_a 8.898293
_cell_length_b 9.117817
_cell_length_c 9.269467
_cell_angle_alpha 79.759998
_cell_angle_beta 73.498911
_cell_angle_gamma 98.237460
_cell_volume 694.475417
_symmetry_space_group_name_H-M "P -1"
_symmetry_group_IT_number 2
_symmetry_cell_setting 'triclinic'
loop_
_space_group_symop_operation_xyz
x,y,z
-x,-y,-z
loop_
_atom_site_type_symbol
_atom_site_label
_atom_site_fract_x
_atom_site_fract_y
_atom_site_fract_z
Si Si1 0.939860 0.508230 0.853000
Si Si2 0.843218 0.479492 0.443483
Si Si3 0.361970 0.776631 0.785754
Si Si4 0.884300 0.155369 0.931374
Si Si5 0.574273 0.199934 0.568860
Si Si6 0.349432 0.445354 0.952807
Si Si7 0.753633 0.758723 0.246541
Si Si8 0.623980 0.978847 0.843827
O O1 0.882030 0.331491 0.849844
O O2 0.081720 0.591929 0.701281
O O3 0.797044 0.595031 0.888767
O O4 0.000000 0.500000 0.000000
O O5 0.677707 0.368714 0.550898
O O6 0.798916 0.633839 0.367086
O O7 0.000000 0.500000 0.500000
O O8 0.391184 0.824805 0.603933
O O9 0.326862 0.594968 0.845002
O O10 0.528907 0.826125 0.821472
O O11 0.222724 0.845680 0.893211
O O12 0.792069 0.026125 0.871861
O O13 0.073171 0.153155 0.875069
O O14 0.383175 0.174644 0.648795
O O15 0.634096 0.094068 0.687579
O O16 0.338360 0.317195 0.858596
O O17 0.500000 0.500000 0.000000
O O18 0.500000 0.000000 0.000000
#
# Coordination Sequence:
#
# PCOD9055425 Si02
#       8
#     2   2   2   2   2   2   2   2
#     4  10  17  36  57  87 123 161 203 243 293 377
#     4  11  22  35  60  91 131 163 198 245 318 375
#     4  10  22  41  65  89 121 163 217 251 296 367
#     4   9  19  40  64  85 121 163 209 246 291 380
#     4  12  23  38  64  92 129 159 202 271 316 349
#     4  11  23  35  64  93 132 159 200 254 317 368
#     4  11  23  38  60 100 131 157 198 259 324 369
#     4  10  23  43  66  86 116 172 225 243 295 381
#
# _framework density 23.038972000000001
#
# number of rings (size 3 to 8) (size 9 to 14) (size 15 to 20)
#    0.000    1.500    3.750    3.000    7.000    0.000 
#    0.000    3.125    0.000    0.000    0.000    0.000 
#    0.000    0.000    0.000    0.000    0.000    0.000 
#
# Total GULP energy -89215.746556 kJ/mol
# GULP energy per Si atom -5575.984160 kJ/mol
# Density = 2.298653 g / cm^3
# Si number density = 23.038972 Si / 1000 Ang^3
#
#
#
# Elastic Constant Matrix: (Units=GPa)
#
#
# Indices 1 2 3 4 5 6 
#
# 1 130.3988 19.1816 64.5343 11.8487 -7.9493 32.0284
# 2 19.1816 67.1297 31.1496 -5.8353 -2.1078 27.0750
# 3 64.5343 31.1496 134.8471 1.0224 -12.7799 10.7718
# 4 11.8487 -5.8353 1.0224 31.2695 7.3712 3.1632
# 5 -7.9493 -2.1078 -12.7799 7.3712 45.2179 2.1781
# 6 32.0284 27.0750 10.7718 3.1632 2.1781 38.8228
#
#
#
# Elastic Compliance Matrix: (Units=1/GPa)
#
#
# Indices 1 2 3 4 5 6 
#
# 1 0.013487 0.003427 -0.006105 -0.003552 0.001945 -0.011642
# 2 0.003427 0.024736 -0.005874 0.005391 0.000127 -0.018895
# 3 -0.006105 -0.005874 0.011376 -0.000130 0.001605 0.005897
# 4 -0.003552 0.005391 -0.000130 0.036126 -0.006135 -0.003393
# 5 0.001945 0.000127 0.001605 -0.006135 0.024061 -0.002989
# 6 -0.011642 -0.018895 0.005897 -0.003393 -0.002989 0.047348
#
#
# Mechanical properties :
#
#
# Convention : Reuss Voigt Hill
#
# Bulk Modulus (GPa) = 30.77255 62.45630 46.61443
# Shear Modulus (GPa) = 27.01690 37.56272 32.28981
#
# Velocity S-wave (km/s) = 3.42813 4.04220 3.74776
# Velocity P-wave (km/s) = 5.39028 6.99669 6.24535
#
# Compressibility (1/GPa) = 0.03249649
#
# Stress axis : x y z
#
# Youngs Moduli (GPa) = 74.14608 40.42659 87.90194
#
# Poissons Ratio (x) = -0.13854 0.53663
# Poissons Ratio (y) = -0.25410 0.51630
# Poissons Ratio (z) = 0.45265 0.23745
#
# Static dielectric constant tensor:
#      x y z
#    x 1.472490 -0.010380 -0.049710 
#    y -0.010380 1.960200 -0.023570 
#    z -0.049710 -0.023570 1.884160 
# 
# From -- ./inp_files/187429.got.cif
#   From: 2010.05.17/outbox.cif.g08.bks.cpg/sg2_94_cif.got.tgz:187429.got - 2010.06.03 11:33:40.
