data_PCOD9055900
_publ_section_title
;
Structure prediction by ZEFSAII (Michael W. Deem and Ramdas Pophale) SiO2 
 PCOD9055900
Probable space group: P -1
;
_chemical_formula_sum "Si O2"
_cell_formula_units_Z 14
_cell_length_a 15.102323
_cell_length_b 20.137407
_cell_length_c 12.232196
_cell_angle_alpha 27.812573
_cell_angle_beta 149.690595
_cell_angle_gamma 159.827690
_cell_volume 585.758768
_symmetry_space_group_name_H-M "P -1"
_symmetry_group_IT_number 2
_symmetry_cell_setting 'triclinic'
loop_
_space_group_symop_operation_xyz
x,y,z
-x,-y,-z
loop_
_atom_site_type_symbol
_atom_site_label
_atom_site_fract_x
_atom_site_fract_y
_atom_site_fract_z
Si Si1 0.989715 0.475632 0.833271
Si Si2 0.588528 0.252987 0.922931
Si Si3 0.026589 0.029240 0.614219
Si Si4 0.275954 0.197331 0.062651
Si Si5 0.850653 0.558079 0.369935
Si Si6 0.150176 0.384394 0.959459
Si Si7 0.612563 0.936235 0.426126
O O1 0.220509 0.598112 0.989423
O O2 0.974082 0.325746 0.959334
O O3 0.037502 0.625831 0.571633
O O4 0.740739 0.360138 0.813323
O O5 0.527800 0.048169 0.171081
O O6 0.326030 0.188016 0.738046
O O7 0.878130 0.075102 0.437395
O O8 0.000000 0.000000 0.500000
O O9 0.870512 0.794085 0.826627
O O10 0.557983 0.387432 0.028800
O O11 0.320556 0.092666 0.344099
O O12 0.237899 0.332697 0.873075
O O13 0.000000 0.000000 0.000000
O O14 0.926739 0.593027 0.272080
O O15 0.610929 0.304933 0.503430
#
# Coordination Sequence:
#
# PCOD9055900 Si02
#       7
#     2   2   2   2   2   2   2
#     4  11  25  45  65 101 145 183 228 294 347 404
#     4  11  27  46  66 103 145 184 235 287 343 413
#     4  12  24  43  73 101 134 187 235 281 344 416
#     4  11  23  41  68 102 140 176 223 290 354 407
#     4  11  21  44  70 100 138 177 233 288 342 416
#     4  11  23  42  68 103 134 180 239 280 346 418
#     4  11  22  45  68  98 138 181 231 284 339 411
#
# _framework density 23.900624000000001
#
# number of rings (size 3 to 8) (size 9 to 14) (size 15 to 20)
#    0.000    0.857    2.857    4.714    2.000    2.857 
#    0.000    6.429    0.000    0.000    0.000    0.000 
#    0.000    0.000    0.000    0.000    0.000    0.000 
#
# Total GULP energy -78227.627539 kJ/mol
# GULP energy per Si atom -5587.687681 kJ/mol
# Density = 2.384623 g / cm^3
# Si number density = 23.900624 Si / 1000 Ang^3
#
#
#
# Elastic Constant Matrix: (Units=GPa)
#
#
# Indices 1 2 3 4 5 6 
#
# 1 84.7702 20.2569 10.4461 6.7424 -9.1948 3.0275
# 2 20.2569 96.6699 10.2031 19.1254 -16.2171 1.1903
# 3 10.4461 10.2031 80.3410 3.9835 -19.4219 -4.5352
# 4 6.7424 19.1254 3.9835 34.8099 -4.0317 4.4481
# 5 -9.1948 -16.2171 -19.4219 -4.0317 44.2392 1.1458
# 6 3.0275 1.1903 -4.5352 4.4481 1.1458 27.9918
#
#
#
# Elastic Compliance Matrix: (Units=1/GPa)
#
#
# Indices 1 2 3 4 5 6 
#
# 1 0.012703 -0.002142 -0.001094 -0.000827 0.001335 -0.001383
# 2 -0.002142 0.012614 -0.000132 -0.006154 0.003547 0.000507
# 3 -0.001094 -0.000132 0.014189 -0.000966 0.005805 0.002339
# 4 -0.000827 -0.006154 -0.000966 0.033061 0.000292 -0.005071
# 5 0.001335 0.003547 0.005805 0.000292 0.026770 -0.000497
# 6 -0.001383 0.000507 0.002339 -0.005071 -0.000497 0.037058
#
#
# Mechanical properties :
#
#
# Convention : Reuss Voigt Hill
#
# Bulk Modulus (GPa) = 30.51579 38.17701 34.34640
# Shear Modulus (GPa) = 32.45601 36.13317 34.29459
#
# Velocity S-wave (km/s) = 3.68904 3.89242 3.79209
# Velocity P-wave (km/s) = 5.56245 6.01740 5.79439
#
# Compressibility (1/GPa) = 0.03276992
#
# Stress axis : x y z
#
# Youngs Moduli (GPa) = 78.72002 79.27982 70.47617
#
# Poissons Ratio (x) = 0.16980 0.07710
# Poissons Ratio (y) = 0.16860 0.00932
# Poissons Ratio (z) = 0.08612 0.01049
#
# Static dielectric constant tensor:
#      x y z
#    x 1.936880 0.022960 -0.013470 
#    y 0.022960 1.991360 0.018150 
#    z -0.013470 0.018150 1.987670 
# 
# From -- ./inp_files/185211.got.cif
#   From: 2010.05.17/outbox.cif.g08.bks.cpg/sg2_93_cif.got.tgz:185211.got - 2010.06.03 11:33:40.
