data_PCOD9055540
_publ_section_title
;
Structure prediction by ZEFSAII (Michael W. Deem and Ramdas Pophale) SiO2 
 PCOD9055540
Probable space group: P -1
;
_chemical_formula_sum "Si O2"
_cell_formula_units_Z 16
_cell_length_a 11.461875
_cell_length_b 8.629592
_cell_length_c 14.735464
_cell_angle_alpha 113.105566
_cell_angle_beta 95.191506
_cell_angle_gamma 40.260890
_cell_volume 811.073977
_symmetry_space_group_name_H-M "P -1"
_symmetry_group_IT_number 2
_symmetry_cell_setting 'triclinic'
loop_
_space_group_symop_operation_xyz
x,y,z
-x,-y,-z
loop_
_atom_site_type_symbol
_atom_site_label
_atom_site_fract_x
_atom_site_fract_y
_atom_site_fract_z
Si Si1 0.403179 0.037526 0.134254
Si Si2 0.824332 0.399840 0.662027
Si Si3 0.080711 0.225730 0.472552
Si Si4 0.908690 0.073483 0.742470
Si Si5 0.435337 0.619111 0.420286
Si Si6 0.252081 0.784313 0.804059
Si Si7 0.537021 0.379659 0.877372
Si Si8 0.225779 0.200076 0.958808
O O1 0.386214 0.894525 0.163467
O O2 0.625225 0.836476 0.083985
O O3 0.304113 0.305951 0.239079
O O4 0.294963 0.122516 0.051060
O O5 0.948871 0.184540 0.704435
O O6 0.696352 0.387622 0.620619
O O7 0.948394 0.315319 0.566570
O O8 0.000000 0.500000 0.500000
O O9 0.056625 0.132113 0.362012
O O10 0.298945 0.938030 0.460499
O O11 0.689251 0.316514 0.816919
O O12 0.043137 0.947500 0.808495
O O13 0.500000 0.500000 0.500000
O O14 0.618610 0.410891 0.319022
O O15 0.345480 0.594275 0.854715
O O16 0.254924 0.981447 0.867541
O O17 0.500000 0.500000 0.000000
O O18 0.000000 0.500000 0.000000
#
# Coordination Sequence:
#
# PCOD9055540 Si02
#       8
#     2   2   2   2   2   2   2   2
#     4  11  24  42  64  96 134 173 225 281 334 394
#     4  11  21  42  69  93 134 174 224 280 334 400
#     4  11  23  43  70 100 140 179 222 287 348 404
#     4  11  24  44  68  98 133 181 228 273 339 411
#     4  11  22  42  68 100 130 177 230 276 339 410
#     4  12  23  44  68  97 135 175 227 275 335 407
#     4  12  25  43  66  94 142 182 217 279 342 395
#     4  11  24  41  68  96 130 177 229 276 332 401
#
# _framework density 19.726931
#
# number of rings (size 3 to 8) (size 9 to 14) (size 15 to 20)
#    0.000    0.750    5.000    4.500    3.500    1.500 
#    2.250    1.250    0.000    0.000    0.000    0.000 
#    0.000    0.000    0.000    0.000    0.000    0.000 
#
# Total GULP energy -89362.245702 kJ/mol
# GULP energy per Si atom -5585.140356 kJ/mol
# Density = 1.968203 g / cm^3
# Si number density = 19.726931 Si / 1000 Ang^3
#
#
#
# Elastic Constant Matrix: (Units=GPa)
#
#
# Indices 1 2 3 4 5 6 
#
# 1 37.6024 25.2477 13.2560 2.5814 3.1103 -2.1623
# 2 25.2477 121.8129 35.0672 -4.6527 18.8699 -4.2043
# 3 13.2560 35.0672 94.9318 -2.5219 4.3395 1.6799
# 4 2.5814 -4.6527 -2.5219 40.2508 0.1009 6.0085
# 5 3.1103 18.8699 4.3395 0.1009 23.2517 -1.6449
# 6 -2.1623 -4.2043 1.6799 6.0085 -1.6449 42.0372
#
#
#
# Elastic Compliance Matrix: (Units=1/GPa)
#
#
# Indices 1 2 3 4 5 6 
#
# 1 0.031764 -0.006186 -0.002323 -0.003141 0.001332 0.001609
# 2 -0.006186 0.011693 -0.003055 0.001511 -0.008068 0.000442
# 3 -0.002323 -0.003055 0.012001 0.000694 0.000477 -0.000985
# 4 -0.003141 0.001511 0.000694 0.025832 -0.001315 -0.003782
# 5 0.001332 -0.008068 0.000477 -0.001315 0.049390 0.001363
# 6 0.001609 0.000442 -0.000985 -0.003782 0.001363 0.024549
#
#
# Mechanical properties :
#
#
# Convention : Reuss Voigt Hill
#
# Bulk Modulus (GPa) = 30.92976 44.60987 37.76982
# Shear Modulus (GPa) = 26.43640 33.15967 29.79804
#
# Velocity S-wave (km/s) = 3.66473 4.10437 3.89076
# Velocity P-wave (km/s) = 5.79828 6.71743 6.27471
#
# Compressibility (1/GPa) = 0.03233132
#
# Stress axis : x y z
#
# Youngs Moduli (GPa) = 31.48175 85.51782 83.32846
#
# Poissons Ratio (x) = 0.52898 0.19360
# Poissons Ratio (y) = 0.19473 0.25454
# Poissons Ratio (z) = 0.07314 0.26123
#
# Static dielectric constant tensor:
#      x y z
#    x 1.668300 0.006220 0.006170 
#    y 0.006220 1.747190 0.002650 
#    z 0.006170 0.002650 1.671570 
# 
# From -- ./inp_files/516106.got.cif
#   From: 2010.05.17/outbox.cif.g08.bks.cpg/sg2_259_cif.got.tgz:516106.got - 2010.06.03 11:33:40.
