data_PCOD9055096
_publ_section_title
;
Structure prediction by ZEFSAII (Michael W. Deem and Ramdas Pophale) SiO2 
 PCOD9055096
Probable space group: P -1
;
_chemical_formula_sum "Si O2"
_cell_formula_units_Z 16
_cell_length_a 9.009610
_cell_length_b 15.019105
_cell_length_c 14.870018
_cell_angle_alpha 142.683592
_cell_angle_beta 36.588917
_cell_angle_gamma 125.637583
_cell_volume 718.328375
_symmetry_space_group_name_H-M "P -1"
_symmetry_group_IT_number 2
_symmetry_cell_setting 'triclinic'
loop_
_space_group_symop_operation_xyz
x,y,z
-x,-y,-z
loop_
_atom_site_type_symbol
_atom_site_label
_atom_site_fract_x
_atom_site_fract_y
_atom_site_fract_z
Si Si1 0.963979 0.547049 0.797349
Si Si2 0.092007 0.301804 0.242119
Si Si3 0.033568 0.617193 0.155413
Si Si4 0.323587 0.992338 0.919068
Si Si5 0.876610 0.156765 0.956676
Si Si6 0.534033 0.314152 0.492721
Si Si7 0.622618 0.629164 0.661163
Si Si8 0.854200 0.093528 0.726467
O O1 0.870548 0.465166 0.864588
O O2 0.013511 0.705654 0.941384
O O3 0.189170 0.418571 0.550728
O O4 0.860877 0.601321 0.791173
O O5 0.234095 0.344296 0.295688
O O6 0.792878 0.320611 0.427404
O O7 0.190166 0.128601 0.033709
O O8 0.748754 0.710600 0.368421
O O9 0.211689 0.735707 0.137041
O O10 0.000000 0.500000 0.000000
O O11 0.144335 0.985704 0.086831
O O12 0.357660 0.823985 0.732963
O O13 0.606372 0.025317 0.817932
O O14 0.585644 0.230467 0.141694
O O15 0.997380 0.106817 0.761867
O O16 0.485416 0.484055 0.618848
O O17 0.000000 0.000000 0.500000
#
# Coordination Sequence:
#
# PCOD9055096 Si02
#       8
#     2   2   2   2   2   2   2   2
#     4  11  22  39  70 100 129 173 229 276 331 397
#     4  11  25  40  68 103 140 167 219 284 347 388
#     4  12  24  43  70  93 133 183 228 273 330 401
#     4  12  24  43  68 100 137 177 219 280 338 398
#     4  12  22  41  72  99 130 174 236 276 331 388
#     4  11  21  40  66  97 129 175 221 274 334 393
#     4  11  21  40  67 106 131 167 224 292 327 386
#     4  12  26  42  64 101 137 176 224 279 329 398
#
# _framework density 22.273935999999999
#
# number of rings (size 3 to 8) (size 9 to 14) (size 15 to 20)
#    0.000    0.500    7.500    3.375    0.000    0.000 
#    0.000    0.625    2.750    2.250    0.000    0.000 
#    0.000    0.000    0.000    0.000    0.000    0.000 
#
# Total GULP energy -89110.351515 kJ/mol
# GULP energy per Si atom -5569.396970 kJ/mol
# Density = 2.222324 g / cm^3
# Si number density = 22.273936 Si / 1000 Ang^3
#
#
#
# Elastic Constant Matrix: (Units=GPa)
#
#
# Indices 1 2 3 4 5 6 
#
# 1 106.1393 19.7004 8.0306 3.8654 20.4038 -9.1904
# 2 19.7004 118.0028 -5.6916 8.3459 22.2614 -6.3615
# 3 8.0306 -5.6916 75.8416 9.9753 22.7378 -6.0081
# 4 3.8654 8.3459 9.9753 23.0881 -3.4090 5.9246
# 5 20.4038 22.2614 22.7378 -3.4090 37.2501 -0.4124
# 6 -9.1904 -6.3615 -6.0081 5.9246 -0.4124 29.2998
#
#
#
# Elastic Compliance Matrix: (Units=1/GPa)
#
#
# Indices 1 2 3 4 5 6 
#
# 1 0.011470 0.000563 0.002642 -0.005922 -0.008715 0.005337
# 2 0.000563 0.012112 0.006450 -0.010657 -0.012392 0.006110
# 3 0.002642 0.006450 0.022873 -0.018387 -0.020832 0.010344
# 4 -0.005922 -0.010657 -0.018387 0.065359 0.026587 -0.020783
# 5 -0.008715 -0.012392 -0.020832 0.026587 0.054016 -0.014312
# 6 0.005337 0.006110 0.010344 -0.020783 -0.014312 0.043253
#
#
# Mechanical properties :
#
#
# Convention : Reuss Voigt Hill
#
# Bulk Modulus (GPa) = 15.20526 38.22918 26.71722
# Shear Modulus (GPa) = 23.61898 36.45721 30.03809
#
# Velocity S-wave (km/s) = 3.25989 4.05008 3.67628
# Velocity P-wave (km/s) = 4.58372 6.25071 5.48096
#
# Compressibility (1/GPa) = 0.06576670
#
# Stress axis : x y z
#
# Youngs Moduli (GPa) = 87.18207 82.56046 43.71950
#
# Poissons Ratio (x) = -0.04649 -0.11551
# Poissons Ratio (y) = -0.04909 -0.28200
# Poissons Ratio (z) = -0.23035 -0.53253
#
# Static dielectric constant tensor:
#      x y z
#    x 1.903410 0.015050 -0.001950 
#    y 0.015050 1.860870 -0.049860 
#    z -0.001950 -0.049860 1.869060 
# 
# From -- ./inp_files/504322.got.cif
#   From: 2010.05.17/outbox.cif.g08.bks.cpg/sg2_253_cif.got.tgz:504322.got - 2010.06.03 11:33:40.
