data_PCOD9055438
_publ_section_title
;
Structure prediction by ZEFSAII (Michael W. Deem and Ramdas Pophale) SiO2 
 PCOD9055438
Probable space group: P -1
;
_chemical_formula_sum "Si O2"
_cell_formula_units_Z 16
_cell_length_a 19.099945
_cell_length_b 22.015070
_cell_length_c 9.219898
_cell_angle_alpha 53.613804
_cell_angle_beta 44.653723
_cell_angle_gamma 18.030855
_cell_volume 779.252243
_symmetry_space_group_name_H-M "P -1"
_symmetry_group_IT_number 2
_symmetry_cell_setting 'triclinic'
loop_
_space_group_symop_operation_xyz
x,y,z
-x,-y,-z
loop_
_atom_site_type_symbol
_atom_site_label
_atom_site_fract_x
_atom_site_fract_y
_atom_site_fract_z
Si Si1 0.609666 0.496572 0.763574
Si Si2 0.512163 0.003640 0.207188
Si Si3 0.757503 0.975334 0.012003
Si Si4 0.811643 0.913856 0.350251
Si Si5 0.584876 0.213606 0.447255
Si Si6 0.270368 0.858217 0.349217
Si Si7 0.677492 0.438133 0.405635
Si Si8 0.052588 0.373175 0.118857
O O1 0.399180 0.717199 0.756326
O O2 0.664375 0.439439 0.595449
O O3 0.897073 0.313644 0.680145
O O4 0.500000 0.500000 0.000000
O O5 0.386183 0.019207 0.447258
O O6 0.280457 0.195142 0.160435
O O7 0.566238 0.037737 0.179366
O O8 0.796059 0.773943 0.033060
O O9 0.014308 0.782829 0.796862
O O10 0.650206 0.132333 0.893560
O O11 0.853110 0.909815 0.129658
O O12 0.675822 0.078746 0.407275
O O13 0.760267 0.089499 0.514599
O O14 0.254912 0.440730 0.654126
O O15 0.530487 0.618727 0.319476
O O16 0.000000 0.000000 0.500000
O O17 0.500000 0.500000 0.500000
O O18 0.000000 0.500000 0.000000
#
# Coordination Sequence:
#
# PCOD9055438 Si02
#       8
#     2   2   2   2   2   2   2   2
#     4  11  25  44  69 100 132 176 226 280 339 396
#     4  11  24  42  70 100 133 174 227 278 334 403
#     4  12  26  44  66  99 137 182 221 272 340 399
#     4  12  26  44  67  99 140 177 222 278 336 404
#     4  11  24  45  69 101 133 175 225 278 337 399
#     4  11  24  43  69  98 130 173 228 276 330 399
#     4  11  23  44  70  94 133 177 225 277 330 401
#     4  11  21  41  74 100 130 173 224 278 335 398
#
# _framework density 20.532506000000001
#
# number of rings (size 3 to 8) (size 9 to 14) (size 15 to 20)
#    0.000    0.750    3.750    4.125    5.250    2.500 
#    0.000    0.625    0.000    0.000    0.000    0.000 
#    0.000    0.000    0.000    0.000    0.000    0.000 
#
# Total GULP energy -89433.539763 kJ/mol
# GULP energy per Si atom -5589.596235 kJ/mol
# Density = 2.048577 g / cm^3
# Si number density = 20.532506 Si / 1000 Ang^3
#
#
#
# Elastic Constant Matrix: (Units=GPa)
#
#
# Indices 1 2 3 4 5 6 
#
# 1 126.5006 34.2531 38.1953 -26.2869 -3.0044 -7.6622
# 2 34.2531 99.0654 39.2736 -31.2031 12.5675 2.7925
# 3 38.1953 39.2736 78.4161 -31.7555 0.0830 2.8193
# 4 -26.2869 -31.2031 -31.7555 42.8180 -2.8889 -5.9771
# 5 -3.0044 12.5675 0.0830 -2.8889 32.7328 -7.1407
# 6 -7.6622 2.7925 2.8193 -5.9771 -7.1407 33.7672
#
#
#
# Elastic Compliance Matrix: (Units=1/GPa)
#
#
# Indices 1 2 3 4 5 6 
#
# 1 0.010301 -0.001757 -0.002771 0.003733 0.002823 0.003972
# 2 -0.001757 0.015063 -0.004084 0.006291 -0.005682 -0.001391
# 3 -0.002771 -0.004084 0.020469 0.010711 0.002290 0.000380
# 4 0.003733 0.006291 0.010711 0.039349 0.002902 0.007011
# 5 0.002823 -0.005682 0.002290 0.002902 0.035177 0.008872
# 6 0.003972 -0.001391 0.000380 0.007011 0.008872 0.033716
#
#
# Mechanical properties :
#
#
# Convention : Reuss Voigt Hill
#
# Bulk Modulus (GPa) = 34.95636 58.60289 46.77962
# Shear Modulus (GPa) = 27.64914 34.68094 31.16504
#
# Velocity S-wave (km/s) = 3.67359 4.11429 3.90017
# Velocity P-wave (km/s) = 5.92077 7.15356 6.56616
#
# Compressibility (1/GPa) = 0.02860710
#
# Stress axis : x y z
#
# Youngs Moduli (GPa) = 97.07709 66.38851 48.85384
#
# Poissons Ratio (x) = 0.11667 0.13540
# Poissons Ratio (y) = 0.17060 0.19953
# Poissons Ratio (z) = 0.26905 0.27115
#
# Static dielectric constant tensor:
#      x y z
#    x 1.757320 0.009780 -0.028280 
#    y 0.009780 1.711050 0.003020 
#    z -0.028280 0.003020 1.737460 
# 
# From -- ./inp_files/337669.got.cif
#   From: 2010.05.17/outbox.cif.g08.bks.cpg/sg2_169_cif.got.tgz:337669.got - 2010.06.03 11:33:40.
