data_PCOD9055774
_publ_section_title
;
Structure prediction by ZEFSAII (Michael W. Deem and Ramdas Pophale) SiO2 
 PCOD9055774
Probable space group: P -1
;
_chemical_formula_sum "Si O2"
_cell_formula_units_Z 16
_cell_length_a 19.535768
_cell_length_b 8.824095
_cell_length_c 8.721758
_cell_angle_alpha 101.438281
_cell_angle_beta 122.913608
_cell_angle_gamma 39.889218
_cell_volume 739.704963
_symmetry_space_group_name_H-M "P -1"
_symmetry_group_IT_number 2
_symmetry_cell_setting 'triclinic'
loop_
_space_group_symop_operation_xyz
x,y,z
-x,-y,-z
loop_
_atom_site_type_symbol
_atom_site_label
_atom_site_fract_x
_atom_site_fract_y
_atom_site_fract_z
Si Si1 0.169304 0.596126 0.241428
Si Si2 0.592479 0.591205 0.344970
Si Si3 0.331099 0.593716 0.934724
Si Si4 0.922349 0.174496 0.167167
Si Si5 0.179716 0.221844 0.264198
Si Si6 0.282396 0.010450 0.031034
Si Si7 0.962617 0.453885 0.300663
Si Si8 0.564113 0.314065 0.393862
O O1 0.313607 0.441344 0.445887
O O2 0.161065 0.426920 0.232048
O O3 0.141260 0.682468 0.047638
O O4 0.048677 0.868123 0.237675
O O5 0.621875 0.558193 0.194091
O O6 0.429939 0.854382 0.223607
O O7 0.627337 0.361162 0.386473
O O8 0.193962 0.725807 0.854205
O O9 0.307764 0.813698 0.931160
O O10 0.447211 0.413055 0.170582
O O11 0.973812 0.257608 0.314676
O O12 0.059704 0.345293 0.252254
O O13 0.201552 0.094165 0.106894
O O14 0.320116 0.980820 0.477005
O O15 0.190798 0.268193 0.878144
O O16 0.000000 0.500000 0.500000
O O17 0.500000 0.500000 0.500000
#
# Coordination Sequence:
#
# PCOD9055774 Si02
#       8
#     2   2   2   2   2   2   2   2
#     4  11  26  45  71 103 137 185 232 283 342 407
#     4  11  25  44  71 103 144 179 229 286 347 408
#     4  11  25  42  72 103 145 178 230 285 346 408
#     4  11  26  47  71  99 141 180 234 282 343 418
#     4  12  25  45  72  99 141 180 237 282 339 414
#     4  11  24  46  70 102 138 184 234 280 339 411
#     4  12  29  45  72 103 138 180 231 289 352 405
#     4  11  21  43  71 104 133 186 227 279 343 408
#
# _framework density 21.630247000000001
#
# number of rings (size 3 to 8) (size 9 to 14) (size 15 to 20)
#    0.000    0.750    3.750    4.125   10.500    2.000 
#    0.000    1.250    0.000    0.000    0.000    0.000 
#    0.000    0.000    0.000    0.000    0.000    0.000 
#
# Total GULP energy -89564.533093 kJ/mol
# GULP energy per Si atom -5597.783318 kJ/mol
# Density = 2.158102 g / cm^3
# Si number density = 21.630247 Si / 1000 Ang^3
#
#
#
# Elastic Constant Matrix: (Units=GPa)
#
#
# Indices 1 2 3 4 5 6 
#
# 1 61.5668 7.1480 14.2547 -12.2606 18.0070 -5.0855
# 2 7.1480 80.8296 37.9345 -22.1774 3.3604 9.6993
# 3 14.2547 37.9345 76.6231 2.3648 11.2563 -2.5794
# 4 -12.2606 -22.1774 2.3648 39.0787 5.3581 -4.3126
# 5 18.0070 3.3604 11.2563 5.3581 30.6012 -2.9651
# 6 -5.0855 9.6993 -2.5794 -4.3126 -2.9651 25.6006
#
#
#
# Elastic Compliance Matrix: (Units=1/GPa)
#
#
# Indices 1 2 3 4 5 6 
#
# 1 0.023749 0.003361 -0.004198 0.011980 -0.014573 0.003352
# 2 0.003361 0.022623 -0.012031 0.014282 -0.003223 -0.007083
# 3 -0.004198 -0.012031 0.020462 -0.008680 -0.001817 0.004113
# 4 0.011980 0.014282 -0.008680 0.039812 -0.012262 0.001381
# 5 -0.014573 -0.003223 -0.001817 -0.012262 0.044543 0.001237
# 6 0.003352 -0.007083 0.004113 0.001381 0.001237 0.043201
#
#
# Mechanical properties :
#
#
# Convention : Reuss Voigt Hill
#
# Bulk Modulus (GPa) = 24.33280 37.52155 30.92717
# Shear Modulus (GPa) = 21.38336 29.70160 25.54248
#
# Velocity S-wave (km/s) = 3.14759 3.70963 3.44011
# Velocity P-wave (km/s) = 4.94809 5.97770 5.48710
#
# Compressibility (1/GPa) = 0.04109679
#
# Stress axis : x y z
#
# Youngs Moduli (GPa) = 42.10663 44.20193 48.87205
#
# Poissons Ratio (x) = -0.14855 0.20517
# Poissons Ratio (y) = -0.14151 0.58800
# Poissons Ratio (z) = 0.17677 0.53181
#
# Static dielectric constant tensor:
#      x y z
#    x 1.769340 -0.018820 -0.022520 
#    y -0.018820 1.760440 0.001090 
#    z -0.022520 0.001090 1.799880 
# 
# From -- ./inp_files/205322.got.cif
#   From: 2010.05.17/outbox.cif.g08.bks.cpg/sg2_103_cif.got.tgz:205322.got - 2010.06.03 11:33:40.
