data_PCOD9055492
_publ_section_title
;
Structure prediction by ZEFSAII (Michael W. Deem and Ramdas Pophale) SiO2 
 PCOD9055492
Probable space group: P -1
;
_chemical_formula_sum "Si O2"
_cell_formula_units_Z 16
_cell_length_a 12.342555
_cell_length_b 23.601502
_cell_length_c 6.627844
_cell_angle_alpha 115.521080
_cell_angle_beta 53.162561
_cell_angle_gamma 151.651060
_cell_volume 709.532393
_symmetry_space_group_name_H-M "P -1"
_symmetry_group_IT_number 2
_symmetry_cell_setting 'triclinic'
loop_
_space_group_symop_operation_xyz
x,y,z
-x,-y,-z
loop_
_atom_site_type_symbol
_atom_site_label
_atom_site_fract_x
_atom_site_fract_y
_atom_site_fract_z
Si Si1 0.683464 0.556694 0.075101
Si Si2 0.366068 0.196432 0.885233
Si Si3 0.808222 0.435650 0.303003
Si Si4 0.867171 0.352284 0.417675
Si Si5 0.059424 0.804141 0.231738
Si Si6 0.419301 0.337052 0.279098
Si Si7 0.563796 0.983938 0.200496
Si Si8 0.925896 0.005177 0.796186
O O1 0.961478 0.638244 0.816351
O O2 0.500000 0.500000 0.000000
O O3 0.535765 0.446594 0.213055
O O4 0.800569 0.661459 0.231202
O O5 0.589823 0.233467 0.656560
O O6 0.491467 0.310667 0.999232
O O7 0.171335 0.091116 0.106095
O O8 0.197546 0.141749 0.791179
O O9 0.782930 0.359301 0.327394
O O10 0.559068 0.371181 0.382796
O O11 0.944163 0.533641 0.467901
O O12 0.000000 0.500000 0.000000
O O13 0.279362 0.861213 0.218494
O O14 0.899014 0.790589 0.526156
O O15 0.231776 0.895806 0.989007
O O16 0.500000 0.000000 0.500000
O O17 0.709996 0.974434 0.018287
O O18 0.000000 0.000000 0.500000
#
# Coordination Sequence:
#
# PCOD9055492 Si02
#       8
#     2   2   2   2   2   2   2   2
#     4  12  28  45  71 108 155 198 243 300 368 458
#     4  11  26  42  72 107 140 183 242 310 369 440
#     4  11  21  42  67 102 138 185 228 295 357 438
#     4  11  24  41  67 103 142 183 238 288 366 434
#     4  11  28  46  74 106 142 197 251 292 368 454
#     4  12  24  48  73 107 150 191 247 301 379 443
#     4  11  27  51  77 104 147 198 248 312 371 438
#     4  11  27  46  73 107 140 188 250 315 371 428
#
# _framework density 22.550063999999999
#
# number of rings (size 3 to 8) (size 9 to 14) (size 15 to 20)
#    0.000    0.750    2.500    3.375   10.500    3.000 
#    0.000    0.000    0.000    0.000    0.000    0.000 
#    0.000    0.000    0.000    0.000    0.000    0.000 
#
# Total GULP energy -89306.814009 kJ/mol
# GULP energy per Si atom -5581.675876 kJ/mol
# Density = 2.249874 g / cm^3
# Si number density = 22.550064 Si / 1000 Ang^3
#
#
#
# Elastic Constant Matrix: (Units=GPa)
#
#
# Indices 1 2 3 4 5 6 
#
# 1 139.3720 55.9153 42.7052 10.7217 -9.6960 31.7924
# 2 55.9153 78.9673 23.4193 -0.0044 12.6419 15.6533
# 3 42.7052 23.4193 131.7433 -5.2289 -8.8888 7.1206
# 4 10.7217 -0.0044 -5.2289 33.5787 8.0018 -7.7052
# 5 -9.6960 12.6419 -8.8888 8.0018 46.8360 -7.9164
# 6 31.7924 15.6533 7.1206 -7.7052 -7.9164 40.3146
#
#
#
# Elastic Compliance Matrix: (Units=1/GPa)
#
#
# Indices 1 2 3 4 5 6 
#
# 1 0.014088 -0.008354 -0.002647 -0.007854 0.004661 -0.007984
# 2 -0.008354 0.020776 -0.001291 0.004028 -0.008639 -0.002177
# 3 -0.002647 -0.001291 0.008767 0.002285 0.001369 0.001746
# 4 -0.007854 0.004028 0.002285 0.036542 -0.006856 0.009864
# 5 0.004661 -0.008639 0.001369 -0.006856 0.026647 0.003359
# 6 -0.007984 -0.002177 0.001746 0.009864 0.003359 0.034183
#
#
# Mechanical properties :
#
#
# Convention : Reuss Voigt Hill
#
# Bulk Modulus (GPa) = 52.50181 66.01801 59.25991
# Shear Modulus (GPa) = 29.08072 39.34871 34.21472
#
# Velocity S-wave (km/s) = 3.59501 4.18179 3.89945
# Velocity P-wave (km/s) = 6.36906 7.25646 6.82720
#
# Compressibility (1/GPa) = 0.01904696
#
# Stress axis : x y z
#
# Youngs Moduli (GPa) = 70.98455 48.13160 114.06779
#
# Poissons Ratio (x) = 0.40210 0.30196
# Poissons Ratio (y) = 0.59301 0.14721
# Poissons Ratio (z) = 0.18791 0.06212
#
# Static dielectric constant tensor:
#      x y z
#    x 1.909680 -0.029350 -0.069950 
#    y -0.029350 1.921330 0.101770 
#    z -0.069950 0.101770 2.023730 
# 
# From -- ./inp_files/84425.got.cif
#   From: 2010.05.17/outbox.cif.g08.bks.cpg/sg2_43_cif.got.tgz:84425.got - 2010.06.03 11:33:40.
