data_PCOD9055921
_publ_section_title
;
Structure prediction by ZEFSAII (Michael W. Deem and Ramdas Pophale) SiO2 
 PCOD9055921
Probable space group: P -1
;
_chemical_formula_sum "Si O2"
_cell_formula_units_Z 16
_cell_length_a 11.582372
_cell_length_b 18.624995
_cell_length_c 8.716730
_cell_angle_alpha 120.429734
_cell_angle_beta 84.248978
_cell_angle_gamma 43.501866
_cell_volume 687.495277
_symmetry_space_group_name_H-M "P -1"
_symmetry_group_IT_number 2
_symmetry_cell_setting 'triclinic'
loop_
_space_group_symop_operation_xyz
x,y,z
-x,-y,-z
loop_
_atom_site_type_symbol
_atom_site_label
_atom_site_fract_x
_atom_site_fract_y
_atom_site_fract_z
Si Si1 0.572134 0.315325 0.798780
Si Si2 0.940559 0.881847 0.583409
Si Si3 0.140520 0.591468 0.394690
Si Si4 0.733008 0.032666 0.326107
Si Si5 0.965254 0.276962 0.869270
Si Si6 0.834343 0.648426 0.321391
Si Si7 0.263100 0.880840 0.881168
Si Si8 0.857692 0.473136 0.333836
O O1 0.656182 0.169619 0.567580
O O2 0.318154 0.517538 0.953410
O O3 0.821977 0.215356 0.627956
O O4 0.448986 0.388035 0.065137
O O5 0.055364 0.742470 0.542992
O O6 0.838033 0.888602 0.467800
O O7 0.742444 0.073840 0.902702
O O8 0.076299 0.595606 0.575420
O O9 0.970388 0.644154 0.356541
O O10 0.467274 0.146583 0.487093
O O11 0.752484 0.035881 0.148356
O O12 0.011946 0.813708 0.112744
O O13 0.026841 0.315004 0.010514
O O14 0.848411 0.574370 0.384199
O O15 0.000000 0.500000 0.000000
O O16 0.539289 0.652506 0.563606
O O17 0.000000 0.000000 0.000000
#
# Coordination Sequence:
#
# PCOD9055921 Si02
#       8
#     2   2   2   2   2   2   2   2
#     4  11  22  45  64  99 141 172 221 283 326 399
#     4  11  24  42  67 100 135 177 228 272 332 403
#     4  11  23  41  69  96 133 181 221 279 340 392
#     4  11  23  41  69  97 133 177 224 271 343 395
#     4  11  22  42  66  96 132 175 223 269 329 403
#     4  11  21  44  71  95 136 177 220 284 339 395
#     4  11  22  40  64  94 138 175 216 278 330 394
#     4  11  24  43  65 100 138 175 228 275 340 396
#
# _framework density 23.272887000000001
#
# number of rings (size 3 to 8) (size 9 to 14) (size 15 to 20)
#    0.000    1.000    5.000    3.375    1.750    2.500 
#    0.000   16.875    0.000    0.000    0.000    0.000 
#    0.000    0.000    0.000    0.000    0.000    0.000 
#
# Total GULP energy -89211.397862 kJ/mol
# GULP energy per Si atom -5575.712366 kJ/mol
# Density = 2.321992 g / cm^3
# Si number density = 23.272887 Si / 1000 Ang^3
#
#
#
# Elastic Constant Matrix: (Units=GPa)
#
#
# Indices 1 2 3 4 5 6 
#
# 1 69.7908 10.3787 22.4731 2.1170 -0.9768 10.0602
# 2 10.3787 102.8943 12.1117 -4.1217 4.6871 11.6803
# 3 22.4731 12.1117 83.0943 -18.4957 19.4793 4.4644
# 4 2.1170 -4.1217 -18.4957 39.4719 1.6824 7.5854
# 5 -0.9768 4.6871 19.4793 1.6824 36.8340 -3.7225
# 6 10.0602 11.6803 4.4644 7.5854 -3.7225 19.9244
#
#
#
# Elastic Compliance Matrix: (Units=1/GPa)
#
#
# Indices 1 2 3 4 5 6 
#
# 1 0.017124 -0.000709 -0.005554 -0.002689 0.003060 -0.005391
# 2 -0.000709 0.010848 0.000211 0.002828 -0.002405 -0.007575
# 3 -0.005554 0.000211 0.019216 0.011386 -0.011679 -0.008142
# 4 -0.002689 0.002828 0.011386 0.034993 -0.009872 -0.018017
# 5 0.003060 -0.002405 -0.011679 -0.009872 0.035463 0.012866
# 6 -0.005391 -0.007575 -0.008142 -0.018017 0.012866 0.068440
#
#
# Mechanical properties :
#
#
# Convention : Reuss Voigt Hill
#
# Bulk Modulus (GPa) = 28.50350 38.41183 33.45766
# Shear Modulus (GPa) = 23.82293 33.30045 28.56169
#
# Velocity S-wave (km/s) = 3.20290 3.78679 3.50702
# Velocity P-wave (km/s) = 5.09433 5.97164 5.55035
#
# Compressibility (1/GPa) = 0.03508341
#
# Stress axis : x y z
#
# Youngs Moduli (GPa) = 58.39808 92.18194 52.04106
#
# Poissons Ratio (x) = 0.06532 0.28904
# Poissons Ratio (y) = 0.04138 -0.01096
# Poissons Ratio (z) = 0.32435 -0.01942
#
# Static dielectric constant tensor:
#      x y z
#    x 1.764020 0.037520 0.054860 
#    y 0.037520 1.935750 -0.027100 
#    z 0.054860 -0.027100 1.886900 
# 
# From -- ./inp_files/278261.got.cif
#   From: 2010.05.17/outbox.cif.g08.bks.cpg/sg2_140_cif.got.tgz:278261.got - 2010.06.03 11:33:40.
