data_PCOD9055112
_publ_section_title
;
Structure prediction by ZEFSAII (Michael W. Deem and Ramdas Pophale) SiO2 
 PCOD9055112
Probable space group: P -1
;
_chemical_formula_sum "Si O2"
_cell_formula_units_Z 16
_cell_length_a 10.193783
_cell_length_b 20.318082
_cell_length_c 8.618325
_cell_angle_alpha 126.705909
_cell_angle_beta 119.650474
_cell_angle_gamma 102.568335
_cell_volume 840.987378
_symmetry_space_group_name_H-M "P -1"
_symmetry_group_IT_number 2
_symmetry_cell_setting 'triclinic'
loop_
_space_group_symop_operation_xyz
x,y,z
-x,-y,-z
loop_
_atom_site_type_symbol
_atom_site_label
_atom_site_fract_x
_atom_site_fract_y
_atom_site_fract_z
Si Si1 0.722814 0.543628 0.028256
Si Si2 0.242500 0.422148 0.251396
Si Si3 0.758882 0.414657 0.315613
Si Si4 0.830715 0.271928 0.258267
Si Si5 0.413775 0.337378 0.769436
Si Si6 0.054805 0.926351 0.960863
Si Si7 0.446829 0.983025 0.125302
Si Si8 0.115570 0.827828 0.137666
O O1 0.601591 0.581934 0.037307
O O2 0.920732 0.618896 0.375209
O O3 0.821643 0.580462 0.966353
O O4 0.538563 0.402894 0.771210
O O5 0.500000 0.500000 0.500000
O O6 0.230062 0.498174 0.456128
O O7 0.093516 0.288956 0.048024
O O8 0.721860 0.317317 0.252941
O O9 0.000000 0.500000 0.500000
O O10 0.568885 0.343417 0.974039
O O11 0.688819 0.153854 0.111772
O O12 0.842136 0.229539 0.040516
O O13 0.163730 0.207291 0.419607
O O14 0.277663 0.987718 0.086135
O O15 0.081719 0.896461 0.108157
O O16 0.000000 0.000000 0.000000
O O17 0.669471 0.076090 0.491345
O O18 0.500000 0.000000 0.000000
#
# Coordination Sequence:
#
# PCOD9055112 Si02
#       8
#     2   2   2   2   2   2   2   2
#     4  11  21  40  67  94 127 170 210 268 321 391
#     4  12  24  40  66  99 131 165 215 264 330 378
#     4  12  24  41  64  98 130 171 210 268 321 393
#     4  11  22  44  65  93 128 171 217 256 330 382
#     4  11  22  40  67  90 134 169 213 260 329 385
#     4  11  25  43  67  97 124 173 223 261 316 386
#     4  11  25  46  66  94 130 172 216 268 321 379
#     4  11  23  43  71  90 131 175 214 260 324 392
#
# _framework density 19.025255999999999
#
# number of rings (size 3 to 8) (size 9 to 14) (size 15 to 20)
#    0.000    0.750    6.250    3.000    3.500    0.500 
#    4.500    0.625    0.000    0.000    0.000    0.000 
#    0.000    0.000    0.000    0.000    0.000    0.000 
#
# Total GULP energy -89313.494334 kJ/mol
# GULP energy per Si atom -5582.093396 kJ/mol
# Density = 1.898195 g / cm^3
# Si number density = 19.025256 Si / 1000 Ang^3
#
#
#
# Elastic Constant Matrix: (Units=GPa)
#
#
# Indices 1 2 3 4 5 6 
#
# 1 96.3841 67.4516 36.0642 -2.3422 12.9891 -1.8355
# 2 67.4516 109.2472 24.9296 -2.4388 6.7295 -4.8765
# 3 36.0642 24.9296 89.6252 -16.7292 18.3144 -0.0232
# 4 -2.3422 -2.4388 -16.7292 39.5558 0.9931 2.2953
# 5 12.9891 6.7295 18.3144 0.9931 29.5407 -2.5120
# 6 -1.8355 -4.8765 -0.0232 2.2953 -2.5120 44.3842
#
#
#
# Elastic Compliance Matrix: (Units=1/GPa)
#
#
# Indices 1 2 3 4 5 6 
#
# 1 0.020575 -0.011487 -0.004597 -0.001312 -0.003583 -0.000549
# 2 -0.011487 0.016259 -0.000203 0.000116 0.001587 0.001395
# 3 -0.004597 -0.000203 0.015989 0.006741 -0.008158 -0.001014
# 4 -0.001312 0.000116 0.006741 0.028282 -0.004730 -0.001768
# 5 -0.003583 0.001587 -0.008158 -0.004730 0.040500 0.002559
# 6 -0.000549 0.001395 -0.001014 -0.001768 0.002559 0.022897
#
#
# Mechanical properties :
#
#
# Convention : Reuss Voigt Hill
#
# Bulk Modulus (GPa) = 49.38481 61.34972 55.36726
# Shear Modulus (GPa) = 27.19972 33.81689 30.50830
#
# Velocity S-wave (km/s) = 3.78519 4.22058 4.00880
# Velocity P-wave (km/s) = 6.71695 7.48783 7.11284
#
# Compressibility (1/GPa) = 0.02024914
#
# Stress axis : x y z
#
# Youngs Moduli (GPa) = 48.60313 61.50258 62.54419
#
# Poissons Ratio (x) = 0.70651 0.28750
# Poissons Ratio (y) = 0.55833 0.01267
# Poissons Ratio (z) = 0.22342 0.01246
#
# Static dielectric constant tensor:
#      x y z
#    x 1.654640 0.000600 0.007010 
#    y 0.000600 1.733810 -0.012520 
#    z 0.007010 -0.012520 1.657800 
# 
# From -- ./inp_files/181478.got.cif
#   From: 2010.05.17/outbox.cif.g08.bks.cpg/sg2_91_cif.got.tgz:181478.got - 2010.06.03 11:33:40.
