data_PCOD9055987
_publ_section_title
;
Structure prediction by ZEFSAII (Michael W. Deem and Ramdas Pophale) SiO2 
 PCOD9055987
Probable space group: P -1
;
_chemical_formula_sum "Si O2"
_cell_formula_units_Z 13
_cell_length_a 12.962311
_cell_length_b 10.136354
_cell_length_c 9.177233
_cell_angle_alpha 131.154193
_cell_angle_beta 55.554684
_cell_angle_gamma 145.641249
_cell_volume 511.683464
_symmetry_space_group_name_H-M "P -1"
_symmetry_group_IT_number 2
_symmetry_cell_setting 'triclinic'
loop_
_space_group_symop_operation_xyz
x,y,z
-x,-y,-z
loop_
_atom_site_type_symbol
_atom_site_label
_atom_site_fract_x
_atom_site_fract_y
_atom_site_fract_z
Si Si1 0.750171 0.874312 0.318613
Si Si2 0.334902 0.437521 0.247756
Si Si3 0.264947 0.521709 0.039951
Si Si4 0.339165 0.014595 0.961438
Si Si5 0.970990 0.782157 0.433435
Si Si6 0.926141 0.303027 0.286793
Si Si7 0.000000 0.500000 0.000000
O O1 0.539905 0.697829 0.323308
O O2 0.880974 0.069957 0.224497
O O3 0.765600 0.681697 0.178832
O O4 0.838005 0.060360 0.520493
O O5 0.299636 0.482731 0.148525
O O6 0.184592 0.354806 0.418632
O O7 0.328703 0.217606 0.095044
O O8 0.079404 0.445396 0.140165
O O9 0.448321 0.806073 0.054694
O O10 0.263167 0.849021 0.752218
O O11 0.197127 0.812202 0.048963
O O12 0.916657 0.580188 0.217158
O O13 0.000000 0.000000 0.500000
O O14 0.000000 0.500000 0.500000
#
# Coordination Sequence:
#
# PCOD9055987 Si02
#       7
#     2   2   2   2   2   2   1
#     4  11  22  42  70 103 130 171 230 277 343 411
#     4  11  21  44  75 101 130 176 225 286 346 398
#     4  11  22  41  74 103 130 171 224 285 348 399
#     4  11  23  44  65  98 139 174 223 284 335 408
#     4  12  26  46  70  95 141 187 228 277 336 406
#     4  12  23  36  64 100 136 171 221 283 346 393
#     4  12  28  48  66  96 144 186 230 276 336 406
#
# _framework density 25.406331999999999
#
# number of rings (size 3 to 8) (size 9 to 14) (size 15 to 20)
#    0.000    0.615    6.154    3.231    0.000    2.462 
#    0.000    1.538    0.000    0.000    0.000    0.000 
#    0.000    0.000    0.000    0.000    0.000    0.000 
#
# Total GULP energy -72607.802507 kJ/mol
# GULP energy per Si atom -5585.215577 kJ/mol
# Density = 2.534851 g / cm^3
# Si number density = 25.406332 Si / 1000 Ang^3
#
#
#
# Elastic Constant Matrix: (Units=GPa)
#
#
# Indices 1 2 3 4 5 6 
#
# 1 77.0454 23.1574 13.9231 19.4500 -2.0975 11.7119
# 2 23.1574 183.7460 23.0531 21.1809 -1.5139 18.0577
# 3 13.9231 23.0531 124.8907 -0.3651 -5.0581 24.0599
# 4 19.4500 21.1809 -0.3651 37.8593 0.9902 4.3865
# 5 -2.0975 -1.5139 -5.0581 0.9902 21.9276 8.0536
# 6 11.7119 18.0577 24.0599 4.3865 8.0536 40.5283
#
#
#
# Elastic Compliance Matrix: (Units=1/GPa)
#
#
# Indices 1 2 3 4 5 6 
#
# 1 0.015828 -0.000657 -0.000865 -0.007438 0.002905 -0.003540
# 2 -0.000657 0.006152 -0.000623 -0.002897 0.001116 -0.002090
# 3 -0.000865 -0.000623 0.009586 0.001489 0.004287 -0.006176
# 4 -0.007438 -0.002897 0.001489 0.031981 -0.001812 -0.000545
# 5 0.002905 0.001116 0.004287 -0.001812 0.052193 -0.014057
# 6 -0.003540 -0.002090 -0.006176 -0.000545 -0.014057 0.033147
#
#
# Mechanical properties :
#
#
# Convention : Reuss Voigt Hill
#
# Bulk Modulus (GPa) = 36.66313 56.21658 46.43986
# Shear Modulus (GPa) = 30.81285 41.76628 36.28957
#
# Velocity S-wave (km/s) = 3.48631 4.05894 3.78347
# Velocity P-wave (km/s) = 5.53785 6.64392 6.11594
#
# Compressibility (1/GPa) = 0.02727536
#
# Stress axis : x y z
#
# Youngs Moduli (GPa) = 63.17848 162.55453 104.31562
#
# Poissons Ratio (x) = 0.10680 0.09028
# Poissons Ratio (y) = 0.04151 0.06499
# Poissons Ratio (z) = 0.05468 0.10127
#
# Static dielectric constant tensor:
#      x y z
#    x 1.245690 0.388580 -0.457620 
#    y 0.388580 1.709300 0.255560 
#    z -0.457620 0.255560 1.640280 
# 
# From -- ./inp_files/415632.got.cif
#   From: 2010.05.17/outbox.cif.g08.bks.cpg/sg2_208_cif.got.tgz:415632.got - 2010.06.03 11:33:40.
