data_PCOD9055174
_publ_section_title
;
Structure prediction by ZEFSAII (Michael W. Deem and Ramdas Pophale) SiO2 
 PCOD9055174
Probable space group: P -1
;
_chemical_formula_sum "Si O2"
_cell_formula_units_Z 14
_cell_length_a 12.607885
_cell_length_b 8.820162
_cell_length_c 11.758899
_cell_angle_alpha 37.218600
_cell_angle_beta 123.955492
_cell_angle_gamma 132.697553
_cell_volume 580.784350
_symmetry_space_group_name_H-M "P -1"
_symmetry_group_IT_number 2
_symmetry_cell_setting 'triclinic'
loop_
_space_group_symop_operation_xyz
x,y,z
-x,-y,-z
loop_
_atom_site_type_symbol
_atom_site_label
_atom_site_fract_x
_atom_site_fract_y
_atom_site_fract_z
Si Si1 0.353983 0.210286 0.062796
Si Si2 0.936686 0.658521 0.652931
Si Si3 0.655916 0.323589 0.548571
Si Si4 0.368143 0.088964 0.645584
Si Si5 0.583143 0.749442 0.168992
Si Si6 0.745492 0.584604 0.779900
Si Si7 0.823355 0.547874 0.095692
O O1 0.347483 0.976644 0.288407
O O2 0.500000 0.500000 0.000000
O O3 0.362310 0.100515 0.007267
O O4 0.211933 0.254614 0.960466
O O5 0.815347 0.541080 0.553381
O O6 0.851309 0.525171 0.798383
O O7 0.048080 0.535379 0.768902
O O8 0.000000 0.000000 0.500000
O O9 0.536333 0.272773 0.605481
O O10 0.603241 0.465835 0.335940
O O11 0.340385 0.118527 0.744427
O O12 0.285224 0.193392 0.445133
O O13 0.314872 0.761219 0.788799
O O14 0.415704 0.661278 0.142489
O O15 0.819808 0.668293 0.896610
#
# Coordination Sequence:
#
# PCOD9055174 Si02
#       7
#     2   2   2   2   2   2   2
#     4  12  26  44  66 105 140 177 223 273 342 412
#     4  12  24  46  69 102 138 174 229 282 336 396
#     4  11  23  43  71  99 138 176 226 281 335 394
#     4  11  21  41  74 104 127 169 237 287 327 385
#     4  11  22  41  74 104 130 171 231 286 336 387
#     4  11  21  40  70 100 129 174 222 282 339 379
#     4  12  26  43  68 102 141 178 218 276 342 409
#
# _framework density 24.105332000000001
#
# number of rings (size 3 to 8) (size 9 to 14) (size 15 to 20)
#    0.000    0.571    7.143    1.286    2.000    3.429 
#    2.571    0.714    0.000    0.000    0.000    0.000 
#    0.000    0.000    0.000    0.000    0.000    0.000 
#
# Total GULP energy -78235.149304 kJ/mol
# GULP energy per Si atom -5588.224950 kJ/mol
# Density = 2.405047 g / cm^3
# Si number density = 24.105332 Si / 1000 Ang^3
#
#
#
# Elastic Constant Matrix: (Units=GPa)
#
#
# Indices 1 2 3 4 5 6 
#
# 1 153.4379 20.2067 31.8986 8.3810 29.4038 12.6258
# 2 20.2067 62.9237 21.1817 -5.3867 8.4956 14.7849
# 3 31.8986 21.1817 119.5965 3.2729 25.1287 2.9742
# 4 8.3810 -5.3867 3.2729 37.2061 -4.8027 3.4450
# 5 29.4038 8.4956 25.1287 -4.8027 45.7788 7.8150
# 6 12.6258 14.7849 2.9742 3.4450 7.8150 26.5530
#
#
#
# Elastic Compliance Matrix: (Units=1/GPa)
#
#
# Indices 1 2 3 4 5 6 
#
# 1 0.007978 -0.001619 -0.000815 -0.002422 -0.004429 -0.001183
# 2 -0.001619 0.020406 -0.003356 0.004858 0.001534 -0.011298
# 3 -0.000815 -0.003356 0.010253 -0.002146 -0.005205 0.002918
# 4 -0.002422 0.004858 -0.002146 0.029755 0.006146 -0.006982
# 5 -0.004429 0.001534 -0.005205 0.006146 0.029196 -0.007555
# 6 -0.001183 -0.011298 0.002918 -0.006982 -0.007555 0.047316
#
#
# Mechanical properties :
#
#
# Convention : Reuss Voigt Hill
#
# Bulk Modulus (GPa) = 36.96064 53.61468 45.28766
# Shear Modulus (GPa) = 30.21077 39.41899 34.81488
#
# Velocity S-wave (km/s) = 3.54401 4.04825 3.80449
# Velocity P-wave (km/s) = 5.66683 6.64388 6.17471
#
# Compressibility (1/GPa) = 0.02705581
#
# Stress axis : x y z
#
# Youngs Moduli (GPa) = 125.34012 49.00636 97.53145
#
# Poissons Ratio (x) = 0.07935 0.07948
# Poissons Ratio (y) = 0.20294 0.32736
# Poissons Ratio (z) = 0.10215 0.16449
#
# Static dielectric constant tensor:
#      x y z
#    x 1.961720 -0.005820 0.050090 
#    y -0.005820 1.972890 -0.056450 
#    z 0.050090 -0.056450 1.946530 
# 
# From -- ./inp_files/306565.got.cif
#   From: 2010.05.17/outbox.cif.g08.bks.cpg/sg2_154_cif.got.tgz:306565.got - 2010.06.03 11:33:40.
