data_PCOD9055405
_publ_section_title
;
Structure prediction by ZEFSAII (Michael W. Deem and Ramdas Pophale) SiO2 
 PCOD9055405
Probable space group: P -1
;
_chemical_formula_sum "Si O2"
_cell_formula_units_Z 14
_cell_length_a 9.110560
_cell_length_b 9.393118
_cell_length_c 16.766718
_cell_angle_alpha 131.400030
_cell_angle_beta 28.905474
_cell_angle_gamma 124.244425
_cell_volume 519.721230
_symmetry_space_group_name_H-M "P -1"
_symmetry_group_IT_number 2
_symmetry_cell_setting 'triclinic'
loop_
_space_group_symop_operation_xyz
x,y,z
-x,-y,-z
loop_
_atom_site_type_symbol
_atom_site_label
_atom_site_fract_x
_atom_site_fract_y
_atom_site_fract_z
Si Si1 0.723819 0.135971 0.490112
Si Si2 0.163132 0.133489 0.850295
Si Si3 0.229005 0.189328 0.072031
Si Si4 0.008736 0.461945 0.162977
Si Si5 0.601866 0.517656 0.612712
Si Si6 0.209804 0.063276 0.351472
Si Si7 0.662531 0.292782 0.030410
O O1 0.505258 0.182952 0.687883
O O2 0.782425 0.324400 0.481129
O O3 0.021214 0.038337 0.350507
O O4 0.500000 0.000000 0.500000
O O5 0.031224 0.260522 0.031578
O O6 0.952406 0.188395 0.894899
O O7 0.086299 0.917273 0.820378
O O8 0.477370 0.064026 0.854283
O O9 0.147772 0.403080 0.159756
O O10 0.387996 0.186932 0.081733
O O11 0.662633 0.535034 0.342953
O O12 0.212622 0.592706 0.061372
O O13 0.742162 0.709873 0.584877
O O14 0.458353 0.582460 0.790769
O O15 0.000000 0.000000 0.500000
#
# Coordination Sequence:
#
# PCOD9055405 Si02
#       7
#     2   2   2   2   2   2   2
#     4  12  26  46  71 101 138 184 232 279 342 418
#     4  11  21  42  70  96 133 175 237 272 337 403
#     4  12  25  40  71 106 136 174 228 287 338 398
#     4  11  21  41  71 101 132 172 230 286 339 392
#     4  11  24  47  70  98 137 188 228 280 341 408
#     4  12  28  46  67 103 148 181 221 280 354 412
#     4  11  21  41  71 103 130 170 237 289 326 397
#
# _framework density 26.937517
#
# number of rings (size 3 to 8) (size 9 to 14) (size 15 to 20)
#    0.000    0.571    5.714    4.286    4.000    0.000 
#    0.000    0.714    0.000    0.000    0.000    0.000 
#    0.000    0.000    0.000    0.000    0.000    0.000 
#
# Total GULP energy -78419.261153 kJ/mol
# GULP energy per Si atom -5601.375797 kJ/mol
# Density = 2.687621 g / cm^3
# Si number density = 26.937517 Si / 1000 Ang^3
#
#
#
# Elastic Constant Matrix: (Units=GPa)
#
#
# Indices 1 2 3 4 5 6 
#
# 1 102.8516 22.2026 16.9665 4.9806 -25.0592 -25.7205
# 2 22.2026 139.8321 34.2330 -25.2432 -7.5637 -34.5072
# 3 16.9665 34.2330 102.2094 -4.5384 -7.5354 -16.3465
# 4 4.9806 -25.2432 -4.5384 37.5262 0.1769 -0.4512
# 5 -25.0592 -7.5637 -7.5354 0.1769 37.6818 2.8454
# 6 -25.7205 -34.5072 -16.3465 -0.4512 2.8454 51.9099
#
#
#
# Elastic Compliance Matrix: (Units=1/GPa)
#
#
# Indices 1 2 3 4 5 6 
#
# 1 0.013491 -0.000539 -0.000640 -0.002202 0.008319 0.005650
# 2 -0.000539 0.010568 -0.002099 0.006996 0.000849 0.006111
# 3 -0.000640 -0.002099 0.010950 0.000011 0.001217 0.001669
# 4 -0.002202 0.006996 0.000011 0.031696 -0.000498 0.003866
# 5 0.008319 0.000849 0.001217 -0.000498 0.032238 0.003298
# 6 0.005650 0.006111 0.001669 0.003866 0.003298 0.026504
#
#
# Mechanical properties :
#
#
# Convention : Reuss Voigt Hill
#
# Bulk Modulus (GPa) = 35.14527 54.63303 44.88915
# Shear Modulus (GPa) = 35.33860 43.52299 39.43080
#
# Velocity S-wave (km/s) = 3.62591 4.02394 3.83010
# Velocity P-wave (km/s) = 5.53217 6.47417 6.02162
#
# Compressibility (1/GPa) = 0.02845333
#
# Stress axis : x y z
#
# Youngs Moduli (GPa) = 74.12314 94.62592 91.32110
#
# Poissons Ratio (x) = 0.05097 0.05843
# Poissons Ratio (y) = 0.03993 0.19173
# Poissons Ratio (z) = 0.04743 0.19867
#
# Static dielectric constant tensor:
#      x y z
#    x 2.136660 0.017440 0.064110 
#    y 0.017440 2.096900 -0.006290 
#    z 0.064110 -0.006290 2.196070 
# 
# From -- ./inp_files/156969.got.cif
#   From: 2010.05.17/outbox.cif.g08.bks.cpg/sg2_79_cif.got.tgz:156969.got - 2010.06.03 11:33:40.
