data_PCOD9055652
_publ_section_title
;
Structure prediction by ZEFSAII (Michael W. Deem and Ramdas Pophale) SiO2 
 PCOD9055652
Probable space group: P -1
;
_chemical_formula_sum "Si O2"
_cell_formula_units_Z 15
_cell_length_a 12.195466
_cell_length_b 9.830920
_cell_length_c 12.422122
_cell_angle_alpha 41.757363
_cell_angle_beta 53.437584
_cell_angle_gamma 38.764528
_cell_volume 620.668717
_symmetry_space_group_name_H-M "P -1"
_symmetry_group_IT_number 2
_symmetry_cell_setting 'triclinic'
loop_
_space_group_symop_operation_xyz
x,y,z
-x,-y,-z
loop_
_atom_site_type_symbol
_atom_site_label
_atom_site_fract_x
_atom_site_fract_y
_atom_site_fract_z
Si Si1 0.364500 0.592493 0.424839
Si Si2 0.238355 0.252652 0.292581
Si Si3 0.944080 0.843769 0.063527
Si Si4 0.424979 0.792933 0.839730
Si Si5 0.678507 0.925334 0.897491
Si Si6 0.000000 0.000000 0.500000
Si Si7 0.659735 0.186233 0.365274
Si Si8 0.895688 0.345000 0.154186
O O1 0.500000 0.500000 0.500000
O O2 0.466790 0.339199 0.438571
O O3 0.340946 0.815147 0.233652
O O4 0.178037 0.724014 0.507815
O O5 0.064778 0.551088 0.214934
O O6 0.404976 0.223258 0.253836
O O7 0.296212 0.136847 0.207707
O O8 0.213107 0.070162 0.483532
O O9 0.004569 0.797849 0.931310
O O10 0.736518 0.002663 0.107228
O O11 0.000000 0.000000 0.000000
O O12 0.341021 0.868164 0.725990
O O13 0.500000 0.500000 0.000000
O O14 0.826300 0.640742 0.029901
O O15 0.500000 0.000000 0.000000
O O16 0.997443 0.169044 0.302046
O O17 0.725618 0.355316 0.240025
#
# Coordination Sequence:
#
# PCOD9055652 Si02
#       8
#     2   2   2   2   2   1   2   2
#     4  12  24  46  70  99 139 178 223 284 339 404
#     4  11  25  43  68 103 134 178 230 275 343 413
#     4  11  23  46  70  98 138 176 228 287 338 399
#     4  12  25  45  72 100 133 180 230 280 342 406
#     4  11  21  42  74  97 138 181 224 279 342 402
#     4  12  26  42  66 100 140 178 228 272 342 406
#     4  12  24  47  70  98 141 179 224 286 344 400
#     4  11  24  44  69 103 136 185 225 280 345 404
#
# _framework density 24.167480999999999
#
# number of rings (size 3 to 8) (size 9 to 14) (size 15 to 20)
#    0.000    0.533    6.667    1.200    1.867    1.067 
#    7.200    0.000    0.000    0.000    0.000    0.000 
#    0.000    0.000    0.000    0.000    0.000    0.000 
#
# Total GULP energy -83764.423551 kJ/mol
# GULP energy per Si atom -5584.294903 kJ/mol
# Density = 2.411247 g / cm^3
# Si number density = 24.167481 Si / 1000 Ang^3
#
#
#
# Elastic Constant Matrix: (Units=GPa)
#
#
# Indices 1 2 3 4 5 6 
#
# 1 51.2696 5.7665 7.6769 0.3771 -4.2824 -3.5844
# 2 5.7665 189.6751 68.5720 -1.4246 4.0246 -19.5245
# 3 7.6769 68.5720 162.8104 -19.2913 17.3809 9.1843
# 4 0.3771 -1.4246 -19.2913 51.2937 0.5324 -4.4530
# 5 -4.2824 4.0246 17.3809 0.5324 31.1974 0.2314
# 6 -3.5844 -19.5245 9.1843 -4.4530 0.2314 40.3523
#
#
#
# Elastic Compliance Matrix: (Units=1/GPa)
#
#
# Indices 1 2 3 4 5 6 
#
# 1 0.020183 0.000087 -0.001564 -0.000589 0.003625 0.002105
# 2 0.000087 0.006847 -0.003299 -0.000715 0.000949 0.003987
# 3 -0.001564 -0.003299 0.008635 0.002924 -0.004625 -0.003351
# 4 -0.000589 -0.000715 0.002924 0.020707 -0.001980 0.001233
# 5 0.003625 0.000949 -0.004625 -0.001980 0.035029 0.001414
# 6 0.002105 0.003987 -0.003351 0.001233 0.001414 0.027789
#
#
# Mechanical properties :
#
#
# Convention : Reuss Voigt Hill
#
# Bulk Modulus (GPa) = 38.29415 63.08729 50.69072
# Shear Modulus (GPa) = 36.37793 46.01798 41.19795
#
# Velocity S-wave (km/s) = 3.88396 4.36837 4.13326
# Velocity P-wave (km/s) = 5.99943 7.18362 6.61806
#
# Compressibility (1/GPa) = 0.02611365
#
# Stress axis : x y z
#
# Youngs Moduli (GPa) = 49.54562 146.04780 115.81393
#
# Poissons Ratio (x) = -0.01273 0.18113
# Poissons Ratio (y) = -0.00432 0.38206
# Poissons Ratio (z) = 0.07749 0.48180
#
# Static dielectric constant tensor:
#      x y z
#    x 1.940000 -0.004480 0.013540 
#    y -0.004480 1.890320 -0.018860 
#    z 0.013540 -0.018860 1.902360 
# 
# From -- ./inp_files/332213.got.cif
#   From: 2010.05.17/outbox.cif.g08.bks.cpg/sg2_167_cif.got.tgz:332213.got - 2010.06.03 11:33:40.
