data_PCOD9055628
_publ_section_title
;
Structure prediction by ZEFSAII (Michael W. Deem and Ramdas Pophale) SiO2 
 PCOD9055628
Probable space group: P -1
;
_chemical_formula_sum "Si O2"
_cell_formula_units_Z 16
_cell_length_a 6.535897
_cell_length_b 13.375857
_cell_length_c 15.244080
_cell_angle_alpha 148.498997
_cell_angle_beta 75.428777
_cell_angle_gamma 91.551267
_cell_volume 625.947718
_symmetry_space_group_name_H-M "P -1"
_symmetry_group_IT_number 2
_symmetry_cell_setting 'triclinic'
loop_
_space_group_symop_operation_xyz
x,y,z
-x,-y,-z
loop_
_atom_site_type_symbol
_atom_site_label
_atom_site_fract_x
_atom_site_fract_y
_atom_site_fract_z
Si Si1 0.205614 0.531596 0.745510
Si Si2 0.249841 0.189177 0.922933
Si Si3 0.357815 0.053713 0.189228
Si Si4 0.054868 0.731046 0.495393
Si Si5 0.565885 0.654947 0.740852
Si Si6 0.006929 0.269256 0.830345
Si Si7 0.538084 0.468705 0.101255
Si Si8 0.299538 0.908308 0.453007
O O1 0.363055 0.572289 0.684691
O O2 0.353880 0.492052 0.789177
O O3 0.118890 0.350126 0.597916
O O4 0.978984 0.732801 0.936640
O O5 0.180549 0.172856 0.819021
O O6 0.448401 0.991124 0.790789
O O7 0.346639 0.372637 0.055894
O O8 0.353724 0.242956 0.271534
O O9 0.110775 0.103525 0.295288
O O10 0.451690 0.845600 0.964490
O O11 0.227331 0.534258 0.381626
O O12 0.193843 0.818571 0.479213
O O13 0.087804 0.129149 0.631006
O O14 0.000000 0.500000 0.000000
O O15 0.755838 0.296578 0.905801
O O16 0.433496 0.687270 0.227619
O O17 0.500000 0.000000 0.500000
#
# Coordination Sequence:
#
# PCOD9055628 Si02
#       8
#     2   2   2   2   2   2   2   2
#     4  11  21  42  72  96 144 190 223 293 351 406
#     4  11  23  45  71  99 142 188 231 286 356 420
#     4  11  24  45  72 106 138 196 235 289 357 418
#     4  12  25  45  70 103 144 190 237 292 357 415
#     4  11  24  47  69 102 153 180 240 299 344 421
#     4  11  26  44  69 101 133 182 236 292 354 419
#     4  11  22  47  64  97 143 184 227 293 346 411
#     4  12  24  45  72  99 137 183 235 289 353 419
#
# _framework density 25.561237999999999
#
# number of rings (size 3 to 8) (size 9 to 14) (size 15 to 20)
#    0.000    0.750    6.250    1.125    3.500    1.500 
#    0.000    1.250    0.000    0.000    0.000    0.000 
#    0.000    0.000    0.000    0.000    0.000    0.000 
#
# Total GULP energy -89478.558088 kJ/mol
# GULP energy per Si atom -5592.409881 kJ/mol
# Density = 2.550306 g / cm^3
# Si number density = 25.561238 Si / 1000 Ang^3
#
#
#
# Elastic Constant Matrix: (Units=GPa)
#
#
# Indices 1 2 3 4 5 6 
#
# 1 125.5542 60.9522 55.3950 7.3626 -9.2802 15.5249
# 2 60.9522 136.0787 31.8884 23.6200 1.1593 13.6582
# 3 55.3950 31.8884 121.2762 8.7246 -21.5485 -3.1346
# 4 7.3626 23.6200 8.7246 38.3301 13.3155 -9.9785
# 5 -9.2802 1.1593 -21.5485 13.3155 56.1793 2.0667
# 6 15.5249 13.6582 -3.1346 -9.9785 2.0667 41.9904
#
#
#
# Elastic Compliance Matrix: (Units=1/GPa)
#
#
# Indices 1 2 3 4 5 6 
#
# 1 0.012513 -0.004183 -0.004633 0.000123 0.000480 -0.003606
# 2 -0.004183 0.010916 -0.000418 -0.007059 0.000734 -0.003749
# 3 -0.004633 -0.000418 0.011425 -0.002380 0.004119 0.001933
# 4 0.000123 -0.007059 -0.002380 0.037429 -0.010040 0.011462
# 5 0.000480 0.000734 0.004119 -0.010040 0.021955 -0.003575
# 6 -0.003606 -0.003749 0.001933 0.011462 -0.003575 0.029412
#
#
# Mechanical properties :
#
#
# Convention : Reuss Voigt Hill
#
# Bulk Modulus (GPa) = 61.02659 75.48668 68.25663
# Shear Modulus (GPa) = 33.88025 42.94486 38.41255
#
# Velocity S-wave (km/s) = 3.64463 4.10332 3.88076
# Velocity P-wave (km/s) = 6.45272 7.21425 6.84409
#
# Compressibility (1/GPa) = 0.01638630
#
# Stress axis : x y z
#
# Youngs Moduli (GPa) = 79.91401 91.61279 87.53024
#
# Poissons Ratio (x) = 0.38320 0.40550
# Poissons Ratio (y) = 0.33427 0.03660
# Poissons Ratio (z) = 0.37021 0.03831
#
# Static dielectric constant tensor:
#      x y z
#    x 2.029850 -0.036290 0.012360 
#    y -0.036290 2.049840 -0.056100 
#    z 0.012360 -0.056100 2.162610 
# 
# From -- ./inp_files/550151.got.cif
#   From: 2010.05.17/outbox.cif.g08.bks.cpg/sg2_276_cif.got.tgz:550151.got - 2010.06.03 11:33:40.
