data_PCOD9055338
_publ_section_title
;
Structure prediction by ZEFSAII (Michael W. Deem and Ramdas Pophale) SiO2 
 PCOD9055338
Probable space group: P -1
;
_chemical_formula_sum "Si O2"
_cell_formula_units_Z 16
_cell_length_a 5.816692
_cell_length_b 18.323533
_cell_length_c 9.497415
_cell_angle_alpha 93.503955
_cell_angle_beta 80.480885
_cell_angle_gamma 133.316588
_cell_volume 724.416206
_symmetry_space_group_name_H-M "P -1"
_symmetry_group_IT_number 2
_symmetry_cell_setting 'triclinic'
loop_
_space_group_symop_operation_xyz
x,y,z
-x,-y,-z
loop_
_atom_site_type_symbol
_atom_site_label
_atom_site_fract_x
_atom_site_fract_y
_atom_site_fract_z
Si Si1 0.778801 0.248115 0.965406
Si Si2 0.946936 0.551953 0.626425
Si Si3 0.115330 0.749384 0.517748
Si Si4 0.339298 0.338792 0.717425
Si Si5 0.126141 0.945911 0.023766
Si Si6 0.615399 0.816240 0.270143
Si Si7 0.268470 0.600904 0.897363
Si Si8 0.983691 0.783696 0.824730
O O1 0.555058 0.184933 0.848122
O O2 0.122853 0.304463 0.871084
O O3 0.750256 0.324667 0.020258
O O4 0.745008 0.196982 0.106591
O O5 0.579598 0.458311 0.695210
O O6 0.000000 0.500000 0.500000
O O7 0.026143 0.649665 0.575030
O O8 0.159705 0.581390 0.744545
O O9 0.472418 0.823441 0.423494
O O10 0.874252 0.711579 0.407856
O O11 0.069870 0.796853 0.653962
O O12 0.494384 0.292228 0.717031
O O13 0.979822 0.896488 0.188813
O O14 0.966749 0.858653 0.910265
O O15 0.500000 0.000000 0.000000
O O16 0.000000 0.000000 0.000000
O O17 0.648982 0.666869 0.863310
O O18 0.000000 0.500000 0.000000
#
# Coordination Sequence:
#
# PCOD9055338 Si02
#       8
#     2   2   2   2   2   2   2   2
#     4  11  21  41  68  94 143 189 245 298 350 426
#     4  12  23  39  58  99 146 200 246 282 348 440
#     4  11  26  41  69  99 150 195 234 300 369 436
#     4  11  23  40  66  95 145 196 243 282 358 430
#     4  12  28  51  85 111 140 188 253 320 388 457
#     4  11  23  47  71 104 137 188 235 300 376 442
#     4  12  26  38  63 102 147 192 250 302 353 426
#     4  12  25  46  70 108 140 186 246 309 373 437
#
# _framework density 22.086749999999999
#
# number of rings (size 3 to 8) (size 9 to 14) (size 15 to 20)
#    0.000    0.500    5.000    3.375    5.250    1.000 
#    0.000    1.250    0.000    0.000    0.000    0.000 
#    0.000    0.000    0.000    0.000    0.000    0.000 
#
# Total GULP energy -89306.690625 kJ/mol
# GULP energy per Si atom -5581.668164 kJ/mol
# Density = 2.203648 g / cm^3
# Si number density = 22.086750 Si / 1000 Ang^3
#
#
#
# Elastic Constant Matrix: (Units=GPa)
#
#
# Indices 1 2 3 4 5 6 
#
# 1 74.3079 25.6308 37.2623 -4.1445 1.5327 9.4808
# 2 25.6308 79.9659 34.7913 -10.2879 -9.2592 2.3862
# 3 37.2623 34.7913 143.4866 6.7054 3.8211 14.9869
# 4 -4.1445 -10.2879 6.7054 26.8456 2.7171 -0.1317
# 5 1.5327 -9.2592 3.8211 2.7171 44.1395 -3.6437
# 6 9.4808 2.3862 14.9869 -0.1317 -3.6437 32.8510
#
#
#
# Elastic Compliance Matrix: (Units=1/GPa)
#
#
# Indices 1 2 3 4 5 6 
#
# 1 0.016953 -0.003864 -0.003174 0.002067 -0.001526 -0.003325
# 2 -0.003864 0.016477 -0.003590 0.006252 0.003681 0.001989
# 3 -0.003174 -0.003590 0.009227 -0.004039 -0.001458 -0.003210
# 4 0.002067 0.006252 -0.004039 0.041066 -0.000868 0.000860
# 5 -0.001526 0.003681 -0.001458 -0.000868 0.023948 0.003491
# 6 -0.003325 0.001989 -0.003210 0.000860 0.003491 0.033111
#
#
# Mechanical properties :
#
#
# Convention : Reuss Voigt Hill
#
# Bulk Modulus (GPa) = 46.72791 54.79213 50.76002
# Shear Modulus (GPa) = 29.55580 34.10563 31.83072
#
# Velocity S-wave (km/s) = 3.66207 3.93385 3.80039
# Velocity P-wave (km/s) = 6.25168 6.74501 6.50302
#
# Compressibility (1/GPa) = 0.02140048
#
# Stress axis : x y z
#
# Youngs Moduli (GPa) = 58.98577 60.69154 108.37913
#
# Poissons Ratio (x) = 0.23453 0.34403
# Poissons Ratio (y) = 0.22794 0.38903
# Poissons Ratio (z) = 0.18724 0.21785
#
# Static dielectric constant tensor:
#      x y z
#    x 1.889270 0.049580 -0.034520 
#    y 0.049580 1.862630 -0.074730 
#    z -0.034520 -0.074730 1.805100 
# 
# From -- ./inp_files/46658.got.cif
#   From: 2010.05.17/outbox.cif.g08.bks.cpg/sg2_24_cif.got.tgz:46658.got - 2010.06.03 11:33:40.
