data_PCOD9055746
_publ_section_title
;
Structure prediction by ZEFSAII (Michael W. Deem and Ramdas Pophale) SiO2 
 PCOD9055746
Probable space group: P -1
;
_chemical_formula_sum "Si O2"
_cell_formula_units_Z 16
_cell_length_a 20.470204
_cell_length_b 17.204523
_cell_length_c 8.763747
_cell_angle_alpha 43.146731
_cell_angle_beta 42.559996
_cell_angle_gamma 19.323960
_cell_volume 682.512790
_symmetry_space_group_name_H-M "P -1"
_symmetry_group_IT_number 2
_symmetry_cell_setting 'triclinic'
loop_
_space_group_symop_operation_xyz
x,y,z
-x,-y,-z
loop_
_atom_site_type_symbol
_atom_site_label
_atom_site_fract_x
_atom_site_fract_y
_atom_site_fract_z
Si Si1 0.681997 0.592518 0.437354
Si Si2 0.638948 0.260762 0.173646
Si Si3 0.889885 0.856491 0.130172
Si Si4 0.571236 0.073220 0.847974
Si Si5 0.979309 0.152851 0.357238
Si Si6 0.003604 0.610357 0.592556
Si Si7 0.623913 0.272214 0.530253
Si Si8 0.661705 0.912219 0.260782
O O1 0.481531 0.734768 0.631695
O O2 0.808083 0.362324 0.469756
O O3 0.828569 0.490841 0.458702
O O4 0.603294 0.771885 0.198562
O O5 0.687227 0.240717 0.294334
O O6 0.825981 0.039575 0.061597
O O7 0.500000 0.500000 0.000000
O O8 0.709024 0.978381 0.177411
O O9 0.970240 0.694522 0.360093
O O10 0.039607 0.744441 0.901628
O O11 0.791618 0.833834 0.729685
O O12 0.518385 0.260580 0.703671
O O13 0.579984 0.011481 0.088207
O O14 0.000000 0.000000 0.500000
O O15 0.188845 0.957939 0.360416
O O16 0.114736 0.374958 0.723982
O O17 0.500000 0.500000 0.500000
O O18 0.500000 0.000000 0.500000
#
# Coordination Sequence:
#
# PCOD9055746 Si02
#       8
#     2   2   2   2   2   2   2   2
#     4  11  23  45  70 101 138 185 245 279 353 435
#     4  11  23  41  70 103 142 184 227 291 353 421
#     4  12  24  48  68 104 153 176 232 304 348 419
#     4  11  24  49  73  99 145 188 230 302 353 417
#     4  12  24  41  69 107 141 187 237 280 357 433
#     4  12  25  49  72 102 140 193 236 299 358 411
#     4  11  21  43  69  99 140 189 228 280 354 419
#     4  12  28  46  75 106 136 189 245 295 358 418
#
# _framework density 23.442786000000002
#
# number of rings (size 3 to 8) (size 9 to 14) (size 15 to 20)
#    0.000    0.500    5.000    4.500    1.750    1.500 
#    2.250    2.500    0.000    0.000    0.000    0.000 
#    0.000    0.000    0.000    0.000    0.000    0.000 
#
# Total GULP energy -89438.232164 kJ/mol
# GULP energy per Si atom -5589.889510 kJ/mol
# Density = 2.338943 g / cm^3
# Si number density = 23.442786 Si / 1000 Ang^3
#
#
#
# Elastic Constant Matrix: (Units=GPa)
#
#
# Indices 1 2 3 4 5 6 
#
# 1 125.8279 18.1699 28.8244 1.1348 20.2159 1.9005
# 2 18.1699 84.5846 3.2796 -7.4111 8.7844 10.6597
# 3 28.8244 3.2796 111.5701 -11.5028 33.1901 -7.7685
# 4 1.1348 -7.4111 -11.5028 39.5924 -8.0070 3.5436
# 5 20.2159 8.7844 33.1901 -8.0070 32.2133 -9.0923
# 6 1.9005 10.6597 -7.7685 3.5436 -9.0923 54.2896
#
#
#
# Elastic Compliance Matrix: (Units=1/GPa)
#
#
# Indices 1 2 3 4 5 6 
#
# 1 0.009240 -0.001470 -0.001121 -0.001784 -0.004942 -0.000906
# 2 -0.001470 0.013145 0.001295 0.002290 -0.004336 -0.003220
# 3 -0.001121 0.001295 0.013214 0.001528 -0.013057 -0.000611
# 4 -0.001784 0.002290 0.001528 0.027373 0.005430 -0.001046
# 5 -0.004942 -0.004336 -0.013057 0.005430 0.052262 0.007554
# 6 -0.000906 -0.003220 -0.000611 -0.001046 0.007554 0.020330
#
#
# Mechanical properties :
#
#
# Convention : Reuss Voigt Hill
#
# Bulk Modulus (GPa) = 30.29658 46.94784 38.62221
# Shear Modulus (GPa) = 33.52175 43.33296 38.42736
#
# Velocity S-wave (km/s) = 3.78556 4.30403 4.05309
# Velocity P-wave (km/s) = 5.66206 6.69101 6.19793
#
# Compressibility (1/GPa) = 0.03300702
#
# Stress axis : x y z
#
# Youngs Moduli (GPa) = 108.22178 76.07553 75.67972
#
# Poissons Ratio (x) = 0.11185 0.08482
# Poissons Ratio (y) = 0.15912 -0.09802
# Poissons Ratio (z) = 0.12129 -0.09853
#
# Static dielectric constant tensor:
#      x y z
#    x 2.139700 -0.028770 -0.047400 
#    y -0.028770 1.877660 0.038110 
#    z -0.047400 0.038110 1.998610 
# 
# From -- ./inp_files/348818.got.cif
#   From: 2010.05.17/outbox.cif.g08.bks.cpg/sg2_175_cif.got.tgz:348818.got - 2010.06.03 11:33:40.
