data_PCOD9055810
_publ_section_title
;
Structure prediction by ZEFSAII (Michael W. Deem and Ramdas Pophale) SiO2 
 PCOD9055810
Probable space group: P -1
;
_chemical_formula_sum "Si O2"
_cell_formula_units_Z 12
_cell_length_a 13.591603
_cell_length_b 10.929585
_cell_length_c 9.297705
_cell_angle_alpha 123.810264
_cell_angle_beta 140.674081
_cell_angle_gamma 32.083201
_cell_volume 444.363604
_symmetry_space_group_name_H-M "P -1"
_symmetry_group_IT_number 2
_symmetry_cell_setting 'triclinic'
loop_
_space_group_symop_operation_xyz
x,y,z
-x,-y,-z
loop_
_atom_site_type_symbol
_atom_site_label
_atom_site_fract_x
_atom_site_fract_y
_atom_site_fract_z
Si Si1 0.094347 0.680905 0.172147
Si Si2 0.560375 0.603663 0.376823
Si Si3 0.331786 0.017670 0.917316
Si Si4 0.906379 0.865806 0.776587
Si Si5 0.946573 0.131629 0.353840
Si Si6 0.275305 0.295220 0.606072
O O1 0.358633 0.454954 0.402930
O O2 0.011779 0.912847 0.259911
O O3 0.884214 0.748938 0.070616
O O4 0.070955 0.684176 0.977666
O O5 0.264922 0.862871 0.201679
O O6 0.701447 0.620997 0.451790
O O7 0.682724 0.365303 0.290006
O O8 0.172190 0.034746 0.640206
O O9 0.522385 0.808105 0.113858
O O10 0.500000 0.000000 0.000000
O O11 0.052118 0.787029 0.743588
O O12 0.696007 0.897405 0.529049
O O13 0.000000 0.500000 0.500000
#
# Coordination Sequence:
#
# PCOD9055810 Si02
#       6
#     2   2   2   2   2   2
#     4  11  26  47  71 106 147 186 235 294 352 428
#     4  11  24  45  70 104 142 188 234 295 349 415
#     4  11  21  43  73 101 138 188 235 290 346 418
#     4  12  25  45  73 105 144 184 241 291 351 423
#     4  11  25  50  70 105 148 186 238 287 356 427
#     4  12  23  44  71 107 141 182 240 296 352 413
#
# _framework density 27.004909000000001
#
# number of rings (size 3 to 8) (size 9 to 14) (size 15 to 20)
#    0.000    0.667    5.000    4.000    0.000    3.333 
#    6.000    0.000    0.000    0.000    0.000    0.000 
#    0.000    0.000    0.000    0.000    0.000    0.000 
#
# Total GULP energy -67281.420005 kJ/mol
# GULP energy per Si atom -5606.785000 kJ/mol
# Density = 2.694344 g / cm^3
# Si number density = 27.004909 Si / 1000 Ang^3
#
#
#
# Elastic Constant Matrix: (Units=GPa)
#
#
# Indices 1 2 3 4 5 6 
#
# 1 139.6578 15.8289 51.8778 -10.0952 -44.0066 2.6523
# 2 15.8289 90.0065 41.6463 -9.9087 -5.5993 -0.9236
# 3 51.8778 41.6463 182.3282 -23.5948 -32.3857 4.9882
# 4 -10.0952 -9.9087 -23.5948 44.8305 12.5377 -5.6507
# 5 -44.0066 -5.5993 -32.3857 12.5377 55.6789 -5.4995
# 6 2.6523 -0.9236 4.9882 -5.6507 -5.4995 36.2479
#
#
#
# Elastic Compliance Matrix: (Units=1/GPa)
#
#
# Indices 1 2 3 4 5 6 
#
# 1 0.009995 -0.000678 -0.001516 -0.000637 0.007137 0.000443
# 2 -0.000678 0.012595 -0.002695 0.001631 -0.001122 0.000825
# 3 -0.001516 -0.002695 0.007216 0.002211 0.002204 -0.000272
# 4 -0.000637 0.001631 0.002211 0.025317 -0.004453 0.003055
# 5 0.007137 -0.001122 0.002204 -0.004453 0.026009 0.002398
# 6 0.000443 0.000825 -0.000272 0.003055 0.002398 0.028454
#
#
# Mechanical properties :
#
#
# Convention : Reuss Voigt Hill
#
# Bulk Modulus (GPa) = 49.92888 70.07759 60.00323
# Shear Modulus (GPa) = 39.67029 47.52744 43.59887
#
# Velocity S-wave (km/s) = 3.83692 4.19973 4.02242
# Velocity P-wave (km/s) = 6.17723 7.03728 6.62123
#
# Compressibility (1/GPa) = 0.02002849
#
# Stress axis : x y z
#
# Youngs Moduli (GPa) = 100.05385 79.39920 138.57370
#
# Poissons Ratio (x) = 0.05383 0.21006
# Poissons Ratio (y) = 0.06783 0.37343
# Poissons Ratio (z) = 0.15167 0.21397
#
# Static dielectric constant tensor:
#      x y z
#    x 2.081410 0.033570 0.039050 
#    y 0.033570 2.169320 0.088330 
#    z 0.039050 0.088330 2.129670 
# 
# From -- ./inp_files/308638.got.cif
#   From: 2010.05.17/outbox.cif.g08.bks.cpg/sg2_155_cif.got.tgz:308638.got - 2010.06.03 11:33:40.
