data_PCOD9055177
_publ_section_title
;
Structure prediction by ZEFSAII (Michael W. Deem and Ramdas Pophale) SiO2 
 PCOD9055177
Probable space group: P -1
;
_chemical_formula_sum "Si O2"
_cell_formula_units_Z 14
_cell_length_a 20.685703
_cell_length_b 8.715769
_cell_length_c 10.793444
_cell_angle_alpha 124.242798
_cell_angle_beta 147.631835
_cell_angle_gamma 40.312178
_cell_volume 655.131924
_symmetry_space_group_name_H-M "P -1"
_symmetry_group_IT_number 2
_symmetry_cell_setting 'triclinic'
loop_
_space_group_symop_operation_xyz
x,y,z
-x,-y,-z
loop_
_atom_site_type_symbol
_atom_site_label
_atom_site_fract_x
_atom_site_fract_y
_atom_site_fract_z
Si Si1 0.589408 0.992347 0.523337
Si Si2 0.162808 0.279027 0.397662
Si Si3 0.374087 0.622478 0.241291
Si Si4 0.691382 0.897829 0.041220
Si Si5 0.564609 0.143276 0.182096
Si Si6 0.984498 0.808919 0.441321
Si Si7 0.087690 0.657859 0.816691
O O1 0.625782 0.165913 0.699845
O O2 0.500000 0.000000 0.500000
O O3 0.756799 0.768937 0.628406
O O4 0.452474 0.075258 0.238373
O O5 0.120708 0.526605 0.492496
O O6 0.008795 0.310373 0.202861
O O7 0.294881 0.026017 0.569316
O O8 0.500000 0.500000 0.500000
O O9 0.441727 0.417653 0.153590
O O10 0.206319 0.709919 0.054091
O O11 0.802320 0.631920 0.165509
O O12 0.819082 0.882641 0.159956
O O13 0.626054 0.113769 0.129942
O O14 0.500000 0.000000 0.000000
O O15 0.990800 0.798830 0.598151
O O16 0.000000 0.000000 0.500000
#
# Coordination Sequence:
#
# PCOD9055177 Si02
#       7
#     2   2   2   2   2   2   2
#     4  12  28  46  63  99 145 181 218 279 347 397
#     4  11  21  42  67  94 134 179 220 276 332 395
#     4  12  23  41  70 101 135 173 226 270 332 416
#     4  11  21  43  70  94 134 178 224 278 328 400
#     4  12  18  38  72 101 120 168 233 278 317 386
#     4  11  24  39  66 107 137 169 220 286 345 391
#     4  11  21  40  70 101 130 171 231 273 329 395
#
# _framework density 21.369741999999999
#
# number of rings (size 3 to 8) (size 9 to 14) (size 15 to 20)
#    0.000    0.571    8.571    0.857    2.000    1.714 
#    0.000    4.286    0.000    0.000    0.000    0.000 
#    0.000    0.000    0.000    0.000    0.000    0.000 
#
# Total GULP energy -77959.971808 kJ/mol
# GULP energy per Si atom -5568.569415 kJ/mol
# Density = 2.132110 g / cm^3
# Si number density = 21.369742 Si / 1000 Ang^3
#
#
#
# Elastic Constant Matrix: (Units=GPa)
#
#
# Indices 1 2 3 4 5 6 
#
# 1 139.7151 56.5568 44.5365 9.6064 32.2596 -13.1051
# 2 56.5568 86.4454 32.6732 21.0880 25.2938 -12.9966
# 3 44.5365 32.6732 110.4607 14.0495 36.3601 0.3315
# 4 9.6064 21.0880 14.0495 28.4190 8.1327 8.4949
# 5 32.2596 25.2938 36.3601 8.1327 44.7073 5.1292
# 6 -13.1051 -12.9966 0.3315 8.4949 5.1292 36.7485
#
#
#
# Elastic Compliance Matrix: (Units=1/GPa)
#
#
# Indices 1 2 3 4 5 6 
#
# 1 0.010892 -0.005401 -0.001706 0.001658 -0.003966 0.002160
# 2 -0.005401 0.022895 -0.000188 -0.016281 -0.007197 0.010941
# 3 -0.001706 -0.000188 0.013173 -0.003645 -0.008861 0.001286
# 4 0.001658 -0.016281 -0.003645 0.052865 0.003408 -0.017830
# 5 -0.003966 -0.007197 -0.008861 0.003408 0.037016 -0.009834
# 6 0.002160 0.010941 0.001286 -0.017830 -0.009834 0.037334
#
#
# Mechanical properties :
#
#
# Convention : Reuss Voigt Hill
#
# Bulk Modulus (GPa) = 30.89198 67.12824 49.01011
# Shear Modulus (GPa) = 25.05609 35.49861 30.27735
#
# Velocity S-wave (km/s) = 3.42790 4.08016 3.76817
# Velocity P-wave (km/s) = 5.49132 7.32652 6.47428
#
# Compressibility (1/GPa) = 0.03237086
#
# Stress axis : x y z
#
# Youngs Moduli (GPa) = 91.81410 43.67800 75.91475
#
# Poissons Ratio (x) = 0.23589 0.12951
# Poissons Ratio (y) = 0.49585 0.01424
# Poissons Ratio (z) = 0.15664 0.00819
#
# Static dielectric constant tensor:
#      x y z
#    x 1.924080 -0.041010 -0.018320 
#    y -0.041010 1.810710 0.003410 
#    z -0.018320 0.003410 1.842800 
# 
# From -- ./inp_files/177740.got.cif
#   From: 2010.05.17/outbox.cif.g08.bks.cpg/sg2_89_cif.got.tgz:177740.got - 2010.06.03 11:33:40.
