data_PCOD9055348
_publ_section_title
;
Structure prediction by ZEFSAII (Michael W. Deem and Ramdas Pophale) SiO2 
 PCOD9055348
Probable space group: P -1
;
_chemical_formula_sum "Si O2"
_cell_formula_units_Z 14
_cell_length_a 8.901433
_cell_length_b 11.461444
_cell_length_c 7.660443
_cell_angle_alpha 73.477696
_cell_angle_beta 69.075798
_cell_angle_gamma 73.482535
_cell_volume 685.133192
_symmetry_space_group_name_H-M "P -1"
_symmetry_group_IT_number 2
_symmetry_cell_setting 'triclinic'
loop_
_space_group_symop_operation_xyz
x,y,z
-x,-y,-z
loop_
_atom_site_type_symbol
_atom_site_label
_atom_site_fract_x
_atom_site_fract_y
_atom_site_fract_z
Si Si1 0.262157 0.220793 0.335271
Si Si2 0.621153 0.168591 0.340491
Si Si3 0.054718 0.632231 0.428921
Si Si4 0.814942 0.017687 0.637169
Si Si5 0.731436 0.214745 0.898428
Si Si6 0.665257 0.426803 0.371273
Si Si7 0.595729 0.592689 0.022906
O O1 0.431812 0.165307 0.386524
O O2 0.105388 0.263511 0.504354
O O3 0.225576 0.117852 0.259420
O O4 0.293796 0.344491 0.176434
O O5 0.703726 0.077354 0.495180
O O6 0.626024 0.306073 0.347206
O O7 0.716309 0.157181 0.120390
O O8 0.147416 0.686991 0.208469
O O9 0.188340 0.615291 0.536484
O O10 0.000000 0.500000 0.500000
O O11 0.782897 0.108871 0.776762
O O12 0.000000 0.000000 0.500000
O O13 0.549442 0.295458 0.898827
O O14 0.500000 0.500000 0.500000
O O15 0.699114 0.519411 0.167099
O O16 0.500000 0.500000 0.000000
#
# Coordination Sequence:
#
# PCOD9055348 Si02
#       7
#     2   2   2   2   2   2   2
#     4  11  24  42  68  98 134 177 224 284 331 403
#     4  11  24  43  72  95 128 182 229 270 343 403
#     4  12  24  41  64 101 138 174 225 281 343 401
#     4  12  24  48  67  96 142 174 229 280 335 401
#     4  11  23  43  69  95 135 182 221 277 337 394
#     4  12  21  40  70  96 138 184 215 277 350 397
#     4  11  21  41  68  99 133 171 228 277 333 406
#
# _framework density 20.433982
#
# number of rings (size 3 to 8) (size 9 to 14) (size 15 to 20)
#    0.000    0.571    7.143    2.143    0.000    3.429 
#    2.571    1.429    0.000    0.000    0.000    0.000 
#    0.000    0.000    0.000    0.000    0.000    0.000 
#
# Total GULP energy -78241.946666 kJ/mol
# GULP energy per Si atom -5588.710476 kJ/mol
# Density = 2.038747 g / cm^3
# Si number density = 20.433982 Si / 1000 Ang^3
#
#
#
# Elastic Constant Matrix: (Units=GPa)
#
#
# Indices 1 2 3 4 5 6 
#
# 1 79.1808 13.9861 34.3433 12.4808 -9.6976 8.0726
# 2 13.9861 77.1762 21.2808 14.9834 2.7573 21.4375
# 3 34.3433 21.2808 90.6943 10.0481 -1.4908 -7.3687
# 4 12.4808 14.9834 10.0481 41.8065 -1.7457 1.4493
# 5 -9.6976 2.7573 -1.4908 -1.7457 31.1269 1.3059
# 6 8.0726 21.4375 -7.3687 1.4493 1.3059 36.7833
#
#
#
# Elastic Compliance Matrix: (Units=1/GPa)
#
#
# Indices 1 2 3 4 5 6 
#
# 1 0.017087 0.000760 -0.006645 -0.003375 0.004982 -0.005568
# 2 0.000760 0.018546 -0.005026 -0.005320 -0.001454 -0.011721
# 3 -0.006645 -0.005026 0.015336 -0.000212 -0.001218 0.007511
# 4 -0.003375 -0.005320 -0.000212 0.026824 0.000800 0.002714
# 5 0.004982 -0.001454 -0.001218 0.000800 0.033866 -0.001724
# 6 -0.005568 -0.011721 0.007511 0.002714 -0.001724 0.036698
#
#
# Mechanical properties :
#
#
# Convention : Reuss Voigt Hill
#
# Bulk Modulus (GPa) = 34.31064 42.91905 38.61485
# Shear Modulus (GPa) = 27.79367 33.77273 30.78320
#
# Velocity S-wave (km/s) = 3.69205 4.06984 3.88554
# Velocity P-wave (km/s) = 5.91628 6.56766 6.25046
#
# Compressibility (1/GPa) = 0.02914548
#
# Stress axis : x y z
#
# Youngs Moduli (GPa) = 58.52313 53.91913 65.20808
#
# Poissons Ratio (x) = -0.04096 0.43332
# Poissons Ratio (y) = -0.04446 0.32775
# Poissons Ratio (z) = 0.38890 0.27101
#
# Static dielectric constant tensor:
#      x y z
#    x 1.730820 0.004490 -0.008820 
#    y 0.004490 1.745840 -0.014160 
#    z -0.008820 -0.014160 1.764830 
# 
# From -- ./inp_files/169156.got.cif
#   From: 2010.05.17/outbox.cif.g08.bks.cpg/sg2_85_cif.got.tgz:169156.got - 2010.06.03 11:33:40.
