data_PCOD9055283
_publ_section_title
;
Structure prediction by ZEFSAII (Michael W. Deem and Ramdas Pophale) SiO2 
 PCOD9055283
Probable space group: P -1
;
_chemical_formula_sum "Si O2"
_cell_formula_units_Z 12
_cell_length_a 14.751848
_cell_length_b 9.240562
_cell_length_c 10.161612
_cell_angle_alpha 150.294471
_cell_angle_beta 91.172586
_cell_angle_gamma 77.452274
_cell_volume 628.189723
_symmetry_space_group_name_H-M "P -1"
_symmetry_group_IT_number 2
_symmetry_cell_setting 'triclinic'
loop_
_space_group_symop_operation_xyz
x,y,z
-x,-y,-z
loop_
_atom_site_type_symbol
_atom_site_label
_atom_site_fract_x
_atom_site_fract_y
_atom_site_fract_z
Si Si1 0.549472 0.613150 0.470042
Si Si2 0.953646 0.376618 0.782524
Si Si3 0.529075 0.631448 0.972674
Si Si4 0.044035 0.261488 0.192548
Si Si5 0.742186 0.166144 0.239641
Si Si6 0.736759 0.527330 0.796310
O O1 0.500000 0.500000 0.500000
O O2 0.665303 0.461043 0.389925
O O3 0.508848 0.987472 0.736444
O O4 0.524175 0.461776 0.221838
O O5 0.981549 0.520065 0.765726
O O6 0.835253 0.470970 0.839435
O O7 0.000000 0.000000 0.500000
O O8 0.000000 0.500000 0.000000
O O9 0.500000 0.500000 0.000000
O O10 0.647681 0.480717 0.831258
O O11 0.000000 0.500000 0.500000
O O12 0.160730 0.043897 0.006393
O O13 0.000000 0.000000 0.000000
O O14 0.763363 0.307122 0.490452
O O15 0.696791 0.903220 0.056731
#
# Coordination Sequence:
#
# PCOD9055283 Si02
#       6
#     2   2   2   2   2   2
#     4  12  22  42  70  94 127 171 226 256 301 409
#     4  11  23  42  66  91 123 171 218 255 315 395
#     4  12  25  42  63  99 140 166 205 274 330 363
#     4  11  23  43  65  93 131 159 208 280 325 360
#     4  11  22  39  70  96 121 174 222 256 316 386
#     4  11  21  41  66  92 130 172 215 260 319 387
#
# _framework density 19.102509999999999
#
# number of rings (size 3 to 8) (size 9 to 14) (size 15 to 20)
#    0.000    0.667    3.333    7.000    0.000    0.000 
#    9.000    0.000    0.000    0.000    0.000    0.000 
#    0.000    0.000    0.000    0.000    0.000    0.000 
#
# Total GULP energy -66963.020482 kJ/mol
# GULP energy per Si atom -5580.251707 kJ/mol
# Density = 1.905903 g / cm^3
# Si number density = 19.102510 Si / 1000 Ang^3
#
#
#
# Elastic Constant Matrix: (Units=GPa)
#
#
# Indices 1 2 3 4 5 6 
#
# 1 131.2262 77.6346 72.9183 -17.1080 -7.4405 -1.7565
# 2 77.6346 168.7426 95.3067 -8.0697 -7.1988 -1.1242
# 3 72.9183 95.3067 204.9511 -7.7654 14.1742 -13.7071
# 4 -17.1080 -8.0697 -7.7654 48.1339 -3.1298 6.6739
# 5 -7.4405 -7.1988 14.1742 -3.1298 37.3827 0.9168
# 6 -1.7565 -1.1242 -13.7071 6.6739 0.9168 37.1257
#
#
#
# Elastic Compliance Matrix: (Units=1/GPa)
#
#
# Indices 1 2 3 4 5 6 
#
# 1 0.011899 -0.003668 -0.002685 0.003550 0.003008 -0.001252
# 2 -0.003668 0.009655 -0.003434 0.000091 0.002469 -0.001226
# 3 -0.002685 -0.003434 0.007894 -0.000949 -0.004341 0.002961
# 4 0.003550 0.000091 -0.000949 0.022702 0.003091 -0.004337
# 5 0.003008 0.002469 -0.004341 0.003091 0.029795 -0.002677
# 6 -0.001252 -0.001226 0.002961 -0.004337 -0.002677 0.028778
#
#
# Mechanical properties :
#
#
# Convention : Reuss Voigt Hill
#
# Bulk Modulus (GPa) = 101.28251 110.73768 106.01009
# Shear Modulus (GPa) = 37.42851 41.79915 39.61383
#
# Velocity S-wave (km/s) = 4.43126 4.68284 4.55878
# Velocity P-wave (km/s) = 8.90601 9.34531 9.12830
#
# Compressibility (1/GPa) = 0.00987337
#
# Stress axis : x y z
#
# Youngs Moduli (GPa) = 84.03905 103.57410 126.68488
#
# Poissons Ratio (x) = 0.37994 0.34014
# Poissons Ratio (y) = 0.30828 0.43503
# Poissons Ratio (z) = 0.22564 0.35567
#
# Static dielectric constant tensor:
#      x y z
#    x 1.705260 -0.015960 -0.025700 
#    y -0.015960 1.598890 -0.005640 
#    z -0.025700 -0.005640 1.652650 
# 
# From -- ./inp_files/142732.got.cif
#   From: 2010.05.17/outbox.cif.g08.bks.cpg/sg2_72_cif.got.tgz:142732.got - 2010.06.03 11:33:40.
