data_PCOD9055735
_publ_section_title
;
Structure prediction by ZEFSAII (Michael W. Deem and Ramdas Pophale) SiO2 
 PCOD9055735
Probable space group: P -1
;
_chemical_formula_sum "Si O2"
_cell_formula_units_Z 16
_cell_length_a 11.269350
_cell_length_b 11.667832
_cell_length_c 9.587619
_cell_angle_alpha 59.179263
_cell_angle_beta 96.543190
_cell_angle_gamma 134.263755
_cell_volume 711.864632
_symmetry_space_group_name_H-M "P -1"
_symmetry_group_IT_number 2
_symmetry_cell_setting 'triclinic'
loop_
_space_group_symop_operation_xyz
x,y,z
-x,-y,-z
loop_
_atom_site_type_symbol
_atom_site_label
_atom_site_fract_x
_atom_site_fract_y
_atom_site_fract_z
Si Si1 0.884814 0.650312 0.650563
Si Si2 0.956179 0.830168 0.827985
Si Si3 0.472403 0.721971 0.012923
Si Si4 0.178214 0.875346 0.045727
Si Si5 0.893977 0.773932 0.283257
Si Si6 0.614925 0.541063 0.154225
Si Si7 0.429831 0.790136 0.658478
Si Si8 0.955109 0.462539 0.352865
O O1 0.943009 0.806390 0.676060
O O2 0.715495 0.440767 0.831698
O O3 0.826741 0.645293 0.492531
O O4 0.049199 0.689048 0.615608
O O5 0.769669 0.635347 0.001725
O O6 0.999720 0.011857 0.776171
O O7 0.114816 0.873238 0.888036
O O8 0.527037 0.610817 0.061341
O O9 0.451233 0.792232 0.826690
O O10 0.627078 0.916652 0.008337
O O11 0.037768 0.819118 0.176570
O O12 0.126168 0.678180 0.171831
O O13 0.726247 0.667608 0.230305
O O14 0.504282 0.309314 0.310231
O O15 0.230093 0.623354 0.665383
O O16 0.500000 0.000000 0.500000
O O17 0.000000 0.500000 0.500000
#
# Coordination Sequence:
#
# PCOD9055735 Si02
#       8
#     2   2   2   2   2   2   2   2
#     4  12  27  41  69 108 151 180 236 310 357 409
#     4  11  21  43  69 105 134 189 240 292 354 423
#     4  12  25  44  74 111 144 183 241 304 361 410
#     4  11  21  43  78  93 136 200 238 278 352 443
#     4  11  21  43  73 105 133 196 243 283 361 433
#     4  11  21  46  76 100 148 192 237 290 361 434
#     4  12  26  43  72 110 141 189 246 291 351 430
#     4  12  24  49  71  94 143 199 237 280 359 448
#
# _framework density 22.476182999999999
#
# number of rings (size 3 to 8) (size 9 to 14) (size 15 to 20)
#    0.000    0.500    7.500    2.250    0.000    3.000 
#    2.250    1.250    0.000    0.000    0.000    0.000 
#    0.000    0.000    0.000    0.000    0.000    0.000 
#
# Total GULP energy -89245.903777 kJ/mol
# GULP energy per Si atom -5577.868986 kJ/mol
# Density = 2.242503 g / cm^3
# Si number density = 22.476183 Si / 1000 Ang^3
#
#
#
# Elastic Constant Matrix: (Units=GPa)
#
#
# Indices 1 2 3 4 5 6 
#
# 1 56.4501 23.5808 45.7035 6.0988 25.8774 -5.2025
# 2 23.5808 106.5970 16.2468 1.9668 7.0597 6.5422
# 3 45.7035 16.2468 98.6536 14.8551 19.3248 4.8962
# 4 6.0988 1.9668 14.8551 45.5499 -3.1650 15.5778
# 5 25.8774 7.0597 19.3248 -3.1650 24.9440 6.6257
# 6 -5.2025 6.5422 4.8962 15.5778 6.6257 36.1472
#
#
#
# Elastic Compliance Matrix: (Units=1/GPa)
#
#
# Indices 1 2 3 4 5 6 
#
# 1 0.080199 -0.011787 -0.017998 -0.023958 -0.079871 0.041079
# 2 -0.011787 0.011489 0.001288 0.003989 0.010503 -0.007595
# 3 -0.017998 0.001288 0.017465 -0.000869 0.006250 -0.005960
# 4 -0.023958 0.003989 -0.000869 0.036868 0.036132 -0.026564
# 5 -0.079871 0.010503 0.006250 0.036132 0.134172 -0.054408
# 6 0.041079 -0.007595 -0.005960 -0.026564 -0.054408 0.057179
#
#
# Mechanical properties :
#
#
# Convention : Reuss Voigt Hill
#
# Bulk Modulus (GPa) = 19.17293 48.08475 33.62884
# Shear Modulus (GPa) = 12.14318 33.07286 22.60802
#
# Velocity S-wave (km/s) = 2.32689 3.84013 3.17498
# Velocity P-wave (km/s) = 3.97090 6.41110 5.33246
#
# Compressibility (1/GPa) = 0.05215686
#
# Stress axis : x y z
#
# Youngs Moduli (GPa) = 12.46904 87.03710 57.25743
#
# Poissons Ratio (x) = 1.02593 1.03053
# Poissons Ratio (y) = 0.14698 -0.07372
# Poissons Ratio (z) = 0.22442 -0.11206
#
# Static dielectric constant tensor:
#      x y z
#    x 2.009050 -0.206990 0.198680 
#    y -0.206990 2.001450 -0.172120 
#    z 0.198680 -0.172120 1.977750 
# 
# From -- ./inp_files/256974.got.cif
#   From: 2010.05.17/outbox.cif.g08.bks.cpg/sg2_129_cif.got.tgz:256974.got - 2010.06.03 11:33:40.
