data_PCOD9055831
_publ_section_title
;
Structure prediction by ZEFSAII (Michael W. Deem and Ramdas Pophale) SiO2 
 PCOD9055831
Probable space group: P -1
;
_chemical_formula_sum "Si O2"
_cell_formula_units_Z 12
_cell_length_a 9.151202
_cell_length_b 11.109224
_cell_length_c 9.780217
_cell_angle_alpha 141.779264
_cell_angle_beta 60.484373
_cell_angle_gamma 125.417500
_cell_volume 499.943711
_symmetry_space_group_name_H-M "P -1"
_symmetry_group_IT_number 2
_symmetry_cell_setting 'triclinic'
loop_
_space_group_symop_operation_xyz
x,y,z
-x,-y,-z
loop_
_atom_site_type_symbol
_atom_site_label
_atom_site_fract_x
_atom_site_fract_y
_atom_site_fract_z
Si Si1 0.348456 0.298753 0.771625
Si Si2 0.161899 0.611948 0.179608
Si Si3 0.283021 0.609450 0.402716
Si Si4 0.439583 0.085136 0.800509
Si Si5 0.149249 0.166137 0.177886
Si Si6 0.122512 0.198993 0.539411
O O1 0.556968 0.444882 0.795957
O O2 0.360505 0.132308 0.731143
O O3 0.303994 0.256048 0.592588
O O4 0.198595 0.396501 0.964186
O O5 0.168008 0.655212 0.376507
O O6 0.344986 0.784935 0.186950
O O7 0.974099 0.631078 0.243064
O O8 0.170295 0.405434 0.353491
O O9 0.380132 0.836861 0.624156
O O10 0.337307 0.151931 0.028427
O O11 0.126910 0.137673 0.325128
O O12 0.000000 0.000000 0.000000
O O13 0.000000 0.000000 0.500000
#
# Coordination Sequence:
#
# PCOD9055831 Si02
#       6
#     2   2   2   2   2   2
#     4  11  21  45  72 104 139 177 226 280 343 407
#     4  11  21  43  74 102 136 186 224 273 341 414
#     4  11  22  43  77 101 133 182 232 280 332 407
#     4  11  22  46  76 102 131 182 234 275 331 413
#     4  12  26  46  69 101 139 177 235 283 336 403
#     4  12  27  44  66 102 145 176 223 289 346 401
#
# _framework density 24.002704999999999
#
# number of rings (size 3 to 8) (size 9 to 14) (size 15 to 20)
#    0.000    0.667    3.333    7.500    0.000    3.333 
#    3.000    1.667    0.000    0.000    0.000    0.000 
#    0.000    0.000    0.000    0.000    0.000    0.000 
#
# Total GULP energy -66934.315193 kJ/mol
# GULP energy per Si atom -5577.859599 kJ/mol
# Density = 2.394807 g / cm^3
# Si number density = 24.002705 Si / 1000 Ang^3
#
#
#
# Elastic Constant Matrix: (Units=GPa)
#
#
# Indices 1 2 3 4 5 6 
#
# 1 125.4699 20.1206 24.9691 -13.4369 -7.4032 -19.3426
# 2 20.1206 144.3062 53.4190 -10.0300 5.4427 8.2462
# 3 24.9691 53.4190 106.7364 -9.3981 -13.3012 -5.2604
# 4 -13.4369 -10.0300 -9.3981 57.8107 -3.3037 0.6477
# 5 -7.4032 5.4427 -13.3012 -3.3037 38.4704 -5.2813
# 6 -19.3426 8.2462 -5.2604 0.6477 -5.2813 24.8345
#
#
#
# Elastic Compliance Matrix: (Units=1/GPa)
#
#
# Indices 1 2 3 4 5 6 
#
# 1 0.010171 -0.001767 -0.000428 0.002085 0.003488 0.009105
# 2 -0.001767 0.009705 -0.005306 0.000231 -0.004444 -0.006674
# 3 -0.000428 -0.005306 0.013288 0.001429 0.006142 0.005512
# 4 0.002085 0.000231 0.001429 0.018187 0.002692 0.001948
# 5 0.003488 -0.004444 0.006142 0.002692 0.031307 0.012081
# 6 0.009105 -0.006674 0.005512 0.001948 0.012081 0.053260
#
#
# Mechanical properties :
#
#
# Convention : Reuss Voigt Hill
#
# Bulk Modulus (GPa) = 55.05985 63.72553 59.39269
# Shear Modulus (GPa) = 31.85209 42.75670 37.30440
#
# Velocity S-wave (km/s) = 3.64678 4.22516 3.94658
# Velocity P-wave (km/s) = 6.38129 7.09997 6.75020
#
# Compressibility (1/GPa) = 0.01816206
#
# Stress axis : x y z
#
# Youngs Moduli (GPa) = 98.31476 103.03558 75.25789
#
# Poissons Ratio (x) = 0.18203 0.03222
# Poissons Ratio (y) = 0.17369 0.39935
# Poissons Ratio (z) = 0.04210 0.54675
#
# Static dielectric constant tensor:
#      x y z
#    x 1.385540 -0.022050 -0.327100 
#    y -0.022050 1.903600 0.033510 
#    z -0.327100 0.033510 1.907080 
# 
# From -- ./inp_files/160301.got.cif
#   From: 2010.05.17/outbox.cif.g08.bks.cpg/sg2_81_cif.got.tgz:160301.got - 2010.06.03 11:33:40.
