data_PCOD9055209
_publ_section_title
;
Structure prediction by ZEFSAII (Michael W. Deem and Ramdas Pophale) SiO2 
 PCOD9055209
Probable space group: P -1
;
_chemical_formula_sum "Si O2"
_cell_formula_units_Z 16
_cell_length_a 18.825090
_cell_length_b 10.100512
_cell_length_c 9.931899
_cell_angle_alpha 138.966867
_cell_angle_beta 136.448929
_cell_angle_gamma 52.631679
_cell_volume 846.602918
_symmetry_space_group_name_H-M "P -1"
_symmetry_group_IT_number 2
_symmetry_cell_setting 'triclinic'
loop_
_space_group_symop_operation_xyz
x,y,z
-x,-y,-z
loop_
_atom_site_type_symbol
_atom_site_label
_atom_site_fract_x
_atom_site_fract_y
_atom_site_fract_z
Si Si1 0.682428 0.576150 0.574244
Si Si2 0.503051 0.607086 0.941055
Si Si3 0.665891 0.030841 0.996532
Si Si4 0.815957 0.312738 0.787419
Si Si5 0.807539 0.359962 0.348665
Si Si6 0.736854 0.516704 0.089350
Si Si7 0.025155 0.407619 0.814648
Si Si8 0.806545 0.895680 0.320894
O O1 0.572834 0.492699 0.341811
O O2 0.754212 0.449347 0.688692
O O3 0.740292 0.532116 0.478249
O O4 0.667507 0.812411 0.765976
O O5 0.446333 0.835960 0.058202
O O6 0.500000 0.500000 0.000000
O O7 0.618968 0.579336 0.023525
O O8 0.748812 0.163285 0.144322
O O9 0.705034 0.989455 0.170853
O O10 0.841006 0.083670 0.594070
O O11 0.746449 0.352681 0.855700
O O12 0.920851 0.410393 0.037709
O O13 0.801075 0.421639 0.232350
O O14 0.922394 0.349181 0.558516
O O15 0.780186 0.715709 0.242820
O O16 0.111042 0.209324 0.757343
O O17 0.000000 0.500000 0.000000
#
# Coordination Sequence:
#
# PCOD9055209 Si02
#       8
#     2   2   2   2   2   2   2   2
#     4  11  21  42  66  92 128 166 216 265 313 388
#     4  11  23  43  66  93 131 169 213 270 321 375
#     4  11  21  41  67  93 125 169 219 261 317 384
#     4  11  23  43  62  97 134 166 212 271 318 381
#     4  11  23  42  66  95 133 166 215 270 315 382
#     4  11  25  44  62  94 135 168 210 270 327 375
#     4  11  21  40  71  98 126 173 217 262 320 380
#     4  11  23  42  65  96 134 167 212 269 321 381
#
# _framework density 18.899061
#
# number of rings (size 3 to 8) (size 9 to 14) (size 15 to 20)
#    0.000    1.000    8.750    0.000    0.000    8.500 
#    0.000    1.250    0.000    0.000    0.000    0.000 
#    0.000    0.000    0.000    0.000    0.000    0.000 
#
# Total GULP energy -89273.247758 kJ/mol
# GULP energy per Si atom -5579.577985 kJ/mol
# Density = 1.885605 g / cm^3
# Si number density = 18.899061 Si / 1000 Ang^3
#
#
#
# Elastic Constant Matrix: (Units=GPa)
#
#
# Indices 1 2 3 4 5 6 
#
# 1 103.2107 34.0824 29.4959 3.5344 -12.3891 -10.0249
# 2 34.0824 65.2141 35.4159 13.4431 -18.1491 -0.7959
# 3 29.4959 35.4159 74.3225 17.5476 -13.6644 -11.4283
# 4 3.5344 13.4431 17.5476 43.0907 -5.8415 -8.6140
# 5 -12.3891 -18.1491 -13.6644 -5.8415 34.3363 -5.9127
# 6 -10.0249 -0.7959 -11.4283 -8.6140 -5.9127 33.2225
#
#
#
# Elastic Compliance Matrix: (Units=1/GPa)
#
#
# Indices 1 2 3 4 5 6 
#
# 1 0.012594 -0.005388 -0.002053 0.002551 0.001999 0.003982
# 2 -0.005388 0.025327 -0.008322 -0.003877 0.006840 -0.003670
# 3 -0.002053 -0.008322 0.020722 -0.004034 0.003432 0.005874
# 4 0.002551 -0.003877 -0.004034 0.027689 0.003188 0.007036
# 5 0.001999 0.006840 0.003432 0.003188 0.036980 0.009356
# 6 0.003982 -0.003670 0.005874 0.007036 0.009356 0.036724
#
#
# Mechanical properties :
#
#
# Convention : Reuss Voigt Hill
#
# Bulk Modulus (GPa) = 36.87684 48.97063 42.92373
# Shear Modulus (GPa) = 24.92509 31.71345 28.31927
#
# Velocity S-wave (km/s) = 3.63554 4.10084 3.87518
# Velocity P-wave (km/s) = 6.09736 6.95632 6.54095
#
# Compressibility (1/GPa) = 0.02711729
#
# Stress axis : x y z
#
# Youngs Moduli (GPa) = 79.40105 39.48300 48.25775
#
# Poissons Ratio (x) = 0.21273 0.09908
# Poissons Ratio (y) = 0.42781 0.40160
# Poissons Ratio (z) = 0.16303 0.32858
#
# Static dielectric constant tensor:
#      x y z
#    x 1.680270 -0.013940 0.009100 
#    y -0.013940 1.653440 -0.007220 
#    z 0.009100 -0.007220 1.689400 
# 
# From -- ./inp_files/312976.got.cif
#   From: 2010.05.17/outbox.cif.g08.bks.cpg/sg2_157_cif.got.tgz:312976.got - 2010.06.03 11:33:40.
