data_PCOD9055309
_publ_section_title
;
Structure prediction by ZEFSAII (Michael W. Deem and Ramdas Pophale) SiO2 
 PCOD9055309
Probable space group: P -1
;
_chemical_formula_sum "Si O2"
_cell_formula_units_Z 14
_cell_length_a 14.228766
_cell_length_b 8.272590
_cell_length_c 5.795613
_cell_angle_alpha 112.595224
_cell_angle_beta 107.338155
_cell_angle_gamma 62.642079
_cell_volume 553.216865
_symmetry_space_group_name_H-M "P -1"
_symmetry_group_IT_number 2
_symmetry_cell_setting 'triclinic'
loop_
_space_group_symop_operation_xyz
x,y,z
-x,-y,-z
loop_
_atom_site_type_symbol
_atom_site_label
_atom_site_fract_x
_atom_site_fract_y
_atom_site_fract_z
Si Si1 0.925658 0.206370 0.964798
Si Si2 0.767041 0.508146 0.356906
Si Si3 0.624042 0.702642 0.986953
Si Si4 0.234318 0.950577 0.385883
Si Si5 0.625336 0.392037 0.500499
Si Si6 0.577040 0.037048 0.771359
Si Si7 0.919033 0.649788 0.697635
O O1 0.851616 0.332941 0.184468
O O2 0.011307 0.301575 0.028560
O O3 0.844213 0.165369 0.713847
O O4 0.000000 0.000000 0.000000
O O5 0.710969 0.683671 0.236626
O O6 0.670980 0.459395 0.352053
O O7 0.830000 0.565516 0.637901
O O8 0.506037 0.781682 0.054895
O O9 0.658688 0.491820 0.796612
O O10 0.616269 0.853498 0.865577
O O11 0.322469 0.836798 0.580227
O O12 0.320347 0.931044 0.233251
O O13 0.146683 0.160818 0.394582
O O14 0.500000 0.500000 0.500000
O O15 0.500000 0.000000 0.500000
O O16 0.000000 0.500000 0.500000
#
# Coordination Sequence:
#
# PCOD9055309 Si02
#       7
#     2   2   2   2   2   2   2
#     4   9  20  41  69  94 128 172 228 286 336 394
#     4  11  22  43  69  93 139 178 218 279 345 397
#     4  11  23  41  65  96 136 179 230 267 334 410
#     4  11  21  41  67  94 139 171 224 282 343 392
#     4  12  26  39  64 103 142 177 224 273 340 416
#     4  11  24  42  66  98 135 185 227 274 329 413
#     4   9  20  41  70  92 126 175 229 286 328 403
#
# _framework density 25.306532000000001
#
# number of rings (size 3 to 8) (size 9 to 14) (size 15 to 20)
#    0.000    1.429    1.429    4.286    2.000    2.286 
#    0.000    7.143   12.571    0.000    0.000    0.000 
#    0.000    0.000    0.000    0.000    0.000    0.000 
#
# Total GULP energy -78106.194186 kJ/mol
# GULP energy per Si atom -5579.013870 kJ/mol
# Density = 2.524893 g / cm^3
# Si number density = 25.306532 Si / 1000 Ang^3
#
#
#
# Elastic Constant Matrix: (Units=GPa)
#
#
# Indices 1 2 3 4 5 6 
#
# 1 129.6659 47.2083 24.7218 -22.7852 21.5806 -8.1279
# 2 47.2083 150.4855 10.6134 -12.4499 -7.0454 -34.1341
# 3 24.7218 10.6134 41.8338 -11.9467 12.3389 -6.4997
# 4 -22.7852 -12.4499 -11.9467 28.1113 -0.8609 -1.8109
# 5 21.5806 -7.0454 12.3389 -0.8609 33.3373 -0.9087
# 6 -8.1279 -34.1341 -6.4997 -1.8109 -0.9087 47.2782
#
#
#
# Elastic Compliance Matrix: (Units=1/GPa)
#
#
# Indices 1 2 3 4 5 6 
#
# 1 0.011769 -0.003476 -0.002013 0.006875 -0.007448 -0.000643
# 2 -0.003476 0.009585 -0.000176 0.001909 0.004566 0.006459
# 3 -0.002013 -0.000176 0.032224 0.011943 -0.010238 0.004218
# 4 0.006875 0.001909 0.011943 0.047228 -0.007088 0.005875
# 5 -0.007448 0.004566 -0.010238 -0.007088 0.039419 0.001095
# 6 -0.000643 0.006459 0.004218 0.005875 0.001095 0.026530
#
#
# Mechanical properties :
#
#
# Convention : Reuss Voigt Hill
#
# Bulk Modulus (GPa) = 23.66930 54.11912 38.89421
# Shear Modulus (GPa) = 26.01934 37.70815 31.86375
#
# Velocity S-wave (km/s) = 3.20998 3.86431 3.55225
# Velocity P-wave (km/s) = 4.80749 6.42981 5.67690
#
# Compressibility (1/GPa) = 0.04224883
#
# Stress axis : x y z
#
# Youngs Moduli (GPa) = 84.97192 104.33294 31.03297
#
# Poissons Ratio (x) = 0.36262 0.06246
# Poissons Ratio (y) = 0.29533 0.00545
# Poissons Ratio (z) = 0.17103 0.01834
#
# Static dielectric constant tensor:
#      x y z
#    x 2.005140 0.006190 0.092430 
#    y 0.006190 2.993170 -0.175950 
#    z 0.092430 -0.175950 2.153160 
# 
# From -- ./inp_files/48681.got.cif
#   From: 2010.05.17/outbox.cif.g08.bks.cpg/sg2_25_cif.got.tgz:48681.got - 2010.06.03 11:33:40.
