data_PCOD9055451
_publ_section_title
;
Structure prediction by ZEFSAII (Michael W. Deem and Ramdas Pophale) SiO2 
 PCOD9055451
Probable space group: P -1
;
_chemical_formula_sum "Si O2"
_cell_formula_units_Z 16
_cell_length_a 13.551688
_cell_length_b 14.709135
_cell_length_c 9.255946
_cell_angle_alpha 85.673596
_cell_angle_beta 104.853001
_cell_angle_gamma 29.271423
_cell_volume 675.215100
_symmetry_space_group_name_H-M "P -1"
_symmetry_group_IT_number 2
_symmetry_cell_setting 'triclinic'
loop_
_space_group_symop_operation_xyz
x,y,z
-x,-y,-z
loop_
_atom_site_type_symbol
_atom_site_label
_atom_site_fract_x
_atom_site_fract_y
_atom_site_fract_z
Si Si1 0.226594 0.278603 0.499131
Si Si2 0.402435 0.609136 0.114285
Si Si3 0.674033 0.137712 0.051877
Si Si4 0.264240 0.370476 0.230345
Si Si5 0.019272 0.874089 0.501887
Si Si6 0.628032 0.864765 0.912968
Si Si7 0.026118 0.695872 0.730738
Si Si8 0.061534 0.718406 0.061058
O O1 0.317520 0.273318 0.409708
O O2 0.000000 0.500000 0.500000
O O3 0.109996 0.282274 0.384909
O O4 0.481200 0.044770 0.717185
O O5 0.657023 0.408247 0.341210
O O6 0.215843 0.684222 0.093620
O O7 0.500000 0.500000 0.000000
O O8 0.258065 0.824212 0.010735
O O9 0.350079 0.409478 0.890149
O O10 0.829278 0.013339 0.276957
O O11 0.809934 0.941762 0.043577
O O12 0.398887 0.214762 0.157362
O O13 0.280207 0.465596 0.232650
O O14 0.943330 0.620339 0.066705
O O15 0.948899 0.852102 0.595242
O O16 0.000000 0.000000 0.500000
O O17 0.500000 0.000000 0.000000
O O18 0.962122 0.766395 0.863797
#
# Coordination Sequence:
#
# PCOD9055451 Si02
#       8
#     2   2   2   2   2   2   2   2
#     4  12  27  48  76 102 147 197 245 300 370 427
#     4  11  21  47  69 103 148 183 233 292 354 437
#     4  11  25  45  73 103 146 183 240 292 361 429
#     4  11  27  46  69 110 143 185 251 297 353 433
#     4  11  21  41  76 104 138 185 234 292 354 425
#     4  11  24  49  74  99 147 192 236 304 364 422
#     4  11  26  48  68 104 145 190 238 294 361 431
#     4  12  25  44  75 102 144 192 233 297 361 420
#
# _framework density 23.696152999999999
#
# number of rings (size 3 to 8) (size 9 to 14) (size 15 to 20)
#    0.000    0.750    5.000    2.250    3.500    3.500 
#    0.000    5.000    0.000    0.000    0.000    0.000 
#    0.000    0.000    0.000    0.000    0.000    0.000 
#
# Total GULP energy -89490.745592 kJ/mol
# GULP energy per Si atom -5593.171599 kJ/mol
# Density = 2.364222 g / cm^3
# Si number density = 23.696153 Si / 1000 Ang^3
#
#
#
# Elastic Constant Matrix: (Units=GPa)
#
#
# Indices 1 2 3 4 5 6 
#
# 1 123.2491 34.6889 54.8219 9.5370 -25.4125 18.2195
# 2 34.6889 163.5418 55.4402 10.9728 -15.2820 11.4323
# 3 54.8219 55.4402 187.6819 -8.8128 -27.1179 3.9746
# 4 9.5370 10.9728 -8.8128 35.3427 6.1502 -1.0183
# 5 -25.4125 -15.2820 -27.1179 6.1502 45.7785 -15.5859
# 6 18.2195 11.4323 3.9746 -1.0183 -15.5859 29.1474
#
#
#
# Elastic Compliance Matrix: (Units=1/GPa)
#
#
# Indices 1 2 3 4 5 6 
#
# 1 0.011207 -0.000515 -0.002733 -0.004271 0.003379 -0.004773
# 2 -0.000515 0.007290 -0.001997 -0.002794 0.000655 -0.002013
# 3 -0.002733 -0.001997 0.007177 0.002758 0.002745 0.003077
# 4 -0.004271 -0.002794 0.002758 0.031992 -0.005420 0.001609
# 5 0.003379 0.000655 0.002745 -0.005420 0.030925 0.013603
# 6 -0.004773 -0.002013 0.003077 0.001609 0.013603 0.044992
#
#
# Mechanical properties :
#
#
# Convention : Reuss Voigt Hill
#
# Bulk Modulus (GPa) = 65.85258 84.93055 75.39157
# Shear Modulus (GPa) = 33.52699 44.02183 38.77441
#
# Velocity S-wave (km/s) = 3.76556 4.31485 4.04953
# Velocity P-wave (km/s) = 6.83788 7.79380 7.33144
#
# Compressibility (1/GPa) = 0.01518543
#
# Stress axis : x y z
#
# Youngs Moduli (GPa) = 89.23073 137.16992 139.32842
#
# Poissons Ratio (x) = 0.07060 0.38074
# Poissons Ratio (y) = 0.04593 0.27825
# Poissons Ratio (z) = 0.24384 0.27394
#
# Static dielectric constant tensor:
#      x y z
#    x 2.007060 0.034350 -0.008860 
#    y 0.034350 1.965910 -0.043040 
#    z -0.008860 -0.043040 1.890740 
# 
# From -- ./inp_files/315286.got.cif
#   From: 2010.05.17/outbox.cif.g08.bks.cpg/sg2_158_cif.got.tgz:315286.got - 2010.06.03 11:33:40.
