data_PCOD9055732
_publ_section_title
;
Structure prediction by ZEFSAII (Michael W. Deem and Ramdas Pophale) SiO2 
 PCOD9055732
Probable space group: P -1
;
_chemical_formula_sum "Si O2"
_cell_formula_units_Z 16
_cell_length_a 11.975800
_cell_length_b 8.910599
_cell_length_c 15.142928
_cell_angle_alpha 81.430823
_cell_angle_beta 28.167885
_cell_angle_gamma 70.056870
_cell_volume 673.868320
_symmetry_space_group_name_H-M "P -1"
_symmetry_group_IT_number 2
_symmetry_cell_setting 'triclinic'
loop_
_space_group_symop_operation_xyz
x,y,z
-x,-y,-z
loop_
_atom_site_type_symbol
_atom_site_label
_atom_site_fract_x
_atom_site_fract_y
_atom_site_fract_z
Si Si1 0.732845 0.083897 0.914948
Si Si2 0.586510 0.851150 0.128677
Si Si3 0.952629 0.174356 0.064423
Si Si4 0.521228 0.811174 0.490394
Si Si5 0.269527 0.779060 0.496230
Si Si6 0.361885 0.673511 0.887192
Si Si7 0.183558 0.446970 0.551406
Si Si8 0.370095 0.387161 0.024427
O O1 0.778055 0.164325 0.966217
O O2 0.610830 0.232968 0.916442
O O3 0.994732 0.927694 0.710491
O O4 0.524434 0.014660 0.096823
O O5 0.347308 0.836749 0.345031
O O6 0.728379 0.694598 0.977586
O O7 0.794127 0.842293 0.058804
O O8 0.720833 0.207053 0.292046
O O9 0.838990 0.312488 0.053030
O O10 0.000000 0.000000 0.000000
O O11 0.490316 0.765846 0.415507
O O12 0.764184 0.676414 0.389752
O O13 0.500000 0.000000 0.500000
O O14 0.254312 0.602416 0.509401
O O15 0.621402 0.658063 0.654956
O O16 0.441482 0.517748 0.911424
O O17 0.870808 0.525043 0.747111
#
# Coordination Sequence:
#
# PCOD9055732 Si02
#       8
#     2   2   2   2   2   2   2   2
#     4  12  27  48  72 103 146 187 244 289 342 433
#     4  12  25  43  74 105 138 191 235 293 353 411
#     4  11  21  43  69 103 146 171 235 296 347 426
#     4  11  24  41  70 106 143 183 232 290 360 421
#     4  12  25  45  70 104 141 189 233 292 357 413
#     4  11  26  47  70 106 142 185 231 297 362 414
#     4  11  26  45  70 104 146 179 236 296 350 425
#     4  12  27  47  72 103 144 191 237 290 354 419
#
# _framework density 23.743510000000001
#
# number of rings (size 3 to 8) (size 9 to 14) (size 15 to 20)
#    0.000    0.500    5.000    1.875    7.000    3.500 
#    0.000    0.000    0.000    0.000    0.000    0.000 
#    0.000    0.000    0.000    0.000    0.000    0.000 
#
# Total GULP energy -89529.855128 kJ/mol
# GULP energy per Si atom -5595.615946 kJ/mol
# Density = 2.368947 g / cm^3
# Si number density = 23.743510 Si / 1000 Ang^3
#
#
#
# Elastic Constant Matrix: (Units=GPa)
#
#
# Indices 1 2 3 4 5 6 
#
# 1 73.6396 38.2066 21.8853 -3.6383 1.3133 -1.8278
# 2 38.2066 127.4025 22.4045 -14.9125 4.3178 -30.6399
# 3 21.8853 22.4045 89.8792 -1.4633 21.0362 -13.7263
# 4 -3.6383 -14.9125 -1.4633 42.4523 -7.2730 6.7890
# 5 1.3133 4.3178 21.0362 -7.2730 27.0096 -0.4514
# 6 -1.8278 -30.6399 -13.7263 6.7890 -0.4514 31.5515
#
#
#
# Elastic Compliance Matrix: (Units=1/GPa)
#
#
# Indices 1 2 3 4 5 6 
#
# 1 0.018147 -0.006389 -0.004912 0.001040 0.004120 -0.007455
# 2 -0.006389 0.012786 0.000559 0.001809 -0.001483 0.011879
# 3 -0.004912 0.000559 0.016483 -0.003225 -0.013424 0.007931
# 4 0.001040 0.001809 -0.003225 0.026580 0.009243 -0.005173
# 5 0.004120 -0.001483 -0.013424 0.009243 0.049866 -0.008317
# 6 -0.007455 0.011879 0.007931 -0.005173 -0.008317 0.047243
#
#
# Mechanical properties :
#
#
# Convention : Reuss Voigt Hill
#
# Bulk Modulus (GPa) = 38.56143 50.65712 44.60928
# Shear Modulus (GPa) = 24.84683 34.09766 29.47225
#
# Velocity S-wave (km/s) = 3.23843 3.79368 3.52700
# Velocity P-wave (km/s) = 5.50084 6.36952 5.95105
#
# Compressibility (1/GPa) = 0.02593265
#
# Stress axis : x y z
#
# Youngs Moduli (GPa) = 55.10471 78.21218 60.66709
#
# Poissons Ratio (x) = 0.49971 0.29800
# Poissons Ratio (y) = 0.35208 -0.03394
# Poissons Ratio (z) = 0.27068 -0.04375
#
# Static dielectric constant tensor:
#      x y z
#    x 1.939790 0.007920 0.011120 
#    y 0.007920 1.918480 -0.004080 
#    z 0.011120 -0.004080 1.930330 
# 
# From -- ./inp_files/515489.got.cif
#   From: 2010.05.17/outbox.cif.g08.bks.cpg/sg2_258_cif.got.tgz:515489.got - 2010.06.03 11:33:40.
