data_PCOD9055465
_publ_section_title
;
Structure prediction by ZEFSAII (Michael W. Deem and Ramdas Pophale) SiO2 
 PCOD9055465
Probable space group: P -1
;
_chemical_formula_sum "Si O2"
_cell_formula_units_Z 16
_cell_length_a 9.958107
_cell_length_b 16.998081
_cell_length_c 5.177397
_cell_angle_alpha 130.940335
_cell_angle_beta 93.840138
_cell_angle_gamma 94.570832
_cell_volume 651.578923
_symmetry_space_group_name_H-M "P -1"
_symmetry_group_IT_number 2
_symmetry_cell_setting 'triclinic'
loop_
_space_group_symop_operation_xyz
x,y,z
-x,-y,-z
loop_
_atom_site_type_symbol
_atom_site_label
_atom_site_fract_x
_atom_site_fract_y
_atom_site_fract_z
Si Si1 0.970233 0.129395 0.931976
Si Si2 0.366661 0.607129 0.156552
Si Si3 0.193334 0.016990 0.778038
Si Si4 0.482108 0.110622 0.854537
Si Si5 0.463018 0.327650 0.159947
Si Si6 0.861029 0.691182 0.973470
Si Si7 0.247190 0.809453 0.629185
Si Si8 0.112159 0.430840 0.782488
O O1 0.867856 0.025728 0.598928
O O2 0.873121 0.203191 0.203736
O O3 0.083656 0.084234 0.019269
O O4 0.057787 0.195824 0.861228
O O5 0.463206 0.638727 0.485614
O O6 0.271791 0.697472 0.283025
O O7 0.460498 0.602982 0.909854
O O8 0.261674 0.501762 0.968187
O O9 0.211231 0.905541 0.662551
O O10 0.337574 0.091513 0.937867
O O11 0.500000 0.000000 0.500000
O O12 0.484053 0.205770 0.858535
O O13 0.608540 0.144593 0.128378
O O14 0.301298 0.322205 0.123177
O O15 0.909940 0.610710 0.600828
O O16 0.888236 0.661519 0.205686
O O17 0.000000 0.500000 0.000000
#
# Coordination Sequence:
#
# PCOD9055465 Si02
#       8
#     2   2   2   2   2   2   2   2
#     4  11  25  43  66 103 143 186 237 291 358 428
#     4  11  26  46  75 104 142 181 242 295 354 431
#     4  11  23  43  65 101 139 189 239 285 357 428
#     4  11  21  42  65 103 143 187 244 285 348 419
#     4  11  25  47  71 109 143 187 237 293 361 417
#     4  12  27  48  75 104 148 186 234 306 351 428
#     4  11  24  41  71  99 139 191 231 303 349 422
#     4  12  28  49  76 108 138 189 238 296 368 429
#
# _framework density 24.555737000000001
#
# number of rings (size 3 to 8) (size 9 to 14) (size 15 to 20)
#    0.000    0.750    2.500    4.125    5.250    4.000 
#    2.250    0.000    0.000    0.000    0.000    0.000 
#    0.000    0.000    0.000    0.000    0.000    0.000 
#
# Total GULP energy -89621.941092 kJ/mol
# GULP energy per Si atom -5601.371318 kJ/mol
# Density = 2.449985 g / cm^3
# Si number density = 24.555737 Si / 1000 Ang^3
#
#
#
# Elastic Constant Matrix: (Units=GPa)
#
#
# Indices 1 2 3 4 5 6 
#
# 1 166.6045 41.5995 24.7301 -5.5836 4.5155 11.5511
# 2 41.5995 118.3923 4.1042 0.4665 2.2769 15.4659
# 3 24.7301 4.1042 61.8789 2.2053 -1.5688 1.6743
# 4 -5.5836 0.4665 2.2053 34.7700 1.7455 -4.7173
# 5 4.5155 2.2769 -1.5688 1.7455 38.7709 7.6576
# 6 11.5511 15.4659 1.6743 -4.7173 7.6576 43.0274
#
#
#
# Elastic Compliance Matrix: (Units=1/GPa)
#
#
# Indices 1 2 3 4 5 6 
#
# 1 0.007092 -0.002297 -0.002727 0.001283 -0.000720 -0.000703
# 2 -0.002297 0.009632 0.000404 -0.000953 0.000359 -0.003030
# 3 -0.002727 0.000404 0.017325 -0.001665 0.001164 -0.000477
# 4 0.001283 -0.000953 -0.001665 0.029701 -0.002232 0.003716
# 5 -0.000720 0.000359 0.001164 -0.002232 0.026996 -0.005030
# 6 -0.000703 -0.003030 -0.000477 0.003716 -0.005030 0.025840
#
#
# Mechanical properties :
#
#
# Convention : Reuss Voigt Hill
#
# Bulk Modulus (GPa) = 40.30584 54.19369 47.24976
# Shear Modulus (GPa) = 37.28673 41.74312 39.51492
#
# Velocity S-wave (km/s) = 3.90096 4.12750 4.01583
# Velocity P-wave (km/s) = 6.06132 6.69571 6.38640
#
# Compressibility (1/GPa) = 0.02481030
#
# Stress axis : x y z
#
# Youngs Moduli (GPa) = 141.00904 103.81966 57.71880
#
# Poissons Ratio (x) = 0.23843 0.15739
# Poissons Ratio (y) = 0.32384 -0.02332
# Poissons Ratio (z) = 0.38451 -0.04195
#
# Static dielectric constant tensor:
#      x y z
#    x 1.915590 -0.006360 -0.040630 
#    y -0.006360 1.981390 -0.008130 
#    z -0.040630 -0.008130 1.974180 
# 
# From -- ./inp_files/49339.got.cif
#   From: 2010.05.17/outbox.cif.g08.bks.cpg/sg2_25_cif.got.tgz:49339.got - 2010.06.03 11:33:40.
