data_PCOD9055553
_publ_section_title
;
Structure prediction by ZEFSAII (Michael W. Deem and Ramdas Pophale) SiO2 
 PCOD9055553
Probable space group: P -1
;
_chemical_formula_sum "Si O2"
_cell_formula_units_Z 15
_cell_length_a 14.534263
_cell_length_b 11.091646
_cell_length_c 9.921535
_cell_angle_alpha 90.165834
_cell_angle_beta 77.516920
_cell_angle_gamma 149.449918
_cell_volume 737.665781
_symmetry_space_group_name_H-M "P -1"
_symmetry_group_IT_number 2
_symmetry_cell_setting 'triclinic'
loop_
_space_group_symop_operation_xyz
x,y,z
-x,-y,-z
loop_
_atom_site_type_symbol
_atom_site_label
_atom_site_fract_x
_atom_site_fract_y
_atom_site_fract_z
Si Si1 0.857811 0.271718 0.149025
Si Si2 0.305641 0.323525 0.640830
Si Si3 0.219737 0.055867 0.224264
Si Si4 0.663332 0.470491 0.152763
Si Si5 0.107899 0.965120 0.946791
Si Si6 0.079432 0.626813 0.332243
Si Si7 0.520795 0.044072 0.151882
Si Si8 0.000000 0.000000 0.500000
O O1 0.882626 0.160208 0.111285
O O2 0.634640 0.063770 0.187406
O O3 0.936157 0.403895 0.267683
O O4 0.000000 0.500000 0.000000
O O5 0.500000 0.500000 0.500000
O O6 0.327209 0.483467 0.691949
O O7 0.251562 0.195110 0.796871
O O8 0.127257 0.109249 0.592729
O O9 0.111605 0.805066 0.290245
O O10 0.142745 0.066890 0.356984
O O11 0.458418 0.298619 0.161807
O O12 0.172472 0.037884 0.083828
O O13 0.641215 0.302407 0.142468
O O14 0.874717 0.742599 0.017122
O O15 0.000000 0.500000 0.500000
O O16 0.297036 0.813487 0.264462
O O17 0.500000 0.000000 0.000000
#
# Coordination Sequence:
#
# PCOD9055553 Si02
#       8
#     2   2   2   2   2   2   2   1
#     4  12  21  42  70 101 135 177 220 275 337 404
#     4  12  28  48  67 101 137 180 228 286 341 402
#     4  11  24  44  70 100 134 181 229 277 339 406
#     4  11  22  42  71  96 134 178 226 279 333 402
#     4  12  25  44  73 100 135 179 232 280 339 405
#     4  11  25  42  66 102 141 175 222 279 340 398
#     4  11  21  42  69  99 133 176 224 275 333 406
#     4  12  26  46  68  94 142 174 224 284 338 394
#
# _framework density 20.334412
#
# number of rings (size 3 to 8) (size 9 to 14) (size 15 to 20)
#    0.000    0.533    6.667    1.200    1.867    2.133 
#    2.400    0.000    0.000    0.000    0.000    0.000 
#    0.000    0.000    0.000    0.000    0.000    0.000 
#
# Total GULP energy -83513.063007 kJ/mol
# GULP energy per Si atom -5567.537534 kJ/mol
# Density = 2.028813 g / cm^3
# Si number density = 20.334412 Si / 1000 Ang^3
#
#
#
# Elastic Constant Matrix: (Units=GPa)
#
#
# Indices 1 2 3 4 5 6 
#
# 1 106.4143 42.4031 62.9310 -4.4664 -15.7683 14.0636
# 2 42.4031 73.7892 67.2816 12.8671 2.2625 5.4068
# 3 62.9310 67.2816 183.8439 13.2047 0.2556 -0.2843
# 4 -4.4664 12.8671 13.2047 45.1343 12.0497 -9.9165
# 5 -15.7683 2.2625 0.2556 12.0497 41.6862 6.0516
# 6 14.0636 5.4068 -0.2843 -9.9165 6.0516 32.3586
#
#
#
# Elastic Compliance Matrix: (Units=1/GPa)
#
#
# Indices 1 2 3 4 5 6 
#
# 1 0.015672 -0.005834 -0.003306 0.000772 0.007050 -0.006947
# 2 -0.005834 0.024003 -0.006368 -0.005883 -0.001322 -0.003087
# 3 -0.003306 -0.006368 0.008919 -0.000160 -0.001316 0.002776
# 4 0.000772 -0.005883 -0.000160 0.028939 -0.009389 0.011270
# 5 0.007050 -0.001322 -0.001316 -0.009389 0.031126 -0.011553
# 6 -0.006947 -0.003087 0.002776 0.011270 -0.011553 0.040078
#
#
# Mechanical properties :
#
#
# Convention : Reuss Voigt Hill
#
# Bulk Modulus (GPa) = 56.88387 78.80876 67.84631
# Shear Modulus (GPa) = 26.93788 36.59792 31.76790
#
# Velocity S-wave (km/s) = 3.64365 4.24701 3.95685
# Velocity P-wave (km/s) = 6.76288 7.93032 7.36975
#
# Compressibility (1/GPa) = 0.01757968
#
# Stress axis : x y z
#
# Youngs Moduli (GPa) = 63.80833 41.66089 112.11881
#
# Poissons Ratio (x) = 0.24303 0.37063
# Poissons Ratio (y) = 0.37223 0.71398
# Poissons Ratio (z) = 0.21093 0.26530
#
# Static dielectric constant tensor:
#      x y z
#    x 1.804340 0.018890 0.008870 
#    y 0.018890 1.791530 0.008950 
#    z 0.008870 0.008950 1.691350 
# 
# From -- ./inp_files/190449.got.cif
#   From: 2010.05.17/outbox.cif.g08.bks.cpg/sg2_96_cif.got.tgz:190449.got - 2010.06.03 11:33:40.
