data_PCOD9055672
_publ_section_title
;
Structure prediction by ZEFSAII (Michael W. Deem and Ramdas Pophale) SiO2 
 PCOD9055672
Probable space group: P -1
;
_chemical_formula_sum "Si O2"
_cell_formula_units_Z 15
_cell_length_a 20.914493
_cell_length_b 18.274105
_cell_length_c 7.154744
_cell_angle_alpha 130.788907
_cell_angle_beta 42.175822
_cell_angle_gamma 160.826054
_cell_volume 589.319869
_symmetry_space_group_name_H-M "P -1"
_symmetry_group_IT_number 2
_symmetry_cell_setting 'triclinic'
loop_
_space_group_symop_operation_xyz
x,y,z
-x,-y,-z
loop_
_atom_site_type_symbol
_atom_site_label
_atom_site_fract_x
_atom_site_fract_y
_atom_site_fract_z
Si Si1 0.403721 0.579171 0.790201
Si Si2 0.000000 0.500000 0.500000
Si Si3 0.555942 0.866586 0.448988
Si Si4 0.799073 0.219446 0.796582
Si Si5 0.059710 0.931201 0.115856
Si Si6 0.487075 0.871306 0.182074
Si Si7 0.126885 0.053892 0.588415
Si Si8 0.835706 0.607419 0.614524
O O1 0.485174 0.764483 0.905376
O O2 0.619206 0.712784 0.497360
O O3 0.177902 0.338666 0.775699
O O4 0.319620 0.499163 0.055357
O O5 0.106289 0.603654 0.226363
O O6 0.243793 0.690379 0.370806
O O7 0.332339 0.598104 0.509896
O O8 0.615590 0.003954 0.694254
O O9 0.542257 0.898782 0.323637
O O10 0.766270 0.986766 0.198013
O O11 0.999343 0.325231 0.558801
O O12 0.679219 0.113650 0.078189
O O13 0.006052 0.967901 0.148777
O O14 0.156345 0.064120 0.318361
O O15 0.983782 0.831588 0.595825
#
# Coordination Sequence:
#
# PCOD9055672 Si02
#       8
#     2   1   2   2   2   2   2   2
#     4  11  21  43  62  89 134 174 217 276 327 386
#     4  12  24  48  72 102 138 162 224 288 320 416
#     4  11  23  46  70  98 139 178 224 275 334 400
#     4  12  24  46  71  99 131 181 217 272 349 394
#     4  11  22  40  62  97 132 175 229 276 323 387
#     4  11  24  46  70  98 137 172 220 276 333 406
#     4  11  24  39  63  94 133 177 229 274 324 392
#     4  11  22  42  64  92 132 175 223 274 326 398
#
# _framework density 25.45307
#
# number of rings (size 3 to 8) (size 9 to 14) (size 15 to 20)
#    0.000    0.800    8.000    0.800    1.867    1.600 
#    2.400    1.333    0.000    0.000    0.000    0.000 
#    0.000    0.000    0.000    0.000    0.000    0.000 
#
# Total GULP energy -83784.523700 kJ/mol
# GULP energy per Si atom -5585.634913 kJ/mol
# Density = 2.539514 g / cm^3
# Si number density = 25.453070 Si / 1000 Ang^3
#
#
#
# Elastic Constant Matrix: (Units=GPa)
#
#
# Indices 1 2 3 4 5 6 
#
# 1 114.0467 34.3099 45.8418 -23.1158 -18.3436 -7.2225
# 2 34.3099 85.6555 33.0230 -18.0781 -15.4441 17.6223
# 3 45.8418 33.0230 82.2097 -25.1978 -25.8563 -1.2784
# 4 -23.1158 -18.0781 -25.1978 51.2169 3.0755 6.0209
# 5 -18.3436 -15.4441 -25.8563 3.0755 29.6629 -12.2570
# 6 -7.2225 17.6223 -1.2784 6.0209 -12.2570 45.3649
#
#
#
# Elastic Compliance Matrix: (Units=1/GPa)
#
#
# Indices 1 2 3 4 5 6 
#
# 1 0.012586 -0.003264 -0.003658 0.001985 0.004379 0.004088
# 2 -0.003264 0.016803 -0.004162 0.003345 -0.000437 -0.007726
# 3 -0.003658 -0.004162 0.023636 0.006781 0.017787 0.005606
# 4 0.001985 0.003345 0.006781 0.024945 0.005176 -0.002704
# 5 0.004379 -0.000437 0.017787 0.005176 0.057906 0.016327
# 6 0.004088 -0.007726 0.005606 -0.002704 0.016327 0.030624
#
#
# Mechanical properties :
#
#
# Convention : Reuss Voigt Hill
#
# Bulk Modulus (GPa) = 32.40733 56.47349 44.44041
# Shear Modulus (GPa) = 25.13146 36.49808 30.81477
#
# Velocity S-wave (km/s) = 3.14564 3.79084 3.48322
# Velocity P-wave (km/s) = 5.09444 6.43398 5.80299
#
# Compressibility (1/GPa) = 0.03085722
#
# Stress axis : x y z
#
# Youngs Moduli (GPa) = 79.45226 59.51184 42.30912
#
# Poissons Ratio (x) = 0.19423 0.15476
# Poissons Ratio (y) = 0.25931 0.17610
# Poissons Ratio (z) = 0.29063 0.24770
#
# Static dielectric constant tensor:
#      x y z
#    x 2.007970 0.001670 0.013860 
#    y 0.001670 1.941370 0.020750 
#    z 0.013860 0.020750 1.969320 
# 
# From -- ./inp_files/348509.got.cif
#   From: 2010.05.17/outbox.cif.g08.bks.cpg/sg2_175_cif.got.tgz:348509.got - 2010.06.03 11:33:40.
