data_PCOD9055443
_publ_section_title
;
Structure prediction by ZEFSAII (Michael W. Deem and Ramdas Pophale) SiO2 
 PCOD9055443
Probable space group: P -1
;
_chemical_formula_sum "Si O2"
_cell_formula_units_Z 14
_cell_length_a 10.709565
_cell_length_b 16.709855
_cell_length_c 8.793145
_cell_angle_alpha 27.744256
_cell_angle_beta 53.771084
_cell_angle_gamma 43.439965
_cell_volume 497.102256
_symmetry_space_group_name_H-M "P -1"
_symmetry_group_IT_number 2
_symmetry_cell_setting 'triclinic'
loop_
_space_group_symop_operation_xyz
x,y,z
-x,-y,-z
loop_
_atom_site_type_symbol
_atom_site_label
_atom_site_fract_x
_atom_site_fract_y
_atom_site_fract_z
Si Si1 0.084371 0.226445 0.422228
Si Si2 0.801166 0.064461 0.602509
Si Si3 0.713679 0.252987 0.912155
Si Si4 0.764038 0.815697 0.320321
Si Si5 0.201137 0.463779 0.450713
Si Si6 0.308000 0.577258 0.702533
Si Si7 0.367921 0.123082 0.159387
O O1 0.073672 0.285441 0.505790
O O2 0.251507 0.219796 0.230256
O O3 0.897893 0.374170 0.218904
O O4 0.145194 0.990055 0.775274
O O5 0.692522 0.284654 0.391530
O O6 0.696951 0.020670 0.620938
O O7 0.000000 0.000000 0.500000
O O8 0.809174 0.918741 0.978206
O O9 0.779769 0.352801 0.822259
O O10 0.497045 0.357990 0.930946
O O11 0.708165 0.324947 0.619773
O O12 0.707425 0.662669 0.556269
O O13 0.585156 0.998042 0.226067
O O14 0.000000 0.500000 0.500000
O O15 0.304321 0.301716 0.783341
#
# Coordination Sequence:
#
# PCOD9055443 Si02
#       7
#     2   2   2   2   2   2   2
#     4  12  25  46  79 108 147 206 255 302 381 466
#     4  11  21  41  74 107 139 203 256 300 369 456
#     4  11  25  45  76 112 145 199 258 313 374 447
#     4  11  24  47  72 103 152 205 242 307 391 453
#     4  11  25  46  72 106 149 196 251 312 387 439
#     4  11  23  43  73 106 154 185 254 315 371 428
#     4  11  25  45  74 104 153 198 246 307 387 450
#
# _framework density 28.163218000000001
#
# number of rings (size 3 to 8) (size 9 to 14) (size 15 to 20)
#    0.000    0.857    2.857    5.143    6.000    0.000 
#    2.571    2.857    0.000    0.000    0.000    0.000 
#    0.000    0.000    0.000    0.000    0.000    0.000 
#
# Total GULP energy -78544.062834 kJ/mol
# GULP energy per Si atom -5610.290202 kJ/mol
# Density = 2.809912 g / cm^3
# Si number density = 28.163218 Si / 1000 Ang^3
#
#
#
# Elastic Constant Matrix: (Units=GPa)
#
#
# Indices 1 2 3 4 5 6 
#
# 1 149.2596 45.3392 41.8648 -8.3291 -10.6597 1.5459
# 2 45.3392 160.6800 32.1590 -13.5251 -15.5785 -10.1403
# 3 41.8648 32.1590 89.4945 -23.3307 -5.0323 9.0631
# 4 -8.3291 -13.5251 -23.3307 45.8531 4.3762 -3.0336
# 5 -10.6597 -15.5785 -5.0323 4.3762 43.6976 -4.9668
# 6 1.5459 -10.1403 9.0631 -3.0336 -4.9668 71.8898
#
#
#
# Elastic Compliance Matrix: (Units=1/GPa)
#
#
# Indices 1 2 3 4 5 6 
#
# 1 0.008170 -0.001577 -0.003413 -0.000821 0.001128 0.000076
# 2 -0.001577 0.007387 -0.001707 0.000918 0.002128 0.001477
# 3 -0.003413 -0.001707 0.015253 0.006567 -0.000553 -0.001851
# 4 -0.000821 0.000918 0.006567 0.025447 -0.001633 0.000280
# 5 0.001128 0.002128 -0.000553 -0.001633 0.024240 0.001951
# 6 0.000076 0.001477 -0.001851 0.000280 0.001951 0.014497
#
#
# Mechanical properties :
#
#
# Convention : Reuss Voigt Hill
#
# Bulk Modulus (GPa) = 57.42331 70.90668 64.16500
# Shear Modulus (GPa) = 43.78527 50.95953 47.37240
#
# Velocity S-wave (km/s) = 3.94724 4.25836 4.10575
# Velocity P-wave (km/s) = 6.41935 7.02922 6.73119
#
# Compressibility (1/GPa) = 0.01741453
#
# Stress axis : x y z
#
# Youngs Moduli (GPa) = 122.39586 135.37130 65.56288
#
# Poissons Ratio (x) = 0.21350 0.22379
# Poissons Ratio (y) = 0.19303 0.11193
# Poissons Ratio (z) = 0.41778 0.23110
#
# Static dielectric constant tensor:
#      x y z
#    x 2.126660 0.005560 -0.088620 
#    y 0.005560 2.295970 -0.026600 
#    z -0.088620 -0.026600 2.233680 
# 
# From -- ./inp_files/278629.got.cif
#   From: 2010.05.17/outbox.cif.g08.bks.cpg/sg2_140_cif.got.tgz:278629.got - 2010.06.03 11:33:40.
