data_PCOD9055371
_publ_section_title
;
Structure prediction by ZEFSAII (Michael W. Deem and Ramdas Pophale) SiO2 
 PCOD9055371
Probable space group: P -1
;
_chemical_formula_sum "Si O2"
_cell_formula_units_Z 16
_cell_length_a 14.239055
_cell_length_b 11.419503
_cell_length_c 9.281890
_cell_angle_alpha 120.686918
_cell_angle_beta 123.831140
_cell_angle_gamma 105.045515
_cell_volume 699.294172
_symmetry_space_group_name_H-M "P -1"
_symmetry_group_IT_number 2
_symmetry_cell_setting 'triclinic'
loop_
_space_group_symop_operation_xyz
x,y,z
-x,-y,-z
loop_
_atom_site_type_symbol
_atom_site_label
_atom_site_fract_x
_atom_site_fract_y
_atom_site_fract_z
Si Si1 0.340509 0.576634 0.034706
Si Si2 0.431701 0.606169 0.805931
Si Si3 0.870800 0.201077 0.127219
Si Si4 0.815474 0.861383 0.338895
Si Si5 0.826570 0.895771 0.708369
Si Si6 0.336175 0.776369 0.645809
Si Si7 0.501411 0.899206 0.571457
Si Si8 0.005630 0.597385 0.365650
O O1 0.404408 0.645154 0.967835
O O2 0.268205 0.362355 0.855944
O O3 0.186950 0.538122 0.927579
O O4 0.485909 0.740285 0.379378
O O5 0.323658 0.361535 0.560435
O O6 0.343879 0.632339 0.635711
O O7 0.643440 0.783619 0.077484
O O8 0.953045 0.248850 0.382523
O O9 0.987319 0.428209 0.306924
O O10 0.831767 0.046737 0.887076
O O11 0.681743 0.088923 0.926574
O O12 0.845785 0.936987 0.577982
O O13 0.000000 0.000000 0.500000
O O14 0.000000 0.000000 0.000000
O O15 0.361205 0.784139 0.502498
O O16 0.170010 0.723911 0.486454
O O17 0.500000 0.000000 0.000000
O O18 0.500000 0.000000 0.500000
#
# Coordination Sequence:
#
# PCOD9055371 Si02
#       8
#     2   2   2   2   2   2   2   2
#     4  11  23  45  71 100 141 180 230 287 351 410
#     4  11  24  48  70  99 142 192 231 289 346 423
#     4  11  21  41  69  98 135 179 230 275 345 416
#     4  11  26  45  70 103 143 185 238 290 347 409
#     4  11  23  43  73 101 137 187 238 282 351 419
#     4  12  26  43  70 101 140 182 231 283 354 408
#     4  12  24  44  66 103 133 180 225 283 351 415
#     4  11  23  42  68 104 139 177 228 288 344 416
#
# _framework density 22.880215
#
# number of rings (size 3 to 8) (size 9 to 14) (size 15 to 20)
#    0.000    0.750    2.500    7.500    1.750    3.500 
#    0.000    1.875    0.000    0.000    0.000    0.000 
#    0.000    0.000    0.000    0.000    0.000    0.000 
#
# Total GULP energy -89133.653907 kJ/mol
# GULP energy per Si atom -5570.853369 kJ/mol
# Density = 2.282814 g / cm^3
# Si number density = 22.880215 Si / 1000 Ang^3
#
#
#
# Elastic Constant Matrix: (Units=GPa)
#
#
# Indices 1 2 3 4 5 6 
#
# 1 119.7300 39.2888 50.1761 2.2681 -8.3941 11.6348
# 2 39.2888 54.1281 12.7093 2.0049 -13.9691 10.1718
# 3 50.1761 12.7093 125.5285 -1.2988 -12.4007 15.4238
# 4 2.2681 2.0049 -1.2988 27.3486 -7.1775 -0.0797
# 5 -8.3941 -13.9691 -12.4007 -7.1775 57.3879 -6.0216
# 6 11.6348 10.1718 15.4238 -0.0797 -6.0216 28.8478
#
#
#
# Elastic Compliance Matrix: (Units=1/GPa)
#
#
# Indices 1 2 3 4 5 6 
#
# 1 0.012997 -0.008674 -0.004446 -0.000996 -0.001304 -0.000081
# 2 -0.008674 0.026718 0.001993 0.000167 0.005064 -0.005930
# 3 -0.004446 0.001993 0.010220 0.001160 0.001768 -0.004001
# 4 -0.000996 0.000167 0.001160 0.038003 0.004990 0.000869
# 5 -0.001304 0.005064 0.001768 0.004990 0.019674 0.001915
# 6 -0.000081 -0.005930 -0.004001 0.000869 0.001915 0.039330
#
#
# Mechanical properties :
#
#
# Convention : Reuss Voigt Hill
#
# Bulk Modulus (GPa) = 36.12703 55.97055 46.04879
# Shear Modulus (GPa) = 28.02303 35.86435 31.94369
#
# Velocity S-wave (km/s) = 3.50347 3.96344 3.74053
# Velocity P-wave (km/s) = 5.67359 6.74245 6.23098
#
# Compressibility (1/GPa) = 0.02768011
#
# Stress axis : x y z
#
# Youngs Moduli (GPa) = 76.93978 37.42762 97.84634
#
# Poissons Ratio (x) = 0.32466 0.43504
# Poissons Ratio (y) = 0.66741 -0.19499
# Poissons Ratio (z) = 0.34208 -0.07459
#
# Static dielectric constant tensor:
#      x y z
#    x 1.811370 0.001670 -0.080780 
#    y 0.001670 1.886000 0.017430 
#    z -0.080780 0.017430 1.790490 
# 
# From -- ./inp_files/308371.got.cif
#   From: 2010.05.17/outbox.cif.g08.bks.cpg/sg2_155_cif.got.tgz:308371.got - 2010.06.03 11:33:40.
