data_PCOD9055167
_publ_section_title
;
Structure prediction by ZEFSAII (Michael W. Deem and Ramdas Pophale) SiO2 
 PCOD9055167
Probable space group: P -1
;
_chemical_formula_sum "Si O2"
_cell_formula_units_Z 16
_cell_length_a 13.070950
_cell_length_b 21.539896
_cell_length_c 17.398955
_cell_angle_alpha 20.920638
_cell_angle_beta 38.260609
_cell_angle_gamma 27.614075
_cell_volume 783.615134
_symmetry_space_group_name_H-M "P -1"
_symmetry_group_IT_number 2
_symmetry_cell_setting 'triclinic'
loop_
_space_group_symop_operation_xyz
x,y,z
-x,-y,-z
loop_
_atom_site_type_symbol
_atom_site_label
_atom_site_fract_x
_atom_site_fract_y
_atom_site_fract_z
Si Si1 0.856061 0.248242 0.250818
Si Si2 0.420102 0.595440 0.523998
Si Si3 0.236708 0.113311 0.072599
Si Si4 0.830448 0.283227 0.765768
Si Si5 0.221915 0.461564 0.896744
Si Si6 0.449322 0.025440 0.818547
Si Si7 0.577555 0.610140 0.677317
Si Si8 0.021785 0.435582 0.679385
O O1 0.750501 0.450768 0.143056
O O2 0.652624 0.310176 0.250332
O O3 0.029134 0.223597 0.124121
O O4 0.000000 0.000000 0.500000
O O5 0.500000 0.500000 0.500000
O O6 0.636181 0.409350 0.668645
O O7 0.224186 0.604855 0.660945
O O8 0.333914 0.856053 0.284707
O O9 0.421856 0.077984 0.056369
O O10 0.139328 0.300089 0.846142
O O11 0.709275 0.388341 0.798161
O O12 0.954730 0.376713 0.566451
O O13 0.000000 0.000000 0.000000
O O14 0.000000 0.500000 0.000000
O O15 0.437396 0.188049 0.060810
O O16 0.501409 0.176897 0.578482
O O17 0.180893 0.223070 0.767184
O O18 0.764343 0.554505 0.688138
#
# Coordination Sequence:
#
# PCOD9055167 Si02
#       8
#     2   2   2   2   2   2   2   2
#     4  12  21  44  67  97 131 178 231 274 332 406
#     4  12  26  41  68 106 136 174 228 288 344 388
#     4  12  23  44  69  95 140 176 222 286 338 400
#     4  11  24  43  65  95 137 175 219 276 338 407
#     4  12  23  38  68 104 130 176 230 280 330 410
#     4  11  21  40  69  95 129 174 230 273 330 401
#     4  11  23  42  67  94 131 182 224 272 333 407
#     4  11  26  41  66 102 134 178 221 280 354 395
#
# _framework density 20.418188000000001
#
# number of rings (size 3 to 8) (size 9 to 14) (size 15 to 20)
#    0.000    0.500    7.500    2.625    7.000    0.500 
#    0.000    0.000    0.000    1.500    0.000    0.000 
#    0.000    0.000    0.000    0.000    0.000    0.000 
#
# Total GULP energy -89392.449191 kJ/mol
# GULP energy per Si atom -5587.028074 kJ/mol
# Density = 2.037171 g / cm^3
# Si number density = 20.418188 Si / 1000 Ang^3
#
#
#
# Elastic Constant Matrix: (Units=GPa)
#
#
# Indices 1 2 3 4 5 6 
#
# 1 97.2690 40.1509 30.8477 -6.0056 8.4656 -15.0896
# 2 40.1509 103.8919 44.4245 11.9464 -11.4017 -7.1227
# 3 30.8477 44.4245 114.3422 -19.4675 3.2434 3.0184
# 4 -6.0056 11.9464 -19.4675 37.4852 9.4135 -8.2325
# 5 8.4656 -11.4017 3.2434 9.4135 32.0752 -4.0720
# 6 -15.0896 -7.1227 3.0184 -8.2325 -4.0720 50.8530
#
#
#
# Elastic Compliance Matrix: (Units=1/GPa)
#
#
# Indices 1 2 3 4 5 6 
#
# 1 0.015193 -0.007648 0.000396 0.008135 -0.008643 0.004038
# 2 -0.007648 0.019628 -0.008629 -0.015668 0.014417 -0.000390
# 3 0.000396 -0.008629 0.014318 0.012190 -0.008277 -0.000630
# 4 0.008135 -0.015668 0.012190 0.045909 -0.021764 0.005185
# 5 -0.008643 0.014417 -0.008277 -0.021764 0.045819 0.000091
# 6 0.004038 -0.000390 -0.000630 0.005185 0.000091 0.021692
#
#
# Mechanical properties :
#
#
# Convention : Reuss Voigt Hill
#
# Bulk Modulus (GPa) = 57.54541 60.70548 59.12544
# Shear Modulus (GPa) = 24.98582 37.42135 31.20358
#
# Velocity S-wave (km/s) = 3.50194 4.28570 3.91349
# Velocity P-wave (km/s) = 6.67803 7.36785 7.03141
#
# Compressibility (1/GPa) = 0.01737758
#
# Stress axis : x y z
#
# Youngs Moduli (GPa) = 65.81903 50.94748 69.84184
#
# Poissons Ratio (x) = 0.38966 -0.02767
# Poissons Ratio (y) = 0.50340 0.60265
# Poissons Ratio (z) = -0.02608 0.43962
#
# Static dielectric constant tensor:
#      x y z
#    x 1.750660 -0.024090 -0.026650 
#    y -0.024090 1.762130 0.000860 
#    z -0.026650 0.000860 1.732580 
# 
# From -- ./inp_files/469965.got.cif
#   From: 2010.05.17/outbox.cif.g08.bks.cpg/sg2_235_cif.got.tgz:469965.got - 2010.06.03 11:33:40.
