data_PCOD9055522
_publ_section_title
;
Structure prediction by ZEFSAII (Michael W. Deem and Ramdas Pophale) SiO2 
 PCOD9055522
Probable space group: P -1
;
_chemical_formula_sum "Si O2"
_cell_formula_units_Z 14
_cell_length_a 18.269200
_cell_length_b 11.915640
_cell_length_c 9.409460
_cell_angle_alpha 68.381176
_cell_angle_beta 49.040629
_cell_angle_gamma 29.601917
_cell_volume 642.991442
_symmetry_space_group_name_H-M "P -1"
_symmetry_group_IT_number 2
_symmetry_cell_setting 'triclinic'
loop_
_space_group_symop_operation_xyz
x,y,z
-x,-y,-z
loop_
_atom_site_type_symbol
_atom_site_label
_atom_site_fract_x
_atom_site_fract_y
_atom_site_fract_z
Si Si1 0.629881 0.814588 0.560430
Si Si2 0.068637 0.225631 0.341441
Si Si3 0.612326 0.983534 0.782720
Si Si4 0.364526 0.504029 0.808011
Si Si5 0.340711 0.592789 0.476128
Si Si6 0.528958 0.269866 0.123128
Si Si7 0.895913 0.187506 0.738781
O O1 0.517758 0.821737 0.771067
O O2 0.873733 0.496898 0.369971
O O3 0.500000 0.000000 0.500000
O O4 0.647507 0.899288 0.616679
O O5 0.975142 0.230209 0.565842
O O6 0.178248 0.206084 0.308211
O O7 0.247126 0.966280 0.133592
O O8 0.456624 0.272778 0.844974
O O9 0.500000 0.000000 0.000000
O O10 0.321022 0.555177 0.672595
O O11 0.551648 0.395508 0.646872
O O12 0.157368 0.761200 0.050194
O O13 0.502704 0.340964 0.285053
O O14 0.096638 0.876556 0.593359
O O15 0.341217 0.556037 0.149807
#
# Coordination Sequence:
#
# PCOD9055522 Si02
#       7
#     2   2   2   2   2   2   2
#     4  11  25  42  67  99 136 174 226 282 338 398
#     4  11  23  44  71 100 132 179 227 277 338 398
#     4  12  21  46  70  96 134 179 231 277 324 411
#     4  11  24  42  65 100 132 175 227 270 341 394
#     4  11  24  42  66  96 141 173 216 283 332 397
#     4  11  23  43  65  98 133 176 227 270 335 402
#     4  11  21  42  68  97 131 172 230 270 332 401
#
# _framework density 21.773229000000001
#
# number of rings (size 3 to 8) (size 9 to 14) (size 15 to 20)
#    0.000    0.857    4.286    3.000    0.000    5.143 
#    0.000    2.857    0.000    0.000    0.000    0.000 
#    0.000    0.000    0.000    0.000    0.000    0.000 
#
# Total GULP energy -78303.116900 kJ/mol
# GULP energy per Si atom -5593.079779 kJ/mol
# Density = 2.172367 g / cm^3
# Si number density = 21.773229 Si / 1000 Ang^3
#
#
#
# Elastic Constant Matrix: (Units=GPa)
#
#
# Indices 1 2 3 4 5 6 
#
# 1 73.8232 31.7337 37.9495 4.1452 9.4286 -8.7082
# 2 31.7337 103.4518 48.4623 5.3025 -1.9898 -17.6511
# 3 37.9495 48.4623 137.5458 5.2535 17.7106 -15.2441
# 4 4.1452 5.3025 5.2535 37.9769 2.7805 -0.7152
# 5 9.4286 -1.9898 17.7106 2.7805 44.7700 -3.3145
# 6 -8.7082 -17.6511 -15.2441 -0.7152 -3.3145 37.1761
#
#
#
# Elastic Compliance Matrix: (Units=1/GPa)
#
#
# Indices 1 2 3 4 5 6 
#
# 1 0.017134 -0.003740 -0.002974 -0.000739 -0.002495 0.000782
# 2 -0.003740 0.013323 -0.003557 -0.001112 0.003171 0.004253
# 3 -0.002974 -0.003557 0.009939 -0.000283 -0.003343 0.001387
# 4 -0.000739 -0.001112 -0.000283 0.026707 -0.001473 -0.000435
# 5 -0.002495 0.003171 -0.003343 -0.001473 0.024543 0.001710
# 6 0.000782 0.004253 0.001387 -0.000435 0.001710 0.029814
#
#
# Mechanical properties :
#
#
# Convention : Reuss Voigt Hill
#
# Bulk Modulus (GPa) = 50.36234 61.23466 55.79850
# Shear Modulus (GPa) = 33.64285 37.09627 35.36956
#
# Velocity S-wave (km/s) = 3.93510 4.13214 4.03482
# Velocity P-wave (km/s) = 6.62022 7.13799 6.88398
#
# Compressibility (1/GPa) = 0.01985611
#
# Stress axis : x y z
#
# Youngs Moduli (GPa) = 58.36200 75.05641 100.61359
#
# Poissons Ratio (x) = 0.28068 0.29920
# Poissons Ratio (y) = 0.21825 0.35788
# Poissons Ratio (z) = 0.17356 0.26698
#
# Static dielectric constant tensor:
#      x y z
#    x 1.850840 -0.017150 0.018670 
#    y -0.017150 1.784020 0.014180 
#    z 0.018670 0.014180 1.785790 
# 
# From -- ./inp_files/36948.got.cif
#   From: 2010.05.17/outbox.cif.g08.bks.cpg/sg2_19_cif.got.tgz:36948.got - 2010.06.03 11:33:40.
