data_PCOD9055160
_publ_section_title
;
Structure prediction by ZEFSAII (Michael W. Deem and Ramdas Pophale) SiO2 
 PCOD9055160
Probable space group: P -1
;
_chemical_formula_sum "Si O2"
_cell_formula_units_Z 14
_cell_length_a 5.161284
_cell_length_b 11.185023
_cell_length_c 15.104510
_cell_angle_alpha 50.079011
_cell_angle_beta 50.783459
_cell_angle_gamma 67.743401
_cell_volume 517.579642
_symmetry_space_group_name_H-M "P -1"
_symmetry_group_IT_number 2
_symmetry_cell_setting 'triclinic'
loop_
_space_group_symop_operation_xyz
x,y,z
-x,-y,-z
loop_
_atom_site_type_symbol
_atom_site_label
_atom_site_fract_x
_atom_site_fract_y
_atom_site_fract_z
Si Si1 0.135911 0.668809 0.256985
Si Si2 0.890352 0.010088 0.676487
Si Si3 0.584911 0.318543 0.545106
Si Si4 0.107293 0.695343 0.055524
Si Si5 0.540459 0.410104 0.313626
Si Si6 0.596034 0.925699 0.106775
Si Si7 0.560673 0.180006 0.254772
O O1 0.281593 0.662990 0.127914
O O2 0.182559 0.491556 0.359986
O O3 0.367973 0.764287 0.228950
O O4 0.779291 0.746345 0.306058
O O5 0.855582 0.191130 0.572873
O O6 0.574836 0.979975 0.824729
O O7 0.784445 0.901466 0.667626
O O8 0.207222 0.952729 0.689816
O O9 0.500000 0.500000 0.500000
O O10 0.594399 0.322661 0.434939
O O11 0.836428 0.547793 0.176660
O O12 0.953348 0.858617 0.042223
O O13 0.276249 0.726232 0.909603
O O14 0.534263 0.301782 0.281532
O O15 0.500000 0.000000 0.000000
#
# Coordination Sequence:
#
# PCOD9055160 Si02
#       7
#     2   2   2   2   2   2   2
#     4  11  23  42  75 106 136 190 244 307 364 414
#     4  12  27  46  73 109 144 193 241 297 373 424
#     4  12  24  48  76 104 142 185 253 305 356 431
#     4  11  23  43  73 107 140 189 244 304 361 426
#     4  11  27  46  69 105 146 198 243 291 361 436
#     4  11  21  40  69 107 143 178 238 310 367 418
#     4  12  29  47  72 107 153 194 238 297 364 450
#
# _framework density 27.048974999999999
#
# number of rings (size 3 to 8) (size 9 to 14) (size 15 to 20)
#    0.000    0.571    4.286    3.429    4.000    4.000 
#    0.000    0.000    0.000    0.000    0.000    0.000 
#    0.000    0.000    0.000    0.000    0.000    0.000 
#
# Total GULP energy -78207.338151 kJ/mol
# GULP energy per Si atom -5586.238439 kJ/mol
# Density = 2.698741 g / cm^3
# Si number density = 27.048975 Si / 1000 Ang^3
#
#
#
# Elastic Constant Matrix: (Units=GPa)
#
#
# Indices 1 2 3 4 5 6 
#
# 1 70.0741 2.0270 13.1323 9.3846 32.8620 -2.3120
# 2 2.0270 110.0182 38.8481 15.3293 16.3787 25.8626
# 3 13.1323 38.8481 122.3896 14.6826 34.3566 8.9817
# 4 9.3846 15.3293 14.6826 43.5583 2.9789 19.4695
# 5 32.8620 16.3787 34.3566 2.9789 47.3003 3.9040
# 6 -2.3120 25.8626 8.9817 19.4695 3.9040 58.3421
#
#
#
# Elastic Compliance Matrix: (Units=1/GPa)
#
#
# Indices 1 2 3 4 5 6 
#
# 1 0.023512 0.001520 0.002829 -0.006761 -0.018766 0.003335
# 2 0.001520 0.011525 -0.002570 -0.001564 -0.002755 -0.003947
# 3 0.002829 -0.002570 0.011663 -0.003562 -0.009428 0.001276
# 4 -0.006761 -0.001564 -0.003562 0.029937 0.006722 -0.009466
# 5 -0.018766 -0.002755 -0.009428 0.006722 0.041815 -0.003112
# 6 0.003335 -0.003947 0.001276 -0.009466 -0.003112 0.022193
#
#
# Mechanical properties :
#
#
# Convention : Reuss Voigt Hill
#
# Bulk Modulus (GPa) = 19.89760 45.61073 32.75417
# Shear Modulus (GPa) = 32.50105 46.40512 39.45308
#
# Velocity S-wave (km/s) = 3.47012 4.14647 3.82328
# Velocity P-wave (km/s) = 4.84022 6.31056 5.62365
#
# Compressibility (1/GPa) = 0.05025731
#
# Stress axis : x y z
#
# Youngs Moduli (GPa) = 42.53062 86.76816 85.73946
#
# Poissons Ratio (x) = -0.13187 -0.24256
# Poissons Ratio (y) = -0.06464 0.22039
# Poissons Ratio (z) = -0.12032 0.22304
#
# Static dielectric constant tensor:
#      x y z
#    x 2.153100 -0.083670 -0.074600 
#    y -0.083670 2.059250 -0.057680 
#    z -0.074600 -0.057680 2.222370 
# 
# From -- ./inp_files/67630.got.cif
#   From: 2010.05.17/outbox.cif.g08.bks.cpg/sg2_34_cif.got.tgz:67630.got - 2010.06.03 11:33:40.
