data_PCOD9055375
_publ_section_title
;
Structure prediction by ZEFSAII (Michael W. Deem and Ramdas Pophale) SiO2 
 PCOD9055375
Probable space group: P -1
;
_chemical_formula_sum "Si O2"
_cell_formula_units_Z 14
_cell_length_a 11.568967
_cell_length_b 8.121168
_cell_length_c 7.610448
_cell_angle_alpha 114.403780
_cell_angle_beta 58.389671
_cell_angle_gamma 125.287925
_cell_volume 490.748449
_symmetry_space_group_name_H-M "P -1"
_symmetry_group_IT_number 2
_symmetry_cell_setting 'triclinic'
loop_
_space_group_symop_operation_xyz
x,y,z
-x,-y,-z
loop_
_atom_site_type_symbol
_atom_site_label
_atom_site_fract_x
_atom_site_fract_y
_atom_site_fract_z
Si Si1 0.465697 0.525412 0.809617
Si Si2 0.416240 0.844018 0.838609
Si Si3 0.355905 0.093081 0.594612
Si Si4 0.148912 0.677009 0.575754
Si Si5 0.904469 0.335707 0.796070
Si Si6 0.044335 0.077207 0.698624
Si Si7 0.770166 0.655517 0.787538
O O1 0.436541 0.636349 0.719738
O O2 0.454180 0.303206 0.708656
O O3 0.635312 0.683130 0.809450
O O4 0.327557 0.484196 0.034746
O O5 0.534597 0.958170 0.637988
O O6 0.242050 0.752751 0.002107
O O7 0.500000 0.000000 0.000000
O O8 0.215565 0.129642 0.642796
O O9 0.261873 0.879249 0.676199
O O10 0.137256 0.746018 0.413145
O O11 0.189818 0.492361 0.430970
O O12 0.995380 0.571503 0.766796
O O13 0.017257 0.274034 0.788388
O O14 0.911444 0.877302 0.816226
O O15 0.000000 0.000000 0.500000
#
# Coordination Sequence:
#
# PCOD9055375 Si02
#       7
#     2   2   2   2   2   2   2
#     4  11  26  44  69 104 141 182 231 292 344 416
#     4  12  22  43  70 101 136 187 224 282 340 424
#     4  12  26  43  73 104 145 174 235 292 350 386
#     4  11  21  41  70 100 134 189 227 288 331 420
#     4  11  22  40  71  99 141 180 241 266 349 416
#     4  12  21  41  73 105 132 185 232 287 332 422
#     4  11  23  44  74  97 135 190 239 272 351 418
#
# _framework density 28.527854000000001
#
# number of rings (size 3 to 8) (size 9 to 14) (size 15 to 20)
#    0.000    0.571    5.714    3.000    0.000    2.286 
#    0.000    0.714    0.000    0.000    0.000    0.000 
#    0.000    0.000    0.000    0.000    0.000    0.000 
#
# Total GULP energy -78164.723278 kJ/mol
# GULP energy per Si atom -5583.194520 kJ/mol
# Density = 2.846292 g / cm^3
# Si number density = 28.527854 Si / 1000 Ang^3
#
#
#
# Elastic Constant Matrix: (Units=GPa)
#
#
# Indices 1 2 3 4 5 6 
#
# 1 126.7929 31.0220 31.7833 -29.3569 -33.0668 17.6720
# 2 31.0220 143.8142 32.7059 -20.9428 -5.6591 5.7733
# 3 31.7833 32.7059 144.2970 -28.6350 -8.2645 7.1090
# 4 -29.3569 -20.9428 -28.6350 49.9157 4.3112 -2.3836
# 5 -33.0668 -5.6591 -8.2645 4.3112 27.3935 -6.9525
# 6 17.6720 5.7733 7.1090 -2.3836 -6.9525 52.8549
#
#
#
# Elastic Compliance Matrix: (Units=1/GPa)
#
#
# Indices 1 2 3 4 5 6 
#
# 1 0.013907 -0.001328 -0.000639 0.005869 0.014838 -0.002203
# 2 -0.001328 0.007751 -0.001119 0.001877 -0.000700 -0.000260
# 3 -0.000639 -0.001119 0.008132 0.003732 0.000738 -0.000492
# 4 0.005869 0.001877 0.003732 0.026001 0.004269 -0.000935
# 5 0.014838 -0.000700 0.000738 0.004269 0.054423 0.002367
# 6 -0.002203 -0.000260 -0.000492 -0.000935 0.002367 0.020020
#
#
# Mechanical properties :
#
#
# Convention : Reuss Voigt Hill
#
# Bulk Modulus (GPa) = 42.34151 67.32516 54.83334
# Shear Modulus (GPa) = 34.65535 47.32566 40.99051
#
# Velocity S-wave (km/s) = 3.48916 4.07741 3.79470
# Velocity P-wave (km/s) = 5.57734 6.76891 6.20181
#
# Compressibility (1/GPa) = 0.02361749
#
# Stress axis : x y z
#
# Youngs Moduli (GPa) = 71.90413 129.02366 122.97431
#
# Poissons Ratio (x) = 0.17129 0.07863
# Poissons Ratio (y) = 0.09546 0.13762
# Poissons Ratio (z) = 0.04598 0.14439
#
# Static dielectric constant tensor:
#      x y z
#    x 2.633610 0.023570 0.082860 
#    y 0.023570 2.251720 0.042340 
#    z 0.082860 0.042340 2.283170 
# 
# From -- ./inp_files/244924.got.cif
#   From: 2010.05.17/outbox.cif.g08.bks.cpg/sg2_123_cif.got.tgz:244924.got - 2010.06.03 11:33:40.
