data_PCOD9055792
_publ_section_title
;
Structure prediction by ZEFSAII (Michael W. Deem and Ramdas Pophale) SiO2 
 PCOD9055792
Probable space group: P -1
;
_chemical_formula_sum "Si O2"
_cell_formula_units_Z 16
_cell_length_a 10.756616
_cell_length_b 22.888861
_cell_length_c 9.007906
_cell_angle_alpha 59.699938
_cell_angle_beta 61.599426
_cell_angle_gamma 22.495253
_cell_volume 732.329610
_symmetry_space_group_name_H-M "P -1"
_symmetry_group_IT_number 2
_symmetry_cell_setting 'triclinic'
loop_
_space_group_symop_operation_xyz
x,y,z
-x,-y,-z
loop_
_atom_site_type_symbol
_atom_site_label
_atom_site_fract_x
_atom_site_fract_y
_atom_site_fract_z
Si Si1 0.123099 0.776894 0.173191
Si Si2 0.867985 0.434051 0.258411
Si Si3 0.199478 0.319625 0.919958
Si Si4 0.619118 0.026966 0.898883
Si Si5 0.126406 0.902433 0.196724
Si Si6 0.135333 0.423604 0.360706
Si Si7 0.755875 0.838390 0.489749
Si Si8 0.315722 0.915178 0.512105
O O1 0.507389 0.598920 0.185296
O O2 0.067056 0.851258 0.248039
O O3 0.913340 0.801356 0.300298
O O4 0.947262 0.885924 0.992626
O O5 0.934033 0.454538 0.336808
O O6 0.936984 0.324655 0.387726
O O7 0.131985 0.339571 0.105339
O O8 0.330409 0.195235 0.926101
O O9 0.497167 0.241966 0.825364
O O10 0.886324 0.494834 0.813511
O O11 0.708165 0.027627 0.694571
O O12 0.500000 0.000000 0.000000
O O13 0.977711 0.976152 0.349982
O O14 0.000000 0.000000 0.000000
O O15 0.484631 0.239630 0.425516
O O16 0.000000 0.500000 0.500000
O O17 0.547490 0.862172 0.547511
O O18 0.500000 0.000000 0.500000
#
# Coordination Sequence:
#
# PCOD9055792 Si02
#       8
#     2   2   2   2   2   2   2   2
#     4  12  24  43  71 102 143 185 242 298 349 440
#     4  11  26  43  72 105 137 192 242 292 365 420
#     4  12  25  46  68 102 146 186 240 293 349 442
#     4  12  26  47  72 103 144 191 240 297 363 426
#     4  12  24  42  70 106 134 185 245 288 356 431
#     4  11  23  43  68 101 142 182 230 296 361 422
#     4  11  21  43  72 100 134 186 239 298 351 423
#     4  11  25  43  71 102 142 187 237 296 364 421
#
# _framework density 21.848085999999999
#
# number of rings (size 3 to 8) (size 9 to 14) (size 15 to 20)
#    0.000    0.500    6.250    3.000    1.750    0.500 
#    2.250    0.625    0.000    0.000    0.000    0.000 
#    0.000    0.000    0.000    0.000    0.000    0.000 
#
# Total GULP energy -89238.411854 kJ/mol
# GULP energy per Si atom -5577.400741 kJ/mol
# Density = 2.179836 g / cm^3
# Si number density = 21.848086 Si / 1000 Ang^3
#
#
#
# Elastic Constant Matrix: (Units=GPa)
#
#
# Indices 1 2 3 4 5 6 
#
# 1 64.7273 35.7617 18.2541 -6.9158 -0.8915 10.2032
# 2 35.7617 157.9361 86.2707 -12.0351 5.9719 16.9948
# 3 18.2541 86.2707 172.4724 -3.8913 10.4617 5.5382
# 4 -6.9158 -12.0351 -3.8913 47.0472 -0.7172 -8.7230
# 5 -0.8915 5.9719 10.4617 -0.7172 29.4469 1.6964
# 6 10.2032 16.9948 5.5382 -8.7230 1.6964 36.2828
#
#
#
# Elastic Compliance Matrix: (Units=1/GPa)
#
#
# Indices 1 2 3 4 5 6 
#
# 1 0.018157 -0.003731 -0.000021 0.001152 0.001523 -0.003150
# 2 -0.003731 0.010011 -0.004479 0.001142 -0.000371 -0.002664
# 3 -0.000021 -0.004479 0.008128 -0.000345 -0.002039 0.000875
# 4 0.001152 0.001142 -0.000345 0.022545 0.000210 0.004604
# 5 0.001523 -0.000371 -0.002039 0.000210 0.034898 -0.001525
# 6 -0.003150 -0.002664 0.000875 0.004604 -0.001525 0.030739
#
#
# Mechanical properties :
#
#
# Convention : Reuss Voigt Hill
#
# Bulk Modulus (GPa) = 50.41500 75.07878 62.74689
# Shear Modulus (GPa) = 33.88660 39.54534 36.71597
#
# Velocity S-wave (km/s) = 3.94256 4.25904 4.10385
# Velocity P-wave (km/s) = 6.62196 7.65666 7.15803
#
# Compressibility (1/GPa) = 0.01983537
#
# Stress axis : x y z
#
# Youngs Moduli (GPa) = 55.07472 99.89405 123.02816
#
# Poissons Ratio (x) = 0.37269 0.00256
# Poissons Ratio (y) = 0.20548 0.55100
# Poissons Ratio (z) = 0.00115 0.44739
#
# Static dielectric constant tensor:
#      x y z
#    x 1.824980 -0.003750 0.032860 
#    y -0.003750 1.872590 -0.097900 
#    z 0.032860 -0.097900 1.921110 
# 
# From -- ./inp_files/285150.got.cif
#   From: 2010.05.17/outbox.cif.g08.bks.cpg/sg2_143_cif.got.tgz:285150.got - 2010.06.03 11:33:40.
