data_PCOD9055115
_publ_section_title
;
Structure prediction by ZEFSAII (Michael W. Deem and Ramdas Pophale) SiO2 
 PCOD9055115
Probable space group: P -1
;
_chemical_formula_sum "Si O2"
_cell_formula_units_Z 16
_cell_length_a 17.817660
_cell_length_b 11.611223
_cell_length_c 8.527233
_cell_angle_alpha 91.742985
_cell_angle_beta 120.981215
_cell_angle_gamma 38.575106
_cell_volume 677.268015
_symmetry_space_group_name_H-M "P -1"
_symmetry_group_IT_number 2
_symmetry_cell_setting 'triclinic'
loop_
_space_group_symop_operation_xyz
x,y,z
-x,-y,-z
loop_
_atom_site_type_symbol
_atom_site_label
_atom_site_fract_x
_atom_site_fract_y
_atom_site_fract_z
Si Si1 0.747537 0.229301 0.895555
Si Si2 0.989776 0.451245 0.759338
Si Si3 0.189723 0.086658 0.676669
Si Si4 0.224497 0.775061 0.737425
Si Si5 0.395972 0.491739 0.575393
Si Si6 0.887687 0.336132 0.799087
Si Si7 0.560601 0.021981 0.196718
Si Si8 0.147362 0.507912 0.928346
O O1 0.617263 0.266575 0.771243
O O2 0.702872 0.336311 0.681866
O O3 0.700494 0.351105 0.012857
O O4 0.971532 0.927868 0.125539
O O5 0.969460 0.361345 0.834834
O O6 0.767173 0.743272 0.483932
O O7 0.116030 0.258947 0.739703
O O8 0.095689 0.440917 0.935582
O O9 0.383060 0.919752 0.810406
O O10 0.004984 0.301115 0.369143
O O11 0.228718 0.909012 0.752299
O O12 0.329297 0.614046 0.681099
O O13 0.000000 0.000000 0.500000
O O14 0.327384 0.440339 0.486881
O O15 0.892598 0.340868 0.990378
O O16 0.500000 0.000000 0.000000
O O17 0.373355 0.247538 0.115526
#
# Coordination Sequence:
#
# PCOD9055115 Si02
#       8
#     2   2   2   2   2   2   2   2
#     4  11  25  46  71  95 142 175 224 289 332 398
#     4  11  22  41  63  97 129 167 220 272 327 403
#     4  11  22  41  67  96 129 169 226 268 334 399
#     4  12  24  45  73 102 135 183 226 281 340 401
#     4  11  26  46  68 102 137 177 231 278 339 406
#     4  12  25  43  66  94 133 178 216 274 341 398
#     4  11  21  40  67  94 132 169 213 278 329 390
#     4  11  24  40  67  95 130 176 217 271 338 399
#
# _framework density 23.624324999999999
#
# number of rings (size 3 to 8) (size 9 to 14) (size 15 to 20)
#    0.000    0.750    5.000    2.625    1.750    6.500 
#    2.250    0.000    0.000    0.000    0.000    0.000 
#    0.000    0.000    0.000    0.000    0.000    0.000 
#
# Total GULP energy -89403.093850 kJ/mol
# GULP energy per Si atom -5587.693366 kJ/mol
# Density = 2.357055 g / cm^3
# Si number density = 23.624325 Si / 1000 Ang^3
#
#
#
# Elastic Constant Matrix: (Units=GPa)
#
#
# Indices 1 2 3 4 5 6 
#
# 1 115.8990 37.9302 35.5179 -10.4309 23.4624 -15.8631
# 2 37.9302 93.3508 35.4500 20.7056 2.1300 -13.1111
# 3 35.5179 35.4500 83.3618 1.3810 24.5793 -14.5656
# 4 -10.4309 20.7056 1.3810 32.4478 -10.4391 3.7719
# 5 23.4624 2.1300 24.5793 -10.4391 49.4971 -2.8394
# 6 -15.8631 -13.1111 -14.5656 3.7719 -2.8394 32.9244
#
#
#
# Elastic Compliance Matrix: (Units=1/GPa)
#
#
# Indices 1 2 3 4 5 6 
#
# 1 0.012460 -0.005403 -0.001757 0.006201 -0.003374 0.002073
# 2 -0.005403 0.018262 -0.005052 -0.013084 0.001759 0.004085
# 3 -0.001757 -0.005052 0.018040 -0.001181 -0.007895 0.004577
# 4 0.006201 -0.013084 -0.001181 0.044350 0.007150 -0.007209
# 5 -0.003374 0.001759 -0.007895 0.007150 0.026988 -0.002910
# 6 0.002073 0.004085 0.004577 -0.007209 -0.002910 0.035598
#
#
# Mechanical properties :
#
#
# Convention : Reuss Voigt Hill
#
# Bulk Modulus (GPa) = 41.08776 56.71198 48.89987
# Shear Modulus (GPa) = 26.56286 35.22143 30.89214
#
# Velocity S-wave (km/s) = 3.35682 3.86540 3.62006
# Velocity P-wave (km/s) = 5.69686 6.63172 6.18199
#
# Compressibility (1/GPa) = 0.02433815
#
# Stress axis : x y z
#
# Youngs Moduli (GPa) = 80.25900 54.75947 55.43317
#
# Poissons Ratio (x) = 0.29585 0.09738
# Poissons Ratio (y) = 0.43362 0.28005
# Poissons Ratio (z) = 0.14099 0.27665
#
# Static dielectric constant tensor:
#      x y z
#    x 1.999280 -0.022400 -0.055250 
#    y -0.022400 1.856600 0.019750 
#    z -0.055250 0.019750 1.880920 
# 
# From -- ./inp_files/333414.got.cif
#   From: 2010.05.17/outbox.cif.g08.bks.cpg/sg2_167_cif.got.tgz:333414.got - 2010.06.03 11:33:40.
