data_PCOD9055784
_publ_section_title
;
Structure prediction by ZEFSAII (Michael W. Deem and Ramdas Pophale) SiO2 
 PCOD9055784
Probable space group: P -1
;
_chemical_formula_sum "Si O2"
_cell_formula_units_Z 16
_cell_length_a 18.248364
_cell_length_b 9.442140
_cell_length_c 6.798105
_cell_angle_alpha 127.008571
_cell_angle_beta 106.310205
_cell_angle_gamma 54.520932
_cell_volume 757.453544
_symmetry_space_group_name_H-M "P -1"
_symmetry_group_IT_number 2
_symmetry_cell_setting 'triclinic'
loop_
_space_group_symop_operation_xyz
x,y,z
-x,-y,-z
loop_
_atom_site_type_symbol
_atom_site_label
_atom_site_fract_x
_atom_site_fract_y
_atom_site_fract_z
Si Si1 0.005271 0.681466 0.263729
Si Si2 0.378876 0.268502 0.072839
Si Si3 0.816254 0.342876 0.716229
Si Si4 0.441305 0.470317 0.591939
Si Si5 0.663603 0.040725 0.040496
Si Si6 0.837598 0.008878 0.168204
Si Si7 0.480527 0.837014 0.254292
Si Si8 0.924930 0.976884 0.808794
O O1 0.107701 0.618277 0.271709
O O2 0.934433 0.878433 0.240844
O O3 0.970363 0.767298 0.530916
O O4 0.000000 0.500000 0.000000
O O5 0.275817 0.453972 0.108579
O O6 0.403909 0.339057 0.352415
O O7 0.449655 0.252549 0.952266
O O8 0.379361 0.054545 0.926168
O O9 0.796398 0.233178 0.430121
O O10 0.865488 0.173014 0.784303
O O11 0.500000 0.500000 0.500000
O O12 0.369328 0.714388 0.781959
O O13 0.495820 0.343038 0.719810
O O14 0.769343 0.928973 0.075736
O O15 0.622530 0.034817 0.794281
O O16 0.858653 0.990685 0.939323
O O17 0.500000 0.000000 0.500000
O O18 0.000000 0.000000 0.000000
#
# Coordination Sequence:
#
# PCOD9055784 Si02
#       8
#     2   2   2   2   2   2   2   2
#     4  11  23  43  65  98 140 181 230 290 354 422
#     4  12  26  46  70 102 138 188 232 296 352 416
#     4  11  23  42  70  96 138 180 235 288 353 425
#     4  12  25  45  74  97 137 187 231 288 358 415
#     4  12  25  46  71 100 142 181 236 295 351 420
#     4  11  23  43  69 100 134 182 236 285 356 422
#     4  12  26  48  71 104 142 185 237 290 355 428
#     4  11  21  43  71  94 134 190 232 289 354 423
#
# _framework density 21.123407
#
# number of rings (size 3 to 8) (size 9 to 14) (size 15 to 20)
#    0.000    0.500    6.250    3.000    1.750    0.500 
#    6.750    0.000    0.000    0.000    0.000    0.000 
#    0.000    0.000    0.000    0.000    0.000    0.000 
#
# Total GULP energy -89231.114623 kJ/mol
# GULP energy per Si atom -5576.944664 kJ/mol
# Density = 2.107533 g / cm^3
# Si number density = 21.123407 Si / 1000 Ang^3
#
#
#
# Elastic Constant Matrix: (Units=GPa)
#
#
# Indices 1 2 3 4 5 6 
#
# 1 87.5997 17.1471 22.0910 -13.6823 24.9623 3.3586
# 2 17.1471 77.7293 23.7653 -2.0690 -5.2605 3.4515
# 3 22.0910 23.7653 123.2061 -4.0969 14.7652 6.0457
# 4 -13.6823 -2.0690 -4.0969 31.1551 4.6197 -1.1002
# 5 24.9623 -5.2605 14.7652 4.6197 37.3272 -3.8951
# 6 3.3586 3.4515 6.0457 -1.1002 -3.8951 38.3760
#
#
#
# Elastic Compliance Matrix: (Units=1/GPa)
#
#
# Indices 1 2 3 4 5 6 
#
# 1 0.017884 -0.004455 -0.000255 0.009506 -0.013899 -0.002263
# 2 -0.004455 0.015144 -0.002995 -0.002319 0.006595 0.000103
# 3 -0.000255 -0.002995 0.009385 0.001508 -0.004316 -0.001582
# 4 0.009506 -0.002319 0.001508 0.038075 -0.012096 -0.000997
# 5 -0.013899 0.006595 -0.004316 -0.012096 0.040750 0.005092
# 6 -0.002263 0.000103 -0.001582 -0.000997 0.005092 0.026984
#
#
# Mechanical properties :
#
#
# Convention : Reuss Voigt Hill
#
# Bulk Modulus (GPa) = 37.03107 46.06020 41.54564
# Shear Modulus (GPa) = 28.96349 36.40710 32.68530
#
# Velocity S-wave (km/s) = 3.70693 4.15606 3.93790
# Velocity P-wave (km/s) = 5.99088 6.69948 6.35507
#
# Compressibility (1/GPa) = 0.02700435
#
# Stress axis : x y z
#
# Youngs Moduli (GPa) = 55.91601 66.03452 106.55590
#
# Poissons Ratio (x) = 0.29415 0.02712
# Poissons Ratio (y) = 0.24908 0.31912
# Poissons Ratio (z) = 0.01423 0.19777
#
# Static dielectric constant tensor:
#      x y z
#    x 1.801250 -0.034130 -0.010030 
#    y -0.034130 1.756130 -0.034990 
#    z -0.010030 -0.034990 1.724460 
# 
# From -- ./inp_files/107630.got.cif
#   From: 2010.05.17/outbox.cif.g08.bks.cpg/sg2_54_cif.got.tgz:107630.got - 2010.06.03 11:33:40.
