data_PCOD9055218
_publ_section_title
;
Structure prediction by ZEFSAII (Michael W. Deem and Ramdas Pophale) SiO2 
 PCOD9055218
Probable space group: P -1
;
_chemical_formula_sum "Si O2"
_cell_formula_units_Z 16
_cell_length_a 11.854234
_cell_length_b 11.916368
_cell_length_c 18.667472
_cell_angle_alpha 131.631038
_cell_angle_beta 28.339939
_cell_angle_gamma 111.760788
_cell_volume 746.330364
_symmetry_space_group_name_H-M "P -1"
_symmetry_group_IT_number 2
_symmetry_cell_setting 'triclinic'
loop_
_space_group_symop_operation_xyz
x,y,z
-x,-y,-z
loop_
_atom_site_type_symbol
_atom_site_label
_atom_site_fract_x
_atom_site_fract_y
_atom_site_fract_z
Si Si1 0.275726 0.719089 0.198954
Si Si2 0.782452 0.791743 0.696941
Si Si3 0.321394 0.203109 0.648917
Si Si4 0.947765 0.427909 0.407956
Si Si5 0.277960 0.790625 0.386686
Si Si6 0.365961 0.505841 0.831727
Si Si7 0.617896 0.896092 0.054213
Si Si8 0.640070 0.915027 0.571589
O O1 0.168756 0.813764 0.376907
O O2 0.442413 0.802537 0.110546
O O3 0.986797 0.778680 0.342579
O O4 0.500000 0.500000 0.000000
O O5 0.941706 0.608935 0.478269
O O6 0.808598 0.699206 0.719311
O O7 0.987245 0.860331 0.624067
O O8 0.495410 0.953937 0.883253
O O9 0.369751 0.344296 0.720203
O O10 0.408714 0.181740 0.506820
O O11 0.500000 0.000000 0.500000
O O12 0.966800 0.305390 0.898505
O O13 0.619316 0.510163 0.654957
O O14 0.048047 0.287102 0.226271
O O15 0.520107 0.579367 0.188464
O O16 0.403707 0.908211 0.368579
O O17 0.549080 0.001397 0.213660
#
# Coordination Sequence:
#
# PCOD9055218 Si02
#       8
#     2   2   2   2   2   2   2   2
#     4  11  20  32  57  91 129 157 191 244 301 361
#     4  10  19  37  56  86 126 168 199 231 290 365
#     4  11  23  42  66  87 112 154 207 261 306 347
#     4  10  23  37  58  87 125 164 201 240 293 361
#     4  10  17  36  56  90 122 148 194 245 297 353
#     4  10  23  42  63  88 116 151 210 254 298 355
#     4  11  21  36  57  89 129 162 196 237 304 367
#     4  11  21  36  61  94 122 157 199 251 305 351
#
# _framework density 21.438227999999999
#
# number of rings (size 3 to 8) (size 9 to 14) (size 15 to 20)
#    0.000    1.500    3.750    2.625    0.000    3.000 
#    0.000    0.625    0.000    1.500    0.000    0.000 
#    0.000    0.000    0.000    0.000    0.000    0.000 
#
# Total GULP energy -89203.048905 kJ/mol
# GULP energy per Si atom -5575.190557 kJ/mol
# Density = 2.138943 g / cm^3
# Si number density = 21.438228 Si / 1000 Ang^3
#
#
#
# Elastic Constant Matrix: (Units=GPa)
#
#
# Indices 1 2 3 4 5 6 
#
# 1 80.0612 3.9774 29.1802 4.2600 4.6855 -3.6069
# 2 3.9774 61.1525 24.7583 7.0768 -8.3110 -8.8114
# 3 29.1802 24.7583 118.2306 15.0254 5.6873 -7.1913
# 4 4.2600 7.0768 15.0254 31.1662 -0.8007 -4.3949
# 5 4.6855 -8.3110 5.6873 -0.8007 28.7171 8.0404
# 6 -3.6069 -8.8114 -7.1913 -4.3949 8.0404 17.9236
#
#
#
# Elastic Compliance Matrix: (Units=1/GPa)
#
#
# Indices 1 2 3 4 5 6 
#
# 1 0.013911 0.000514 -0.003251 -0.000124 -0.002243 0.002723
# 2 0.000514 0.019542 -0.003886 -0.001722 0.004723 0.005611
# 3 -0.003251 -0.003886 0.010860 -0.003649 -0.003543 0.002487
# 4 -0.000124 -0.001722 -0.003649 0.035163 -0.000612 0.006561
# 5 -0.002243 0.004723 -0.003543 -0.000612 0.042493 -0.018763
# 6 0.002723 0.005611 0.002487 0.006561 -0.018763 0.070122
#
#
# Mechanical properties :
#
#
# Convention : Reuss Voigt Hill
#
# Bulk Modulus (GPa) = 32.19147 41.69735 36.94441
# Shear Modulus (GPa) = 23.18104 28.99659 26.08882
#
# Velocity S-wave (km/s) = 3.29187 3.68171 3.49224
# Velocity P-wave (km/s) = 5.43112 6.12908 5.79062
#
# Compressibility (1/GPa) = 0.03106413
#
# Stress axis : x y z
#
# Youngs Moduli (GPa) = 71.88792 51.17196 92.08316
#
# Poissons Ratio (x) = -0.02628 0.29941
# Poissons Ratio (y) = -0.03692 0.35784
# Poissons Ratio (z) = 0.23374 0.19886
#
# Static dielectric constant tensor:
#      x y z
#    x 1.814670 0.028900 0.044780 
#    y 0.028900 1.825840 -0.009100 
#    z 0.044780 -0.009100 1.857620 
# 
# From -- ./inp_files/428674.got.cif
#   From: 2010.05.17/outbox.cif.g08.bks.cpg/sg2_215_cif.got.tgz:428674.got - 2010.06.03 11:33:40.
