data_PCOD9055804
_publ_section_title
;
Structure prediction by ZEFSAII (Michael W. Deem and Ramdas Pophale) SiO2 
 PCOD9055804
Probable space group: P -1
;
_chemical_formula_sum "Si O2"
_cell_formula_units_Z 14
_cell_length_a 8.576494
_cell_length_b 8.929341
_cell_length_c 8.373412
_cell_angle_alpha 104.707408
_cell_angle_beta 75.977504
_cell_angle_gamma 113.192592
_cell_volume 562.769349
_symmetry_space_group_name_H-M "P -1"
_symmetry_group_IT_number 2
_symmetry_cell_setting 'triclinic'
loop_
_space_group_symop_operation_xyz
x,y,z
-x,-y,-z
loop_
_atom_site_type_symbol
_atom_site_label
_atom_site_fract_x
_atom_site_fract_y
_atom_site_fract_z
Si Si1 0.430200 0.616599 0.770505
Si Si2 0.878228 0.610488 0.044579
Si Si3 0.392835 0.864508 0.360187
Si Si4 0.993446 0.773982 0.720358
Si Si5 0.729204 0.499468 0.562964
Si Si6 0.335379 0.930444 0.860183
Si Si7 0.884425 0.079223 0.769712
O O1 0.315767 0.508934 0.911767
O O2 0.610453 0.596391 0.691076
O O3 0.318184 0.537449 0.619382
O O4 0.435289 0.803483 0.828059
O O5 0.950317 0.756358 0.195831
O O6 0.904998 0.699507 0.891338
O O7 0.000000 0.500000 0.000000
O O8 0.329421 0.677489 0.384279
O O9 0.230737 0.903914 0.343644
O O10 0.500000 0.000000 0.500000
O O11 0.531075 0.898545 0.190819
O O12 0.922069 0.621146 0.577953
O O13 0.192759 0.847378 0.737288
O O14 0.941398 0.922561 0.707752
O O15 0.230190 0.938228 0.045698
#
# Coordination Sequence:
#
# PCOD9055804 Si02
#       7
#     2   2   2   2   2   2   2
#     4  11  24  44  69  95 144 175 227 275 339 396
#     4  11  21  43  72 104 133 174 229 282 338 397
#     4  12  26  45  68  97 134 181 227 274 338 402
#     4  11  25  44  70 103 136 177 227 279 345 400
#     4  11  27  44  67  99 139 183 227 272 338 409
#     4  11  23  46  69  98 137 176 223 284 338 399
#     4  11  25  44  69 100 139 173 228 283 341 399
#
# _framework density 24.876975999999999
#
# number of rings (size 3 to 8) (size 9 to 14) (size 15 to 20)
#    0.000    0.857    4.286    3.857    6.000    2.286 
#    0.000    1.429    0.000    0.000    0.000    0.000 
#    0.000    0.000    0.000    0.000    0.000    0.000 
#
# Total GULP energy -78531.370685 kJ/mol
# GULP energy per Si atom -5609.383620 kJ/mol
# Density = 2.482035 g / cm^3
# Si number density = 24.876976 Si / 1000 Ang^3
#
#
#
# Elastic Constant Matrix: (Units=GPa)
#
#
# Indices 1 2 3 4 5 6 
#
# 1 83.3063 41.6619 27.2756 13.1338 20.3243 -11.2314
# 2 41.6619 153.6759 10.5898 6.3542 -0.0052 -3.3635
# 3 27.2756 10.5898 43.8694 5.8270 6.1079 -0.1298
# 4 13.1338 6.3542 5.8270 46.1849 5.5554 -3.5526
# 5 20.3243 -0.0052 6.1079 5.5554 55.5527 4.6423
# 6 -11.2314 -3.3635 -0.1298 -3.5526 4.6423 47.4323
#
#
#
# Elastic Compliance Matrix: (Units=1/GPa)
#
#
# Indices 1 2 3 4 5 6 
#
# 1 0.020306 -0.004580 -0.010250 -0.002701 -0.006441 0.004883
# 2 -0.004580 0.007685 0.000774 -0.000107 0.001661 -0.000708
# 3 -0.010250 0.000774 0.029003 -0.001147 0.000882 -0.002465
# 4 -0.002701 -0.000107 -0.001147 0.022823 -0.001267 0.001183
# 5 -0.006441 0.001661 0.000882 -0.001267 0.020682 -0.003524
# 6 0.004883 -0.000708 -0.002465 0.001183 -0.003524 0.022616
#
#
# Mechanical properties :
#
#
# Convention : Reuss Voigt Hill
#
# Bulk Modulus (GPa) = 34.62494 48.87847 41.75170
# Shear Modulus (GPa) = 31.08424 43.25559 37.16991
#
# Velocity S-wave (km/s) = 3.53869 4.17439 3.86962
# Velocity P-wave (km/s) = 5.53580 6.55170 6.06506
#
# Compressibility (1/GPa) = 0.02888092
#
# Stress axis : x y z
#
# Youngs Moduli (GPa) = 49.24682 130.13032 34.47912
#
# Poissons Ratio (x) = 0.59604 0.35339
# Poissons Ratio (y) = 0.22557 -0.02667
# Poissons Ratio (z) = 0.50476 -0.10066
#
# Static dielectric constant tensor:
#      x y z
#    x 1.941280 0.018040 0.009010 
#    y 0.018040 1.899730 -0.004410 
#    z 0.009010 -0.004410 2.010310 
# 
# From -- ./inp_files/149567.got.cif
#   From: 2010.05.17/outbox.cif.g08.bks.cpg/sg2_75_cif.got.tgz:149567.got - 2010.06.03 11:33:40.
