data_PCOD9055250
_publ_section_title
;
Structure prediction by ZEFSAII (Michael W. Deem and Ramdas Pophale) SiO2 
 PCOD9055250
Probable space group: P -1
;
_chemical_formula_sum "Si O2"
_cell_formula_units_Z 14
_cell_length_a 6.768186
_cell_length_b 9.659168
_cell_length_c 20.022613
_cell_angle_alpha 50.692074
_cell_angle_beta 124.015209
_cell_angle_gamma 132.358086
_cell_volume 728.023546
_symmetry_space_group_name_H-M "P -1"
_symmetry_group_IT_number 2
_symmetry_cell_setting 'triclinic'
loop_
_space_group_symop_operation_xyz
x,y,z
-x,-y,-z
loop_
_atom_site_type_symbol
_atom_site_label
_atom_site_fract_x
_atom_site_fract_y
_atom_site_fract_z
Si Si1 0.138686 0.178544 0.914123
Si Si2 0.330868 0.633325 0.853393
Si Si3 0.717892 0.296202 0.025878
Si Si4 0.935259 0.075908 0.300121
Si Si5 0.064728 0.079393 0.171949
Si Si6 0.317740 0.260241 0.546608
Si Si7 0.280951 0.033629 0.484646
O O1 0.155628 0.391923 0.875139
O O2 0.456135 0.234517 0.949570
O O3 0.987830 0.093380 0.840641
O O4 0.000000 0.000000 0.000000
O O5 0.374776 0.663153 0.932078
O O6 0.179970 0.766070 0.769856
O O7 0.628251 0.735230 0.842997
O O8 0.820120 0.130985 0.097172
O O9 0.000000 0.500000 0.000000
O O10 0.040226 0.046892 0.257043
O O11 0.173818 0.147212 0.379244
O O12 0.706697 0.850745 0.353708
O O13 0.500000 0.500000 0.500000
O O14 0.401621 0.149116 0.540712
O O15 0.999886 0.181349 0.491011
O O16 0.500000 0.000000 0.500000
#
# Coordination Sequence:
#
# PCOD9055250 Si02
#       7
#     2   2   2   2   2   2   2
#     4  12  23  41  66  89 121 171 219 253 305 372
#     4  11  23  42  59  90 129 166 200 264 326 347
#     4  11  21  41  64  86 123 165 215 260 305 370
#     4   9  23  42  62  89 134 160 201 261 310 377
#     4  11  23  40  60  93 124 167 207 263 317 354
#     4   9  20  42  65  94 121 159 205 250 303 374
#     4   9  20  41  66  93 121 166 203 243 313 375
#
# _framework density 19.230146000000001
#
# number of rings (size 3 to 8) (size 9 to 14) (size 15 to 20)
#    0.857    0.857    2.857    1.714    2.000    0.571 
#    5.143    0.000    0.000    0.000    0.000    0.000 
#    0.000    0.000    0.000    0.000    0.000    0.000 
#
# Total GULP energy -77955.788182 kJ/mol
# GULP energy per Si atom -5568.270584 kJ/mol
# Density = 1.918638 g / cm^3
# Si number density = 19.230146 Si / 1000 Ang^3
#
#
#
# Elastic Constant Matrix: (Units=GPa)
#
#
# Indices 1 2 3 4 5 6 
#
# 1 122.7098 45.5750 29.6858 -9.6831 -24.5224 -7.4486
# 2 45.5750 130.6718 31.4636 -19.6782 -22.4324 -9.8331
# 3 29.6858 31.4636 66.5886 -8.3921 -20.3732 -0.6463
# 4 -9.6831 -19.6782 -8.3921 23.2037 -1.3906 -1.7054
# 5 -24.5224 -22.4324 -20.3732 -1.3906 37.7407 4.0236
# 6 -7.4486 -9.8331 -0.6463 -1.7054 4.0236 20.7162
#
#
#
# Elastic Compliance Matrix: (Units=1/GPa)
#
#
# Indices 1 2 3 4 5 6 
#
# 1 0.010582 -0.001871 -0.002131 0.002488 0.004472 0.002187
# 2 -0.001871 0.011117 -0.002044 0.008482 0.004129 0.004437
# 3 -0.002131 -0.002044 0.020225 0.005042 0.008760 -0.002391
# 4 0.002488 0.008482 0.005042 0.054336 0.010582 0.007495
# 5 0.004472 0.004129 0.008760 0.010582 0.037244 -0.002522
# 6 0.002187 0.004437 -0.002391 0.007495 -0.002522 0.052196
#
#
# Mechanical properties :
#
#
# Convention : Reuss Voigt Hill
#
# Bulk Modulus (GPa) = 33.51826 59.26878 46.39352
# Shear Modulus (GPa) = 24.06894 30.54849 27.30872
#
# Velocity S-wave (km/s) = 3.54167 3.99001 3.77251
# Velocity P-wave (km/s) = 5.84743 7.21905 6.56914
#
# Compressibility (1/GPa) = 0.02983449
#
# Stress axis : x y z
#
# Youngs Moduli (GPa) = 94.49649 89.94973 49.44275
#
# Poissons Ratio (x) = 0.16829 0.10534
# Poissons Ratio (y) = 0.17680 0.10105
# Poissons Ratio (z) = 0.20134 0.18384
#
# Static dielectric constant tensor:
#      x y z
#    x 1.480260 0.066280 0.137830 
#    y 0.066280 1.641240 -0.035100 
#    z 0.137830 -0.035100 1.577100 
# 
# From -- ./inp_files/546730.got.cif
#   From: 2010.05.17/outbox.cif.g08.bks.cpg/sg2_274_cif.got.tgz:546730.got - 2010.06.03 11:33:40.
