data_PCOD9055190
_publ_section_title
;
Structure prediction by ZEFSAII (Michael W. Deem and Ramdas Pophale) SiO2 
 PCOD9055190
Probable space group: P -1
;
_chemical_formula_sum "Si O2"
_cell_formula_units_Z 16
_cell_length_a 12.684319
_cell_length_b 16.276240
_cell_length_c 21.052809
_cell_angle_alpha 23.967957
_cell_angle_beta 23.757000
_cell_angle_gamma 36.685792
_cell_volume 695.388661
_symmetry_space_group_name_H-M "P -1"
_symmetry_group_IT_number 2
_symmetry_cell_setting 'triclinic'
loop_
_space_group_symop_operation_xyz
x,y,z
-x,-y,-z
loop_
_atom_site_type_symbol
_atom_site_label
_atom_site_fract_x
_atom_site_fract_y
_atom_site_fract_z
Si Si1 0.596093 0.744000 0.776343
Si Si2 0.119021 0.797932 0.074569
Si Si3 0.973186 0.690770 0.720678
Si Si4 0.988102 0.969891 0.305334
Si Si5 0.294736 0.252011 0.038906
Si Si6 0.822561 0.718897 0.120465
Si Si7 0.673706 0.386804 0.628763
Si Si8 0.473326 0.039470 0.804189
O O1 0.815547 0.778432 0.688465
O O2 0.722757 0.832041 0.578368
O O3 0.500000 0.500000 0.000000
O O4 0.330376 0.822440 0.883972
O O5 0.907355 0.584226 0.346250
O O6 0.311311 0.835247 0.003751
O O7 0.000000 0.000000 0.000000
O O8 0.031036 0.471151 0.821878
O O9 0.265578 0.839967 0.461783
O O10 0.820359 0.676913 0.882288
O O11 0.196133 0.815865 0.297169
O O12 0.069631 0.158732 0.177405
O O13 0.994728 0.084172 0.154109
O O14 0.415014 0.051667 0.130935
O O15 0.522415 0.406971 0.764684
O O16 0.557614 0.646302 0.273698
O O17 0.709958 0.801160 0.188306
#
# Coordination Sequence:
#
# PCOD9055190 Si02
#       8
#     2   2   2   2   2   2   2   2
#     4  12  25  43  68  92 134 178 211 271 335 387
#     4  12  28  43  66 100 135 173 218 273 335 388
#     4  12  25  42  68 103 130 169 229 274 325 383
#     4  11  21  43  71  97 132 173 224 264 331 393
#     4  11  21  40  70  96 127 173 223 268 322 392
#     4  11  24  42  73  99 129 175 223 276 318 389
#     4  11  22  44  67  98 136 175 215 266 340 389
#     4  12  22  43  68  98 130 175 222 271 318 394
#
# _framework density 23.008714999999999
#
# number of rings (size 3 to 8) (size 9 to 14) (size 15 to 20)
#    0.000    0.500    6.250    3.000    1.750    3.500 
#    2.250    0.625    0.000    0.000    0.000    0.000 
#    0.000    0.000    0.000    0.000    0.000    0.000 
#
# Total GULP energy -89483.219002 kJ/mol
# GULP energy per Si atom -5592.701188 kJ/mol
# Density = 2.295635 g / cm^3
# Si number density = 23.008715 Si / 1000 Ang^3
#
#
#
# Elastic Constant Matrix: (Units=GPa)
#
#
# Indices 1 2 3 4 5 6 
#
# 1 45.2101 11.1790 29.7419 9.3115 5.8881 15.2049
# 2 11.1790 124.7996 36.9117 13.8352 3.5087 -0.1060
# 3 29.7419 36.9117 160.9013 23.3347 9.9516 8.0090
# 4 9.3115 13.8352 23.3347 38.9381 6.8594 8.1903
# 5 5.8881 3.5087 9.9516 6.8594 20.9571 -4.3282
# 6 15.2049 -0.1060 8.0090 8.1903 -4.3282 31.8954
#
#
#
# Elastic Compliance Matrix: (Units=1/GPa)
#
#
# Indices 1 2 3 4 5 6 
#
# 1 0.031658 -0.001374 -0.004213 0.000472 -0.010024 -0.015520
# 2 -0.001374 0.008844 -0.001567 -0.002396 0.000806 0.001802
# 3 -0.004213 -0.001567 0.007835 -0.003074 -0.001130 0.000671
# 4 0.000472 -0.002396 -0.003074 0.032061 -0.010654 -0.009140
# 5 -0.010024 0.000806 -0.001130 -0.010654 0.057648 0.015624
# 6 -0.015520 0.001802 0.000671 -0.009140 0.015624 0.043056
#
#
# Mechanical properties :
#
#
# Convention : Reuss Voigt Hill
#
# Bulk Modulus (GPa) = 29.38539 54.06404 41.72471
# Shear Modulus (GPa) = 24.18349 35.23000 29.70674
#
# Velocity S-wave (km/s) = 3.24552 3.91725 3.59710
# Velocity P-wave (km/s) = 5.18109 6.63385 5.95196
#
# Compressibility (1/GPa) = 0.03403052
#
# Stress axis : x y z
#
# Youngs Moduli (GPa) = 31.58769 113.07320 127.62608
#
# Poissons Ratio (x) = 0.15531 0.53766
# Poissons Ratio (y) = 0.04339 0.19999
# Poissons Ratio (z) = 0.13307 0.17719
#
# Static dielectric constant tensor:
#      x y z
#    x 1.979700 0.052300 -0.021480 
#    y 0.052300 1.928140 0.058380 
#    z -0.021480 0.058380 1.863630 
# 
# From -- ./inp_files/190264.got.cif
#   From: 2010.05.17/outbox.cif.g08.bks.cpg/sg2_96_cif.got.tgz:190264.got - 2010.06.03 11:33:40.
