data_PCOD9055133
_publ_section_title
;
Structure prediction by ZEFSAII (Michael W. Deem and Ramdas Pophale) SiO2 
 PCOD9055133
Probable space group: P -1
;
_chemical_formula_sum "Si O2"
_cell_formula_units_Z 14
_cell_length_a 6.255992
_cell_length_b 11.148991
_cell_length_c 9.227670
_cell_angle_alpha 88.710499
_cell_angle_beta 69.532279
_cell_angle_gamma 73.448408
_cell_volume 575.859856
_symmetry_space_group_name_H-M "P -1"
_symmetry_group_IT_number 2
_symmetry_cell_setting 'triclinic'
loop_
_space_group_symop_operation_xyz
x,y,z
-x,-y,-z
loop_
_atom_site_type_symbol
_atom_site_label
_atom_site_fract_x
_atom_site_fract_y
_atom_site_fract_z
Si Si1 0.565523 0.894965 0.867276
Si Si2 0.208024 0.436626 0.339410
Si Si3 0.533522 0.356711 0.757993
Si Si4 0.154757 0.788250 0.061494
Si Si5 0.277798 0.024601 0.695679
Si Si6 0.894274 0.657911 0.929605
Si Si7 0.521374 0.786137 0.516220
O O1 0.800704 0.792619 0.866810
O O2 0.527289 0.972107 0.726762
O O3 0.358016 0.827788 0.928108
O O4 0.500000 0.000000 0.000000
O O5 0.394228 0.516477 0.278377
O O6 0.086400 0.431041 0.211608
O O7 0.352913 0.303060 0.379102
O O8 0.000000 0.500000 0.500000
O O9 0.742366 0.263337 0.805215
O O10 0.513440 0.299034 0.607094
O O11 0.301647 0.366489 0.912553
O O12 0.929881 0.908972 0.145177
O O13 0.095520 0.678650 0.986490
O O14 0.306078 0.135854 0.586109
O O15 0.281054 0.896917 0.615326
#
# Coordination Sequence:
#
# PCOD9055133 Si02
#       7
#     2   2   2   2   2   2   2
#     4  11  21  40  68 106 143 180 226 291 353 418
#     4  12  27  48  71 104 139 187 246 294 352 416
#     4  11  25  48  72 100 146 188 236 295 345 420
#     4  11  23  42  73 109 136 181 240 279 352 429
#     4  11  21  40  70 103 145 175 226 283 354 429
#     4  11  24  46  74  99 142 185 238 293 351 415
#     4  11  24  45  70 102 144 187 223 295 361 406
#
# _framework density 24.311467
#
# number of rings (size 3 to 8) (size 9 to 14) (size 15 to 20)
#    0.000    0.857    4.286    3.000    0.000    2.286 
#    5.143    0.000    0.000    0.000    0.000    0.000 
#    0.000    0.000    0.000    0.000    0.000    0.000 
#
# Total GULP energy -78295.624790 kJ/mol
# GULP energy per Si atom -5592.544628 kJ/mol
# Density = 2.425613 g / cm^3
# Si number density = 24.311467 Si / 1000 Ang^3
#
#
#
# Elastic Constant Matrix: (Units=GPa)
#
#
# Indices 1 2 3 4 5 6 
#
# 1 69.1809 22.9482 36.2946 4.4181 6.9688 16.3284
# 2 22.9482 108.3433 34.6425 -4.5775 -6.8447 1.1535
# 3 36.2946 34.6425 134.5861 20.1638 19.4949 12.0499
# 4 4.4181 -4.5775 20.1638 57.8158 2.7971 10.6152
# 5 6.9688 -6.8447 19.4949 2.7971 26.3373 -1.5155
# 6 16.3284 1.1535 12.0499 10.6152 -1.5155 36.6079
#
#
#
# Elastic Compliance Matrix: (Units=1/GPa)
#
#
# Indices 1 2 3 4 5 6 
#
# 1 0.019469 -0.003210 -0.003269 0.001065 -0.004138 -0.007987
# 2 -0.003210 0.011451 -0.003422 0.001679 0.006293 0.001971
# 3 -0.003269 -0.003422 0.010938 -0.003192 -0.007864 -0.001435
# 4 0.001065 0.001679 -0.003192 0.019388 0.000165 -0.005092
# 5 -0.004138 0.006293 -0.007864 0.000165 0.046856 0.006128
# 6 -0.007987 0.001971 -0.001435 -0.005092 0.006128 0.033019
#
#
# Mechanical properties :
#
#
# Convention : Reuss Voigt Hill
#
# Bulk Modulus (GPa) = 45.33602 55.54231 50.43916
# Shear Modulus (GPa) = 29.71340 38.70054 34.20697
#
# Velocity S-wave (km/s) = 3.49979 3.99414 3.75511
# Velocity P-wave (km/s) = 5.91775 6.64580 6.29232
#
# Compressibility (1/GPa) = 0.02205752
#
# Stress axis : x y z
#
# Youngs Moduli (GPa) = 51.36493 87.32609 91.42213
#
# Poissons Ratio (x) = 0.28030 0.29886
# Poissons Ratio (y) = 0.16487 0.31280
# Poissons Ratio (z) = 0.16791 0.29879
#
# Static dielectric constant tensor:
#      x y z
#    x 1.930940 -0.040270 -0.002610 
#    y -0.040270 2.009150 0.048290 
#    z -0.002610 0.048290 1.920290 
# 
# From -- ./inp_files/131598.got.cif
#   From: 2010.05.17/outbox.cif.g08.bks.cpg/sg2_66_cif.got.tgz:131598.got - 2010.06.03 11:33:40.
