data_PCOD9055264
_publ_section_title
;
Structure prediction by ZEFSAII (Michael W. Deem and Ramdas Pophale) SiO2 
 PCOD9055264
Probable space group: P -1
;
_chemical_formula_sum "Si O2"
_cell_formula_units_Z 15
_cell_length_a 12.026921
_cell_length_b 8.337110
_cell_length_c 12.084834
_cell_angle_alpha 54.044905
_cell_angle_beta 119.177925
_cell_angle_gamma 141.815511
_cell_volume 605.555542
_symmetry_space_group_name_H-M "P -1"
_symmetry_group_IT_number 2
_symmetry_cell_setting 'triclinic'
loop_
_space_group_symop_operation_xyz
x,y,z
-x,-y,-z
loop_
_atom_site_type_symbol
_atom_site_label
_atom_site_fract_x
_atom_site_fract_y
_atom_site_fract_z
Si Si1 0.096992 0.632426 0.109968
Si Si2 0.076019 0.365103 0.605413
Si Si3 0.500000 0.500000 0.000000
Si Si4 0.190208 0.447062 0.877976
Si Si5 0.442542 0.377190 0.761308
Si Si6 0.432142 0.750417 0.489681
Si Si7 0.973255 0.066930 0.339543
Si Si8 0.526455 0.083288 0.811179
O O1 0.995441 0.697200 0.096167
O O2 0.312422 0.897315 0.102174
O O3 0.070244 0.386172 0.252229
O O4 0.000000 0.500000 0.000000
O O5 0.162276 0.449306 0.733470
O O6 0.224848 0.509767 0.523007
O O7 0.959319 0.036534 0.666601
O O8 0.000000 0.500000 0.500000
O O9 0.705519 0.640731 0.016422
O O10 0.542103 0.537392 0.140113
O O11 0.336650 0.768783 0.860151
O O12 0.514634 0.632477 0.614413
O O13 0.233212 0.116846 0.725920
O O14 0.542362 0.282612 0.821308
O O15 0.464130 0.831459 0.345028
O O16 0.500000 0.000000 0.500000
O O17 0.000000 0.000000 0.500000
#
# Coordination Sequence:
#
# PCOD9055264 Si02
#       8
#     2   2   1   2   2   2   2   2
#     4  12  28  47  71 112 145 194 257 304 374 454
#     4  11  23  42  72 107 148 198 239 309 384 437
#     4  12  24  46  74 102 144 204 250 292 388 450
#     4  12  25  48  75 103 149 196 241 308 376 448
#     4  11  24  43  72 104 143 201 244 305 376 445
#     4  11  21  41  65 110 143 178 251 299 359 443
#     4  11  23  46  73 104 149 194 249 308 379 446
#     4  12  25  45  76 105 148 191 246 309 373 445
#
# _framework density 24.770641000000001
#
# number of rings (size 3 to 8) (size 9 to 14) (size 15 to 20)
#    0.000    0.533    5.333    4.400    1.867    2.133 
#    0.000    5.333    0.000    0.000    0.000    0.000 
#    0.000    0.000    0.000    0.000    0.000    0.000 
#
# Total GULP energy -83728.336423 kJ/mol
# GULP energy per Si atom -5581.889095 kJ/mol
# Density = 2.471426 g / cm^3
# Si number density = 24.770641 Si / 1000 Ang^3
#
#
#
# Elastic Constant Matrix: (Units=GPa)
#
#
# Indices 1 2 3 4 5 6 
#
# 1 159.2556 14.4778 24.2871 9.7748 24.5957 0.9474
# 2 14.4778 61.8266 15.7339 11.6234 11.3219 -1.7499
# 3 24.2871 15.7339 125.3488 34.3195 -0.1870 -0.0510
# 4 9.7748 11.6234 34.3195 39.1618 -3.8367 1.3433
# 5 24.5957 11.3219 -0.1870 -3.8367 46.3828 8.3248
# 6 0.9474 -1.7499 -0.0510 1.3433 8.3248 32.9669
#
#
#
# Elastic Compliance Matrix: (Units=1/GPa)
#
#
# Indices 1 2 3 4 5 6 
#
# 1 0.007148 -0.000454 -0.001012 -0.001175 -0.003926 0.000808
# 2 -0.000454 0.018490 -0.000797 -0.005268 -0.005163 0.002512
# 3 -0.001012 -0.000797 0.010715 -0.008917 -0.000030 0.000374
# 4 -0.001175 -0.005268 -0.008917 0.035840 0.005391 -0.003081
# 5 -0.003926 -0.005163 -0.000030 0.005391 0.026623 -0.007104
# 6 0.000808 0.002512 0.000374 -0.003081 -0.007104 0.032364
#
#
# Mechanical properties :
#
#
# Convention : Reuss Voigt Hill
#
# Bulk Modulus (GPa) = 31.41852 50.60318 41.01085
# Shear Modulus (GPa) = 34.17265 43.16444 38.66855
#
# Velocity S-wave (km/s) = 3.71828 4.17893 3.95532
# Velocity P-wave (km/s) = 5.58081 6.61496 6.11977
#
# Compressibility (1/GPa) = 0.03182836
#
# Stress axis : x y z
#
# Youngs Moduli (GPa) = 139.88990 54.08250 93.32355
#
# Poissons Ratio (x) = 0.02453 0.09443
# Poissons Ratio (y) = 0.06346 0.07442
# Poissons Ratio (z) = 0.14155 0.04313
#
# Static dielectric constant tensor:
#      x y z
#    x 1.978700 -0.035180 0.068070 
#    y -0.035180 2.151850 -0.081870 
#    z 0.068070 -0.081870 1.951520 
# 
# From -- ./inp_files/416674.got.cif
#   From: 2010.05.17/outbox.cif.g08.bks.cpg/sg2_209_cif.got.tgz:416674.got - 2010.06.03 11:33:40.
