data_PCOD9055081
_publ_section_title
;
Structure prediction by ZEFSAII (Michael W. Deem and Ramdas Pophale) SiO2 
 PCOD9055081
Probable space group: P -1
;
_chemical_formula_sum "Si O2"
_cell_formula_units_Z 14
_cell_length_a 6.669216
_cell_length_b 13.029668
_cell_length_c 18.667555
_cell_angle_alpha 136.745935
_cell_angle_beta 38.205563
_cell_angle_gamma 135.337740
_cell_volume 649.486217
_symmetry_space_group_name_H-M "P -1"
_symmetry_group_IT_number 2
_symmetry_cell_setting 'triclinic'
loop_
_space_group_symop_operation_xyz
x,y,z
-x,-y,-z
loop_
_atom_site_type_symbol
_atom_site_label
_atom_site_fract_x
_atom_site_fract_y
_atom_site_fract_z
Si Si1 0.439378 0.658673 0.189017
Si Si2 0.468126 0.817658 0.406923
Si Si3 0.299333 0.431761 0.707893
Si Si4 0.701823 0.614300 0.564827
Si Si5 0.660995 0.835663 0.071508
Si Si6 0.517121 0.374675 0.107438
Si Si7 0.222469 0.820669 0.804956
O O1 0.524884 0.789373 0.293274
O O2 0.576860 0.725069 0.107229
O O3 0.563688 0.519340 0.113366
O O4 0.030211 0.589703 0.259171
O O5 0.704277 0.737397 0.345218
O O6 0.088796 0.704095 0.478315
O O7 0.500000 0.000000 0.500000
O O8 0.626667 0.511994 0.606646
O O9 0.296918 0.549757 0.834177
O O10 0.500000 0.500000 0.500000
O O11 0.515525 0.745739 0.694601
O O12 0.646150 0.007821 0.180882
O O13 0.428793 0.760323 0.028050
O O14 0.042434 0.849447 0.943854
O O15 0.109481 0.300320 0.202890
#
# Coordination Sequence:
#
# PCOD9055081 Si02
#       7
#     2   2   2   2   2   2   2
#     4  11  21  40  66  91 126 168 204 261 323 369
#     4  11  27  42  60 101 128 163 219 262 315 377
#     4  11  22  40  65  92 123 170 213 255 319 374
#     4  12  22  43  68  89 127 173 214 258 310 387
#     4   9  20  38  66  90 131 162 203 269 317 372
#     4   9  19  39  61  93 121 154 219 247 306 388
#     4   9  20  40  63  91 124 166 209 253 327 366
#
# _framework density 21.555499000000001
#
# number of rings (size 3 to 8) (size 9 to 14) (size 15 to 20)
#    0.857    0.857    2.857    1.714    2.000    3.429 
#    0.000    2.143    0.000    0.000    0.000    0.000 
#    0.000    0.000    0.000    0.000    0.000    0.000 
#
# Total GULP energy -78136.000998 kJ/mol
# GULP energy per Si atom -5581.142928 kJ/mol
# Density = 2.150644 g / cm^3
# Si number density = 21.555499 Si / 1000 Ang^3
#
#
#
# Elastic Constant Matrix: (Units=GPa)
#
#
# Indices 1 2 3 4 5 6 
#
# 1 45.9409 8.9533 15.8202 4.3123 17.8269 -10.2465
# 2 8.9533 81.5931 13.8519 11.2001 20.0927 -7.3123
# 3 15.8202 13.8519 56.8280 7.7400 12.0581 -11.1815
# 4 4.3123 11.2001 7.7400 37.0103 1.5387 -1.3402
# 5 17.8269 20.0927 12.0581 1.5387 32.5684 -5.6230
# 6 -10.2465 -7.3123 -11.1815 -1.3402 -5.6230 16.0137
#
#
#
# Elastic Compliance Matrix: (Units=1/GPa)
#
#
# Indices 1 2 3 4 5 6 
#
# 1 0.031499 0.002359 -0.003125 -0.002614 -0.015080 0.013537
# 2 0.002359 0.015468 -0.001011 -0.004197 -0.009542 0.004165
# 3 -0.003125 -0.001011 0.022229 -0.003408 -0.003757 0.011455
# 4 -0.002614 -0.004197 -0.003408 0.029077 0.003510 -0.002302
# 5 -0.015080 -0.009542 -0.003757 0.003510 0.046042 -0.000168
# 6 0.013537 0.004165 0.011455 -0.002302 -0.000168 0.080757
#
#
# Mechanical properties :
#
#
# Convention : Reuss Voigt Hill
#
# Bulk Modulus (GPa) = 15.23410 29.06809 22.15109
# Shear Modulus (GPa) = 19.95957 26.83427 23.39692
#
# Velocity S-wave (km/s) = 3.04626 3.53213 3.29816
# Velocity P-wave (km/s) = 4.41086 5.49082 4.98020
#
# Compressibility (1/GPa) = 0.06564223
#
# Stress axis : x y z
#
# Youngs Moduli (GPa) = 31.74662 64.64994 44.98705
#
# Poissons Ratio (x) = -0.15254 0.14058
# Poissons Ratio (y) = -0.07490 0.04550
# Poissons Ratio (z) = 0.09921 0.06538
#
# Static dielectric constant tensor:
#      x y z
#    x 1.788150 0.036560 -0.025280 
#    y 0.036560 1.816990 -0.011870 
#    z -0.025280 -0.011870 1.802910 
# 
# From -- ./inp_files/549230.got.cif
#   From: 2010.05.17/outbox.cif.g08.bks.cpg/sg2_275_cif.got.tgz:549230.got - 2010.06.03 11:33:40.
