data_PCOD9055845
_publ_section_title
;
Structure prediction by ZEFSAII (Michael W. Deem and Ramdas Pophale) SiO2 
 PCOD9055845
Probable space group: P -1
;
_chemical_formula_sum "Si O2"
_cell_formula_units_Z 16
_cell_length_a 9.156688
_cell_length_b 21.170890
_cell_length_c 8.130365
_cell_angle_alpha 141.727249
_cell_angle_beta 104.041194
_cell_angle_gamma 53.715113
_cell_volume 704.887720
_symmetry_space_group_name_H-M "P -1"
_symmetry_group_IT_number 2
_symmetry_cell_setting 'triclinic'
loop_
_space_group_symop_operation_xyz
x,y,z
-x,-y,-z
loop_
_atom_site_type_symbol
_atom_site_label
_atom_site_fract_x
_atom_site_fract_y
_atom_site_fract_z
Si Si1 0.798980 0.593456 0.741797
Si Si2 0.864247 0.311894 0.782605
Si Si3 0.250846 0.508896 0.180637
Si Si4 0.227567 0.892160 0.917547
Si Si5 0.205009 0.965013 0.441542
Si Si6 0.729569 0.857900 0.254250
Si Si7 0.385557 0.781018 0.419604
Si Si8 0.490245 0.422395 0.557461
O O1 0.853837 0.523891 0.794016
O O2 0.629005 0.593676 0.633278
O O3 0.000000 0.500000 0.500000
O O4 0.716940 0.743589 0.995048
O O5 0.871868 0.361530 0.707895
O O6 0.782052 0.234054 0.635706
O O7 0.091985 0.216366 0.713878
O O8 0.690456 0.455969 0.124106
O O9 0.392385 0.527458 0.352658
O O10 0.401526 0.371717 0.833178
O O11 0.355969 0.870884 0.749083
O O12 0.334264 0.733229 0.647341
O O13 0.237604 0.936632 0.194474
O O14 0.000000 0.000000 0.000000
O O15 0.363085 0.842618 0.360639
O O16 0.187269 0.092454 0.744405
O O17 0.000000 0.000000 0.500000
O O18 0.500000 0.000000 0.500000
#
# Coordination Sequence:
#
# PCOD9055845 Si02
#       8
#     2   2   2   2   2   2   2   2
#     4  12  27  48  71 106 149 195 240 298 363 452
#     4  11  21  43  75 105 146 179 241 307 365 424
#     4  11  23  43  78 104 138 187 241 306 368 416
#     4  12  22  38  69 109 145 176 240 312 362 420
#     4  12  25  43  73 100 142 196 243 300 369 423
#     4  12  26  48  69 101 150 193 235 296 370 439
#     4  11  21  44  70 114 138 179 241 318 358 423
#     4  11  22  44  72 107 138 182 249 302 356 434
#
# _framework density 22.698651999999999
#
# number of rings (size 3 to 8) (size 9 to 14) (size 15 to 20)
#    0.000    0.500    6.250    3.375    0.000    2.500 
#    0.000    0.000    0.000    3.000    0.000    0.000 
#    0.000    0.000    0.000    0.000    0.000    0.000 
#
# Total GULP energy -89076.669456 kJ/mol
# GULP energy per Si atom -5567.291841 kJ/mol
# Density = 2.264699 g / cm^3
# Si number density = 22.698652 Si / 1000 Ang^3
#
#
#
# Elastic Constant Matrix: (Units=GPa)
#
#
# Indices 1 2 3 4 5 6 
#
# 1 92.2268 43.2841 36.2479 11.6024 -4.3289 14.1862
# 2 43.2841 151.0854 60.5787 20.9144 -4.5604 11.3477
# 3 36.2479 60.5787 110.3831 15.6335 -1.6508 21.4733
# 4 11.6024 20.9144 15.6335 38.1439 -3.2056 -3.7985
# 5 -4.3289 -4.5604 -1.6508 -3.2056 27.7362 13.9302
# 6 14.1862 11.3477 21.4733 -3.7985 13.9302 27.7759
#
#
#
# Elastic Compliance Matrix: (Units=1/GPa)
#
#
# Indices 1 2 3 4 5 6 
#
# 1 0.014451 -0.002408 -0.001199 -0.002968 0.005876 -0.008822
# 2 -0.002408 0.009276 -0.003824 -0.002757 0.000793 -0.000378
# 3 -0.001199 -0.003824 0.014758 -0.004361 0.006010 -0.012845
# 4 -0.002968 -0.002757 -0.004361 0.031320 -0.003647 0.012126
# 5 0.005876 0.000793 0.006010 -0.003647 0.055194 -0.036151
# 6 -0.008822 -0.000378 -0.012845 0.012126 -0.036151 0.070382
#
#
# Mechanical properties :
#
#
# Convention : Reuss Voigt Hill
#
# Bulk Modulus (GPa) = 42.33320 70.43519 56.38419
# Shear Modulus (GPa) = 22.92345 32.97017 27.94681
#
# Velocity S-wave (km/s) = 3.18135 3.81532 3.51267
# Velocity P-wave (km/s) = 5.67320 7.10682 6.43009
#
# Compressibility (1/GPa) = 0.02362212
#
# Stress axis : x y z
#
# Youngs Moduli (GPa) = 69.20101 107.80563 67.75933
#
# Poissons Ratio (x) = 0.25962 0.08125
# Poissons Ratio (y) = 0.16665 0.25911
# Poissons Ratio (z) = 0.08298 0.41224
#
# Static dielectric constant tensor:
#      x y z
#    x 1.845920 -0.038640 0.033590 
#    y -0.038640 1.868760 -0.063470 
#    z 0.033590 -0.063470 1.941090 
# 
# From -- ./inp_files/224257.got.cif
#   From: 2010.05.17/outbox.cif.g08.bks.cpg/sg2_113_cif.got.tgz:224257.got - 2010.06.03 11:33:40.
