data_PCOD9055444
_publ_section_title
;
Structure prediction by ZEFSAII (Michael W. Deem and Ramdas Pophale) SiO2 
 PCOD9055444
Probable space group: P -1
;
_chemical_formula_sum "Si O2"
_cell_formula_units_Z 16
_cell_length_a 14.304570
_cell_length_b 16.315818
_cell_length_c 9.628354
_cell_angle_alpha 146.684896
_cell_angle_beta 125.305933
_cell_angle_gamma 38.351733
_cell_volume 745.820007
_symmetry_space_group_name_H-M "P -1"
_symmetry_group_IT_number 2
_symmetry_cell_setting 'triclinic'
loop_
_space_group_symop_operation_xyz
x,y,z
-x,-y,-z
loop_
_atom_site_type_symbol
_atom_site_label
_atom_site_fract_x
_atom_site_fract_y
_atom_site_fract_z
Si Si1 0.177516 0.737112 0.998700
Si Si2 0.074913 0.513262 0.713819
Si Si3 0.611369 0.774300 0.326145
Si Si4 0.379143 0.472397 0.248028
Si Si5 0.070409 0.883048 0.542366
Si Si6 0.598958 0.522734 0.418153
Si Si7 0.918243 0.703297 0.131977
Si Si8 0.380717 0.835073 0.434832
O O1 0.290970 0.762756 0.202824
O O2 0.149092 0.610324 0.880254
O O3 0.249196 0.630328 0.762016
O O4 0.008465 0.958501 0.176454
O O5 0.229174 0.292348 0.579685
O O6 0.000000 0.500000 0.500000
O O7 0.950960 0.639118 0.907869
O O8 0.513631 0.765361 0.341765
O O9 0.500000 0.000000 0.500000
O O10 0.654236 0.630132 0.031094
O O11 0.253294 0.714561 0.464721
O O12 0.537785 0.412198 0.252921
O O13 0.377439 0.421378 0.333478
O O14 0.018531 0.759401 0.336566
O O15 0.000000 0.000000 0.500000
O O16 0.472796 0.714316 0.483570
O O17 0.743848 0.920272 0.311970
O O18 0.000000 0.500000 0.000000
#
# Coordination Sequence:
#
# PCOD9055444 Si02
#       8
#     2   2   2   2   2   2   2   2
#     4  11  22  43  73  99 131 183 236 281 344 420
#     4  12  26  46  68 100 142 184 230 288 348 424
#     4  12  24  47  71  99 140 189 231 287 353 422
#     4  11  24  42  68 102 139 170 226 297 346 406
#     4  11  21  41  74  96 130 184 230 277 347 419
#     4  11  23  41  68 107 134 166 230 299 343 406
#     4  11  24  43  68 101 136 178 232 287 351 417
#     4  11  23  42  78 100 131 187 238 284 351 422
#
# _framework density 21.452897
#
# number of rings (size 3 to 8) (size 9 to 14) (size 15 to 20)
#    0.000    0.750    5.000    3.375    0.000    2.500 
#    2.250    1.250    0.000    0.000    0.000    0.000 
#    0.000    0.000    0.000    0.000    0.000    0.000 
#
# Total GULP energy -89372.581887 kJ/mol
# GULP energy per Si atom -5585.786368 kJ/mol
# Density = 2.140407 g / cm^3
# Si number density = 21.452897 Si / 1000 Ang^3
#
#
#
# Elastic Constant Matrix: (Units=GPa)
#
#
# Indices 1 2 3 4 5 6 
#
# 1 72.2083 37.8822 49.5722 -0.1098 -28.4248 12.0334
# 2 37.8822 115.5197 73.2816 -4.9389 -14.2298 8.1682
# 3 49.5722 73.2816 104.0497 5.9653 -32.9101 4.2221
# 4 -0.1098 -4.9389 5.9653 38.0013 4.5681 -2.4736
# 5 -28.4248 -14.2298 -32.9101 4.5681 43.0440 2.4615
# 6 12.0334 8.1682 4.2221 -2.4736 2.4615 37.8787
#
#
#
# Elastic Compliance Matrix: (Units=1/GPa)
#
#
# Indices 1 2 3 4 5 6 
#
# 1 0.025283 -0.002343 -0.006341 -0.001132 0.011631 -0.007650
# 2 -0.002343 0.017482 -0.013561 0.005144 -0.006639 -0.000747
# 3 -0.006341 -0.013561 0.026470 -0.007370 0.012309 0.000707
# 4 -0.001132 0.005144 -0.007370 0.029253 -0.007929 0.002497
# 5 0.011631 -0.006639 0.012309 -0.007929 0.039354 -0.006710
# 6 -0.007650 -0.000747 0.000707 0.002497 -0.006710 0.029512
#
#
# Mechanical properties :
#
#
# Convention : Reuss Voigt Hill
#
# Bulk Modulus (GPa) = 40.41291 68.13884 54.27587
# Shear Modulus (GPa) = 22.71776 32.52092 27.61934
#
# Velocity S-wave (km/s) = 3.25770 3.89771 3.59199
# Velocity P-wave (km/s) = 5.74709 7.21715 6.52366
#
# Compressibility (1/GPa) = 0.02474457
#
# Stress axis : x y z
#
# Youngs Moduli (GPa) = 39.55232 57.20056 37.77890
#
# Poissons Ratio (x) = 0.13403 0.23956
# Poissons Ratio (y) = 0.09268 0.51232
# Poissons Ratio (z) = 0.25081 0.77569
#
# Static dielectric constant tensor:
#      x y z
#    x 1.810820 -0.014030 -0.019060 
#    y -0.014030 1.808680 0.067120 
#    z -0.019060 0.067120 1.774740 
# 
# From -- ./inp_files/314271.got.cif
#   From: 2010.05.17/outbox.cif.g08.bks.cpg/sg2_158_cif.got.tgz:314271.got - 2010.06.03 11:33:40.
