data_PCOD9055688
_publ_section_title
;
Structure prediction by ZEFSAII (Michael W. Deem and Ramdas Pophale) SiO2 
 PCOD9055688
Probable space group: P -1
;
_chemical_formula_sum "Si O2"
_cell_formula_units_Z 15
_cell_length_a 12.538851
_cell_length_b 17.310320
_cell_length_c 9.649656
_cell_angle_alpha 143.721506
_cell_angle_beta 38.131957
_cell_angle_gamma 138.033102
_cell_volume 730.126186
_symmetry_space_group_name_H-M "P -1"
_symmetry_group_IT_number 2
_symmetry_cell_setting 'triclinic'
loop_
_space_group_symop_operation_xyz
x,y,z
-x,-y,-z
loop_
_atom_site_type_symbol
_atom_site_label
_atom_site_fract_x
_atom_site_fract_y
_atom_site_fract_z
Si Si1 0.251073 0.202572 0.372223
Si Si2 0.500000 0.500000 0.500000
Si Si3 0.373162 0.951158 0.928282
Si Si4 0.035282 0.956073 0.746286
Si Si5 0.443239 0.375799 0.064771
Si Si6 0.191182 0.464348 0.233746
Si Si7 0.031479 0.176693 0.834870
Si Si8 0.421333 0.076251 0.575106
O O1 0.378142 0.354175 0.480490
O O2 0.140410 0.153802 0.557045
O O3 0.104565 0.181150 0.367556
O O4 0.354626 0.090408 0.079682
O O5 0.465677 0.425945 0.272141
O O6 0.453754 0.878851 0.622076
O O7 0.500000 0.000000 0.000000
O O8 0.178736 0.852285 0.029234
O O9 0.026600 0.072982 0.815411
O O10 0.242189 0.961831 0.540687
O O11 0.000000 0.000000 0.000000
O O12 0.292872 0.431473 0.220123
O O13 0.641886 0.430391 0.866818
O O14 0.384300 0.211271 0.869241
O O15 0.000000 0.500000 0.500000
O O16 0.128388 0.326272 0.008567
O O17 0.500000 0.000000 0.500000
#
# Coordination Sequence:
#
# PCOD9055688 Si02
#       8
#     2   1   2   2   2   2   2   2
#     4  11  24  42  67  97 137 186 221 284 351 419
#     4  12  24  46  68  98 144 192 234 284 372 420
#     4  11  23  38  70 102 130 175 234 291 343 419
#     4  11  22  40  67  97 132 176 225 283 349 408
#     4  11  25  46  71 102 147 188 236 303 352 429
#     4  11  24  44  73 103 136 191 240 288 361 432
#     4  11  21  43  65  97 137 176 232 286 347 420
#     4  12  23  42  67 102 138 177 227 288 357 413
#
# _framework density 20.544394
#
# number of rings (size 3 to 8) (size 9 to 14) (size 15 to 20)
#    0.000    0.800    2.667    7.200    0.000    1.067 
#    0.000    2.000    0.000    0.000    0.000    0.000 
#    0.000    0.000    0.000    0.000    0.000    0.000 
#
# Total GULP energy -83508.807274 kJ/mol
# GULP energy per Si atom -5567.253818 kJ/mol
# Density = 2.049763 g / cm^3
# Si number density = 20.544394 Si / 1000 Ang^3
#
#
#
# Elastic Constant Matrix: (Units=GPa)
#
#
# Indices 1 2 3 4 5 6 
#
# 1 115.9093 20.4393 43.3071 -6.4191 8.1444 11.1291
# 2 20.4393 101.7250 14.5524 4.6765 2.5641 16.0033
# 3 43.3071 14.5524 104.2026 -5.0668 23.4840 -0.4887
# 4 -6.4191 4.6765 -5.0668 37.3185 6.4458 12.6854
# 5 8.1444 2.5641 23.4840 6.4458 40.7858 -7.4450
# 6 11.1291 16.0033 -0.4887 12.6854 -7.4450 35.0173
#
#
#
# Elastic Compliance Matrix: (Units=1/GPa)
#
#
# Indices 1 2 3 4 5 6 
#
# 1 0.011007 -0.001049 -0.004040 0.003190 -0.001126 -0.004470
# 2 -0.001049 0.010963 -0.000913 0.000149 -0.000878 -0.004930
# 3 -0.004040 -0.000913 0.013165 0.002672 -0.007252 -0.000625
# 4 0.003190 0.000149 0.002672 0.034951 -0.010623 -0.015965
# 5 -0.001126 -0.000878 -0.007252 -0.010623 0.032746 0.011468
# 6 -0.004470 -0.004930 -0.000625 -0.015965 0.011468 0.040444
#
#
# Mechanical properties :
#
#
# Convention : Reuss Voigt Hill
#
# Bulk Modulus (GPa) = 43.23355 53.15938 48.19647
# Shear Modulus (GPa) = 30.67686 38.86020 34.76853
#
# Velocity S-wave (km/s) = 3.86838 4.35388 4.11829
# Velocity P-wave (km/s) = 6.40642 7.15588 6.79149
#
# Compressibility (1/GPa) = 0.02313018
#
# Stress axis : x y z
#
# Youngs Moduli (GPa) = 90.85227 91.21895 75.96036
#
# Poissons Ratio (x) = 0.09565 0.30689
# Poissons Ratio (y) = 0.09527 0.06937
# Poissons Ratio (z) = 0.36706 0.08331
#
# Static dielectric constant tensor:
#      x y z
#    x 1.906310 -0.029660 0.012790 
#    y -0.029660 1.778930 -0.074360 
#    z 0.012790 -0.074360 1.762020 
# 
# From -- ./inp_files/257311.got.cif
#   From: 2010.05.17/outbox.cif.g08.bks.cpg/sg2_129_cif.got.tgz:257311.got - 2010.06.03 11:33:40.
