data_PCOD9055473
_publ_section_title
;
Structure prediction by ZEFSAII (Michael W. Deem and Ramdas Pophale) SiO2 
 PCOD9055473
Probable space group: P -1
;
_chemical_formula_sum "Si O2"
_cell_formula_units_Z 15
_cell_length_a 14.391620
_cell_length_b 8.538434
_cell_length_c 14.958414
_cell_angle_alpha 150.290936
_cell_angle_beta 125.774329
_cell_angle_gamma 51.624292
_cell_volume 709.267769
_symmetry_space_group_name_H-M "P -1"
_symmetry_group_IT_number 2
_symmetry_cell_setting 'triclinic'
loop_
_space_group_symop_operation_xyz
x,y,z
-x,-y,-z
loop_
_atom_site_type_symbol
_atom_site_label
_atom_site_fract_x
_atom_site_fract_y
_atom_site_fract_z
Si Si1 0.500000 0.500000 0.000000
Si Si2 0.761304 0.490691 0.405364
Si Si3 0.808588 0.127282 0.771772
Si Si4 0.807877 0.584703 0.834301
Si Si5 0.762453 0.528166 0.120429
Si Si6 0.141208 0.844850 0.521227
Si Si7 0.419187 0.854846 0.947468
Si Si8 0.926904 0.142885 0.168867
O O1 0.641144 0.513330 0.092238
O O2 0.508393 0.350486 0.032188
O O3 0.829045 0.299552 0.434803
O O4 0.648937 0.359737 0.253992
O O5 0.850361 0.393401 0.323043
O O6 0.726948 0.881935 0.594901
O O7 0.827672 0.290595 0.770321
O O8 0.764711 0.407547 0.959940
O O9 0.935212 0.895401 0.761436
O O10 0.811392 0.442046 0.666634
O O11 0.682922 0.845236 0.917334
O O12 0.905097 0.787383 0.997728
O O13 0.871205 0.272665 0.106775
O O14 0.790242 0.876897 0.314407
O O15 0.000000 0.000000 0.500000
O O16 0.500000 0.000000 0.000000
#
# Coordination Sequence:
#
# PCOD9055473 Si02
#       8
#     1   2   2   2   2   2   2   2
#     4  12  24  48  76  88 144 178 242 286 356 396
#     4  11  23  41  65 100 138 170 233 276 349 416
#     4  12  23  39  68 101 137 178 218 286 351 423
#     4  11  23  41  66 101 137 176 233 273 355 415
#     4  12  24  43  68  97 135 186 232 283 351 407
#     4  12  24  42  68 104 142 183 225 286 354 425
#     4  11  25  50  72  99 136 189 236 300 345 415
#     4  11  21  42  65  99 138 175 224 282 348 420
#
# _framework density 21.148571
#
# number of rings (size 3 to 8) (size 9 to 14) (size 15 to 20)
#    0.000    0.533    2.667    8.400    0.000    0.000 
#    2.400    2.667    0.000    0.000    0.000    0.000 
#    0.000    0.000    0.000    0.000    0.000    0.000 
#
# Total GULP energy -83726.652918 kJ/mol
# GULP energy per Si atom -5581.776861 kJ/mol
# Density = 2.110044 g / cm^3
# Si number density = 21.148571 Si / 1000 Ang^3
#
#
#
# Elastic Constant Matrix: (Units=GPa)
#
#
# Indices 1 2 3 4 5 6 
#
# 1 72.1424 -4.0502 28.6949 -5.1735 8.6642 2.2083
# 2 -4.0502 99.5135 19.0478 -21.6860 7.5201 19.1228
# 3 28.6949 19.0478 118.7796 -2.0044 0.8846 -3.8626
# 4 -5.1735 -21.6860 -2.0044 23.2017 13.2206 0.2560
# 5 8.6642 7.5201 0.8846 13.2206 24.5218 -7.7970
# 6 2.2083 19.1228 -3.8626 0.2560 -7.7970 36.6263
#
#
#
# Elastic Compliance Matrix: (Units=1/GPa)
#
#
# Indices 1 2 3 4 5 6 
#
# 1 0.062015 0.072276 -0.025060 0.171948 -0.161196 -0.079635
# 2 0.072276 0.119328 -0.034353 0.264405 -0.242812 -0.123821
# 3 -0.025060 -0.034353 0.019348 -0.077769 0.072534 0.037472
# 4 0.171948 0.264405 -0.077769 0.658192 -0.584728 -0.285694
# 5 -0.161196 -0.242812 0.072534 -0.584728 0.570582 0.269695
# 6 -0.079635 -0.123821 0.037472 -0.285694 0.269695 0.160114
#
#
# Mechanical properties :
#
#
# Convention : Reuss Voigt Hill
#
# Bulk Modulus (GPa) = 4.41660 41.98003 23.19832
# Shear Modulus (GPa) = 3.05004 33.31950 18.18477
#
# Velocity S-wave (km/s) = 1.20222 3.97356 2.93551
# Velocity P-wave (km/s) = 2.00500 6.39886 4.74159
#
# Compressibility (1/GPa) = 0.22641826
#
# Stress axis : x y z
#
# Youngs Moduli (GPa) = 16.12521 8.38025 51.68558
#
# Poissons Ratio (x) = -0.60569 1.29521
# Poissons Ratio (y) = -1.16547 1.77554
# Poissons Ratio (z) = 0.40409 0.28788
#
# Static dielectric constant tensor:
#      x y z
#    x 1.742060 -0.008000 -0.003550 
#    y -0.008000 1.747020 0.007710 
#    z -0.003550 0.007710 1.766110 
# 
# From -- ./inp_files/203504.got.cif
#   From: 2010.05.17/outbox.cif.g08.bks.cpg/sg2_102_cif.got.tgz:203504.got - 2010.06.03 11:33:40.
