data_PCOD9055531
_publ_section_title
;
Structure prediction by ZEFSAII (Michael W. Deem and Ramdas Pophale) SiO2 
 PCOD9055531
Probable space group: P -1
;
_chemical_formula_sum "Si O2"
_cell_formula_units_Z 14
_cell_length_a 7.646451
_cell_length_b 14.647087
_cell_length_c 9.682951
_cell_angle_alpha 144.096487
_cell_angle_beta 67.692393
_cell_angle_gamma 127.854388
_cell_volume 485.702611
_symmetry_space_group_name_H-M "P -1"
_symmetry_group_IT_number 2
_symmetry_cell_setting 'triclinic'
loop_
_space_group_symop_operation_xyz
x,y,z
-x,-y,-z
loop_
_atom_site_type_symbol
_atom_site_label
_atom_site_fract_x
_atom_site_fract_y
_atom_site_fract_z
Si Si1 0.889954 0.139772 0.768815
Si Si2 0.206031 0.944700 0.906920
Si Si3 0.742345 0.686889 0.623083
Si Si4 0.616903 0.603765 0.948640
Si Si5 0.740924 0.114632 0.485204
Si Si6 0.436765 0.763338 0.537128
Si Si7 0.811157 0.442040 0.105331
O O1 0.901840 0.142084 0.600422
O O2 0.130872 0.226196 0.876062
O O3 0.691778 0.933422 0.626246
O O4 0.664901 0.156387 0.228338
O O5 0.241362 0.984153 0.777819
O O6 0.935627 0.785092 0.804784
O O7 0.278649 0.139707 0.193683
O O8 0.500000 0.500000 0.500000
O O9 0.393674 0.564309 0.337586
O O10 0.850291 0.618577 0.395569
O O11 0.441871 0.643663 0.983230
O O12 0.500000 0.500000 0.000000
O O13 0.710100 0.264569 0.593014
O O14 0.815526 0.284953 0.998414
O O15 0.500000 0.000000 0.500000
O O16 0.000000 0.500000 0.000000
#
# Coordination Sequence:
#
# PCOD9055531 Si02
#       7
#     2   2   2   2   2   2   2
#     4  11  21  42  69 102 148 180 231 296 359 413
#     4   9  20  40  65 100 137 183 233 287 349 425
#     4  11  23  41  69 103 140 185 240 288 352 428
#     4  12  25  40  66 109 144 182 235 297 358 418
#     4   8  17  35  68 105 132 180 230 281 351 409
#     4   9  21  41  66 101 143 184 233 290 358 418
#     4  12  25  45  73 108 141 189 236 297 358 420
#
# _framework density 28.824221999999999
#
# number of rings (size 3 to 8) (size 9 to 14) (size 15 to 20)
#    0.857    0.857    1.429    3.429    0.000    0.571 
#    0.000    6.429    0.000    6.000    0.000    1.000 
#    0.000    0.000    0.000    0.000    0.000    0.000 
#
# Total GULP energy -78374.362854 kJ/mol
# GULP energy per Si atom -5598.168775 kJ/mol
# Density = 2.875862 g / cm^3
# Si number density = 28.824222 Si / 1000 Ang^3
#
#
#
# Elastic Constant Matrix: (Units=GPa)
#
#
# Indices 1 2 3 4 5 6 
#
# 1 202.7880 72.4984 77.9561 21.3974 -20.3405 29.0695
# 2 72.4984 156.4067 65.3768 34.9542 7.9906 12.8380
# 3 77.9561 65.3768 186.4588 14.2124 -27.9152 -0.8392
# 4 21.3974 34.9542 14.2124 62.7935 -3.7661 16.3145
# 5 -20.3405 7.9906 -27.9152 -3.7661 76.9556 8.2081
# 6 29.0695 12.8380 -0.8392 16.3145 8.2081 51.3345
#
#
#
# Elastic Compliance Matrix: (Units=1/GPa)
#
#
# Indices 1 2 3 4 5 6 
#
# 1 0.007264 -0.002425 -0.001954 0.000469 0.001912 -0.003994
# 2 -0.002425 0.009582 -0.002434 -0.004323 -0.002811 0.000760
# 3 -0.001954 -0.002434 0.007370 0.000115 0.002262 0.001438
# 4 0.000469 -0.004323 0.000115 0.019791 0.002204 -0.005825
# 5 0.001912 -0.002811 0.002262 0.002204 0.015089 -0.003456
# 6 -0.003994 0.000760 0.001438 -0.005825 -0.003456 0.023979
#
#
# Mechanical properties :
#
#
# Convention : Reuss Voigt Hill
#
# Bulk Modulus (GPa) = 94.42830 108.59068 101.50949
# Shear Modulus (GPa) = 49.88429 60.20486 55.04458
#
# Velocity S-wave (km/s) = 4.16461 4.57518 4.37471
# Velocity P-wave (km/s) = 7.48040 8.10339 7.79812
#
# Compressibility (1/GPa) = 0.01059005
#
# Stress axis : x y z
#
# Youngs Moduli (GPa) = 137.65970 104.35895 135.68632
#
# Poissons Ratio (x) = 0.25307 0.26518
# Poissons Ratio (y) = 0.33382 0.33025
# Poissons Ratio (z) = 0.26904 0.25400
#
# Static dielectric constant tensor:
#      x y z
#    x 2.285380 0.041760 0.033160 
#    y 0.041760 2.540810 0.208000 
#    z 0.033160 0.208000 2.515590 
# 
# From -- ./inp_files/221115.got.cif
#   From: 2010.05.17/outbox.cif.g08.bks.cpg/sg2_111_cif.got.tgz:221115.got - 2010.06.03 11:33:40.
