data_PCOD9055978
_publ_section_title
;
Structure prediction by ZEFSAII (Michael W. Deem and Ramdas Pophale) SiO2 
 PCOD9055978
Probable space group: P -1
;
_chemical_formula_sum "Si O2"
_cell_formula_units_Z 14
_cell_length_a 9.004373
_cell_length_b 8.976031
_cell_length_c 13.015614
_cell_angle_alpha 56.219954
_cell_angle_beta 121.656123
_cell_angle_gamma 130.384403
_cell_volume 643.126989
_symmetry_space_group_name_H-M "P -1"
_symmetry_group_IT_number 2
_symmetry_cell_setting 'triclinic'
loop_
_space_group_symop_operation_xyz
x,y,z
-x,-y,-z
loop_
_atom_site_type_symbol
_atom_site_label
_atom_site_fract_x
_atom_site_fract_y
_atom_site_fract_z
Si Si1 0.489217 0.285421 0.053058
Si Si2 0.958105 0.678386 0.376200
Si Si3 0.764240 0.127853 0.250319
Si Si4 0.669057 0.981333 0.503012
Si Si5 0.422188 0.279224 0.798851
Si Si6 0.883071 0.992350 0.856523
Si Si7 0.799873 0.701745 0.741446
O O1 0.701092 0.295525 0.132371
O O2 0.347122 0.115069 0.149345
O O3 0.500000 0.500000 0.000000
O O4 0.396359 0.219258 0.932043
O O5 0.731640 0.636719 0.314913
O O6 0.000000 0.500000 0.500000
O O7 0.107444 0.865684 0.431101
O O8 0.035419 0.782187 0.251606
O O9 0.002775 0.231679 0.280097
O O10 0.686876 0.044909 0.367862
O O11 0.648463 0.926409 0.213289
O O12 0.653339 0.763773 0.604076
O O13 0.500000 0.000000 0.500000
O O14 0.654418 0.458397 0.802244
O O15 0.876202 0.835163 0.824916
O O16 0.000000 0.000000 0.000000
#
# Coordination Sequence:
#
# PCOD9055978 Si02
#       7
#     2   2   2   2   2   2   2
#     4  12  26  46  74 104 144 198 252 305 369 448
#     4  11  24  42  73 109 151 191 249 311 366 450
#     4  12  26  48  72 103 149 193 243 318 373 441
#     4  11  24  47  73 103 147 190 244 304 374 444
#     4  12  25  46  72 108 150 191 248 305 377 444
#     4  11  21  44  74 104 149 197 249 310 365 441
#     4  11  24  45  71 107 147 188 245 306 371 448
#
# _framework density 21.768642
#
# number of rings (size 3 to 8) (size 9 to 14) (size 15 to 20)
#    0.000    0.571    5.714    3.429    2.000    1.143 
#    7.714    0.000    0.000    0.000    0.000    0.000 
#    0.000    0.000    0.000    0.000    0.000    0.000 
#
# Total GULP energy -78193.337952 kJ/mol
# GULP energy per Si atom -5585.238425 kJ/mol
# Density = 2.171910 g / cm^3
# Si number density = 21.768642 Si / 1000 Ang^3
#
#
#
# Elastic Constant Matrix: (Units=GPa)
#
#
# Indices 1 2 3 4 5 6 
#
# 1 154.5885 43.0658 62.3920 -3.6280 -2.6996 7.5912
# 2 43.0658 80.0853 37.9152 -15.1703 -11.4986 17.3494
# 3 62.3920 37.9152 144.2081 -0.0929 -8.9754 -14.3182
# 4 -3.6280 -15.1703 -0.0929 38.2942 -4.0065 -0.1191
# 5 -2.6996 -11.4986 -8.9754 -4.0065 40.5105 -6.7316
# 6 7.5912 17.3494 -14.3182 -0.1191 -6.7316 23.7262
#
#
#
# Elastic Compliance Matrix: (Units=1/GPa)
#
#
# Indices 1 2 3 4 5 6 
#
# 1 0.008755 -0.002545 -0.003567 -0.000361 -0.001552 -0.003535
# 2 -0.002545 0.023519 -0.006874 0.009272 0.002620 -0.019742
# 3 -0.003567 -0.006874 0.011828 -0.002728 0.002488 0.013997
# 4 -0.000361 0.009272 -0.002728 0.030122 0.003806 -0.007080
# 5 -0.001552 0.002620 0.002488 0.003806 0.027569 0.007923
# 6 -0.003535 -0.019742 0.013997 -0.007080 0.007923 0.068374
#
#
# Mechanical properties :
#
#
# Convention : Reuss Voigt Hill
#
# Bulk Modulus (GPa) = 55.15374 73.95865 64.55620
# Shear Modulus (GPa) = 24.73037 36.20677 30.46857
#
# Velocity S-wave (km/s) = 3.37420 4.08272 3.74525
# Velocity P-wave (km/s) = 6.36958 7.50156 6.95863
#
# Compressibility (1/GPa) = 0.01813114
#
# Stress axis : x y z
#
# Youngs Moduli (GPa) = 114.21650 42.51956 84.54815
#
# Poissons Ratio (x) = 0.10821 0.30156
# Poissons Ratio (y) = 0.29068 0.58114
# Poissons Ratio (z) = 0.40738 0.29226
#
# Static dielectric constant tensor:
#      x y z
#    x 1.663130 0.027080 -0.001020 
#    y 0.027080 1.866230 -0.067740 
#    z -0.001020 -0.067740 1.848130 
# 
# From -- ./inp_files/181962.got.cif
#   From: 2010.05.17/outbox.cif.g08.bks.cpg/sg2_91_cif.got.tgz:181962.got - 2010.06.03 11:33:40.
