data_PCOD9055310
_publ_section_title
;
Structure prediction by ZEFSAII (Michael W. Deem and Ramdas Pophale) SiO2 
 PCOD9055310
Probable space group: P -1
;
_chemical_formula_sum "Si O2"
_cell_formula_units_Z 14
_cell_length_a 12.972405
_cell_length_b 10.589194
_cell_length_c 13.144937
_cell_angle_alpha 43.266149
_cell_angle_beta 59.572550
_cell_angle_gamma 95.850395
_cell_volume 645.257369
_symmetry_space_group_name_H-M "P -1"
_symmetry_group_IT_number 2
_symmetry_cell_setting 'triclinic'
loop_
_space_group_symop_operation_xyz
x,y,z
-x,-y,-z
loop_
_atom_site_type_symbol
_atom_site_label
_atom_site_fract_x
_atom_site_fract_y
_atom_site_fract_z
Si Si1 0.131114 0.981267 0.565676
Si Si2 0.434054 0.738433 0.123650
Si Si3 0.227284 0.787635 0.480506
Si Si4 0.882141 0.413264 0.710051
Si Si5 0.599694 0.702378 0.579088
Si Si6 0.697837 0.516342 0.972155
Si Si7 0.544207 0.935930 0.298717
O O1 0.190122 0.044250 0.616700
O O2 0.253511 0.283783 0.261665
O O3 0.186914 0.855220 0.560836
O O4 0.903251 0.739523 0.798063
O O5 0.218751 0.517475 0.313153
O O6 0.436418 0.549984 0.291473
O O7 0.500000 0.000000 0.000000
O O8 0.593960 0.912250 0.852568
O O9 0.036790 0.581192 0.625839
O O10 0.319024 0.701897 0.514250
O O11 0.000000 0.500000 0.500000
O O12 0.686841 0.072142 0.051295
O O13 0.572435 0.814032 0.438554
O O14 0.453400 0.580816 0.815445
O O15 0.621235 0.224822 0.140186
#
# Coordination Sequence:
#
# PCOD9055310 Si02
#       7
#     2   2   2   2   2   2   2
#     4  11  22  37  68  98 131 175 223 260 312 393
#     4  11  24  43  71  91 121 175 229 272 315 378
#     4  11  21  41  67  95 127 170 223 268 313 387
#     4  11  23  44  72  92 121 174 229 276 315 384
#     4  12  25  41  62 101 141 172 209 267 338 392
#     4  11  22  38  62  99 137 175 215 261 318 392
#     4  11  25  40  63 100 140 172 207 267 342 391
#
# _framework density 21.696770999999998
#
# number of rings (size 3 to 8) (size 9 to 14) (size 15 to 20)
#    0.000    0.857    5.714    2.571    2.000    1.714 
#    0.000    3.571    0.000    0.000    0.000    0.000 
#    0.000    0.000    0.000    0.000    0.000    0.000 
#
# Total GULP energy -78177.410612 kJ/mol
# GULP energy per Si atom -5584.100758 kJ/mol
# Density = 2.164739 g / cm^3
# Si number density = 21.696771 Si / 1000 Ang^3
#
#
#
# Elastic Constant Matrix: (Units=GPa)
#
#
# Indices 1 2 3 4 5 6 
#
# 1 190.5019 39.1891 47.2314 -12.6507 10.6442 18.6555
# 2 39.1891 93.8563 19.2059 -0.6106 5.0653 4.6168
# 3 47.2314 19.2059 27.0517 2.9036 -2.0405 2.5952
# 4 -12.6507 -0.6106 2.9036 19.7991 -2.1256 -3.5154
# 5 10.6442 5.0653 -2.0405 -2.1256 50.7800 -0.5272
# 6 18.6555 4.6168 2.5952 -3.5154 -0.5272 26.6235
#
#
#
# Elastic Compliance Matrix: (Units=1/GPa)
#
#
# Indices 1 2 3 4 5 6 
#
# 1 0.011871 -0.000104 -0.021417 0.009511 -0.002992 -0.005016
# 2 -0.000104 0.012681 -0.008969 0.001275 -0.001562 -0.001115
# 3 -0.021417 -0.008969 0.083420 -0.024409 0.007770 0.005362
# 4 0.009511 0.001275 -0.024409 0.060770 -0.000521 0.003508
# 5 -0.002992 -0.001562 0.007770 -0.000521 0.020787 0.001953
# 6 -0.005016 -0.001115 0.005362 0.003508 0.001953 0.041248
#
#
# Mechanical properties :
#
#
# Convention : Reuss Voigt Hill
#
# Bulk Modulus (GPa) = 21.28113 58.07364 39.67738
# Shear Modulus (GPa) = 16.26438 33.15944 24.71191
#
# Velocity S-wave (km/s) = 2.74089 3.91360 3.37852
# Velocity P-wave (km/s) = 4.45493 6.87356 5.79190
#
# Compressibility (1/GPa) = 0.04698998
#
# Stress axis : x y z
#
# Youngs Moduli (GPa) = 84.24140 78.85976 11.98755
#
# Poissons Ratio (x) = 0.00818 0.25674
# Poissons Ratio (y) = 0.00874 0.10752
# Poissons Ratio (z) = 1.80423 0.70733
#
# Static dielectric constant tensor:
#      x y z
#    x 1.826850 0.027660 -0.022070 
#    y 0.027660 1.842530 -0.035210 
#    z -0.022070 -0.035210 1.783850 
# 
# From -- ./inp_files/424980.got.cif
#   From: 2010.05.17/outbox.cif.g08.bks.cpg/sg2_213_cif.got.tgz:424980.got - 2010.06.03 11:33:40.
