data_PCOD9055168
_publ_section_title
;
Structure prediction by ZEFSAII (Michael W. Deem and Ramdas Pophale) SiO2 
 PCOD9055168
Probable space group: P -1
;
_chemical_formula_sum "Si O2"
_cell_formula_units_Z 16
_cell_length_a 14.731079
_cell_length_b 14.292764
_cell_length_c 14.441010
_cell_angle_alpha 38.296120
_cell_angle_beta 150.601797
_cell_angle_gamma 151.059428
_cell_volume 719.019725
_symmetry_space_group_name_H-M "P -1"
_symmetry_group_IT_number 2
_symmetry_cell_setting 'triclinic'
loop_
_space_group_symop_operation_xyz
x,y,z
-x,-y,-z
loop_
_atom_site_type_symbol
_atom_site_label
_atom_site_fract_x
_atom_site_fract_y
_atom_site_fract_z
Si Si1 0.276230 0.270062 0.999378
Si Si2 0.429282 0.226380 0.980186
Si Si3 0.243947 0.948633 0.324802
Si Si4 0.711371 0.114284 0.022193
Si Si5 0.522179 0.229922 0.624730
Si Si6 0.795730 0.197008 0.395156
Si Si7 0.154507 0.215851 0.428944
Si Si8 0.692466 0.576496 0.408718
O O1 0.267241 0.173508 0.967757
O O2 0.014301 0.206742 0.835028
O O3 0.500000 0.500000 0.000000
O O4 0.304879 0.155582 0.192737
O O5 0.450392 0.391761 0.812673
O O6 0.321396 0.048580 0.949008
O O7 0.680715 0.298532 0.189095
O O8 0.171624 0.838700 0.444068
O O9 0.500000 0.000000 0.500000
O O10 0.962406 0.231388 0.205370
O O11 0.693970 0.259753 0.835250
O O12 0.500000 0.000000 0.000000
O O13 0.319651 0.231404 0.485718
O O14 0.622432 0.367482 0.519077
O O15 0.404010 0.016495 0.653940
O O16 0.035657 0.284403 0.488020
O O17 0.309363 0.359983 0.538203
O O18 0.000000 0.000000 0.500000
#
# Coordination Sequence:
#
# PCOD9055168 Si02
#       8
#     2   2   2   2   2   2   2   2
#     4  11  26  46  71 105 139 178 229 289 347 413
#     4  11  22  42  67  97 136 178 219 279 339 401
#     4  11  24  47  74  99 134 180 232 285 351 413
#     4  11  21  40  69  95 133 176 223 269 333 398
#     4  11  25  39  64  98 126 178 222 272 334 400
#     4  11  23  43  66  94 134 172 222 280 338 401
#     4  12  20  39  65  91 129 179 216 275 333 388
#     4  12  24  41  64  96 137 171 228 277 332 409
#
# _framework density 22.252518999999999
#
# number of rings (size 3 to 8) (size 9 to 14) (size 15 to 20)
#    0.000    0.750    6.250    1.125    1.750    2.000 
#    2.250    0.000    0.000    0.000    0.000    0.000 
#    0.000    0.000    0.000    0.000    0.000    0.000 
#
# Total GULP energy -89227.548950 kJ/mol
# GULP energy per Si atom -5576.721809 kJ/mol
# Density = 2.220187 g / cm^3
# Si number density = 22.252519 Si / 1000 Ang^3
#
#
#
# Elastic Constant Matrix: (Units=GPa)
#
#
# Indices 1 2 3 4 5 6 
#
# 1 148.7569 19.0389 46.3319 13.5579 26.9979 64.7166
# 2 19.0389 100.1170 43.5984 -13.5510 4.0025 35.0529
# 3 46.3319 43.5984 226.9194 -13.9784 1.0513 40.4035
# 4 13.5579 -13.5510 -13.9784 25.8922 14.2745 1.6371
# 5 26.9979 4.0025 1.0513 14.2745 42.3106 14.9765
# 6 64.7166 35.0529 40.4035 1.6371 14.9765 60.7022
#
#
#
# Elastic Compliance Matrix: (Units=1/GPa)
#
#
# Indices 1 2 3 4 5 6 
#
# 1 0.014128 0.002562 -0.000918 -0.004263 -0.002409 -0.015222
# 2 0.002562 0.014611 -0.001047 0.007423 -0.001882 -0.010207
# 3 -0.000918 -0.001047 0.005344 0.002741 0.000386 -0.002143
# 4 -0.004263 0.007423 0.002741 0.055651 -0.017246 0.001188
# 5 -0.002409 -0.001882 0.000386 -0.017246 0.032642 -0.004190
# 6 -0.015222 -0.010207 -0.002143 0.001188 -0.004190 0.041025
#
#
# Mechanical properties :
#
#
# Convention : Reuss Voigt Hill
#
# Bulk Modulus (GPa) = 28.34716 77.08130 52.71423
# Shear Modulus (GPa) = 28.74134 50.23594 39.48864
#
# Velocity S-wave (km/s) = 3.59778 4.75651 4.21713
# Velocity P-wave (km/s) = 5.47953 8.05484 6.88860
#
# Compressibility (1/GPa) = 0.03527691
#
# Stress axis : x y z
#
# Youngs Moduli (GPa) = 70.78036 68.44251 187.12573
#
# Poissons Ratio (x) = -0.17534 0.17179
# Poissons Ratio (y) = -0.18133 0.19589
# Poissons Ratio (z) = 0.06498 0.07165
#
# Static dielectric constant tensor:
#      x y z
#    x 1.791700 -0.146720 -0.057010 
#    y -0.146720 1.802320 -0.004720 
#    z -0.057010 -0.004720 1.859800 
# 
# From -- ./inp_files/534286.got.cif
#   From: 2010.05.17/outbox.cif.g08.bks.cpg/sg2_268_cif.got.tgz:534286.got - 2010.06.03 11:33:40.
