data_PCOD9055569
_publ_section_title
;
Structure prediction by ZEFSAII (Michael W. Deem and Ramdas Pophale) SiO2 
 PCOD9055569
Probable space group: P -1
;
_chemical_formula_sum "Si O2"
_cell_formula_units_Z 12
_cell_length_a 9.912609
_cell_length_b 12.984366
_cell_length_c 18.965168
_cell_angle_alpha 17.630445
_cell_angle_beta 60.531242
_cell_angle_gamma 60.068281
_cell_volume 639.452904
_symmetry_space_group_name_H-M "P -1"
_symmetry_group_IT_number 2
_symmetry_cell_setting 'triclinic'
loop_
_space_group_symop_operation_xyz
x,y,z
-x,-y,-z
loop_
_atom_site_type_symbol
_atom_site_label
_atom_site_fract_x
_atom_site_fract_y
_atom_site_fract_z
Si Si1 0.640017 0.193585 0.365454
Si Si2 0.121373 0.268565 0.309305
Si Si3 0.321774 0.700325 0.414046
Si Si4 0.172890 0.437604 0.030586
Si Si5 0.094243 0.272837 0.835763
Si Si6 0.662622 0.888870 0.993664
O O1 0.630789 0.554928 0.174032
O O2 0.500000 0.000000 0.500000
O O3 0.723443 0.937559 0.568091
O O4 0.736969 0.280014 0.214945
O O5 0.149376 0.468588 0.100192
O O6 0.043630 0.475709 0.259011
O O7 0.000000 0.000000 0.500000
O O8 0.500000 0.500000 0.500000
O O9 0.204563 0.446426 0.639592
O O10 0.269628 0.059261 0.236958
O O11 0.295171 0.828408 0.257349
O O12 0.000000 0.500000 0.000000
O O13 0.205733 0.168879 0.942398
O O14 0.000000 0.000000 0.000000
O O15 0.500000 0.000000 0.000000
#
# Coordination Sequence:
#
# PCOD9055569 Si02
#       6
#     2   2   2   2   2   2
#     4  11  25  41  67 101 128 164 220 274 318 382
#     4  12  21  43  70  91 128 174 218 263 324 389
#     4  11  22  40  68  96 130 174 215 266 332 388
#     4  11  21  42  70  94 127 176 219 263 329 391
#     4  12  26  43  66  99 131 171 221 270 319 388
#     4  11  23  43  65  90 134 173 206 261 334 383
#
# _framework density 18.766041999999999
#
# number of rings (size 3 to 8) (size 9 to 14) (size 15 to 20)
#    0.000    0.667    6.667    1.000    2.333    1.333 
#    3.000    0.000    0.000    0.000    0.000    0.000 
#    0.000    0.000    0.000    0.000    0.000    0.000 
#
# Total GULP energy -66858.470477 kJ/mol
# GULP energy per Si atom -5571.539206 kJ/mol
# Density = 1.872333 g / cm^3
# Si number density = 18.766042 Si / 1000 Ang^3
#
#
#
# Elastic Constant Matrix: (Units=GPa)
#
#
# Indices 1 2 3 4 5 6 
#
# 1 114.5564 24.4187 66.6600 10.4486 -11.3608 12.4694
# 2 24.4187 112.8337 56.4781 19.7639 -11.8193 1.3415
# 3 66.6600 56.4781 113.1839 32.7561 -8.5111 10.7932
# 4 10.4486 19.7639 32.7561 53.9494 -0.4802 2.7261
# 5 -11.3608 -11.8193 -8.5111 -0.4802 37.5924 -2.0808
# 6 12.4694 1.3415 10.7932 2.7261 -2.0808 29.5281
#
#
#
# Elastic Compliance Matrix: (Units=1/GPa)
#
#
# Indices 1 2 3 4 5 6 
#
# 1 0.014186 0.001474 -0.009390 0.002572 0.002509 -0.002686
# 2 0.001474 0.012329 -0.006730 -0.000769 0.002874 0.001551
# 3 -0.009390 -0.006730 0.020180 -0.007852 -0.000619 -0.002424
# 4 0.002572 -0.000769 -0.007852 0.023098 -0.000968 -0.000382
# 5 0.002509 0.002874 -0.000619 -0.000968 0.028172 0.001111
# 6 -0.002686 0.001551 -0.002424 -0.000382 0.001111 0.035929
#
#
# Mechanical properties :
#
#
# Convention : Reuss Voigt Hill
#
# Bulk Modulus (GPa) = 57.45507 70.63195 64.04351
# Shear Modulus (GPa) = 29.58811 37.08177 33.33494
#
# Velocity S-wave (km/s) = 3.97506 4.45005 4.21924
# Velocity P-wave (km/s) = 7.19382 8.00773 7.61166
#
# Compressibility (1/GPa) = 0.01740490
#
# Stress axis : x y z
#
# Youngs Moduli (GPa) = 70.49423 81.10661 49.55283
#
# Poissons Ratio (x) = -0.11958 0.46529
# Poissons Ratio (y) = -0.10393 0.33348
# Poissons Ratio (z) = 0.66193 0.54583
#
# Static dielectric constant tensor:
#      x y z
#    x 1.517900 -0.008120 0.093400 
#    y -0.008120 1.617390 -0.003090 
#    z 0.093400 -0.003090 1.572470 
# 
# From -- ./inp_files/149715.got.cif
#   From: 2010.05.17/outbox.cif.g08.bks.cpg/sg2_75_cif.got.tgz:149715.got - 2010.06.03 11:33:40.
