data_PCOD9055798
_publ_section_title
;
Structure prediction by ZEFSAII (Michael W. Deem and Ramdas Pophale) SiO2 
 PCOD9055798
Probable space group: P -1
;
_chemical_formula_sum "Si O2"
_cell_formula_units_Z 16
_cell_length_a 8.442379
_cell_length_b 5.572524
_cell_length_c 18.240951
_cell_angle_alpha 115.717593
_cell_angle_beta 81.619762
_cell_angle_gamma 120.571018
_cell_volume 662.563546
_symmetry_space_group_name_H-M "P -1"
_symmetry_group_IT_number 2
_symmetry_cell_setting 'triclinic'
loop_
_space_group_symop_operation_xyz
x,y,z
-x,-y,-z
loop_
_atom_site_type_symbol
_atom_site_label
_atom_site_fract_x
_atom_site_fract_y
_atom_site_fract_z
Si Si1 0.272958 0.836414 0.208986
Si Si2 0.211941 0.689261 0.490466
Si Si3 0.621346 0.862262 0.247086
Si Si4 0.362900 0.451607 0.330189
Si Si5 0.916512 0.474680 0.268537
Si Si6 0.369398 0.654339 0.037607
Si Si7 0.311187 0.394680 0.579788
Si Si8 0.308350 0.640871 0.882772
O O1 0.485432 0.955863 0.230407
O O2 0.245225 0.617625 0.112552
O O3 0.132161 0.651937 0.259575
O O4 0.263462 0.149990 0.245686
O O5 0.240087 0.558386 0.395155
O O6 0.297371 0.580209 0.535865
O O7 0.000000 0.500000 0.500000
O O8 0.275876 0.049366 0.524606
O O9 0.528180 0.732175 0.313147
O O10 0.609444 0.579907 0.167291
O O11 0.828751 0.138354 0.265977
O O12 0.480357 0.399246 0.377959
O O13 0.835758 0.630713 0.350366
O O14 0.827311 0.423620 0.185371
O O15 0.523611 0.013432 0.079945
O O16 0.500000 0.500000 0.000000
O O17 0.243752 0.577124 0.963036
#
# Coordination Sequence:
#
# PCOD9055798 Si02
#       8
#     2   2   2   2   2   2   2   2
#     4  12  26  44  74 107 140 197 244 301 368 443
#     4  12  29  47  73 114 152 191 254 316 372 446
#     4  12  22  47  69 103 145 192 238 303 363 440
#     4  12  26  47  75 103 146 200 248 294 379 446
#     4  12  26  44  72 109 146 187 250 303 366 436
#     4  11  21  43  72 101 141 191 239 296 370 437
#     4  12  25  48  74 107 151 201 244 310 377 445
#     4  11  22  43  73  97 147 188 238 303 362 439
#
# _framework density 24.148629
#
# number of rings (size 3 to 8) (size 9 to 14) (size 15 to 20)
#    0.000    0.250    6.250    2.625    3.500    1.500 
#    0.000    2.500    0.000    0.000    0.000    0.000 
#    0.000    0.000    0.000    0.000    0.000    0.000 
#
# Total GULP energy -89377.110002 kJ/mol
# GULP energy per Si atom -5586.069375 kJ/mol
# Density = 2.409367 g / cm^3
# Si number density = 24.148629 Si / 1000 Ang^3
#
#
#
# Elastic Constant Matrix: (Units=GPa)
#
#
# Indices 1 2 3 4 5 6 
#
# 1 40.8728 21.2081 36.2858 0.7820 -13.4343 -0.0966
# 2 21.2081 125.9897 57.2944 9.3707 -28.3038 -6.3210
# 3 36.2858 57.2944 164.9321 0.8658 -35.4730 -12.8782
# 4 0.7820 9.3707 0.8658 45.7224 -9.8755 -13.2924
# 5 -13.4343 -28.3038 -35.4730 -9.8755 50.6178 -10.4117
# 6 -0.0966 -6.3210 -12.8782 -13.2924 -10.4117 38.8855
#
#
#
# Elastic Compliance Matrix: (Units=1/GPa)
#
#
# Indices 1 2 3 4 5 6 
#
# 1 0.031583 -0.002152 -0.005646 0.000306 0.003029 -0.001226
# 2 -0.002152 0.010282 -0.002106 -0.000655 0.003945 0.001801
# 3 -0.005646 -0.002106 0.009725 0.003236 0.005913 0.005554
# 4 0.000306 -0.000655 0.003236 0.027989 0.010170 0.013257
# 5 0.003029 0.003945 0.005913 0.010170 0.031902 0.014626
# 6 -0.001226 0.001801 0.005554 0.013257 0.014626 0.036293
#
#
# Mechanical properties :
#
#
# Convention : Reuss Voigt Hill
#
# Bulk Modulus (GPa) = 31.46506 62.37458 46.91982
# Shear Modulus (GPa) = 28.06174 41.51223 34.78698
#
# Velocity S-wave (km/s) = 3.41257 4.15062 3.79956
# Velocity P-wave (km/s) = 5.34655 6.98968 6.22259
#
# Compressibility (1/GPa) = 0.03178129
#
# Stress axis : x y z
#
# Youngs Moduli (GPa) = 31.66297 97.25265 102.82464
#
# Poissons Ratio (x) = 0.20932 0.58059
# Poissons Ratio (y) = 0.06815 0.21653
# Poissons Ratio (z) = 0.17878 0.20479
#
# Static dielectric constant tensor:
#      x y z
#    x 1.959780 -0.063000 0.057160 
#    y -0.063000 1.930520 -0.033720 
#    z 0.057160 -0.033720 2.042650 
# 
# From -- ./inp_files/553838.got.cif
#   From: 2010.05.17/outbox.cif.g08.bks.cpg/sg2_277_cif.got.tgz:553838.got - 2010.06.03 11:33:40.
