data_PCOD9055868
_publ_section_title
;
Structure prediction by ZEFSAII (Michael W. Deem and Ramdas Pophale) SiO2 
 PCOD9055868
Probable space group: P -1
;
_chemical_formula_sum "Si O2"
_cell_formula_units_Z 16
_cell_length_a 15.267648
_cell_length_b 15.351659
_cell_length_c 16.835578
_cell_angle_alpha 33.270306
_cell_angle_beta 33.136629
_cell_angle_gamma 18.320696
_cell_volume 658.281738
_symmetry_space_group_name_H-M "P -1"
_symmetry_group_IT_number 2
_symmetry_cell_setting 'triclinic'
loop_
_space_group_symop_operation_xyz
x,y,z
-x,-y,-z
loop_
_atom_site_type_symbol
_atom_site_label
_atom_site_fract_x
_atom_site_fract_y
_atom_site_fract_z
Si Si1 0.454902 0.466667 0.688874
Si Si2 0.438430 0.306233 0.663500
Si Si3 0.083873 0.709693 0.202797
Si Si4 0.928297 0.781297 0.102746
Si Si5 0.966915 0.941801 0.806265
Si Si6 0.834767 0.731120 0.727830
Si Si7 0.420369 0.746592 0.722441
Si Si8 0.121954 0.432518 0.587353
O O1 0.500471 0.302195 0.709669
O O2 0.445136 0.645928 0.516497
O O3 0.155255 0.688750 0.792758
O O4 0.723639 0.238032 0.718898
O O5 0.101827 0.564712 0.706795
O O6 0.577455 0.031556 0.735662
O O7 0.051340 0.789079 0.074872
O O8 0.092546 0.508952 0.341029
O O9 0.363303 0.534500 0.172041
O O10 0.796871 0.981360 0.262642
O O11 0.164674 0.460523 0.135298
O O12 0.730123 0.823372 0.272147
O O13 0.818070 0.963061 0.972548
O O14 0.213312 0.831753 0.752032
O O15 0.939148 0.691940 0.588749
O O16 0.645042 0.668525 0.562278
#
# Coordination Sequence:
#
# PCOD9055868 Si02
#       8
#     2   2   2   2   2   2   2   2
#     4  11  26  41  68  94 139 161 213 276 332 374
#     4  11  21  44  67 101 121 168 215 273 323 388
#     4   9  23  38  63  94 128 172 216 277 314 373
#     4   8  24  44  63  95 140 174 210 267 330 384
#     4  12  25  44  62  99 135 176 212 266 328 395
#     4   9  21  38  68  91 130 168 217 253 332 388
#     4  12  21  39  66  92 128 170 231 264 315 382
#     4   8  21  40  62  97 129 172 211 276 316 374
#
# _framework density 24.305702
#
# number of rings (size 3 to 8) (size 9 to 14) (size 15 to 20)
#    1.500    0.250    0.000    3.750    0.000   11.000 
#    0.000    3.750    0.000    0.000    0.000    0.000 
#    0.000    0.000    0.000    0.000    0.000    0.000 
#
# Total GULP energy -89352.086361 kJ/mol
# GULP energy per Si atom -5584.505398 kJ/mol
# Density = 2.425038 g / cm^3
# Si number density = 24.305702 Si / 1000 Ang^3
#
#
#
# Elastic Constant Matrix: (Units=GPa)
#
#
# Indices 1 2 3 4 5 6 
#
# 1 104.1992 20.6310 25.9703 0.8039 15.4092 8.6090
# 2 20.6310 51.8261 4.8038 10.7491 5.1805 -7.7281
# 3 25.9703 4.8038 60.7112 14.3079 21.1781 4.6388
# 4 0.8039 10.7491 14.3079 23.8677 -2.0014 -5.9209
# 5 15.4092 5.1805 21.1781 -2.0014 31.1422 -2.8727
# 6 8.6090 -7.7281 4.6388 -5.9209 -2.8727 32.2283
#
#
#
# Elastic Compliance Matrix: (Units=1/GPa)
#
#
# Indices 1 2 3 4 5 6 
#
# 1 0.012482 -0.005672 -0.004908 0.004066 -0.001949 -0.003415
# 2 -0.005672 0.025035 0.005361 -0.013843 -0.005551 0.003709
# 3 -0.004908 0.005361 0.033370 -0.026521 -0.023709 -0.009192
# 4 0.004066 -0.013843 -0.026521 0.069469 0.024113 0.014324
# 5 -0.001949 -0.005551 -0.023709 0.024113 0.052753 0.011734
# 6 -0.003415 0.003709 -0.009192 0.014324 0.011734 0.037831
#
#
# Mechanical properties :
#
#
# Convention : Reuss Voigt Hill
#
# Bulk Modulus (GPa) = 16.54287 35.50519 26.02403
# Shear Modulus (GPa) = 19.11838 28.46972 23.79405
#
# Velocity S-wave (km/s) = 2.80765 3.42617 3.13221
# Velocity P-wave (km/s) = 4.16311 5.50372 4.87967
#
# Compressibility (1/GPa) = 0.06044901
#
# Stress axis : x y z
#
# Youngs Moduli (GPa) = 80.11411 39.94363 29.96712
#
# Poissons Ratio (x) = 0.22655 0.14709
# Poissons Ratio (y) = 0.45438 -0.16065
# Poissons Ratio (z) = 0.39322 -0.21413
#
# Static dielectric constant tensor:
#      x y z
#    x 1.988560 -0.027400 -0.004260 
#    y -0.027400 1.920210 -0.022280 
#    z -0.004260 -0.022280 1.986790 
# 
# From -- ./inp_files/574019.got.cif
#   From: 2010.05.17/outbox.cif.g08.bks.cpg/sg2_288_cif.got.tgz:574019.got - 2010.06.03 11:33:40.
