data_PCOD9055516
_publ_section_title
;
Structure prediction by ZEFSAII (Michael W. Deem and Ramdas Pophale) SiO2 
 PCOD9055516
Probable space group: P -1
;
_chemical_formula_sum "Si O2"
_cell_formula_units_Z 12
_cell_length_a 7.671299
_cell_length_b 14.710842
_cell_length_c 5.264649
_cell_angle_alpha 70.297393
_cell_angle_beta 116.281951
_cell_angle_gamma 73.884149
_cell_volume 432.670431
_symmetry_space_group_name_H-M "P -1"
_symmetry_group_IT_number 2
_symmetry_cell_setting 'triclinic'
loop_
_space_group_symop_operation_xyz
x,y,z
-x,-y,-z
loop_
_atom_site_type_symbol
_atom_site_label
_atom_site_fract_x
_atom_site_fract_y
_atom_site_fract_z
Si Si1 0.974209 0.395444 0.159245
Si Si2 0.644778 0.039362 0.394244
Si Si3 0.521270 0.273351 0.964223
Si Si4 0.996515 0.291619 0.776436
Si Si5 0.471177 0.405028 0.308229
Si Si6 0.012926 0.890498 0.367599
O O1 0.075980 0.303026 0.092931
O O2 0.700378 0.462985 0.919949
O O3 0.063447 0.345489 0.539094
O O4 0.000000 0.500000 0.000000
O O5 0.788491 0.965194 0.315507
O O6 0.500000 0.000000 0.500000
O O7 0.486723 0.166903 0.076619
O O8 0.838417 0.051716 0.660091
O O9 0.435316 0.354629 0.073548
O O10 0.798189 0.208246 0.234207
O O11 0.448969 0.336982 0.593549
O O12 0.726997 0.373324 0.523958
O O13 0.030575 0.172965 0.826201
#
# Coordination Sequence:
#
# PCOD9055516 Si02
#       6
#     2   2   2   2   2   2
#     4  12  26  42  66 101 136 172 231 285 340 402
#     4   9  18  40  69 101 141 178 227 286 346 404
#     4   9  20  38  65  98 132 172 230 276 330 405
#     4  11  22  43  68  94 133 185 222 276 344 408
#     4  11  21  42  68  93 129 183 226 268 336 413
#     4   8  19  39  66 102 137 178 236 271 346 416
#
# _framework density 27.734736999999999
#
# number of rings (size 3 to 8) (size 9 to 14) (size 15 to 20)
#    1.000    1.000    0.000    4.500    0.000    1.333 
#    0.000   11.667    0.000    0.000    0.000    0.000 
#    0.000    0.000    0.000    0.000    0.000    0.000 
#
# Total GULP energy -67281.345005 kJ/mol
# GULP energy per Si atom -5606.778750 kJ/mol
# Density = 2.767161 g / cm^3
# Si number density = 27.734737 Si / 1000 Ang^3
#
#
#
# Elastic Constant Matrix: (Units=GPa)
#
#
# Indices 1 2 3 4 5 6 
#
# 1 187.6839 51.3789 41.5820 -0.5110 -37.2048 9.7964
# 2 51.3789 196.4001 60.2661 17.0031 -27.9418 -13.4451
# 3 41.5820 60.2661 153.0769 -4.0664 -27.3527 -3.0110
# 4 -0.5110 17.0031 -4.0664 55.5109 -3.3441 -1.8988
# 5 -37.2048 -27.9418 -27.3527 -3.3441 54.3866 -14.0694
# 6 9.7964 -13.4451 -3.0110 -1.8988 -14.0694 40.4379
#
#
#
# Elastic Compliance Matrix: (Units=1/GPa)
#
#
# Indices 1 2 3 4 5 6 
#
# 1 0.006497 -0.001099 -0.000739 0.000515 0.003329 -0.000812
# 2 -0.001099 0.006683 -0.001893 -0.001945 0.002411 0.003095
# 3 -0.000739 -0.001893 0.008075 0.001388 0.002994 0.001258
# 4 0.000515 -0.001945 0.001388 0.018824 0.001390 0.000699
# 5 0.003329 0.002411 0.002994 0.001390 0.025898 0.009294
# 6 -0.000812 0.003095 0.001258 0.000699 0.009294 0.029315
#
#
# Mechanical properties :
#
#
# Convention : Reuss Voigt Hill
#
# Bulk Modulus (GPa) = 72.50219 93.73500 83.11859
# Shear Modulus (GPa) = 46.57559 55.66269 51.11914
#
# Velocity S-wave (km/s) = 4.10240 4.48478 4.29784
# Velocity P-wave (km/s) = 6.97407 7.79025 7.39343
#
# Compressibility (1/GPa) = 0.01379269
#
# Stress axis : x y z
#
# Youngs Moduli (GPa) = 153.92773 149.62986 123.83612
#
# Poissons Ratio (x) = 0.16447 0.09156
# Poissons Ratio (y) = 0.16919 0.23437
# Poissons Ratio (z) = 0.11381 0.28318
#
# Static dielectric constant tensor:
#      x y z
#    x 2.433290 0.011940 0.068760 
#    y 0.011940 2.100980 -0.004840 
#    z 0.068760 -0.004840 2.145620 
# 
# From -- ./inp_files/32204.got.cif
#   From: 2010.05.17/outbox.cif.g08.bks.cpg/sg2_17_cif.got.tgz:32204.got - 2010.06.03 11:33:40.
