data_PCOD9055950
_publ_section_title
;
Structure prediction by ZEFSAII (Michael W. Deem and Ramdas Pophale) SiO2 
 PCOD9055950
Probable space group: P -1
;
_chemical_formula_sum "Si O2"
_cell_formula_units_Z 16
_cell_length_a 11.423388
_cell_length_b 9.546412
_cell_length_c 17.327797
_cell_angle_alpha 131.495358
_cell_angle_beta 30.657864
_cell_angle_gamma 128.301905
_cell_volume 715.530122
_symmetry_space_group_name_H-M "P -1"
_symmetry_group_IT_number 2
_symmetry_cell_setting 'triclinic'
loop_
_space_group_symop_operation_xyz
x,y,z
-x,-y,-z
loop_
_atom_site_type_symbol
_atom_site_label
_atom_site_fract_x
_atom_site_fract_y
_atom_site_fract_z
Si Si1 0.910018 0.186894 0.653475
Si Si2 0.792060 0.767413 0.077269
Si Si3 0.650202 0.682909 0.446221
Si Si4 0.529050 0.916581 0.845739
Si Si5 0.635929 0.471550 0.833640
Si Si6 0.702494 0.150075 0.202388
Si Si7 0.181398 0.145301 0.208266
Si Si8 0.727537 0.898025 0.335327
O O1 0.817174 0.323485 0.693160
O O2 0.112476 0.282907 0.628357
O O3 0.686814 0.108764 0.801791
O O4 0.000000 0.000000 0.500000
O O5 0.571541 0.610229 0.136138
O O6 0.802395 0.847479 0.187917
O O7 0.751523 0.933946 0.100862
O O8 0.048395 0.722146 0.892236
O O9 0.500000 0.500000 0.500000
O O10 0.477911 0.834348 0.621529
O O11 0.695405 0.713444 0.341224
O O12 0.429889 0.814707 0.788015
O O13 0.697475 0.807542 0.761043
O O14 0.318291 0.980226 0.036274
O O15 0.772823 0.668582 0.800775
O O16 0.500000 0.500000 0.000000
O O17 0.920280 0.049308 0.321678
O O18 0.500000 0.000000 0.500000
#
# Coordination Sequence:
#
# PCOD9055950 Si02
#       8
#     2   2   2   2   2   2   2   2
#     4  12  24  45  72  97 141 187 233 285 357 425
#     4  11  24  43  74 105 140 182 237 290 356 423
#     4  12  28  44  69 105 140 182 233 292 356 420
#     4  11  21  44  72  98 135 190 235 279 355 424
#     4  12  26  44  73 111 137 180 249 304 342 419
#     4  11  22  44  73 100 139 189 230 284 357 429
#     4  11  25  43  71 104 139 184 235 295 351 421
#     4  12  26  46  69 101 147 190 228 287 364 426
#
# _framework density 22.361042999999999
#
# number of rings (size 3 to 8) (size 9 to 14) (size 15 to 20)
#    0.000    0.500    7.500    0.000    5.250    1.000 
#    0.000    2.500    0.000    0.000    0.000    0.000 
#    0.000    0.000    0.000    0.000    0.000    0.000 
#
# Total GULP energy -89442.774074 kJ/mol
# GULP energy per Si atom -5590.173380 kJ/mol
# Density = 2.231015 g / cm^3
# Si number density = 22.361043 Si / 1000 Ang^3
#
#
#
# Elastic Constant Matrix: (Units=GPa)
#
#
# Indices 1 2 3 4 5 6 
#
# 1 123.1677 31.6161 33.3470 -7.5726 -12.6323 -10.8232
# 2 31.6161 89.6450 1.9042 -13.6102 -14.8496 -14.4129
# 3 33.3470 1.9042 68.5108 -11.7681 -22.8576 4.2075
# 4 -7.5726 -13.6102 -11.7681 28.4783 7.5611 0.2901
# 5 -12.6323 -14.8496 -22.8576 7.5611 38.3224 -10.2114
# 6 -10.8232 -14.4129 4.2075 0.2901 -10.2114 30.0585
#
#
#
# Elastic Compliance Matrix: (Units=1/GPa)
#
#
# Indices 1 2 3 4 5 6 
#
# 1 0.010647 -0.003317 -0.005462 -0.001034 -0.000028 0.003008
# 2 -0.003317 0.016118 0.004737 0.006268 0.009114 0.008907
# 3 -0.005462 0.004737 0.022328 0.006739 0.012374 0.001318
# 4 -0.001034 0.006268 0.006739 0.041096 -0.001821 0.000674
# 5 -0.000028 0.009114 0.012374 -0.001821 0.041850 0.016863
# 6 0.003008 0.008907 0.001318 0.000674 0.016863 0.044160
#
#
# Mechanical properties :
#
#
# Convention : Reuss Voigt Hill
#
# Bulk Modulus (GPa) = 24.38480 46.11755 35.25118
# Shear Modulus (GPa) = 25.25850 33.66894 29.46372
#
# Velocity S-wave (km/s) = 3.36456 3.88454 3.63386
# Velocity P-wave (km/s) = 5.10122 6.38658 5.77974
#
# Compressibility (1/GPa) = 0.04100915
#
# Stress axis : x y z
#
# Youngs Moduli (GPa) = 93.92189 62.04383 44.78623
#
# Poissons Ratio (x) = 0.20580 0.24462
# Poissons Ratio (y) = 0.31154 -0.21215
# Poissons Ratio (z) = 0.51299 -0.29390
#
# Static dielectric constant tensor:
#      x y z
#    x 1.852000 -0.008330 0.005290 
#    y -0.008330 1.853320 0.061920 
#    z 0.005290 0.061920 1.956860 
# 
# From -- ./inp_files/226127.got.cif
#   From: 2010.05.17/outbox.cif.g08.bks.cpg/sg2_114_cif.got.tgz:226127.got - 2010.06.03 11:33:40.
