data_PCOD9055065
_publ_section_title
;
Structure prediction by ZEFSAII (Michael W. Deem and Ramdas Pophale) SiO2 
 PCOD9055065
Probable space group: P -1
;
_chemical_formula_sum "Si O2"
_cell_formula_units_Z 16
_cell_length_a 23.121671
_cell_length_b 28.388562
_cell_length_c 6.866394
_cell_angle_alpha 101.934211
_cell_angle_beta 74.492433
_cell_angle_gamma 168.882746
_cell_volume 799.081281
_symmetry_space_group_name_H-M "P -1"
_symmetry_group_IT_number 2
_symmetry_cell_setting 'triclinic'
loop_
_space_group_symop_operation_xyz
x,y,z
-x,-y,-z
loop_
_atom_site_type_symbol
_atom_site_label
_atom_site_fract_x
_atom_site_fract_y
_atom_site_fract_z
Si Si1 0.843843 0.174606 0.468037
Si Si2 0.858816 0.020747 0.098291
Si Si3 0.233184 0.222982 0.062955
Si Si4 0.862960 0.277453 0.840578
Si Si5 0.819582 0.402348 0.479531
Si Si6 0.165891 0.331630 0.353744
Si Si7 0.643730 0.564409 0.334494
Si Si8 0.836545 0.507915 0.837250
O O1 0.864903 0.231220 0.665263
O O2 0.122106 0.353885 0.386907
O O3 0.893257 0.244445 0.286310
O O4 0.518421 0.887742 0.522906
O O5 0.038540 0.118624 0.125101
O O6 0.074217 0.202300 0.871650
O O7 0.870978 0.072950 0.291364
O O8 0.501147 0.731720 0.099234
O O9 0.537968 0.458349 0.849297
O O10 0.364913 0.321129 0.246384
O O11 0.000000 0.000000 0.000000
O O12 0.999975 0.430167 0.721777
O O13 0.080622 0.439329 0.971589
O O14 0.500000 0.000000 0.000000
O O15 0.810815 0.438239 0.678001
O O16 0.000000 0.500000 0.500000
O O17 0.218602 0.359641 0.553131
O O18 0.500000 0.500000 0.500000
#
# Coordination Sequence:
#
# PCOD9055065 Si02
#       8
#     2   2   2   2   2   2   2   2
#     4  11  25  43  68  98 134 172 222 275 329 396
#     4  11  22  40  65  91 131 172 222 274 326 386
#     4  11  23  39  61  92 131 172 219 273 325 382
#     4  11  26  46  69 104 136 168 221 275 330 407
#     4  11  24  45  72  97 132 178 211 269 340 398
#     4  11  22  42  64  93 129 174 225 270 326 391
#     4  11  21  40  65  88 124 181 222 268 328 391
#     4  11  25  44  68  99 135 174 220 278 331 393
#
# _framework density 20.022994000000001
#
# number of rings (size 3 to 8) (size 9 to 14) (size 15 to 20)
#    0.000    1.000    3.750    3.000    1.750    8.500 
#    2.250    0.000    0.000    0.000    0.000    0.000 
#    0.000    0.000    0.000    0.000    0.000    0.000 
#
# Total GULP energy -89346.028921 kJ/mol
# GULP energy per Si atom -5584.126808 kJ/mol
# Density = 1.997742 g / cm^3
# Si number density = 20.022994 Si / 1000 Ang^3
#
#
#
# Elastic Constant Matrix: (Units=GPa)
#
#
# Indices 1 2 3 4 5 6 
#
# 1 133.2579 40.1420 54.6834 -0.3491 7.3365 -4.7676
# 2 40.1420 117.0341 45.3881 8.3863 11.1307 -10.9157
# 3 54.6834 45.3881 121.2532 19.3773 20.7737 -5.5233
# 4 -0.3491 8.3863 19.3773 22.6243 6.2197 -1.6926
# 5 7.3365 11.1307 20.7737 6.2197 34.1120 1.2506
# 6 -4.7676 -10.9157 -5.5233 -1.6926 1.2506 39.8908
#
#
#
# Elastic Compliance Matrix: (Units=1/GPa)
#
#
# Indices 1 2 3 4 5 6 
#
# 1 0.009979 -0.002012 -0.004563 0.004706 0.000424 0.000197
# 2 -0.002012 0.010655 -0.002543 -0.001258 -0.001351 0.002312
# 3 -0.004563 -0.002543 0.013599 -0.009436 -0.004764 0.000391
# 4 0.004706 -0.001258 -0.009436 0.054241 -0.004795 0.001363
# 5 0.000424 -0.001351 -0.004764 -0.004795 0.033522 -0.002233
# 6 0.000197 0.002312 0.000391 0.001363 -0.002233 0.025907
#
#
# Mechanical properties :
#
#
# Convention : Reuss Voigt Hill
#
# Bulk Modulus (GPa) = 62.51419 72.44137 67.47778
# Shear Modulus (GPa) = 29.15932 34.74753 31.95342
#
# Velocity S-wave (km/s) = 3.82028 4.17031 3.99913
# Velocity P-wave (km/s) = 7.12379 7.71014 7.42276
#
# Compressibility (1/GPa) = 0.01599637
#
# Stress axis : x y z
#
# Youngs Moduli (GPa) = 100.21217 93.84997 73.53538
#
# Poissons Ratio (x) = 0.18886 0.33552
# Poissons Ratio (y) = 0.20166 0.18702
# Poissons Ratio (z) = 0.45724 0.23868
#
# Static dielectric constant tensor:
#      x y z
#    x 1.707050 0.028640 -0.007190 
#    y 0.028640 1.757980 -0.020620 
#    z -0.007190 -0.020620 1.684710 
# 
# From -- ./inp_files/125356.got.cif
#   From: 2010.05.17/outbox.cif.g08.bks.cpg/sg2_63_cif.got.tgz:125356.got - 2010.06.03 11:33:40.
