data_PCOD9055916
_publ_section_title
;
Structure prediction by ZEFSAII (Michael W. Deem and Ramdas Pophale) SiO2 
 PCOD9055916
Probable space group: P -1
;
_chemical_formula_sum "Si O2"
_cell_formula_units_Z 14
_cell_length_a 10.768807
_cell_length_b 13.876540
_cell_length_c 8.114141
_cell_angle_alpha 51.272563
_cell_angle_beta 134.853556
_cell_angle_gamma 104.118985
_cell_volume 626.451467
_symmetry_space_group_name_H-M "P -1"
_symmetry_group_IT_number 2
_symmetry_cell_setting 'triclinic'
loop_
_space_group_symop_operation_xyz
x,y,z
-x,-y,-z
loop_
_atom_site_type_symbol
_atom_site_label
_atom_site_fract_x
_atom_site_fract_y
_atom_site_fract_z
Si Si1 0.857623 0.185061 0.714133
Si Si2 0.993986 0.365035 0.223819
Si Si3 0.772978 0.844732 0.083759
Si Si4 0.559290 0.930165 0.304192
Si Si5 0.176581 0.534767 0.697335
Si Si6 0.010975 0.121732 0.273844
Si Si7 0.452030 0.256730 0.267535
O O1 0.825341 0.339541 0.539754
O O2 0.658689 0.187661 0.459881
O O3 0.038141 0.131304 0.821594
O O4 0.895135 0.130123 0.991136
O O5 0.856008 0.418969 0.192144
O O6 0.174942 0.262814 0.603020
O O7 0.953303 0.261668 0.170109
O O8 0.000000 0.500000 0.000000
O O9 0.700270 0.787979 0.920142
O O10 0.597737 0.971995 0.830385
O O11 0.774017 0.914431 0.540904
O O12 0.550038 0.787981 0.496521
O O13 0.500000 0.000000 0.000000
O O14 0.000000 0.500000 0.500000
O O15 0.367956 0.412239 0.998340
O O16 0.000000 0.000000 0.500000
#
# Coordination Sequence:
#
# PCOD9055916 Si02
#       7
#     2   2   2   2   2   2   2
#     4  11  25  44  70  99 142 184 242 299 360 429
#     4  11  23  43  75 102 142 193 238 295 367 424
#     4  11  25  44  72 104 139 190 241 299 359 432
#     4  12  24  44  68 100 143 188 237 295 369 423
#     4  11  21  44  71 102 139 186 244 303 360 426
#     4  12  26  47  71 107 152 189 240 305 363 437
#     4  12  24  44  72 102 140 189 244 300 359 438
#
# _framework density 22.348102000000001
#
# number of rings (size 3 to 8) (size 9 to 14) (size 15 to 20)
#    0.000    0.571    5.714    3.429    0.000    2.857 
#    0.000    0.714    0.000    0.000    0.000    0.000 
#    0.000    0.000    0.000    0.000    0.000    0.000 
#
# Total GULP energy -78157.899714 kJ/mol
# GULP energy per Si atom -5582.707122 kJ/mol
# Density = 2.229724 g / cm^3
# Si number density = 22.348102 Si / 1000 Ang^3
#
#
#
# Elastic Constant Matrix: (Units=GPa)
#
#
# Indices 1 2 3 4 5 6 
#
# 1 99.8361 41.1401 46.8609 -12.1310 11.6083 6.8887
# 2 41.1401 104.1866 40.4624 -19.1189 -6.1274 -2.2873
# 3 46.8609 40.4624 104.4722 -4.3140 -6.2983 -0.7303
# 4 -12.1310 -19.1189 -4.3140 33.6231 11.2653 2.2173
# 5 11.6083 -6.1274 -6.2983 11.2653 61.1166 -6.8728
# 6 6.8887 -2.2873 -0.7303 2.2173 -6.8728 39.4651
#
#
#
# Elastic Compliance Matrix: (Units=1/GPa)
#
#
# Indices 1 2 3 4 5 6 
#
# 1 0.015700 -0.003402 -0.005868 0.005046 -0.005337 -0.004259
# 2 -0.003402 0.013343 -0.003358 0.005611 0.000729 0.001117
# 3 -0.005868 -0.003358 0.013557 -0.003413 0.003006 0.001796
# 4 0.005046 0.005611 -0.003413 0.037296 -0.008086 -0.004122
# 5 -0.005337 0.000729 0.003006 -0.008086 0.019804 0.004933
# 6 -0.004259 0.001117 0.001796 -0.004122 0.004933 0.027271
#
#
# Mechanical properties :
#
#
# Convention : Reuss Voigt Hill
#
# Bulk Modulus (GPa) = 57.65640 62.82462 60.24051
# Shear Modulus (GPa) = 31.64396 38.84306 35.24351
#
# Velocity S-wave (km/s) = 3.76700 4.17357 3.97549
# Velocity P-wave (km/s) = 6.69146 7.16922 6.93446
#
# Compressibility (1/GPa) = 0.01734413
#
# Stress axis : x y z
#
# Youngs Moduli (GPa) = 63.69393 74.94697 73.76025
#
# Poissons Ratio (x) = 0.25497 0.43281
# Poissons Ratio (y) = 0.21669 0.24771
# Poissons Ratio (z) = 0.37374 0.25169
#
# Static dielectric constant tensor:
#      x y z
#    x 1.858890 0.010890 -0.005230 
#    y 0.010890 1.861880 -0.028480 
#    z -0.005230 -0.028480 1.863260 
# 
# From -- ./inp_files/271948.got.cif
#   From: 2010.05.17/outbox.cif.g08.bks.cpg/sg2_136_cif.got.tgz:271948.got - 2010.06.03 11:33:40.
