data_PCOD9055783
_publ_section_title
;
Structure prediction by ZEFSAII (Michael W. Deem and Ramdas Pophale) SiO2 
 PCOD9055783
Probable space group: P -1
;
_chemical_formula_sum "Si O2"
_cell_formula_units_Z 14
_cell_length_a 7.174427
_cell_length_b 11.815257
_cell_length_c 10.784635
_cell_angle_alpha 143.214749
_cell_angle_beta 100.536039
_cell_angle_gamma 75.437588
_cell_volume 529.575057
_symmetry_space_group_name_H-M "P -1"
_symmetry_group_IT_number 2
_symmetry_cell_setting 'triclinic'
loop_
_space_group_symop_operation_xyz
x,y,z
-x,-y,-z
loop_
_atom_site_type_symbol
_atom_site_label
_atom_site_fract_x
_atom_site_fract_y
_atom_site_fract_z
Si Si1 0.770934 0.994047 0.216773
Si Si2 0.678077 0.370686 0.648668
Si Si3 0.180579 0.352506 0.937194
Si Si4 0.139608 0.286670 0.243685
Si Si5 0.673101 0.053238 0.881386
Si Si6 0.571922 0.189876 0.724089
Si Si7 0.294414 0.562373 0.651884
O O1 0.853550 0.860542 0.225529
O O2 0.540576 0.997562 0.191318
O O3 0.790665 0.211981 0.431418
O O4 0.845824 0.875976 0.002069
O O5 0.680261 0.270635 0.696107
O O6 0.455458 0.435557 0.643496
O O7 0.765178 0.560310 0.848694
O O8 0.372416 0.331696 0.859391
O O9 0.000000 0.500000 0.000000
O O10 0.290659 0.433755 0.413348
O O11 0.928517 0.412179 0.313875
O O12 0.180623 0.141485 0.240338
O O13 0.690749 0.142454 0.825043
O O14 0.671999 0.219126 0.131091
O O15 0.500000 0.000000 0.500000
#
# Coordination Sequence:
#
# PCOD9055783 Si02
#       7
#     2   2   2   2   2   2   2
#     4  11  24  44  65  97 133 170 215 269 327 382
#     4  12  23  45  69  96 131 179 208 268 334 384
#     4  11  26  44  64 101 133 169 222 266 323 392
#     4  11  25  43  65  97 132 169 217 275 310 384
#     4  11  22  42  66  95 129 169 219 261 323 387
#     4  11  21  43  71  94 131 172 212 267 326 391
#     4  11  24  42  67  96 127 172 223 258 327 381
#
# _framework density 26.436288999999999
#
# number of rings (size 3 to 8) (size 9 to 14) (size 15 to 20)
#    0.000    0.857    7.143    1.286    2.000    2.286 
#    2.571    0.000    0.000    0.000    0.000    0.000 
#    0.000    0.000    0.000    0.000    0.000    0.000 
#
# Total GULP energy -78356.006171 kJ/mol
# GULP energy per Si atom -5596.857584 kJ/mol
# Density = 2.637612 g / cm^3
# Si number density = 26.436289 Si / 1000 Ang^3
#
#
#
# Elastic Constant Matrix: (Units=GPa)
#
#
# Indices 1 2 3 4 5 6 
#
# 1 44.4163 31.7195 16.2199 6.4338 -8.1161 -14.4470
# 2 31.7195 144.4745 45.0290 18.7849 -16.1272 -21.3612
# 3 16.2199 45.0290 195.9655 21.0184 -4.9349 -10.0050
# 4 6.4338 18.7849 21.0184 48.3326 7.3996 2.0260
# 5 -8.1161 -16.1272 -4.9349 7.3996 38.1050 2.5938
# 6 -14.4470 -21.3612 -10.0050 2.0260 2.5938 36.3553
#
#
#
# Elastic Compliance Matrix: (Units=1/GPa)
#
#
# Indices 1 2 3 4 5 6 
#
# 1 0.029950 -0.004102 -0.000608 -0.003211 0.004563 0.009177
# 2 -0.004102 0.009544 -0.001231 -0.003299 0.003403 0.003580
# 3 -0.000608 -0.001231 0.005698 -0.002013 0.000432 0.000684
# 4 -0.003211 -0.003299 -0.002013 0.024509 -0.006784 -0.004650
# 5 0.004563 0.003403 0.000432 -0.006784 0.029880 0.002178
# 6 0.009177 0.003580 0.000684 -0.004650 0.002178 0.033549
#
#
# Mechanical properties :
#
#
# Convention : Reuss Voigt Hill
#
# Bulk Modulus (GPa) = 30.02253 63.42148 46.72200
# Shear Modulus (GPa) = 32.02747 44.01778 38.02262
#
# Velocity S-wave (km/s) = 3.48443 4.08493 3.79657
# Velocity P-wave (km/s) = 5.25067 6.80377 6.07704
#
# Compressibility (1/GPa) = 0.03330832
#
# Stress axis : x y z
#
# Youngs Moduli (GPa) = 33.38912 104.77646 175.50235
#
# Poissons Ratio (x) = 0.42980 0.10679
# Poissons Ratio (y) = 0.13697 0.21608
# Poissons Ratio (z) = 0.02032 0.12900
#
# Static dielectric constant tensor:
#      x y z
#    x 2.075480 0.082700 -0.017690 
#    y 0.082700 2.094490 -0.060530 
#    z -0.017690 -0.060530 2.112390 
# 
# From -- ./inp_files/176951.got.cif
#   From: 2010.05.17/outbox.cif.g08.bks.cpg/sg2_89_cif.got.tgz:176951.got - 2010.06.03 11:33:40.
