data_PCOD9055593
_publ_section_title
;
Structure prediction by ZEFSAII (Michael W. Deem and Ramdas Pophale) SiO2 
 PCOD9055593
Probable space group: P -1
;
_chemical_formula_sum "Si O2"
_cell_formula_units_Z 14
_cell_length_a 13.789249
_cell_length_b 11.115300
_cell_length_c 8.457817
_cell_angle_alpha 122.050734
_cell_angle_beta 104.751012
_cell_angle_gamma 34.257442
_cell_volume 570.662753
_symmetry_space_group_name_H-M "P -1"
_symmetry_group_IT_number 2
_symmetry_cell_setting 'triclinic'
loop_
_space_group_symop_operation_xyz
x,y,z
-x,-y,-z
loop_
_atom_site_type_symbol
_atom_site_label
_atom_site_fract_x
_atom_site_fract_y
_atom_site_fract_z
Si Si1 0.137762 0.170072 0.677216
Si Si2 0.735923 0.546508 0.815103
Si Si3 0.743248 0.477701 0.415243
Si Si4 0.660476 0.065939 0.077894
Si Si5 0.046354 0.535426 0.696120
Si Si6 0.892473 0.077918 0.726342
Si Si7 0.630603 0.385522 0.116432
O O1 0.282089 0.997807 0.759944
O O2 0.160334 0.292183 0.683411
O O3 0.920621 0.423028 0.830034
O O4 0.145480 0.024335 0.458163
O O5 0.701412 0.599547 0.648628
O O6 0.812116 0.305734 0.752271
O O7 0.519437 0.812836 0.966065
O O8 0.845514 0.457959 0.320444
O O9 0.588527 0.581705 0.323789
O O10 0.885744 0.185286 0.334750
O O11 0.612403 0.283102 0.161824
O O12 0.849911 0.805451 0.882747
O O13 0.000000 0.500000 0.500000
O O14 0.817601 0.171008 0.939727
O O15 0.500000 0.500000 0.000000
#
# Coordination Sequence:
#
# PCOD9055593 Si02
#       7
#     2   2   2   2   2   2   2
#     4  11  25  46  72  99 144 189 229 286 350 413
#     4  11  24  43  70 112 134 176 236 291 350 416
#     4  11  24  43  72  99 144 184 230 285 351 417
#     4  12  26  43  74 102 140 183 233 292 350 411
#     4  12  24  50  72  97 140 194 234 278 346 420
#     4  11  21  42  71 101 138 178 226 288 350 408
#     4  12  24  40  68 108 140 175 231 292 350 410
#
# _framework density 24.532876999999999
#
# number of rings (size 3 to 8) (size 9 to 14) (size 15 to 20)
#    0.000    0.571    5.714    4.286    4.000    1.714 
#    0.000    2.143    0.000    0.000    0.000    0.000 
#    0.000    0.000    0.000    0.000    0.000    0.000 
#
# Total GULP energy -78191.043539 kJ/mol
# GULP energy per Si atom -5585.074538 kJ/mol
# Density = 2.447704 g / cm^3
# Si number density = 24.532877 Si / 1000 Ang^3
#
#
#
# Elastic Constant Matrix: (Units=GPa)
#
#
# Indices 1 2 3 4 5 6 
#
# 1 92.4424 67.6973 17.9270 -8.0001 -7.5990 20.4140
# 2 67.6973 106.3863 17.7372 -40.5090 -1.8133 14.8009
# 3 17.9270 17.7372 60.1285 -7.1167 -9.0593 6.4972
# 4 -8.0001 -40.5090 -7.1167 24.7363 -0.6027 -5.6231
# 5 -7.5990 -1.8133 -9.0593 -0.6027 35.9329 -8.7230
# 6 20.4140 14.8009 6.4972 -5.6231 -8.7230 42.3215
#
#
#
# Elastic Compliance Matrix: (Units=1/GPa)
#
#
# Indices 1 2 3 4 5 6 
#
# 1 0.085242 -0.111630 -0.009075 -0.162776 0.002062 -0.021886
# 2 -0.111630 0.171990 0.009545 0.254060 -0.002055 0.025563
# 3 -0.009075 0.009545 0.019185 0.018634 0.004053 0.001405
# 4 -0.162776 0.254060 0.018634 0.418884 0.000451 0.042552
# 5 0.002062 -0.002055 0.004053 0.000451 0.030515 0.005451
# 6 -0.021886 0.025563 0.001405 0.042552 0.005451 0.031807
#
#
# Mechanical properties :
#
#
# Convention : Reuss Voigt Hill
#
# Bulk Modulus (GPa) = 18.48511 51.74224 35.11368
# Shear Modulus (GPa) = 5.01015 30.97118 17.99067
#
# Velocity S-wave (km/s) = 1.43061 3.55693 2.71094
# Velocity P-wave (km/s) = 3.20625 6.16488 4.91354
#
# Compressibility (1/GPa) = 0.05409760
#
# Stress axis : x y z
#
# Youngs Moduli (GPa) = 11.73132 5.81430 52.12297
#
# Poissons Ratio (x) = 0.64905 0.47302
# Poissons Ratio (y) = 1.30956 -0.49752
# Poissons Ratio (z) = 0.10646 -0.05550
#
# Static dielectric constant tensor:
#      x y z
#    x 1.998810 -0.147480 -0.028320 
#    y -0.147480 2.046470 0.165740 
#    z -0.028320 0.165740 2.045480 
# 
# From -- ./inp_files/308057.got.cif
#   From: 2010.05.17/outbox.cif.g08.bks.cpg/sg2_155_cif.got.tgz:308057.got - 2010.06.03 11:33:40.
