data_PCOD9055430
_publ_section_title
;
Structure prediction by ZEFSAII (Michael W. Deem and Ramdas Pophale) SiO2 
 PCOD9055430
Probable space group: P -1
;
_chemical_formula_sum "Si O2"
_cell_formula_units_Z 14
_cell_length_a 25.932850
_cell_length_b 18.370594
_cell_length_c 6.506256
_cell_angle_alpha 122.636518
_cell_angle_beta 131.854947
_cell_angle_gamma 18.201626
_cell_volume 658.908034
_symmetry_space_group_name_H-M "P -1"
_symmetry_group_IT_number 2
_symmetry_cell_setting 'triclinic'
loop_
_space_group_symop_operation_xyz
x,y,z
-x,-y,-z
loop_
_atom_site_type_symbol
_atom_site_label
_atom_site_fract_x
_atom_site_fract_y
_atom_site_fract_z
Si Si1 0.583681 0.665659 0.137997
Si Si2 0.319100 0.146075 0.212007
Si Si3 0.724298 0.028060 0.546137
Si Si4 0.085261 0.311300 0.146560
Si Si5 0.628742 0.339542 0.390403
Si Si6 0.969164 0.790494 0.465791
Si Si7 0.442480 0.437836 0.730575
O O1 0.597429 0.601035 0.297911
O O2 0.804791 0.440363 0.322133
O O3 0.429841 0.926835 0.124793
O O4 0.468171 0.745836 0.777979
O O5 0.147941 0.386637 0.973281
O O6 0.500000 0.000000 0.500000
O O7 0.192652 0.268285 0.265123
O O8 0.920868 0.817774 0.611428
O O9 0.651032 0.177812 0.760120
O O10 0.783081 0.873083 0.590257
O O11 0.073108 0.242488 0.849121
O O12 0.500000 0.500000 0.500000
O O13 0.696869 0.351501 0.491050
O O14 0.814923 0.053116 0.440137
O O15 0.464478 0.484792 0.030904
#
# Coordination Sequence:
#
# PCOD9055430 Si02
#       7
#     2   2   2   2   2   2   2
#     4  12  25  43  67 101 137 175 225 283 331 395
#     4  11  22  43  70  97 134 174 230 278 328 398
#     4  12  22  45  65  98 138 178 220 273 337 400
#     4  11  24  43  70  94 134 188 217 270 345 393
#     4  11  21  41  73 101 128 179 228 269 331 405
#     4  12  24  43  70  99 136 179 222 273 340 398
#     4  11  22  42  71  93 138 179 213 281 335 388
#
# _framework density 21.247274000000001
#
# number of rings (size 3 to 8) (size 9 to 14) (size 15 to 20)
#    0.000    0.571    8.571    0.000    0.000    3.429 
#    0.000    4.286    0.000    0.000    0.000    0.000 
#    0.000    0.000    0.000    0.000    0.000    0.000 
#
# Total GULP energy -77936.750264 kJ/mol
# GULP energy per Si atom -5566.910733 kJ/mol
# Density = 2.119891 g / cm^3
# Si number density = 21.247274 Si / 1000 Ang^3
#
#
#
# Elastic Constant Matrix: (Units=GPa)
#
#
# Indices 1 2 3 4 5 6 
#
# 1 123.6940 38.7446 41.4001 -6.1983 -6.7498 -2.1099
# 2 38.7446 72.4814 33.4928 -0.6090 15.8222 -2.4137
# 3 41.4001 33.4928 50.4981 0.0613 4.0795 -15.2239
# 4 -6.1983 -0.6090 0.0613 39.4505 -1.7922 1.4470
# 5 -6.7498 15.8222 4.0795 -1.7922 25.0717 -5.7690
# 6 -2.1099 -2.4137 -15.2239 1.4470 -5.7690 50.2554
#
#
#
# Elastic Compliance Matrix: (Units=1/GPa)
#
#
# Indices 1 2 3 4 5 6 
#
# 1 0.012918 -0.004636 -0.008579 0.002372 0.007630 -0.001471
# 2 -0.004636 0.026028 -0.013609 -0.000881 -0.016663 -0.004955
# 3 -0.008579 -0.013609 0.039032 -0.001920 0.002353 0.011135
# 4 0.002372 -0.000881 -0.001920 0.025887 0.003148 -0.000908
# 5 0.007630 -0.016663 0.002353 0.003148 0.053750 0.006312
# 6 -0.001471 -0.004955 0.011135 -0.000908 0.006312 0.023723
#
#
# Mechanical properties :
#
#
# Convention : Reuss Voigt Hill
#
# Bulk Modulus (GPa) = 41.10121 52.66096 46.88108
# Shear Modulus (GPa) = 20.56814 31.82458 26.19636
#
# Velocity S-wave (km/s) = 3.11470 3.87437 3.51512
# Velocity P-wave (km/s) = 5.68519 6.69723 6.21186
#
# Compressibility (1/GPa) = 0.02433018
#
# Stress axis : x y z
#
# Youngs Moduli (GPa) = 77.41160 38.41983 25.62033
#
# Poissons Ratio (x) = 0.17810 0.21979
# Poissons Ratio (y) = 0.35886 0.34867
# Poissons Ratio (z) = 0.66410 0.52286
#
# Static dielectric constant tensor:
#      x y z
#    x 1.900510 0.096460 0.019200 
#    y 0.096460 1.848190 0.061630 
#    z 0.019200 0.061630 1.858020 
# 
# From -- ./inp_files/106057.got.cif
#   From: 2010.05.17/outbox.cif.g08.bks.cpg/sg2_54_cif.got.tgz:106057.got - 2010.06.03 11:33:40.
