data_PCOD9055864
_publ_section_title
;
Structure prediction by ZEFSAII (Michael W. Deem and Ramdas Pophale) SiO2 
 PCOD9055864
Probable space group: P -1
;
_chemical_formula_sum "Si O2"
_cell_formula_units_Z 16
_cell_length_a 15.015967
_cell_length_b 9.549869
_cell_length_c 10.102706
_cell_angle_alpha 122.029671
_cell_angle_beta 147.834608
_cell_angle_gamma 48.135857
_cell_volume 572.187625
_symmetry_space_group_name_H-M "P -1"
_symmetry_group_IT_number 2
_symmetry_cell_setting 'triclinic'
loop_
_space_group_symop_operation_xyz
x,y,z
-x,-y,-z
loop_
_atom_site_type_symbol
_atom_site_label
_atom_site_fract_x
_atom_site_fract_y
_atom_site_fract_z
Si Si1 0.026100 0.276137 0.604982
Si Si2 0.324859 0.927635 0.531958
Si Si3 0.261777 0.891252 0.876719
Si Si4 0.500508 0.613064 0.363853
Si Si5 0.129420 0.552997 0.103194
Si Si6 0.673772 0.703842 0.376002
Si Si7 0.052264 0.030203 0.935266
Si Si8 0.661367 0.663363 0.000728
O O1 0.861120 0.211081 0.363028
O O2 0.868138 0.504866 0.511208
O O3 0.168512 0.100577 0.798875
O O4 0.191469 0.278350 0.716139
O O5 0.389433 0.768022 0.415918
O O6 0.121241 0.976878 0.362875
O O7 0.473556 0.839295 0.794572
O O8 0.314839 0.105616 0.532752
O O9 0.489474 0.755062 0.070705
O O10 0.231445 0.919498 0.012382
O O11 0.690411 0.455901 0.598751
O O12 0.594664 0.684235 0.408840
O O13 0.381702 0.510719 0.111395
O O14 0.983822 0.762649 0.991447
O O15 0.210117 0.420035 0.013547
O O16 0.000000 0.500000 0.000000
O O17 0.000000 0.000000 0.000000
#
# Coordination Sequence:
#
# PCOD9055864 Si02
#       8
#     2   2   2   2   2   2   2   2
#     4  11  26  49  76  98 145 195 242 290 350 427
#     4  11  23  41  64 104 150 181 234 296 353 429
#     4  11  26  50  72 107 140 189 243 296 352 424
#     4  11  22  40  67 104 147 187 233 296 358 424
#     4  11  22  37  65 100 142 188 233 285 358 426
#     4  12  25  43  73 105 138 185 244 296 357 419
#     4  12  25  41  68 106 144 181 231 299 362 417
#     4  11  21  44  66 102 142 189 238 288 352 428
#
# _framework density 27.962858000000001
#
# number of rings (size 3 to 8) (size 9 to 14) (size 15 to 20)
#    0.000    0.750    3.750    4.500    5.250    0.000 
#    0.000    4.375    0.000    0.000    0.000    0.000 
#    0.000    0.000    0.000    0.000    0.000    0.000 
#
# Total GULP energy -89329.868483 kJ/mol
# GULP energy per Si atom -5583.116780 kJ/mol
# Density = 2.789921 g / cm^3
# Si number density = 27.962858 Si / 1000 Ang^3
#
#
#
# Elastic Constant Matrix: (Units=GPa)
#
#
# Indices 1 2 3 4 5 6 
#
# 1 56.9760 64.3884 8.9473 -11.6303 10.2751 24.2355
# 2 64.3884 205.2016 45.3737 3.7429 20.2966 37.0403
# 3 8.9473 45.3737 133.1225 -25.0252 32.5579 -10.3777
# 4 -11.6303 3.7429 -25.0252 51.2389 -3.7213 11.4052
# 5 10.2751 20.2966 32.5579 -3.7213 52.3939 -3.2356
# 6 24.2355 37.0403 -10.3777 11.4052 -3.2356 50.2559
#
#
#
# Elastic Compliance Matrix: (Units=1/GPa)
#
#
# Indices 1 2 3 4 5 6 
#
# 1 0.037833 -0.009922 0.003781 0.013777 -0.005790 -0.013650
# 2 -0.009922 0.009098 -0.003381 -0.004190 0.000122 -0.001661
# 3 0.003781 -0.003381 0.011010 0.005782 -0.005785 0.001258
# 4 0.013777 -0.004190 0.005782 0.027498 -0.003263 -0.008812
# 5 -0.005790 0.000122 -0.005785 -0.003263 0.023771 0.003778
# 6 -0.013650 -0.001661 0.001258 -0.008812 0.003778 0.030208
#
#
# Mechanical properties :
#
#
# Convention : Reuss Voigt Hill
#
# Bulk Modulus (GPa) = 25.70921 70.30212 48.00567
# Shear Modulus (GPa) = 29.16681 49.21712 39.19196
#
# Velocity S-wave (km/s) = 3.23314 4.19989 3.74782
# Velocity P-wave (km/s) = 4.81161 6.97959 5.99442
#
# Compressibility (1/GPa) = 0.03889657
#
# Stress axis : x y z
#
# Youngs Moduli (GPa) = 26.43209 109.91150 90.82561
#
# Poissons Ratio (x) = 1.09052 -0.34338
# Poissons Ratio (y) = 0.26225 0.30709
# Poissons Ratio (z) = -0.09993 0.37162
#
# Static dielectric constant tensor:
#      x y z
#    x 2.361450 0.013730 -0.271440 
#    y 0.013730 2.308760 0.125940 
#    z -0.271440 0.125940 2.626910 
# 
# From -- ./inp_files/462377.got.cif
#   From: 2010.05.17/outbox.cif.g08.bks.cpg/sg2_232_cif.got.tgz:462377.got - 2010.06.03 11:33:40.
