data_PCOD9055986
_publ_section_title
;
Structure prediction by ZEFSAII (Michael W. Deem and Ramdas Pophale) SiO2 
 PCOD9055986
Probable space group: P -1
;
_chemical_formula_sum "Si O2"
_cell_formula_units_Z 16
_cell_length_a 11.824594
_cell_length_b 16.707471
_cell_length_c 8.672668
_cell_angle_alpha 128.101241
_cell_angle_beta 146.922406
_cell_angle_gamma 58.771750
_cell_volume 735.854524
_symmetry_space_group_name_H-M "P -1"
_symmetry_group_IT_number 2
_symmetry_cell_setting 'triclinic'
loop_
_space_group_symop_operation_xyz
x,y,z
-x,-y,-z
loop_
_atom_site_type_symbol
_atom_site_label
_atom_site_fract_x
_atom_site_fract_y
_atom_site_fract_z
Si Si1 0.941299 0.157589 0.076355
Si Si2 0.651841 0.052581 0.855226
Si Si3 0.309975 0.422485 0.165185
Si Si4 0.916402 0.917442 0.186400
Si Si5 0.377402 0.247501 0.809651
Si Si6 0.158907 0.303269 0.132564
Si Si7 0.436643 0.683341 0.196643
Si Si8 0.870481 0.449815 0.157506
O O1 0.156258 0.206703 0.443402
O O2 0.854037 0.084408 0.024664
O O3 0.754891 0.238862 0.942814
O O4 0.974332 0.108163 0.885459
O O5 0.532888 0.152915 0.895193
O O6 0.500000 0.000000 0.500000
O O7 0.705658 0.970963 0.950109
O O8 0.500000 0.500000 0.500000
O O9 0.197098 0.389868 0.153102
O O10 0.371911 0.313833 0.035196
O O11 0.164784 0.474507 0.933972
O O12 0.909766 0.808111 0.132717
O O13 0.000000 0.000000 0.500000
O O14 0.469647 0.322350 0.873267
O O15 0.373962 0.281295 0.439667
O O16 0.992383 0.351695 0.115906
O O17 0.345434 0.583842 0.053683
O O18 0.000000 0.500000 0.500000
#
# Coordination Sequence:
#
# PCOD9055986 Si02
#       8
#     2   2   2   2   2   2   2   2
#     4  11  22  45  72 103 143 184 240 296 344 422
#     4  11  24  44  75 103 141 190 246 291 350 425
#     4  12  28  47  72 107 147 189 232 296 367 421
#     4  12  26  44  71 107 142 189 232 293 365 414
#     4  11  25  45  73 105 142 188 242 294 349 426
#     4  12  26  49  68 102 156 180 236 298 355 429
#     4  11  21  44  75 100 142 184 239 294 348 419
#     4  12  26  46  77 106 136 195 241 290 359 425
#
# _framework density 21.743428999999999
#
# number of rings (size 3 to 8) (size 9 to 14) (size 15 to 20)
#    0.000    0.500    5.000    3.000    3.500    3.000 
#    2.250    1.875    0.000    0.000    0.000    0.000 
#    0.000    0.000    0.000    0.000    0.000    0.000 
#
# Total GULP energy -89406.105276 kJ/mol
# GULP energy per Si atom -5587.881580 kJ/mol
# Density = 2.169394 g / cm^3
# Si number density = 21.743429 Si / 1000 Ang^3
#
#
#
# Elastic Constant Matrix: (Units=GPa)
#
#
# Indices 1 2 3 4 5 6 
#
# 1 72.8109 6.8563 22.9453 12.7487 15.5751 -0.2353
# 2 6.8563 101.3250 13.3682 0.8439 3.1234 4.7175
# 3 22.9453 13.3682 77.1972 13.0099 -6.4836 -11.6191
# 4 12.7487 0.8439 13.0099 42.5057 2.3160 -5.0732
# 5 15.5751 3.1234 -6.4836 2.3160 33.5420 6.0824
# 6 -0.2353 4.7175 -11.6191 -5.0732 6.0824 43.1510
#
#
#
# Elastic Compliance Matrix: (Units=1/GPa)
#
#
# Indices 1 2 3 4 5 6 
#
# 1 0.018045 -0.000146 -0.005634 -0.003246 -0.009141 -0.000496
# 2 -0.000146 0.010256 -0.002108 0.000363 -0.001048 -0.001499
# 3 -0.005634 -0.002108 0.016530 -0.003217 0.005598 0.003483
# 4 -0.003246 0.000363 -0.003217 0.025826 -0.001349 0.002303
# 5 -0.009141 -0.001048 0.005598 -0.001349 0.035994 -0.003660
# 6 -0.000496 -0.001499 0.003483 0.002303 -0.003660 0.025060
#
#
# Mechanical properties :
#
#
# Convention : Reuss Voigt Hill
#
# Bulk Modulus (GPa) = 34.41475 37.51917 35.96696
# Shear Modulus (GPa) = 31.81237 37.71732 34.76484
#
# Velocity S-wave (km/s) = 3.82917 4.16944 4.00292
# Velocity P-wave (km/s) = 5.95081 6.36174 6.15970
#
# Compressibility (1/GPa) = 0.02905731
#
# Stress axis : x y z
#
# Youngs Moduli (GPa) = 55.41594 97.50159 60.49647
#
# Poissons Ratio (x) = 0.01423 0.34081
# Poissons Ratio (y) = 0.00809 0.12750
# Poissons Ratio (z) = 0.31219 0.20549
#
# Static dielectric constant tensor:
#      x y z
#    x 1.789830 -0.014100 0.012730 
#    y -0.014100 1.812530 0.003430 
#    z 0.012730 0.003430 1.708070 
# 
# From -- ./inp_files/126926.got.cif
#   From: 2010.05.17/outbox.cif.g08.bks.cpg/sg2_64_cif.got.tgz:126926.got - 2010.06.03 11:33:40.
