data_PCOD9055140
_publ_section_title
;
Structure prediction by ZEFSAII (Michael W. Deem and Ramdas Pophale) SiO2 
 PCOD9055140
Probable space group: P -1
;
_chemical_formula_sum "Si O2"
_cell_formula_units_Z 14
_cell_length_a 18.587150
_cell_length_b 9.601096
_cell_length_c 11.959900
_cell_angle_alpha 105.918483
_cell_angle_beta 160.157481
_cell_angle_gamma 72.025121
_cell_volume 688.260396
_symmetry_space_group_name_H-M "P -1"
_symmetry_group_IT_number 2
_symmetry_cell_setting 'triclinic'
loop_
_space_group_symop_operation_xyz
x,y,z
-x,-y,-z
loop_
_atom_site_type_symbol
_atom_site_label
_atom_site_fract_x
_atom_site_fract_y
_atom_site_fract_z
Si Si1 0.143843 0.622336 0.255283
Si Si2 0.084767 0.144325 0.197756
Si Si3 0.578942 0.556163 0.745721
Si Si4 0.048102 0.371765 0.397113
Si Si5 0.189271 0.202956 0.793305
Si Si6 0.538639 0.078507 0.953333
Si Si7 0.793478 0.335021 0.386472
O O1 0.383872 0.564874 0.549426
O O2 0.145632 0.664259 0.395365
O O3 0.000000 0.500000 0.000000
O O4 0.015083 0.750381 0.022961
O O5 0.333802 0.091358 0.576597
O O6 0.024910 0.247370 0.243181
O O7 0.000000 0.000000 0.000000
O O8 0.500000 0.500000 0.500000
O O9 0.805732 0.455126 0.083982
O O10 0.638459 0.720044 0.868427
O O11 0.150859 0.290273 0.639013
O O12 0.189240 0.498091 0.592986
O O13 0.971665 0.236503 0.551148
O O14 0.273739 0.035698 0.853168
O O15 0.594371 0.243872 0.076006
O O16 0.500000 0.000000 0.000000
#
# Coordination Sequence:
#
# PCOD9055140 Si02
#       7
#     2   2   2   2   2   2   2
#     4  12  24  43  67 101 138 175 230 284 338 406
#     4  12  25  44  66 101 137 178 228 277 342 403
#     4  11  21  40  68  96 129 178 221 277 338 397
#     4  11  24  45  71 100 136 179 231 283 338 403
#     4  11  24  46  67 103 135 179 230 281 341 405
#     4  12  25  44  71 100 136 184 224 281 347 403
#     4  11  24  45  69 101 138 175 231 288 336 410
#
# _framework density 20.341138000000001
#
# number of rings (size 3 to 8) (size 9 to 14) (size 15 to 20)
#    0.000    0.571    4.286    5.571    0.000    2.857 
#    0.000    0.714    0.000    0.000    0.000    0.000 
#    0.000    0.000    0.000    0.000    0.000    0.000 
#
# Total GULP energy -78065.870325 kJ/mol
# GULP energy per Si atom -5576.133595 kJ/mol
# Density = 2.029484 g / cm^3
# Si number density = 20.341138 Si / 1000 Ang^3
#
#
#
# Elastic Constant Matrix: (Units=GPa)
#
#
# Indices 1 2 3 4 5 6 
#
# 1 119.3871 59.8975 37.3436 1.0335 -13.7312 -1.4164
# 2 59.8975 160.8952 74.6472 11.7833 -3.7987 -11.1136
# 3 37.3436 74.6472 112.8493 24.0006 -16.2289 18.3376
# 4 1.0335 11.7833 24.0006 51.8575 -6.5532 3.9431
# 5 -13.7312 -3.7987 -16.2289 -6.5532 35.1711 12.2194
# 6 -1.4164 -11.1136 18.3376 3.9431 12.2194 2.7679
#
#
#
# Elastic Compliance Matrix: (Units=1/GPa)
#
#
# Indices 1 2 3 4 5 6 
#
# 1 0.010679 -0.002529 -0.002643 0.001451 0.001480 0.004223
# 2 -0.002529 0.005390 0.001234 0.000572 0.006885 -0.019039
# 3 -0.002643 0.001234 0.004054 -0.005516 -0.009918 0.028387
# 4 0.001451 0.000572 -0.005516 0.021757 0.001586 0.001586
# 5 0.001480 0.006885 -0.009918 0.001586 0.012064 0.038596
# 6 0.004223 -0.019039 0.028387 0.001586 0.038596 -0.073710
#
#
# Mechanical properties :
#
#
# Convention : Reuss Voigt Hill
#
# Bulk Modulus (GPa) = 81.65713 81.87866 81.76790
# Shear Modulus (GPa) = -640.41460 32.70886 -303.85287
#
# Velocity S-wave (km/s) = -17.76290 4.01436 -12.23531
# Velocity P-wave (km/s) = 19.50547 7.86301 12.62213
#
# Compressibility (1/GPa) = 0.01224633
#
# Stress axis : x y z
#
# Youngs Moduli (GPa) = 93.63799 185.53350 246.67499
#
# Poissons Ratio (x) = 0.46921 0.65202
# Poissons Ratio (y) = 0.23681 -0.30434
# Poissons Ratio (z) = 0.24751 -0.22891
#
# Static dielectric constant tensor:
#      x y z
#    x 1.708610 0.039840 0.075740 
#    y 0.039840 1.480210 -0.148400 
#    z 0.075740 -0.148400 1.612870 
# 
# From -- ./inp_files/200215.got.cif
#   From: 2010.05.17/outbox.cif.g08.bks.cpg/sg2_101_cif.got.tgz:200215.got - 2010.06.03 11:33:40.
