data_PCOD9055948
_publ_section_title
;
Structure prediction by ZEFSAII (Michael W. Deem and Ramdas Pophale) SiO2 
 PCOD9055948
Probable space group: P -1
;
_chemical_formula_sum "Si O2"
_cell_formula_units_Z 16
_cell_length_a 9.554311
_cell_length_b 8.148675
_cell_length_c 13.457231
_cell_angle_alpha 136.624590
_cell_angle_beta 74.596380
_cell_angle_gamma 104.266172
_cell_volume 691.440073
_symmetry_space_group_name_H-M "P -1"
_symmetry_group_IT_number 2
_symmetry_cell_setting 'triclinic'
loop_
_space_group_symop_operation_xyz
x,y,z
-x,-y,-z
loop_
_atom_site_type_symbol
_atom_site_label
_atom_site_fract_x
_atom_site_fract_y
_atom_site_fract_z
Si Si1 0.671212 0.006666 0.380261
Si Si2 0.949071 0.008871 0.187093
Si Si3 0.543647 0.504835 0.610095
Si Si4 0.489951 0.775318 0.149771
Si Si5 0.770513 0.906172 0.695565
Si Si6 0.863236 0.810217 0.423808
Si Si7 0.380604 0.885606 0.896006
Si Si8 0.060942 0.697858 0.878609
O O1 0.553319 0.823301 0.268507
O O2 0.741248 0.919455 0.428622
O O3 0.595422 0.251022 0.516092
O O4 0.806296 0.043399 0.293407
O O5 0.081466 0.014137 0.241718
O O6 0.973648 0.210941 0.185583
O O7 0.947634 0.767256 0.014253
O O8 0.500000 0.500000 0.500000
O O9 0.675088 0.709237 0.690587
O O10 0.415101 0.615493 0.742587
O O11 0.331257 0.877450 0.212641
O O12 0.591521 0.946727 0.131998
O O13 0.500000 0.500000 0.000000
O O14 0.801103 0.768172 0.527201
O O15 0.916011 0.579295 0.257163
O O16 0.000000 0.000000 0.500000
O O17 0.213331 0.852475 0.945683
O O18 0.500000 0.000000 0.000000
#
# Coordination Sequence:
#
# PCOD9055948 Si02
#       8
#     2   2   2   2   2   2   2   2
#     4  12  25  45  71 100 139 186 226 290 351 397
#     4  11  24  46  73  97 135 183 235 280 340 410
#     4  11  21  44  72  96 134 177 232 282 331 412
#     4  11  26  45  69 103 141 178 227 285 353 410
#     4  11  24  45  70 100 136 181 229 284 343 408
#     4  12  28  44  64 104 142 179 230 283 351 407
#     4  11  23  44  71 102 133 177 233 286 337 405
#     4  11  25  45  71 100 136 184 234 279 343 420
#
# _framework density 23.14011
#
# number of rings (size 3 to 8) (size 9 to 14) (size 15 to 20)
#    0.000    0.750    5.000    3.000    5.250    4.000 
#    0.000    0.000    0.000    0.000    0.000    0.000 
#    0.000    0.000    0.000    0.000    0.000    0.000 
#
# Total GULP energy -89587.388942 kJ/mol
# GULP energy per Si atom -5599.211809 kJ/mol
# Density = 2.308744 g / cm^3
# Si number density = 23.140110 Si / 1000 Ang^3
#
#
#
# Elastic Constant Matrix: (Units=GPa)
#
#
# Indices 1 2 3 4 5 6 
#
# 1 121.7058 26.9235 29.1348 10.5871 16.9880 -25.3395
# 2 26.9235 56.2183 37.3939 5.5125 6.0236 -19.6501
# 3 29.1348 37.3939 138.7706 25.3532 -5.4903 -13.7258
# 4 10.5871 5.5125 25.3532 52.0205 -2.7491 -4.6038
# 5 16.9880 6.0236 -5.4903 -2.7491 35.8154 -11.7555
# 6 -25.3395 -19.6501 -13.7258 -4.6038 -11.7555 44.7900
#
#
#
# Elastic Compliance Matrix: (Units=1/GPa)
#
#
# Indices 1 2 3 4 5 6 
#
# 1 0.010347 -0.002573 -0.001075 -0.001209 -0.003645 0.003315
# 2 -0.002573 0.025683 -0.005901 0.001295 -0.001350 0.007782
# 3 -0.001075 -0.005901 0.009839 -0.003791 0.002771 0.000156
# 4 -0.001209 0.001295 -0.003791 0.021404 0.001882 0.001417
# 5 -0.003645 -0.001350 0.002771 0.001882 0.032737 0.006981
# 6 0.003315 0.007782 0.000156 0.001417 0.006981 0.029642
#
#
# Mechanical properties :
#
#
# Convention : Reuss Voigt Hill
#
# Bulk Modulus (GPa) = 37.35116 55.95545 46.65330
# Shear Modulus (GPa) = 31.71123 41.40802 36.55963
#
# Velocity S-wave (km/s) = 3.70591 4.23478 3.97914
# Velocity P-wave (km/s) = 5.87265 6.93864 6.42778
#
# Compressibility (1/GPa) = 0.02677293
#
# Stress axis : x y z
#
# Youngs Moduli (GPa) = 96.64679 38.93671 101.63129
#
# Poissons Ratio (x) = 0.10018 0.10921
# Poissons Ratio (y) = 0.24866 0.59970
# Poissons Ratio (z) = 0.10385 0.22975
#
# Static dielectric constant tensor:
#      x y z
#    x 1.898090 0.031790 -0.034390 
#    y 0.031790 1.906990 -0.032190 
#    z -0.034390 -0.032190 1.862840 
# 
# From -- ./inp_files/209350.got.cif
#   From: 2010.05.17/outbox.cif.g08.bks.cpg/sg2_105_cif.got.tgz:209350.got - 2010.06.03 11:33:40.
