data_PCOD9055846
_publ_section_title
;
Structure prediction by ZEFSAII (Michael W. Deem and Ramdas Pophale) SiO2 
 PCOD9055846
Probable space group: P -1
;
_chemical_formula_sum "Si O2"
_cell_formula_units_Z 14
_cell_length_a 9.160444
_cell_length_b 15.756811
_cell_length_c 5.711926
_cell_angle_alpha 111.807679
_cell_angle_beta 122.995291
_cell_angle_gamma 66.451552
_cell_volume 621.066287
_symmetry_space_group_name_H-M "P -1"
_symmetry_group_IT_number 2
_symmetry_cell_setting 'triclinic'
loop_
_space_group_symop_operation_xyz
x,y,z
-x,-y,-z
loop_
_atom_site_type_symbol
_atom_site_label
_atom_site_fract_x
_atom_site_fract_y
_atom_site_fract_z
Si Si1 0.366317 0.264312 0.799465
Si Si2 0.742178 0.366892 0.566827
Si Si3 0.705465 0.209608 0.721417
Si Si4 0.555740 0.098114 0.123143
Si Si5 0.988077 0.768819 0.656851
Si Si6 0.611653 0.534401 0.923172
Si Si7 0.055456 0.950098 0.747078
O O1 0.554043 0.254741 0.821924
O O2 0.213823 0.236199 0.480651
O O3 0.411496 0.189759 0.980982
O O4 0.299098 0.377452 0.886873
O O5 0.702833 0.277852 0.571229
O O6 0.898046 0.325064 0.473311
O O7 0.758271 0.444188 0.854610
O O8 0.556074 0.418862 0.340114
O O9 0.639143 0.122939 0.466962
O O10 0.897244 0.205841 0.001922
O O11 0.728369 0.079194 0.085079
O O12 0.500000 0.000000 0.000000
O O13 0.980374 0.857624 0.573648
O O14 0.500000 0.500000 0.000000
O O15 0.000000 0.000000 0.500000
O O16 0.000000 0.000000 0.000000
#
# Coordination Sequence:
#
# PCOD9055846 Si02
#       7
#     2   2   2   2   2   2   2
#     4  12  26  45  74 108 142 195 249 300 368 454
#     4  11  22  43  76  98 147 191 236 303 373 440
#     4  12  22  49  71 101 150 192 238 311 368 440
#     4  12  27  48  74 106 148 199 250 304 375 451
#     4  12  26  45  71 107 147 194 246 305 379 435
#     4  11  21  43  75 106 139 193 240 298 377 435
#     4  12  26  46  72 108 149 195 252 318 378 444
#
# _framework density 22.541875999999998
#
# number of rings (size 3 to 8) (size 9 to 14) (size 15 to 20)
#    0.000    0.286    7.143    1.714    2.000    2.286 
#    0.000    2.857    0.000    0.000    0.000    0.000 
#    0.000    0.000    0.000    0.000    0.000    0.000 
#
# Total GULP energy -78071.019016 kJ/mol
# GULP energy per Si atom -5576.501358 kJ/mol
# Density = 2.249057 g / cm^3
# Si number density = 22.541876 Si / 1000 Ang^3
#
#
#
# Elastic Constant Matrix: (Units=GPa)
#
#
# Indices 1 2 3 4 5 6 
#
# 1 40.5593 11.3688 26.8027 5.8837 11.9371 0.8373
# 2 11.3688 100.1293 48.7145 22.8388 4.0189 10.8206
# 3 26.8027 48.7145 125.7618 8.4428 10.5313 3.9609
# 4 5.8837 22.8388 8.4428 45.5942 -0.0680 -4.6153
# 5 11.9371 4.0189 10.5313 -0.0680 43.2758 10.9894
# 6 0.8373 10.8206 3.9609 -4.6153 10.9894 33.9975
#
#
#
# Elastic Compliance Matrix: (Units=1/GPa)
#
#
# Indices 1 2 3 4 5 6 
#
# 1 0.031156 0.000052 -0.005895 -0.002763 -0.007679 0.002010
# 2 0.000052 0.014585 -0.005131 -0.006905 0.001236 -0.005382
# 3 -0.005895 -0.005131 0.011145 0.001361 -0.000846 0.000938
# 4 -0.002763 -0.006905 0.001361 0.026079 -0.000350 0.005761
# 5 -0.007679 0.001236 -0.000846 -0.000350 0.027622 -0.009082
# 6 0.002010 -0.005382 0.000938 0.005761 -0.009082 0.034686
#
#
# Mechanical properties :
#
#
# Convention : Reuss Voigt Hill
#
# Bulk Modulus (GPa) = 28.62262 48.91357 38.76810
# Shear Modulus (GPa) = 27.95390 36.54446 32.24918
#
# Velocity S-wave (km/s) = 3.52531 4.03076 3.78648
# Velocity P-wave (km/s) = 5.41253 6.58853 6.02927
#
# Compressibility (1/GPa) = 0.03493740
#
# Stress axis : x y z
#
# Youngs Moduli (GPa) = 32.09705 68.56594 89.72454
#
# Poissons Ratio (x) = -0.00354 0.52890
# Poissons Ratio (y) = -0.00166 0.46036
# Poissons Ratio (z) = 0.18920 0.35180
#
# Static dielectric constant tensor:
#      x y z
#    x 1.823540 -0.077060 -0.068260 
#    y -0.077060 1.703860 0.006590 
#    z -0.068260 0.006590 1.967460 
# 
# From -- ./inp_files/40079.got.cif
#   From: 2010.05.17/outbox.cif.g08.bks.cpg/sg2_21_cif.got.tgz:40079.got - 2010.06.03 11:33:40.
