data_PCOD9055718
_publ_section_title
;
Structure prediction by ZEFSAII (Michael W. Deem and Ramdas Pophale) SiO2 
 PCOD9055718
Probable space group: P -1
;
_chemical_formula_sum "Si O2"
_cell_formula_units_Z 14
_cell_length_a 11.675842
_cell_length_b 15.671918
_cell_length_c 17.896636
_cell_angle_alpha 153.483468
_cell_angle_beta 154.992076
_cell_angle_gamma 26.817725
_cell_volume 557.428320
_symmetry_space_group_name_H-M "P -1"
_symmetry_group_IT_number 2
_symmetry_cell_setting 'triclinic'
loop_
_space_group_symop_operation_xyz
x,y,z
-x,-y,-z
loop_
_atom_site_type_symbol
_atom_site_label
_atom_site_fract_x
_atom_site_fract_y
_atom_site_fract_z
Si Si1 0.012346 0.167921 0.202296
Si Si2 0.018915 0.529057 0.225337
Si Si3 0.113261 0.108974 0.825689
Si Si4 0.742570 0.916796 0.272284
Si Si5 0.595188 0.379590 0.359548
Si Si6 0.417949 0.420972 0.651747
Si Si7 0.893776 0.868705 0.992482
O O1 0.722642 0.395218 0.224070
O O2 0.261182 0.260583 0.421988
O O3 0.039520 0.023331 0.178072
O O4 0.000000 0.000000 0.000000
O O5 0.242353 0.456636 0.228224
O O6 0.264307 0.504440 0.413400
O O7 0.885547 0.377927 0.063902
O O8 0.783688 0.755984 0.237574
O O9 0.205177 0.176327 0.854167
O O10 0.763799 0.266938 0.749180
O O11 0.204824 0.858436 0.679073
O O12 0.236113 0.097163 0.973318
O O13 0.393711 0.078407 0.188983
O O14 0.000000 0.000000 0.500000
O O15 0.623662 0.443753 0.342669
#
# Coordination Sequence:
#
# PCOD9055718 Si02
#       7
#     2   2   2   2   2   2   2
#     4  11  27  51  77 102 143 195 257 314 353 438
#     4  11  23  37  72 107 147 193 232 293 367 439
#     4  12  25  43  72 107 146 188 232 300 372 444
#     4  12  24  42  72 110 150 192 236 298 374 444
#     4  11  21  43  68 108 146 187 239 294 367 440
#     4  11  26  50  77 104 148 199 243 307 377 420
#     4  12  27  44  69 110 147 184 247 299 363 447
#
# _framework density 25.115337
#
# number of rings (size 3 to 8) (size 9 to 14) (size 15 to 20)
#    0.000    0.571    5.714    2.143    4.000    1.143 
#    0.000    0.714    0.000    0.000    0.000    0.000 
#    0.000    0.000    0.000    0.000    0.000    0.000 
#
# Total GULP energy -78008.427628 kJ/mol
# GULP energy per Si atom -5572.030545 kJ/mol
# Density = 2.505817 g / cm^3
# Si number density = 25.115337 Si / 1000 Ang^3
#
#
#
# Elastic Constant Matrix: (Units=GPa)
#
#
# Indices 1 2 3 4 5 6 
#
# 1 64.1875 37.1180 52.2461 0.4290 1.4783 13.5660
# 2 37.1180 181.7232 44.8874 3.3977 6.3394 21.3913
# 3 52.2461 44.8874 108.0937 11.6055 7.0098 13.0857
# 4 0.4290 3.3977 11.6055 47.8008 9.2032 0.4328
# 5 1.4783 6.3394 7.0098 9.2032 30.5297 6.0955
# 6 13.5660 21.3913 13.0857 0.4328 6.0955 34.9315
#
#
#
# Elastic Compliance Matrix: (Units=1/GPa)
#
#
# Indices 1 2 3 4 5 6 
#
# 1 0.027972 -0.002149 -0.012400 0.002529 0.002239 -0.005324
# 2 -0.002149 0.006601 -0.001355 -0.000015 -0.000427 -0.002625
# 3 -0.012400 -0.001355 0.016302 -0.003400 -0.001816 -0.000103
# 4 0.002529 -0.000015 -0.003400 0.022963 -0.006490 0.001149
# 5 0.002239 -0.000427 -0.001816 -0.006490 0.036345 -0.006190
# 6 -0.005324 -0.002625 -0.000103 0.001149 -0.006190 0.033407
#
#
# Mechanical properties :
#
#
# Convention : Reuss Voigt Hill
#
# Bulk Modulus (GPa) = 52.44693 69.16751 60.80722
# Shear Modulus (GPa) = 27.50974 37.30257 32.40616
#
# Velocity S-wave (km/s) = 3.31318 3.85808 3.59596
# Velocity P-wave (km/s) = 5.96355 6.88811 6.44244
#
# Compressibility (1/GPa) = 0.01906689
#
# Stress axis : x y z
#
# Youngs Moduli (GPa) = 35.75024 151.49677 61.34034
#
# Poissons Ratio (x) = 0.32561 0.76060
# Poissons Ratio (y) = 0.07684 0.08313
# Poissons Ratio (z) = 0.44329 0.20530
#
# Static dielectric constant tensor:
#      x y z
#    x 2.037630 -0.076930 -0.060820 
#    y -0.076930 2.076190 0.169320 
#    z -0.060820 0.169320 2.223560 
# 
# From -- ./inp_files/569826.got.cif
#   From: 2010.05.17/outbox.cif.g08.bks.cpg/sg2_285_cif.got.tgz:569826.got - 2010.06.03 11:33:40.
