data_PCOD9055736
_publ_section_title
;
Structure prediction by ZEFSAII (Michael W. Deem and Ramdas Pophale) SiO2 
 PCOD9055736
Probable space group: P -1
;
_chemical_formula_sum "Si O2"
_cell_formula_units_Z 16
_cell_length_a 9.258637
_cell_length_b 8.625160
_cell_length_c 16.863086
_cell_angle_alpha 97.238043
_cell_angle_beta 103.477949
_cell_angle_gamma 134.308375
_cell_volume 852.593523
_symmetry_space_group_name_H-M "P -1"
_symmetry_group_IT_number 2
_symmetry_cell_setting 'triclinic'
loop_
_space_group_symop_operation_xyz
x,y,z
-x,-y,-z
loop_
_atom_site_type_symbol
_atom_site_label
_atom_site_fract_x
_atom_site_fract_y
_atom_site_fract_z
Si Si1 0.583387 0.891874 0.498386
Si Si2 0.971333 0.670663 0.504535
Si Si3 0.822911 0.633249 0.655273
Si Si4 0.417055 0.101746 0.162810
Si Si5 0.473086 0.301054 0.014917
Si Si6 0.196567 0.833269 0.843257
Si Si7 0.521392 0.693391 0.647267
Si Si8 0.030456 0.449016 0.915791
O O1 0.391320 0.650089 0.408099
O O2 0.601536 0.849364 0.588597
O O3 0.500000 0.000000 0.500000
O O4 0.820226 0.085850 0.497259
O O5 0.947982 0.723484 0.592414
O O6 0.741380 0.539180 0.423085
O O7 0.000000 0.500000 0.500000
O O8 0.694396 0.686979 0.669289
O O9 0.019000 0.748025 0.749554
O O10 0.402427 0.208019 0.091820
O O11 0.597872 0.110178 0.161700
O O12 0.485659 0.235358 0.262637
O O13 0.176523 0.833523 0.135598
O O14 0.727063 0.438776 0.050165
O O15 0.500000 0.500000 0.000000
O O16 0.310299 0.064451 0.923317
O O17 0.048028 0.601943 0.864955
O O18 0.000000 0.500000 0.000000
#
# Coordination Sequence:
#
# PCOD9055736 Si02
#       8
#     2   2   2   2   2   2   2   2
#     4  11  23  42  69  94 125 176 221 257 323 390
#     4  11  21  43  69  91 129 169 213 267 315 385
#     4  11  26  42  62 101 134 164 217 273 327 383
#     4  11  24  44  68  95 129 176 224 265 325 393
#     4  11  25  44  66  98 136 168 214 276 333 383
#     4  11  24  43  67  95 131 172 226 267 321 397
#     4  11  26  42  64  99 135 165 215 275 327 382
#     4  11  21  43  69  90 125 177 221 269 319 386
#
# _framework density 18.766269000000001
#
# number of rings (size 3 to 8) (size 9 to 14) (size 15 to 20)
#    0.000    1.000    5.000    3.000    3.500    4.500 
#    2.250    0.000    0.000    0.000    0.000    0.000 
#    0.000    0.000    0.000    0.000    0.000    0.000 
#
# Total GULP energy -89196.460216 kJ/mol
# GULP energy per Si atom -5574.778764 kJ/mol
# Density = 1.872356 g / cm^3
# Si number density = 18.766269 Si / 1000 Ang^3
#
#
#
# Elastic Constant Matrix: (Units=GPa)
#
#
# Indices 1 2 3 4 5 6 
#
# 1 74.2308 46.3325 64.0161 -9.2600 1.2192 5.4949
# 2 46.3325 123.2195 110.1045 -108.3192 -66.8328 -17.6937
# 3 64.0161 110.1045 163.5519 87.5717 79.4719 43.2234
# 4 -9.2600 -108.3192 87.5717 -322.9392 -241.9726 -146.3604
# 5 1.2192 -66.8328 79.4719 -241.9726 -156.4117 -109.8859
# 6 5.4949 -17.6937 43.2234 -146.3604 -109.8859 -18.9111
#
#
#
# Elastic Compliance Matrix: (Units=1/GPa)
#
#
# Indices 1 2 3 4 5 6 
#
# 1 0.020147 -0.003177 -0.005070 0.001332 -0.001966 -0.001645
# 2 -0.003177 0.010232 -0.003017 0.000936 -0.003222 -0.005916
# 3 -0.005070 -0.003017 0.008350 0.003252 -0.001228 0.002406
# 4 0.001332 0.000936 0.003252 0.027059 -0.032980 -0.010845
# 5 -0.001966 -0.003222 -0.001228 -0.032980 0.043377 0.002828
# 6 -0.001645 -0.005916 0.002406 -0.010845 0.002828 0.025174
#
#
# Mechanical properties :
#
#
# Convention : Reuss Voigt Hill
#
# Bulk Modulus (GPa) = 61.72576 89.10093 75.41334
# Shear Modulus (GPa) = 30.81313 -90.28246 -29.73466
#
# Velocity S-wave (km/s) = 4.05648 -6.94358 -3.98486
# Velocity P-wave (km/s) = 7.40968 4.08682 4.37043
#
# Compressibility (1/GPa) = 0.01620069
#
# Stress axis : x y z
#
# Youngs Moduli (GPa) = 49.63510 97.73214 119.76277
#
# Poissons Ratio (x) = 0.31050 0.60719
# Poissons Ratio (y) = 0.15769 0.36133
# Poissons Ratio (z) = 0.25165 0.29486
#
# Static dielectric constant tensor:
#      x y z
#    x 1.656790 0.040190 0.018650 
#    y 0.040190 1.815990 -0.066930 
#    z 0.018650 -0.066930 1.536290 
# 
# From -- ./inp_files/495234.got.cif
#   From: 2010.05.17/outbox.cif.g08.bks.cpg/sg2_248_cif.got.tgz:495234.got - 2010.06.03 11:33:40.
