data_PCOD9055980
_publ_section_title
;
Structure prediction by ZEFSAII (Michael W. Deem and Ramdas Pophale) SiO2 
 PCOD9055980
Probable space group: P -1
;
_chemical_formula_sum "Si O2"
_cell_formula_units_Z 14
_cell_length_a 7.984452
_cell_length_b 16.721424
_cell_length_c 7.653831
_cell_angle_alpha 78.484675
_cell_angle_beta 108.567143
_cell_angle_gamma 147.330991
_cell_volume 518.187903
_symmetry_space_group_name_H-M "P -1"
_symmetry_group_IT_number 2
_symmetry_cell_setting 'triclinic'
loop_
_space_group_symop_operation_xyz
x,y,z
-x,-y,-z
loop_
_atom_site_type_symbol
_atom_site_label
_atom_site_fract_x
_atom_site_fract_y
_atom_site_fract_z
Si Si1 0.041754 0.646743 0.527786
Si Si2 0.258311 0.068764 0.916143
Si Si3 0.711032 0.366401 0.106475
Si Si4 0.977242 0.175264 0.496095
Si Si5 0.836842 0.586987 0.107082
Si Si6 0.301126 0.916119 0.182877
Si Si7 0.700542 0.823376 0.623249
O O1 0.025291 0.574113 0.705218
O O2 0.962795 0.704668 0.550837
O O3 0.422107 0.783977 0.535602
O O4 0.854763 0.563006 0.323927
O O5 0.328968 0.002572 0.022099
O O6 0.556250 0.244139 0.969983
O O7 0.057889 0.996998 0.702728
O O8 0.000000 0.000000 0.000000
O O9 0.415543 0.264972 0.195101
O O10 0.175940 0.501096 0.971046
O O11 0.912665 0.137186 0.696871
O O12 0.258258 0.228739 0.486963
O O13 0.648530 0.034708 0.336608
O O14 0.117212 0.764765 0.114466
O O15 0.500000 0.500000 0.000000
#
# Coordination Sequence:
#
# PCOD9055980 Si02
#       7
#     2   2   2   2   2   2   2
#     4   9  20  38  60  92 119 156 210 252 297 366
#     4  10  17  36  59  88 119 155 203 253 292 359
#     4   9  19  37  61  90 123 160 205 250 300 366
#     4  10  19  40  63  92 122 160 200 261 310 359
#     4  11  21  36  63  86 122 171 200 245 316 368
#     4  10  21  36  59  92 125 157 202 253 312 364
#     4   9  20  35  67  94 115 158 213 251 303 361
#
# _framework density 27.017227999999999
#
# number of rings (size 3 to 8) (size 9 to 14) (size 15 to 20)
#    0.857    1.429    1.429    2.143    0.000    0.571 
#    0.000   20.714    0.000    6.000    0.000    0.000 
#    0.000    0.000    0.000    0.000    0.000    0.000 
#
# Total GULP energy -78366.657565 kJ/mol
# GULP energy per Si atom -5597.618398 kJ/mol
# Density = 2.695574 g / cm^3
# Si number density = 27.017228 Si / 1000 Ang^3
#
#
#
# Elastic Constant Matrix: (Units=GPa)
#
#
# Indices 1 2 3 4 5 6 
#
# 1 146.5530 43.2998 58.0204 5.7145 -13.5323 -46.9943
# 2 43.2998 134.0699 50.9352 20.8858 -0.1088 -36.2416
# 3 58.0204 50.9352 139.9587 19.1175 9.6418 -13.9979
# 4 5.7145 20.8858 19.1175 46.7456 0.2926 -20.2943
# 5 -13.5323 -0.1088 9.6418 0.2926 50.0312 0.6950
# 6 -46.9943 -36.2416 -13.9979 -20.2943 0.6950 43.0983
#
#
#
# Elastic Compliance Matrix: (Units=1/GPa)
#
#
# Indices 1 2 3 4 5 6 
#
# 1 0.015592 0.001565 -0.006570 0.008848 0.005153 0.020266
# 2 0.001565 0.011009 -0.003831 0.000833 0.001040 0.010094
# 3 -0.006570 -0.003831 0.011427 -0.006291 -0.003818 -0.009574
# 4 0.008848 0.000833 -0.006291 0.032777 0.003087 0.023689
# 5 0.005153 0.001040 -0.003818 0.003087 0.022013 0.006352
# 6 0.020266 0.010094 -0.009574 0.023689 0.006352 0.061732
#
#
# Mechanical properties :
#
#
# Convention : Reuss Voigt Hill
#
# Bulk Modulus (GPa) = 49.12586 80.56583 64.84584
# Shear Modulus (GPa) = 27.93198 45.86343 36.89770
#
# Velocity S-wave (km/s) = 3.21885 4.12462 3.69956
# Velocity P-wave (km/s) = 5.66015 7.25039 6.50406
#
# Compressibility (1/GPa) = 0.02035588
#
# Stress axis : x y z
#
# Youngs Moduli (GPa) = 64.13716 90.83716 87.50912
#
# Poissons Ratio (x) = -0.14212 0.57490
# Poissons Ratio (y) = -0.10034 0.33523
# Poissons Ratio (z) = 0.42136 0.34798
#
# Static dielectric constant tensor:
#      x y z
#    x 2.134420 0.040930 -0.051010 
#    y 0.040930 2.208940 -0.010780 
#    z -0.051010 -0.010780 2.109140 
# 
# From -- ./inp_files/220886.got.cif
#   From: 2010.05.17/outbox.cif.g08.bks.cpg/sg2_111_cif.got.tgz:220886.got - 2010.06.03 11:33:40.
