data_PCOD9055013
_publ_section_title
;
Structure prediction by ZEFSAII (Michael W. Deem and Ramdas Pophale) SiO2 
 PCOD9055013
Probable space group: P -1
;
_chemical_formula_sum "Si O2"
_cell_formula_units_Z 12
_cell_length_a 11.535310
_cell_length_b 8.176116
_cell_length_c 10.700285
_cell_angle_alpha 52.046967
_cell_angle_beta 134.323570
_cell_angle_gamma 94.913435
_cell_volume 451.137077
_symmetry_space_group_name_H-M "P -1"
_symmetry_group_IT_number 2
_symmetry_cell_setting 'triclinic'
loop_
_space_group_symop_operation_xyz
x,y,z
-x,-y,-z
loop_
_atom_site_type_symbol
_atom_site_label
_atom_site_fract_x
_atom_site_fract_y
_atom_site_fract_z
Si Si1 0.044607 0.061376 0.820636
Si Si2 0.572886 0.230832 0.121583
Si Si3 0.459086 0.886620 0.320524
Si Si4 0.172464 0.520088 0.061740
Si Si5 0.032078 0.259617 0.446032
Si Si6 0.691805 0.544621 0.428153
O O1 0.995837 0.223018 0.578601
O O2 0.832933 0.236160 0.654784
O O3 0.220844 0.033583 0.048075
O O4 0.120549 0.778568 0.967112
O O5 0.510414 0.080143 0.225493
O O6 0.813085 0.022385 0.372603
O O7 0.500000 0.500000 0.000000
O O8 0.466110 0.298993 0.875198
O O9 0.595996 0.731061 0.617521
O O10 0.567530 0.651736 0.410582
O O11 0.000000 0.500000 0.000000
O O12 0.142010 0.565116 0.869327
O O13 0.158167 0.375619 0.494443
#
# Coordination Sequence:
#
# PCOD9055013 Si02
#       6
#     2   2   2   2   2   2
#     4  12  25  45  76 102 133 193 241 276 345 426
#     4  11  21  39  71 104 136 183 231 283 345 411
#     4  11  24  48  69 102 147 182 229 293 347 412
#     4  12  25  45  70 103 148 183 224 297 358 400
#     4  11  22  46  71 102 140 184 234 291 336 419
#     4  11  22  42  76 100 139 182 237 285 345 408
#
# _framework density 26.599456
#
# number of rings (size 3 to 8) (size 9 to 14) (size 15 to 20)
#    0.000    0.667    6.667    3.500    0.000    0.667 
#    0.000    0.833    3.667    0.000    0.000    0.000 
#    0.000    0.000    0.000    0.000    0.000    0.000 
#
# Total GULP energy -67401.831480 kJ/mol
# GULP energy per Si atom -5616.819290 kJ/mol
# Density = 2.653891 g / cm^3
# Si number density = 26.599456 Si / 1000 Ang^3
#
#
#
# Elastic Constant Matrix: (Units=GPa)
#
#
# Indices 1 2 3 4 5 6 
#
# 1 93.3962 31.6687 60.2361 -8.0043 -12.1634 7.8340
# 2 31.6687 110.1704 51.2112 -3.9134 -10.4576 -1.9702
# 3 60.2361 51.2112 246.9935 36.5528 -19.4505 -12.1608
# 4 -8.0043 -3.9134 36.5528 39.7396 -7.0895 11.9982
# 5 -12.1634 -10.4576 -19.4505 -7.0895 48.2583 -6.9452
# 6 7.8340 -1.9702 -12.1608 11.9982 -6.9452 39.6545
#
#
#
# Elastic Compliance Matrix: (Units=1/GPa)
#
#
# Indices 1 2 3 4 5 6 
#
# 1 0.016884 -0.001772 -0.005661 0.011281 0.002065 -0.008211
# 2 -0.001772 0.010840 -0.002190 0.003122 0.001409 -0.000481
# 3 -0.005661 -0.002190 0.007810 -0.010436 0.000675 0.006681
# 4 0.011281 0.003122 -0.010436 0.043279 0.003106 -0.017825
# 5 0.002065 0.001409 0.000675 0.003106 0.022694 0.002904
# 6 -0.008211 -0.000481 0.006681 -0.017825 0.002904 0.034767
#
#
# Mechanical properties :
#
#
# Convention : Reuss Voigt Hill
#
# Bulk Modulus (GPa) = 61.39727 81.86579 71.63153
# Shear Modulus (GPa) = 31.06573 46.02675 38.54624
#
# Velocity S-wave (km/s) = 3.42118 4.16428 3.81088
# Velocity P-wave (km/s) = 6.22400 7.34613 6.80822
#
# Compressibility (1/GPa) = 0.01628737
#
# Stress axis : x y z
#
# Youngs Moduli (GPa) = 59.22873 92.24846 128.04070
#
# Poissons Ratio (x) = 0.16344 0.72489
# Poissons Ratio (y) = 0.10494 0.28044
# Poissons Ratio (z) = 0.33532 0.20205
#
# Static dielectric constant tensor:
#      x y z
#    x 2.051340 0.027740 -0.007890 
#    y 0.027740 2.072790 -0.002500 
#    z -0.007890 -0.002500 2.063850 
# 
# From -- ./inp_files/333674.got.cif
#   From: 2010.05.17/outbox.cif.g08.bks.cpg/sg2_167_cif.got.tgz:333674.got - 2010.06.03 11:33:40.
