data_PCOD9055655
_publ_section_title
;
Structure prediction by ZEFSAII (Michael W. Deem and Ramdas Pophale) SiO2 
 PCOD9055655
Probable space group: P -1
;
_chemical_formula_sum "Si O2"
_cell_formula_units_Z 13
_cell_length_a 9.159449
_cell_length_b 8.078565
_cell_length_c 11.306937
_cell_angle_alpha 70.047662
_cell_angle_beta 60.336233
_cell_angle_gamma 112.046418
_cell_volume 509.569755
_symmetry_space_group_name_H-M "P -1"
_symmetry_group_IT_number 2
_symmetry_cell_setting 'triclinic'
loop_
_space_group_symop_operation_xyz
x,y,z
-x,-y,-z
loop_
_atom_site_type_symbol
_atom_site_label
_atom_site_fract_x
_atom_site_fract_y
_atom_site_fract_z
Si Si1 0.000000 0.500000 0.500000
Si Si2 0.848656 0.406100 0.198835
Si Si3 0.107254 0.918119 0.055629
Si Si4 0.480658 0.717413 0.333582
Si Si5 0.036647 0.309310 0.346614
Si Si6 0.903195 0.989014 0.691046
Si Si7 0.419029 0.271853 0.436568
O O1 0.778571 0.410505 0.533347
O O2 0.852499 0.443236 0.698123
O O3 0.934355 0.639386 0.175085
O O4 0.897355 0.278883 0.297457
O O5 0.587878 0.256813 0.308468
O O6 0.000000 0.500000 0.000000
O O7 0.134469 0.991458 0.163658
O O8 0.347921 0.046802 0.868403
O O9 0.000000 0.000000 0.000000
O O10 0.496631 0.527439 0.327928
O O11 0.565345 0.767822 0.422367
O O12 0.906230 0.162725 0.561447
O O13 0.204349 0.267790 0.250774
O O14 0.160399 0.099406 0.545339
#
# Coordination Sequence:
#
# PCOD9055655 Si02
#       7
#     1   2   2   2   2   2   2
#     4  12  22  46  70  98 144 180 232 284 350 420
#     4  12  26  43  70 108 143 178 238 298 346 417
#     4  12  22  43  72 108 140 180 242 294 344 417
#     4  11  23  40  74 103 137 188 232 286 351 420
#     4  11  25  44  70  99 146 186 227 293 353 422
#     4  11  24  45  74 101 141 189 235 285 357 425
#     4  11  21  42  74  99 137 193 229 286 357 417
#
# _framework density 25.511717000000001
#
# number of rings (size 3 to 8) (size 9 to 14) (size 15 to 20)
#    0.000    0.615    6.154    2.769    0.000    1.846 
#    0.000    7.692    0.000    0.000    0.000    0.000 
#    0.000    0.000    0.000    0.000    0.000    0.000 
#
# Total GULP energy -72493.886062 kJ/mol
# GULP energy per Si atom -5576.452774 kJ/mol
# Density = 2.545365 g / cm^3
# Si number density = 25.511717 Si / 1000 Ang^3
#
#
#
# Elastic Constant Matrix: (Units=GPa)
#
#
# Indices 1 2 3 4 5 6 
#
# 1 123.5450 13.1821 43.6252 -1.2319 20.9556 -18.8712
# 2 13.1821 57.9314 14.9955 8.0439 17.7561 -13.9589
# 3 43.6252 14.9955 118.6961 14.0743 5.5745 -5.2078
# 4 -1.2319 8.0439 14.0743 37.8275 7.6478 7.9460
# 5 20.9556 17.7561 5.5745 7.6478 39.5085 -1.4572
# 6 -18.8712 -13.9589 -5.2078 7.9460 -1.4572 39.6892
#
#
#
# Elastic Compliance Matrix: (Units=1/GPa)
#
#
# Indices 1 2 3 4 5 6 
#
# 1 0.011117 0.001210 -0.003971 0.001843 -0.006067 0.004599
# 2 0.001210 0.023189 -0.002049 -0.004049 -0.009662 0.008918
# 3 -0.003971 -0.002049 0.010493 -0.003991 0.002306 -0.000348
# 4 0.001843 -0.004049 -0.003991 0.031429 -0.004957 -0.007546
# 5 -0.006067 -0.009662 0.002306 -0.004957 0.033367 -0.003763
# 6 0.004599 0.008918 -0.000348 -0.007546 -0.003763 0.031846
#
#
# Mechanical properties :
#
#
# Convention : Reuss Voigt Hill
#
# Bulk Modulus (GPa) = 28.42553 49.30868 38.86711
# Shear Modulus (GPa) = 30.71506 38.62970 34.67238
#
# Velocity S-wave (km/s) = 3.47358 3.89549 3.69057
# Velocity P-wave (km/s) = 5.22053 6.29308 5.78173
#
# Compressibility (1/GPa) = 0.03517964
#
# Stress axis : x y z
#
# Youngs Moduli (GPa) = 89.95133 43.12316 95.30431
#
# Poissons Ratio (x) = -0.05218 0.37842
# Poissons Ratio (y) = -0.10884 0.19529
# Poissons Ratio (z) = 0.35716 0.08837
#
# Static dielectric constant tensor:
#      x y z
#    x 2.024120 -0.017800 -0.008430 
#    y -0.017800 1.277890 0.090960 
#    z -0.008430 0.090960 1.975610 
# 
# From -- ./inp_files/377852.got.cif
#   From: 2010.05.17/outbox.cif.g08.bks.cpg/sg2_189_cif.got.tgz:377852.got - 2010.06.03 11:33:40.
