data_PCOD9055407
_publ_section_title
;
Structure prediction by ZEFSAII (Michael W. Deem and Ramdas Pophale) SiO2 
 PCOD9055407
Probable space group: P -1
;
_chemical_formula_sum "Si O2"
_cell_formula_units_Z 14
_cell_length_a 9.436839
_cell_length_b 14.075826
_cell_length_c 12.217070
_cell_angle_alpha 138.222628
_cell_angle_beta 34.258452
_cell_angle_gamma 140.406774
_cell_volume 554.778939
_symmetry_space_group_name_H-M "P -1"
_symmetry_group_IT_number 2
_symmetry_cell_setting 'triclinic'
loop_
_space_group_symop_operation_xyz
x,y,z
-x,-y,-z
loop_
_atom_site_type_symbol
_atom_site_label
_atom_site_fract_x
_atom_site_fract_y
_atom_site_fract_z
Si Si1 0.734151 0.600877 0.192184
Si Si2 0.480151 0.149290 0.848252
Si Si3 0.196490 0.347649 0.202124
Si Si4 0.063499 0.597864 0.377090
Si Si5 0.262228 0.580470 0.749967
Si Si6 0.805789 0.943888 0.465005
Si Si7 0.645358 0.889752 0.852638
O O1 0.486494 0.465346 0.171493
O O2 0.775099 0.538921 0.230623
O O3 0.692833 0.759014 0.365780
O O4 0.014659 0.635395 0.975861
O O5 0.557649 0.000220 0.664433
O O6 0.728187 0.279618 0.734081
O O7 0.223708 0.190877 0.009801
O O8 0.461354 0.166452 0.005840
O O9 0.980540 0.320712 0.415557
O O10 0.145235 0.457547 0.240463
O O11 0.784669 0.508635 0.410492
O O12 0.537176 0.735745 0.715286
O O13 0.027688 0.022844 0.294581
O O14 0.000000 0.000000 0.500000
O O15 0.500000 0.000000 0.000000
#
# Coordination Sequence:
#
# PCOD9055407 Si02
#       7
#     2   2   2   2   2   2   2
#     4  11  23  42  69 107 133 175 233 284 332 414
#     4  12  23  44  68  98 141 184 221 282 345 401
#     4  11  25  46  72 101 136 177 240 282 332 415
#     4  11  25  44  74 101 131 185 232 283 344 399
#     4  11  21  41  71 102 135 176 231 285 340 392
#     4  12  25  40  65 104 146 180 215 278 359 398
#     4  12  23  41  65 104 146 175 222 282 339 411
#
# _framework density 25.235275999999999
#
# number of rings (size 3 to 8) (size 9 to 14) (size 15 to 20)
#    0.000    0.571    5.714    3.000    2.000    0.571 
#    0.000    0.714    0.000    5.143    0.000    0.000 
#    0.000    0.000    0.000    0.000    0.000    0.000 
#
# Total GULP energy -78399.587240 kJ/mol
# GULP energy per Si atom -5599.970517 kJ/mol
# Density = 2.517784 g / cm^3
# Si number density = 25.235276 Si / 1000 Ang^3
#
#
#
# Elastic Constant Matrix: (Units=GPa)
#
#
# Indices 1 2 3 4 5 6 
#
# 1 49.7512 28.9964 26.4527 6.6146 -2.4184 -20.4377
# 2 28.9964 111.3725 49.7294 14.5326 6.2460 -33.1687
# 3 26.4527 49.7294 160.6739 33.4515 -22.6848 -23.5030
# 4 6.6146 14.5326 33.4515 54.9096 -18.1761 -4.4250
# 5 -2.4184 6.2460 -22.6848 -18.1761 32.0219 4.4693
# 6 -20.4377 -33.1687 -23.5030 -4.4250 4.4693 23.6865
#
#
#
# Elastic Compliance Matrix: (Units=1/GPa)
#
#
# Indices 1 2 3 4 5 6 
#
# 1 0.031839 0.001378 -0.001677 -0.002337 -0.004303 0.028113
# 2 0.001378 0.019280 -0.002929 -0.005499 -0.012569 0.026625
# 3 -0.001677 -0.002929 0.008943 -0.002662 0.005006 0.001883
# 4 -0.002337 -0.005499 -0.002662 0.025717 0.015059 -0.010396
# 5 -0.004303 -0.012569 0.005006 0.015059 0.048618 -0.022706
# 6 0.028113 0.026625 0.001883 -0.010396 -0.022706 0.107969
#
#
# Mechanical properties :
#
#
# Convention : Reuss Voigt Hill
#
# Bulk Modulus (GPa) = 18.65480 59.12828 38.89154
# Shear Modulus (GPa) = 18.74836 36.56489 27.65662
#
# Velocity S-wave (km/s) = 2.72865 3.81065 3.31411
# Velocity P-wave (km/s) = 4.16363 6.54546 5.48538
#
# Compressibility (1/GPa) = 0.05360550
#
# Stress axis : x y z
#
# Youngs Moduli (GPa) = 31.40838 51.86803 111.82039
#
# Poissons Ratio (x) = -0.07148 0.18752
# Poissons Ratio (y) = -0.04329 0.32754
# Poissons Ratio (z) = 0.05267 0.15193
#
# Static dielectric constant tensor:
#      x y z
#    x 1.986870 -0.032230 -0.049060 
#    y -0.032230 1.937480 0.006710 
#    z -0.049060 0.006710 2.066700 
# 
# From -- ./inp_files/520983.got.cif
#   From: 2010.05.17/outbox.cif.g08.bks.cpg/sg2_261_cif.got.tgz:520983.got - 2010.06.03 11:33:40.
