data_PCOD9055724
_publ_section_title
;
Structure prediction by ZEFSAII (Michael W. Deem and Ramdas Pophale) SiO2 
 PCOD9055724
Probable space group: P -1
;
_chemical_formula_sum "Si O2"
_cell_formula_units_Z 16
_cell_length_a 18.158235
_cell_length_b 15.780332
_cell_length_c 10.068410
_cell_angle_alpha 145.473423
_cell_angle_beta 44.954246
_cell_angle_gamma 155.262498
_cell_volume 674.174943
_symmetry_space_group_name_H-M "P -1"
_symmetry_group_IT_number 2
_symmetry_cell_setting 'triclinic'
loop_
_space_group_symop_operation_xyz
x,y,z
-x,-y,-z
loop_
_atom_site_type_symbol
_atom_site_label
_atom_site_fract_x
_atom_site_fract_y
_atom_site_fract_z
Si Si1 0.235099 0.994912 0.183922
Si Si2 0.970674 0.416270 0.750877
Si Si3 0.670581 0.541449 0.680773
Si Si4 0.441596 0.270821 0.010587
Si Si5 0.818987 0.702725 0.995834
Si Si6 0.992297 0.836904 0.479048
Si Si7 0.915112 0.244832 0.319202
Si Si8 0.593473 0.982800 0.771396
O O1 0.089712 0.948878 0.356318
O O2 0.344910 0.073928 0.276578
O O3 0.120231 0.715287 0.925401
O O4 0.370312 0.194399 0.153000
O O5 0.022199 0.358323 0.724421
O O6 0.947445 0.281676 0.481477
O O7 0.773839 0.249689 0.816386
O O8 0.777149 0.671464 0.851779
O O9 0.541002 0.248103 0.459610
O O10 0.801682 0.678791 0.563253
O O11 0.561346 0.566450 0.837020
O O12 0.637695 0.435454 0.951603
O O13 0.290127 0.004830 0.780732
O O14 0.978058 0.769363 0.897387
O O15 0.875874 0.920833 0.277438
O O16 0.000000 0.500000 0.500000
O O17 0.500000 0.000000 0.000000
#
# Coordination Sequence:
#
# PCOD9055724 Si02
#       8
#     2   2   2   2   2   2   2   2
#     4  11  25  44  64 100 145 181 226 288 347 413
#     4  11  21  43  68  94 141 179 229 288 339 406
#     4  12  23  44  72 102 136 179 238 287 342 414
#     4  12  26  45  69 106 141 183 230 282 357 413
#     4  12  26  46  73 102 139 179 237 296 336 412
#     4  11  22  43  73  96 134 184 226 287 347 402
#     4  12  25  45  70 103 138 182 231 284 356 405
#     4  11  24  40  69 103 131 185 235 280 345 413
#
# _framework density 23.732711999999999
#
# number of rings (size 3 to 8) (size 9 to 14) (size 15 to 20)
#    0.000    0.500    3.750    6.750    0.000    4.000 
#    2.250    0.000    0.000    0.000    0.000    0.000 
#    0.000    0.000    0.000    0.000    0.000    0.000 
#
# Total GULP energy -89554.017448 kJ/mol
# GULP energy per Si atom -5597.126091 kJ/mol
# Density = 2.367870 g / cm^3
# Si number density = 23.732712 Si / 1000 Ang^3
#
#
#
# Elastic Constant Matrix: (Units=GPa)
#
#
# Indices 1 2 3 4 5 6 
#
# 1 19.6699 1.6237 0.0384 4.0692 0.5249 -5.8851
# 2 1.6237 128.5426 20.5792 -6.0048 0.4925 0.3233
# 3 0.0384 20.5792 120.5684 12.3878 6.4795 7.1460
# 4 4.0692 -6.0048 12.3878 41.8142 4.0932 8.2011
# 5 0.5249 0.4925 6.4795 4.0932 34.9093 -1.3998
# 6 -5.8851 0.3233 7.1460 8.2011 -1.3998 33.7745
#
#
#
# Elastic Compliance Matrix: (Units=1/GPa)
#
#
# Indices 1 2 3 4 5 6 
#
# 1 0.056088 -0.001162 0.000286 -0.008058 0.000534 0.011703
# 2 -0.001162 0.008128 -0.001548 0.001821 -0.000039 -0.000396
# 3 0.000286 -0.001548 0.008968 -0.002519 -0.001403 -0.001279
# 4 -0.008058 0.001821 -0.002519 0.027506 -0.002971 -0.007691
# 5 0.000534 -0.000039 -0.001403 -0.002971 0.029340 0.002328
# 6 0.011703 -0.000396 -0.001279 -0.007691 0.002328 0.033886
#
#
# Mechanical properties :
#
#
# Convention : Reuss Voigt Hill
#
# Bulk Modulus (GPa) = 14.63360 34.80705 24.72033
# Shear Modulus (GPa) = 26.10354 38.53559 32.31957
#
# Velocity S-wave (km/s) = 3.32007 4.03393 3.69428
# Velocity P-wave (km/s) = 4.56908 6.03282 5.35123
#
# Compressibility (1/GPa) = 0.06833587
#
# Stress axis : x y z
#
# Youngs Moduli (GPa) = 17.82900 123.02679 111.50408
#
# Poissons Ratio (x) = 0.14298 -0.03190
# Poissons Ratio (y) = 0.02072 0.17266
# Poissons Ratio (z) = -0.00510 0.19050
#
# Static dielectric constant tensor:
#      x y z
#    x 1.943890 -0.044210 0.038110 
#    y -0.044210 1.946630 -0.028720 
#    z 0.038110 -0.028720 1.874840 
# 
# From -- ./inp_files/472490.got.cif
#   From: 2010.05.17/outbox.cif.g08.bks.cpg/sg2_237_cif.got.tgz:472490.got - 2010.06.03 11:33:40.
