data_PCOD9055650
_publ_section_title
;
Structure prediction by ZEFSAII (Michael W. Deem and Ramdas Pophale) SiO2 
 PCOD9055650
Probable space group: P -1
;
_chemical_formula_sum "Si O2"
_cell_formula_units_Z 16
_cell_length_a 8.511571
_cell_length_b 24.029833
_cell_length_c 9.713457
_cell_angle_alpha 39.440226
_cell_angle_beta 77.987071
_cell_angle_gamma 47.418152
_cell_volume 688.020333
_symmetry_space_group_name_H-M "P -1"
_symmetry_group_IT_number 2
_symmetry_cell_setting 'triclinic'
loop_
_space_group_symop_operation_xyz
x,y,z
-x,-y,-z
loop_
_atom_site_type_symbol
_atom_site_label
_atom_site_fract_x
_atom_site_fract_y
_atom_site_fract_z
Si Si1 0.239833 0.500267 0.825481
Si Si2 0.868809 0.827442 0.139968
Si Si3 0.239950 0.936472 0.174437
Si Si4 0.090887 0.554705 0.327040
Si Si5 0.767514 0.573224 0.737151
Si Si6 0.475511 0.077898 0.230518
Si Si7 0.386050 0.668195 0.171629
Si Si8 0.900723 0.031505 0.302520
O O1 0.534063 0.373002 0.925459
O O2 0.030162 0.676257 0.483269
O O3 0.075337 0.483733 0.849339
O O4 0.277035 0.468291 0.042719
O O5 0.098745 0.758929 0.115543
O O6 0.602469 0.920367 0.912032
O O7 0.786763 0.946526 0.026320
O O8 0.539600 0.756088 0.424555
O O9 0.165862 0.936645 0.340309
O O10 0.000000 0.000000 0.000000
O O11 0.243494 0.478390 0.298653
O O12 0.322747 0.495227 0.497148
O O13 0.000000 0.500000 0.500000
O O14 0.799494 0.739963 0.026495
O O15 0.765545 0.003136 0.329128
O O16 0.500000 0.000000 0.500000
O O17 0.355450 0.781626 0.015542
O O18 0.000000 0.000000 0.500000
#
# Coordination Sequence:
#
# PCOD9055650 Si02
#       8
#     2   2   2   2   2   2   2   2
#     4  11  23  40  69 102 141 178 234 299 351 412
#     4  11  25  45  73 105 140 191 236 299 350 418
#     4  11  26  46  69  97 142 192 235 283 356 427
#     4  12  22  44  74  98 135 188 242 284 342 435
#     4  11  24  43  66 104 140 186 233 285 359 424
#     4  12  25  42  72 111 140 171 243 300 353 408
#     4  11  21  42  74  97 136 188 242 276 348 424
#     4  11  23  44  72 100 139 189 231 283 350 428
#
# _framework density 23.255126000000001
#
# number of rings (size 3 to 8) (size 9 to 14) (size 15 to 20)
#    0.000    0.750    3.750    4.125    1.750    3.500 
#    2.250    1.250    0.000    0.000    0.000    0.000 
#    0.000    0.000    0.000    0.000    0.000    0.000 
#
# Total GULP energy -89438.075592 kJ/mol
# GULP energy per Si atom -5589.879724 kJ/mol
# Density = 2.320220 g / cm^3
# Si number density = 23.255126 Si / 1000 Ang^3
#
#
#
# Elastic Constant Matrix: (Units=GPa)
#
#
# Indices 1 2 3 4 5 6 
#
# 1 97.9202 31.8331 26.9053 8.9537 2.3592 7.3076
# 2 31.8331 128.0898 24.6764 17.9430 -1.7407 5.9504
# 3 26.9053 24.6764 79.7901 11.3495 -6.1005 5.5016
# 4 8.9537 17.9430 11.3495 39.4165 -1.9324 -0.7543
# 5 2.3592 -1.7407 -6.1005 -1.9324 33.6815 -2.0266
# 6 7.3076 5.9504 5.5016 -0.7543 -2.0266 46.2346
#
#
#
# Elastic Compliance Matrix: (Units=1/GPa)
#
#
# Indices 1 2 3 4 5 6 
#
# 1 0.012053 -0.002197 -0.003295 -0.000897 -0.001685 -0.001319
# 2 -0.002197 0.009140 -0.001572 -0.003217 0.000115 -0.000689
# 3 -0.003295 -0.001572 0.014778 -0.002681 0.002614 -0.000964
# 4 -0.000897 -0.003217 -0.002681 0.027890 0.001094 0.001378
# 5 -0.001685 0.000115 0.002614 0.001094 0.030428 0.001292
# 6 -0.001319 -0.000689 -0.000964 0.001378 0.001292 0.022120
#
#
# Mechanical properties :
#
#
# Convention : Reuss Voigt Hill
#
# Bulk Modulus (GPa) = 45.78121 52.51442 49.14781
# Shear Modulus (GPa) = 36.27979 38.69222 37.48600
#
# Velocity S-wave (km/s) = 3.95407 4.08341 4.01926
# Velocity P-wave (km/s) = 6.36988 6.69800 6.53600
#
# Compressibility (1/GPa) = 0.02184302
#
# Stress axis : x y z
#
# Youngs Moduli (GPa) = 82.96709 109.40967 67.66807
#
# Poissons Ratio (x) = 0.24033 0.22299
# Poissons Ratio (y) = 0.18224 0.10638
# Poissons Ratio (z) = 0.27340 0.17200
#
# Static dielectric constant tensor:
#      x y z
#    x 1.882760 0.008840 0.030070 
#    y 0.008840 1.863460 -0.012410 
#    z 0.030070 -0.012410 1.965420 
# 
# From -- ./inp_files/225963.got.cif
#   From: 2010.05.17/outbox.cif.g08.bks.cpg/sg2_113_cif.got.tgz:225963.got - 2010.06.03 11:33:40.
