data_PCOD9055229
_publ_section_title
;
Structure prediction by ZEFSAII (Michael W. Deem and Ramdas Pophale) SiO2 
 PCOD9055229
Probable space group: P -1
;
_chemical_formula_sum "Si O2"
_cell_formula_units_Z 13
_cell_length_a 8.461199
_cell_length_b 9.873034
_cell_length_c 9.278366
_cell_angle_alpha 43.870971
_cell_angle_beta 82.727910
_cell_angle_gamma 105.242296
_cell_volume 456.699587
_symmetry_space_group_name_H-M "P -1"
_symmetry_group_IT_number 2
_symmetry_cell_setting 'triclinic'
loop_
_space_group_symop_operation_xyz
x,y,z
-x,-y,-z
loop_
_atom_site_type_symbol
_atom_site_label
_atom_site_fract_x
_atom_site_fract_y
_atom_site_fract_z
Si Si1 0.172928 0.738456 0.249146
Si Si2 0.582711 0.119573 0.614299
Si Si3 0.651886 0.554999 0.193306
Si Si4 0.245368 0.159061 0.753860
Si Si5 0.654149 0.378576 0.943035
Si Si6 0.005205 0.932444 0.711982
Si Si7 0.000000 0.500000 0.000000
O O1 0.288593 0.858403 0.285524
O O2 0.000000 0.500000 0.500000
O O3 0.301859 0.697598 0.156328
O O4 0.132910 0.913994 0.035417
O O5 0.699773 0.352475 0.328340
O O6 0.424925 0.166234 0.658236
O O7 0.484771 0.860543 0.772947
O O8 0.685653 0.643210 0.287339
O O9 0.461996 0.502199 0.178932
O O10 0.804454 0.775317 0.923090
O O11 0.120980 0.143767 0.645071
O O12 0.847825 0.517953 0.896362
O O13 0.089968 0.768470 0.832239
O O14 0.000000 0.000000 0.500000
#
# Coordination Sequence:
#
# PCOD9055229 Si02
#       7
#     2   2   2   2   2   2   1
#     4  11  21  40  75 111 150 190 244 311 381 439
#     4  11  22  43  75 114 149 189 243 321 378 437
#     4  12  26  47  81 113 144 196 258 317 381 438
#     4  11  22  49  74 114 147 193 256 315 370 452
#     4  11  25  48  72 109 150 198 255 305 374 452
#     4  12  30  51  73 111 155 200 254 311 378 459
#     4  12  28  50  76  96 154 206 244 300 382 458
#
# _framework density 28.465102000000002
#
# number of rings (size 3 to 8) (size 9 to 14) (size 15 to 20)
#    0.000    0.615    6.154    2.769    2.154    3.077 
#    0.000    1.538    0.000    0.000    0.000    0.000 
#    0.000    0.000    0.000    0.000    0.000    0.000 
#
# Total GULP energy -72773.061366 kJ/mol
# GULP energy per Si atom -5597.927797 kJ/mol
# Density = 2.840031 g / cm^3
# Si number density = 28.465102 Si / 1000 Ang^3
#
#
#
# Elastic Constant Matrix: (Units=GPa)
#
#
# Indices 1 2 3 4 5 6 
#
# 1 100.2355 36.6600 8.7612 8.7961 37.6735 30.9921
# 2 36.6600 175.7909 44.2524 13.7024 30.1405 31.2934
# 3 8.7612 44.2524 151.0714 -8.7246 18.0491 18.5135
# 4 8.7961 13.7024 -8.7246 53.8966 5.0356 8.8699
# 5 37.6735 30.1405 18.0491 5.0356 45.7514 -3.1196
# 6 30.9921 31.2934 18.5135 8.8699 -3.1196 69.5252
#
#
#
# Elastic Compliance Matrix: (Units=1/GPa)
#
#
# Indices 1 2 3 4 5 6 
#
# 1 0.019554 0.000218 0.002223 0.000473 -0.017875 -0.010270
# 2 0.000218 0.007421 -0.001316 -0.001185 -0.004633 -0.003144
# 3 0.002223 -0.001316 0.007907 0.002166 -0.004525 -0.002984
# 4 0.000473 -0.001185 0.002166 0.019875 -0.002850 -0.002918
# 5 -0.017875 -0.004633 -0.004525 -0.002850 0.042650 0.013536
# 6 -0.010270 -0.003144 -0.002984 -0.002918 0.013536 0.022150
#
#
# Mechanical properties :
#
#
# Convention : Reuss Voigt Hill
#
# Bulk Modulus (GPa) = 26.92945 67.38279 47.15612
# Shear Modulus (GPa) = 38.55515 56.32960 47.44238
#
# Velocity S-wave (km/s) = 3.68431 4.45331 4.08694
# Velocity P-wave (km/s) = 5.25165 7.08280 6.23482
#
# Compressibility (1/GPa) = 0.03713407
#
# Stress axis : x y z
#
# Youngs Moduli (GPa) = 51.13948 134.75795 126.46582
#
# Poissons Ratio (x) = -0.02943 -0.28119
# Poissons Ratio (y) = -0.01117 0.16643
# Poissons Ratio (z) = -0.11371 0.17734
#
# Static dielectric constant tensor:
#      x y z
#    x 2.350710 0.082430 -0.265560 
#    y 0.082430 2.280460 -0.202400 
#    z -0.265560 -0.202400 2.596490 
# 
# From -- ./inp_files/183879.got.cif
#   From: 2010.05.17/outbox.cif.g08.bks.cpg/sg2_92_cif.got.tgz:183879.got - 2010.06.03 11:33:40.
