data_PCOD9055026
_publ_section_title
;
Structure prediction by ZEFSAII (Michael W. Deem and Ramdas Pophale) SiO2 
 PCOD9055026
Probable space group: P -1
;
_chemical_formula_sum "Si O2"
_cell_formula_units_Z 12
_cell_length_a 5.572331
_cell_length_b 16.222897
_cell_length_c 8.348875
_cell_angle_alpha 55.958843
_cell_angle_beta 89.038564
_cell_angle_gamma 116.358100
_cell_volume 523.382481
_symmetry_space_group_name_H-M "P -1"
_symmetry_group_IT_number 2
_symmetry_cell_setting 'triclinic'
loop_
_space_group_symop_operation_xyz
x,y,z
-x,-y,-z
loop_
_atom_site_type_symbol
_atom_site_label
_atom_site_fract_x
_atom_site_fract_y
_atom_site_fract_z
Si Si1 0.347405 0.964384 0.368658
Si Si2 0.743013 0.775724 0.585719
Si Si3 0.848417 0.430549 0.738707
Si Si4 0.166725 0.996355 0.848983
Si Si5 0.332606 0.194411 0.084267
Si Si6 0.550367 0.484772 0.202011
O O1 0.284417 0.066257 0.240706
O O2 0.500000 0.000000 0.500000
O O3 0.518463 0.977726 0.192750
O O4 0.080825 0.830039 0.532451
O O5 0.753092 0.887210 0.386756
O O6 0.635521 0.756359 0.790784
O O7 0.575817 0.654826 0.622108
O O8 0.648984 0.478794 0.746429
O O9 0.000000 0.500000 0.500000
O O10 0.112612 0.448577 0.826266
O O11 0.607310 0.290197 0.878614
O O12 0.975806 0.858646 0.935757
O O13 0.000000 0.000000 0.000000
O O14 0.500000 0.500000 0.000000
#
# Coordination Sequence:
#
# PCOD9055026 Si02
#       6
#     2   2   2   2   2   2
#     4  11  21  39  72  97 134 185 236 293 362 433
#     4  11  24  42  70 103 139 185 246 298 357 441
#     4  12  30  50  75 110 153 197 246 310 377 434
#     4  11  25  41  68 106 140 178 236 305 367 430
#     4  11  24  43  70 101 137 191 241 297 367 438
#     4  12  28  48  77 111 144 200 255 303 358 443
#
# _framework density 22.927783000000002
#
# number of rings (size 3 to 8) (size 9 to 14) (size 15 to 20)
#    0.000    0.667    5.000    2.000    9.333    4.000 
#    0.000    0.000    0.000    0.000    0.000    0.000 
#    0.000    0.000    0.000    0.000    0.000    0.000 
#
# Total GULP energy -66839.502635 kJ/mol
# GULP energy per Si atom -5569.958553 kJ/mol
# Density = 2.287560 g / cm^3
# Si number density = 22.927783 Si / 1000 Ang^3
#
#
#
# Elastic Constant Matrix: (Units=GPa)
#
#
# Indices 1 2 3 4 5 6 
#
# 1 66.9523 8.6759 6.6487 -4.2215 -14.5015 -4.2370
# 2 8.6759 45.4433 6.2353 -23.3480 3.5882 -9.4923
# 3 6.6487 6.2353 110.2987 -10.0330 -14.3133 7.4461
# 4 -4.2215 -23.3480 -10.0330 54.6700 -0.5431 -7.3591
# 5 -14.5015 3.5882 -14.3133 -0.5431 30.5004 8.3946
# 6 -4.2370 -9.4923 7.4461 -7.3591 8.3946 32.6140
#
#
#
# Elastic Compliance Matrix: (Units=1/GPa)
#
#
# Indices 1 2 3 4 5 6 
#
# 1 0.017450 -0.005047 0.000546 -0.000883 0.009687 -0.002019
# 2 -0.005047 0.036961 -0.003110 0.017118 -0.012852 0.017982
# 3 0.000546 -0.003110 0.010444 0.000028 0.006900 -0.004988
# 4 -0.000883 0.017118 0.000028 0.027150 -0.005340 0.012361
# 5 0.009687 -0.012852 0.006900 -0.005340 0.046812 -0.017311
# 6 -0.002019 0.017982 -0.004988 0.012361 -0.017311 0.044017
#
#
# Mechanical properties :
#
#
# Convention : Reuss Voigt Hill
#
# Bulk Modulus (GPa) = 20.14719 29.53491 24.84105
# Shear Modulus (GPa) = 23.29911 36.96583 30.13247
#
# Velocity S-wave (km/s) = 3.19124 4.01967 3.62917
# Velocity P-wave (km/s) = 4.73128 5.86969 5.33096
#
# Compressibility (1/GPa) = 0.04963471
#
# Stress axis : x y z
#
# Youngs Moduli (GPa) = 57.30506 27.05524 95.74988
#
# Poissons Ratio (x) = 0.13655 -0.05233
# Poissons Ratio (y) = 0.28922 0.29777
# Poissons Ratio (z) = -0.03132 0.08414
#
# Static dielectric constant tensor:
#      x y z
#    x 1.227570 -0.710120 0.045400 
#    y -0.710120 1.209620 0.072760 
#    z 0.045400 0.072760 1.842910 
# 
# From -- ./inp_files/20039.got.cif
#   From: 2010.05.17/outbox.cif.g08.bks.cpg/sg2_11_cif.got.tgz:20039.got - 2010.06.03 11:33:40.
