data_PCOD9055449
_publ_section_title
;
Structure prediction by ZEFSAII (Michael W. Deem and Ramdas Pophale) SiO2 
 PCOD9055449
Probable space group: P -1
;
_chemical_formula_sum "Si O2"
_cell_formula_units_Z 16
_cell_length_a 11.057166
_cell_length_b 9.268710
_cell_length_c 8.799910
_cell_angle_alpha 82.688628
_cell_angle_beta 107.233834
_cell_angle_gamma 127.300983
_cell_volume 683.567168
_symmetry_space_group_name_H-M "P -1"
_symmetry_group_IT_number 2
_symmetry_cell_setting 'triclinic'
loop_
_space_group_symop_operation_xyz
x,y,z
-x,-y,-z
loop_
_atom_site_type_symbol
_atom_site_label
_atom_site_fract_x
_atom_site_fract_y
_atom_site_fract_z
Si Si1 0.696299 0.987457 0.400696
Si Si2 0.397769 0.844707 0.106017
Si Si3 0.482954 0.430749 0.178989
Si Si4 0.203453 0.276245 0.563246
Si Si5 0.795126 0.563017 0.929451
Si Si6 0.961890 0.216972 0.239762
Si Si7 0.048172 0.109136 0.822552
Si Si8 0.706811 0.977272 0.757826
O O1 0.526189 0.876929 0.271628
O O2 0.753038 0.859469 0.439029
O O3 0.683960 0.017049 0.570438
O O4 0.820776 0.158502 0.312441
O O5 0.293215 0.643739 0.024986
O O6 0.288129 0.882915 0.148045
O O7 0.500000 0.000000 0.000000
O O8 0.642407 0.554306 0.319475
O O9 0.347866 0.441858 0.199218
O O10 0.425204 0.225358 0.202442
O O11 0.500000 0.500000 0.000000
O O12 0.116781 0.288304 0.389177
O O13 0.067564 0.184058 0.651967
O O14 0.949953 0.631132 0.878213
O O15 0.852525 0.715505 0.058452
O O16 0.905151 0.027318 0.162316
O O17 0.868055 0.997183 0.818276
#
# Coordination Sequence:
#
# PCOD9055449 Si02
#       8
#     2   2   2   2   2   2   2   2
#     4  11  23  47  70  98 139 186 225 287 348 416
#     4  12  30  49  67  98 143 191 233 281 348 416
#     4  12  24  40  71 108 139 179 234 292 343 406
#     4  11  21  41  75 106 143 168 232 290 348 407
#     4  12  25  43  69 104 136 185 235 283 351 406
#     4  11  23  43  74 112 135 175 229 299 347 407
#     4  11  22  41  70 105 141 174 228 288 348 402
#     4  12  26  46  71  98 142 187 229 286 349 408
#
# _framework density 23.406624999999998
#
# number of rings (size 3 to 8) (size 9 to 14) (size 15 to 20)
#    0.000    0.500    6.250    2.250    3.500    1.500 
#    0.000    0.625    0.000    0.000    0.000    0.000 
#    0.000    0.000    0.000    0.000    0.000    0.000 
#
# Total GULP energy -89421.906443 kJ/mol
# GULP energy per Si atom -5588.869153 kJ/mol
# Density = 2.335335 g / cm^3
# Si number density = 23.406625 Si / 1000 Ang^3
#
#
#
# Elastic Constant Matrix: (Units=GPa)
#
#
# Indices 1 2 3 4 5 6 
#
# 1 66.2481 19.3376 22.8718 0.4483 -6.6077 13.2895
# 2 19.3376 147.8366 48.4103 12.4203 -8.7928 18.8062
# 3 22.8718 48.4103 101.8186 -0.7633 -11.7001 3.8501
# 4 0.4483 12.4203 -0.7633 31.5329 12.3813 -4.3043
# 5 -6.6077 -8.7928 -11.7001 12.3813 37.2357 -1.7344
# 6 13.2895 18.8062 3.8501 -4.3043 -1.7344 26.9340
#
#
#
# Elastic Compliance Matrix: (Units=1/GPa)
#
#
# Indices 1 2 3 4 5 6 
#
# 1 0.018359 0.000339 -0.003655 -0.002774 0.002691 -0.009042
# 2 0.000339 0.009625 -0.004122 -0.005911 0.002674 -0.007071
# 3 -0.003655 -0.004122 0.012719 0.001651 0.001977 0.003254
# 4 -0.002774 -0.005911 0.001651 0.041348 -0.014609 0.010926
# 5 0.002691 0.002674 0.001977 -0.014609 0.033273 -0.003669
# 6 -0.009042 -0.007071 0.003254 0.010926 -0.003669 0.047571
#
#
# Mechanical properties :
#
#
# Convention : Reuss Voigt Hill
#
# Bulk Modulus (GPa) = 38.72032 55.23808 46.97920
# Shear Modulus (GPa) = 26.82715 34.15943 30.49329
#
# Velocity S-wave (km/s) = 3.38913 3.82434 3.61330
# Velocity P-wave (km/s) = 5.64742 6.56897 6.12555
#
# Compressibility (1/GPa) = 0.02582623
#
# Stress axis : x y z
#
# Youngs Moduli (GPa) = 54.47004 103.89911 78.62474
#
# Poissons Ratio (x) = -0.03519 0.28735
# Poissons Ratio (y) = -0.01845 0.32409
# Poissons Ratio (z) = 0.19907 0.42826
#
# Static dielectric constant tensor:
#      x y z
#    x 1.896890 0.032470 0.003510 
#    y 0.032470 1.883320 -0.023430 
#    z 0.003510 -0.023430 1.945980 
# 
# From -- ./inp_files/243877.got.cif
#   From: 2010.05.17/outbox.cif.g08.bks.cpg/sg2_122_cif.got.tgz:243877.got - 2010.06.03 11:33:40.
