data_PCOD9055197
_publ_section_title
;
Structure prediction by ZEFSAII (Michael W. Deem and Ramdas Pophale) SiO2 
 PCOD9055197
Probable space group: P -1
;
_chemical_formula_sum "Si O2"
_cell_formula_units_Z 16
_cell_length_a 18.870548
_cell_length_b 12.714667
_cell_length_c 9.748617
_cell_angle_alpha 145.342962
_cell_angle_beta 143.992448
_cell_angle_gamma 32.978168
_cell_volume 668.456521
_symmetry_space_group_name_H-M "P -1"
_symmetry_group_IT_number 2
_symmetry_cell_setting 'triclinic'
loop_
_space_group_symop_operation_xyz
x,y,z
-x,-y,-z
loop_
_atom_site_type_symbol
_atom_site_label
_atom_site_fract_x
_atom_site_fract_y
_atom_site_fract_z
Si Si1 0.603197 0.167182 0.047216
Si Si2 0.321210 0.956686 0.268388
Si Si3 0.075138 0.896902 0.861545
Si Si4 0.183847 0.431919 0.594453
Si Si5 0.618449 0.824673 0.898225
Si Si6 0.811833 0.163535 0.577271
Si Si7 0.887309 0.518560 0.140100
Si Si8 0.566622 0.353513 0.626717
O O1 0.744536 0.144702 0.311331
O O2 0.476318 0.400537 0.149837
O O3 0.606933 0.164919 0.888170
O O4 0.603801 0.958322 0.882230
O O5 0.384301 0.806325 0.338250
O O6 0.308876 0.188380 0.502892
O O7 0.161126 0.008067 0.072329
O O8 0.187597 0.642578 0.783540
O O9 0.950417 0.947061 0.616105
O O10 0.000000 0.000000 0.000000
O O11 0.155441 0.449854 0.732223
O O12 0.044757 0.470652 0.337897
O O13 0.576520 0.642867 0.631119
O O14 0.771075 0.727726 0.099936
O O15 0.500000 0.000000 0.000000
O O16 0.686324 0.245662 0.582359
O O17 0.867740 0.329061 0.846333
#
# Coordination Sequence:
#
# PCOD9055197 Si02
#       8
#     2   2   2   2   2   2   2   2
#     4  12  28  46  68 103 144 182 231 282 352 413
#     4  12  27  46  68 105 143 184 224 285 355 412
#     4  12  22  44  75 105 133 179 231 288 344 411
#     4  11  23  41  69 103 140 177 227 287 341 408
#     4  12  24  42  69 102 133 181 231 285 339 399
#     4  12  22  45  73 104 134 178 238 286 341 408
#     4  11  21  40  71 101 135 173 235 288 333 395
#     4  12  25  45  73  98 139 185 238 284 337 413
#
# _framework density 23.935739000000002
#
# number of rings (size 3 to 8) (size 9 to 14) (size 15 to 20)
#    0.000    0.250    6.250    3.750    0.000    3.000 
#    0.000    1.250    0.000    0.000    0.000    0.000 
#    0.000    0.000    0.000    0.000    0.000    0.000 
#
# Total GULP energy -89593.223423 kJ/mol
# GULP energy per Si atom -5599.576464 kJ/mol
# Density = 2.388126 g / cm^3
# Si number density = 23.935739 Si / 1000 Ang^3
#
#
#
# Elastic Constant Matrix: (Units=GPa)
#
#
# Indices 1 2 3 4 5 6 
#
# 1 28.2495 -3.7027 -0.3456 10.6785 7.0191 7.7592
# 2 -3.7027 144.0975 14.4634 -4.4511 1.5427 18.0147
# 3 -0.3456 14.4634 68.9382 8.7747 20.5664 2.7851
# 4 10.6785 -4.4511 8.7747 45.9033 -2.1448 9.5671
# 5 7.0191 1.5427 20.5664 -2.1448 32.0412 -3.0907
# 6 7.7592 18.0147 2.7851 9.5671 -3.0907 21.2586
#
#
#
# Elastic Compliance Matrix: (Units=1/GPa)
#
#
# Indices 1 2 3 4 5 6 
#
# 1 0.049257 0.002960 0.006946 -0.009197 -0.017923 -0.019863
# 2 0.002960 0.008378 -0.001396 0.002254 -0.000886 -0.009140
# 3 0.006946 -0.001396 0.020211 -0.005551 -0.015157 -0.003706
# 4 -0.009197 0.002254 -0.005551 0.027429 0.006414 -0.009238
# 5 -0.017923 -0.000886 -0.015157 0.006414 0.046607 0.013168
# 6 -0.019863 -0.009140 -0.003706 -0.009238 0.013168 0.068592
#
#
# Mechanical properties :
#
#
# Convention : Reuss Voigt Hill
#
# Bulk Modulus (GPa) = 10.54121 29.12391 19.83256
# Shear Modulus (GPa) = 21.26960 35.23195 28.25078
#
# Velocity S-wave (km/s) = 2.98419 3.84075 3.43924
# Velocity P-wave (km/s) = 4.03577 5.64468 4.90662
#
# Compressibility (1/GPa) = 0.09486578
#
# Stress axis : x y z
#
# Youngs Moduli (GPa) = 20.30153 119.36453 49.47710
#
# Poissons Ratio (x) = -0.35326 -0.34368
# Poissons Ratio (y) = -0.06008 0.06907
# Poissons Ratio (z) = -0.14102 0.16664
#
# Static dielectric constant tensor:
#      x y z
#    x 1.842430 0.015330 0.037390 
#    y 0.015330 1.969820 0.007040 
#    z 0.037390 0.007040 1.983700 
# 
# From -- ./inp_files/333959.got.cif
#   From: 2010.05.17/outbox.cif.g08.bks.cpg/sg2_167_cif.got.tgz:333959.got - 2010.06.03 11:33:40.
