data_PCOD9055635
_publ_section_title
;
Structure prediction by ZEFSAII (Michael W. Deem and Ramdas Pophale) SiO2 
 PCOD9055635
Probable space group: P -1
;
_chemical_formula_sum "Si O2"
_cell_formula_units_Z 16
_cell_length_a 15.950179
_cell_length_b 9.919995
_cell_length_c 17.057554
_cell_angle_alpha 31.912411
_cell_angle_beta 144.788599
_cell_angle_gamma 142.125810
_cell_volume 780.934206
_symmetry_space_group_name_H-M "P -1"
_symmetry_group_IT_number 2
_symmetry_cell_setting 'triclinic'
loop_
_space_group_symop_operation_xyz
x,y,z
-x,-y,-z
loop_
_atom_site_type_symbol
_atom_site_label
_atom_site_fract_x
_atom_site_fract_y
_atom_site_fract_z
Si Si1 0.580007 0.006501 0.373316
Si Si2 0.477836 0.464085 0.142274
Si Si3 0.713547 0.882141 0.698731
Si Si4 0.779423 0.417650 0.214276
Si Si5 0.218041 0.145554 0.866239
Si Si6 0.726462 0.325647 0.757838
Si Si7 0.080276 0.272209 0.183226
Si Si8 0.927313 0.242319 0.807614
O O1 0.496954 0.234521 0.211556
O O2 0.716801 0.142274 0.350633
O O3 0.642131 0.967258 0.525209
O O4 0.445966 0.750319 0.367490
O O5 0.410951 0.326812 0.240177
O O6 0.643994 0.682240 0.167304
O O7 0.354326 0.577110 0.950785
O O8 0.838457 0.756390 0.821671
O O9 0.801845 0.127735 0.700626
O O10 0.800656 0.655974 0.177110
O O11 0.937452 0.502003 0.246033
O O12 0.055048 0.005396 0.769905
O O13 0.269419 0.908413 0.062283
O O14 0.792649 0.609761 0.711840
O O15 0.840665 0.304529 0.785976
O O16 0.000000 0.500000 0.000000
O O17 0.000000 0.000000 0.000000
#
# Coordination Sequence:
#
# PCOD9055635 Si02
#       8
#     2   2   2   2   2   2   2   2
#     4  11  22  37  59  91 127 149 191 244 310 342
#     4  11  20  35  64  92 119 150 198 247 292 341
#     4  12  23  38  60  94 117 154 198 248 292 349
#     4  11  19  35  63  90 119 154 194 248 289 348
#     4  10  17  36  58  86 115 153 198 241 288 342
#     4  11  20  37  59  84 121 161 187 242 295 352
#     4  10  23  39  59  84 120 161 198 237 295 352
#     4  12  19  34  62  89 115 147 209 244 282 343
#
# _framework density 20.48828
#
# number of rings (size 3 to 8) (size 9 to 14) (size 15 to 20)
#    0.000    1.000    7.500    1.875    0.000    1.000 
#    0.000    3.750    0.000    1.500    0.000    0.000 
#    0.000    0.000    0.000    0.000    0.000    0.000 
#
# Total GULP energy -89410.369967 kJ/mol
# GULP energy per Si atom -5588.148123 kJ/mol
# Density = 2.044165 g / cm^3
# Si number density = 20.488280 Si / 1000 Ang^3
#
#
#
# Elastic Constant Matrix: (Units=GPa)
#
#
# Indices 1 2 3 4 5 6 
#
# 1 119.1097 46.5183 5.2405 -14.6425 -18.6319 43.5333
# 2 46.5183 101.0562 10.6911 9.3739 -9.3122 38.8147
# 3 5.2405 10.6911 50.3774 4.5030 -19.9306 14.9253
# 4 -14.6425 9.3739 4.5030 21.4863 -2.6468 1.6610
# 5 -18.6319 -9.3122 -19.9306 -2.6468 27.2876 -9.1429
# 6 43.5333 38.8147 14.9253 1.6610 -9.1429 45.2129
#
#
#
# Elastic Compliance Matrix: (Units=1/GPa)
#
#
# Indices 1 2 3 4 5 6 
#
# 1 0.019503 -0.004028 0.007408 0.016391 0.013718 -0.015594
# 2 -0.004028 0.016383 0.000297 -0.009322 -0.001264 -0.010197
# 3 0.007408 0.000297 0.032500 0.002169 0.024683 -0.013204
# 4 0.016391 -0.009322 0.002169 0.063561 0.013013 -0.008199
# 5 0.013718 -0.001264 0.024683 0.013013 0.062130 -0.008186
# 6 -0.015594 -0.010197 -0.013204 -0.008199 -0.008186 0.048891
#
#
# Mechanical properties :
#
#
# Convention : Reuss Voigt Hill
#
# Bulk Modulus (GPa) = 13.20316 43.93814 28.57065
# Shear Modulus (GPa) = 19.16718 32.67027 25.91873
#
# Velocity S-wave (km/s) = 3.06194 3.99756 3.56061
# Velocity P-wave (km/s) = 4.35418 6.54212 5.55690
#
# Compressibility (1/GPa) = 0.07573947
#
# Stress axis : x y z
#
# Youngs Moduli (GPa) = 51.27343 61.03763 30.76910
#
# Poissons Ratio (x) = 0.24588 -0.22794
# Poissons Ratio (y) = 0.20655 -0.00913
# Poissons Ratio (z) = -0.37984 -0.01810
#
# Static dielectric constant tensor:
#      x y z
#    x 1.712280 0.017660 0.029960 
#    y 0.017660 1.756660 0.021830 
#    z 0.029960 0.021830 1.762710 
# 
# From -- ./inp_files/205330.got.cif
#   From: 2010.05.17/outbox.cif.g08.bks.cpg/sg2_103_cif.got.tgz:205330.got - 2010.06.03 11:33:40.
