data_PCOD9055954
_publ_section_title
;
Structure prediction by ZEFSAII (Michael W. Deem and Ramdas Pophale) SiO2 
 PCOD9055954
Probable space group: P -1
;
_chemical_formula_sum "Si O2"
_cell_formula_units_Z 16
_cell_length_a 7.694240
_cell_length_b 8.820582
_cell_length_c 14.502663
_cell_angle_alpha 139.982253
_cell_angle_beta 101.138548
_cell_angle_gamma 71.637960
_cell_volume 598.813920
_symmetry_space_group_name_H-M "P -1"
_symmetry_group_IT_number 2
_symmetry_cell_setting 'triclinic'
loop_
_space_group_symop_operation_xyz
x,y,z
-x,-y,-z
loop_
_atom_site_type_symbol
_atom_site_label
_atom_site_fract_x
_atom_site_fract_y
_atom_site_fract_z
Si Si1 0.421054 0.451481 0.711430
Si Si2 0.027967 0.685039 0.804501
Si Si3 0.673642 0.771711 0.931858
Si Si4 0.308351 0.096183 0.660968
Si Si5 0.076020 0.005116 0.244359
Si Si6 0.627459 0.701036 0.569332
Si Si7 0.705662 0.542749 0.022808
Si Si8 0.139260 0.718428 0.478616
O O1 0.601971 0.542172 0.782264
O O2 0.428302 0.204503 0.652183
O O3 0.373051 0.428542 0.589271
O O4 0.243026 0.641842 0.827722
O O5 0.862664 0.772953 0.901081
O O6 0.994353 0.870777 0.802198
O O7 0.000458 0.421080 0.644817
O O8 0.696917 0.722749 0.019632
O O9 0.500000 0.000000 0.000000
O O10 0.435533 0.900426 0.652383
O O11 0.203210 0.918674 0.517585
O O12 0.220748 0.328402 0.824021
O O13 0.237148 0.128782 0.342322
O O14 0.938741 0.110405 0.361963
O O15 0.157097 0.717352 0.108260
O O16 0.701893 0.508217 0.567980
O O17 0.500000 0.500000 0.000000
#
# Coordination Sequence:
#
# PCOD9055954 Si02
#       8
#     2   2   2   2   2   2   2   2
#     4  12  25  47  71 112 141 184 241 299 366 412
#     4  11  25  48  75 106 147 185 239 303 355 421
#     4  12  29  47  74 106 143 193 240 294 357 430
#     4  12  27  42  73 103 143 191 238 293 357 431
#     4  11  22  46  74  99 147 185 230 296 355 420
#     4  11  21  44  73 100 140 182 238 297 354 419
#     4  12  25  49  69  98 145 192 234 289 360 425
#     4  11  24  44  72 109 137 189 236 293 363 418
#
# _framework density 26.719484999999999
#
# number of rings (size 3 to 8) (size 9 to 14) (size 15 to 20)
#    0.000    0.500    5.000    3.000    5.250    2.500 
#    0.000    0.000    0.000    0.000    0.000    0.000 
#    0.000    0.000    0.000    0.000    0.000    0.000 
#
# Total GULP energy -89646.148572 kJ/mol
# GULP energy per Si atom -5602.884286 kJ/mol
# Density = 2.665867 g / cm^3
# Si number density = 26.719485 Si / 1000 Ang^3
#
#
#
# Elastic Constant Matrix: (Units=GPa)
#
#
# Indices 1 2 3 4 5 6 
#
# 1 88.3168 -11.9630 38.6635 12.7985 -10.0492 1.8558
# 2 -11.9630 71.2522 19.4030 15.5903 -11.7335 6.2072
# 3 38.6635 19.4030 136.0151 14.9529 -7.9483 14.8144
# 4 12.7985 15.5903 14.9529 45.2274 -5.6812 -1.1174
# 5 -10.0492 -11.7335 -7.9483 -5.6812 58.5881 3.5389
# 6 1.8558 6.2072 14.8144 -1.1174 3.5389 37.9202
#
#
#
# Elastic Compliance Matrix: (Units=1/GPa)
#
#
# Indices 1 2 3 4 5 6 
#
# 1 0.014776 0.005002 -0.004280 -0.004174 0.002565 -0.000232
# 2 0.005002 0.017819 -0.002784 -0.006249 0.003600 -0.002594
# 3 -0.004280 -0.002784 0.009413 -0.001008 0.000072 -0.003049
# 4 -0.004174 -0.006249 -0.001008 0.025870 0.000262 0.002359
# 5 0.002565 0.003600 0.000072 0.000262 0.018412 -0.002453
# 6 -0.000232 -0.002594 -0.003049 0.002359 -0.002453 0.028297
#
#
# Mechanical properties :
#
#
# Convention : Reuss Voigt Hill
#
# Bulk Modulus (GPa) = 26.39616 43.08790 34.74203
# Shear Modulus (GPa) = 38.06996 44.97919 41.52458
#
# Velocity S-wave (km/s) = 3.77875 4.10736 3.94648
# Velocity P-wave (km/s) = 5.37950 6.21731 5.81352
#
# Compressibility (1/GPa) = 0.03788430
#
# Stress axis : x y z
#
# Youngs Moduli (GPa) = 67.67930 56.12088 106.23863
#
# Poissons Ratio (x) = -0.28072 0.45466
# Poissons Ratio (y) = -0.33854 0.29575
# Poissons Ratio (z) = 0.28964 0.15623
#
# Static dielectric constant tensor:
#      x y z
#    x 2.412630 0.078420 -0.050780 
#    y 0.078420 2.148710 -0.052130 
#    z -0.050780 -0.052130 2.124410 
# 
# From -- ./inp_files/209259.got.cif
#   From: 2010.05.17/outbox.cif.g08.bks.cpg/sg2_105_cif.got.tgz:209259.got - 2010.06.03 11:33:40.
