data_PCOD9055214
_publ_section_title
;
Structure prediction by ZEFSAII (Michael W. Deem and Ramdas Pophale) SiO2 
 PCOD9055214
Probable space group: P -1
;
_chemical_formula_sum "Si O2"
_cell_formula_units_Z 16
_cell_length_a 9.331623
_cell_length_b 15.352318
_cell_length_c 8.940644
_cell_angle_alpha 36.007496
_cell_angle_beta 77.146749
_cell_angle_gamma 72.787078
_cell_volume 718.950489
_symmetry_space_group_name_H-M "P -1"
_symmetry_group_IT_number 2
_symmetry_cell_setting 'triclinic'
loop_
_space_group_symop_operation_xyz
x,y,z
-x,-y,-z
loop_
_atom_site_type_symbol
_atom_site_label
_atom_site_fract_x
_atom_site_fract_y
_atom_site_fract_z
Si Si1 0.241079 0.059437 0.151967
Si Si2 0.017697 0.860708 0.431953
Si Si3 0.865881 0.691785 0.941824
Si Si4 0.880631 0.493715 0.665088
Si Si5 0.401097 0.574013 0.104261
Si Si6 0.715357 0.431734 0.199095
Si Si7 0.237369 0.163673 0.685890
Si Si8 0.490077 0.874085 0.555337
O O1 0.225025 0.216099 0.028806
O O2 0.081452 0.008006 0.253823
O O3 0.352078 0.934331 0.393637
O O4 0.290405 0.073752 0.950178
O O5 0.161985 0.720069 0.583162
O O6 0.911055 0.812572 0.650477
O O7 0.911930 0.882164 0.282066
O O8 0.784357 0.572218 0.046072
O O9 0.021191 0.598173 0.099640
O O10 0.812244 0.662525 0.497148
O O11 0.000000 0.500000 0.500000
O O12 0.738507 0.419520 0.761725
O O13 0.329209 0.548879 0.993163
O O14 0.460194 0.727563 0.852278
O O15 0.547656 0.446845 0.285859
O O16 0.364022 0.151125 0.548086
O O17 0.500000 0.000000 0.500000
#
# Coordination Sequence:
#
# PCOD9055214 Si02
#       8
#     2   2   2   2   2   2   2   2
#     4  12  26  45  66 105 151 193 230 298 365 425
#     4  12  23  42  70 106 137 195 248 289 349 430
#     4  12  23  43  71 103 142 188 245 295 352 421
#     4  12  24  44  71 104 143 183 231 300 360 417
#     4  11  23  43  72 103 134 185 243 292 356 417
#     4  11  21  40  72 103 133 178 247 296 340 414
#     4  12  26  45  73 101 150 191 236 295 365 422
#     4  12  26  49  74 107 142 192 244 296 352 434
#
# _framework density 22.254663000000001
#
# number of rings (size 3 to 8) (size 9 to 14) (size 15 to 20)
#    0.000    0.250    5.000    6.000    0.000    1.000 
#    2.250    0.625    0.000    0.000    0.000    0.000 
#    0.000    0.000    0.000    0.000    0.000    0.000 
#
# Total GULP energy -89527.619946 kJ/mol
# GULP energy per Si atom -5595.476247 kJ/mol
# Density = 2.220401 g / cm^3
# Si number density = 22.254663 Si / 1000 Ang^3
#
#
#
# Elastic Constant Matrix: (Units=GPa)
#
#
# Indices 1 2 3 4 5 6 
#
# 1 105.7300 33.3777 -0.2512 8.4446 -12.8691 -10.9321
# 2 33.3777 112.1646 20.5085 3.2877 -23.0220 0.7652
# 3 -0.2512 20.5085 33.5605 16.5862 -10.9695 2.9928
# 4 8.4446 3.2877 16.5862 27.5211 -2.0996 -9.8178
# 5 -12.8691 -23.0220 -10.9695 -2.0996 41.5256 -1.9159
# 6 -10.9321 0.7652 2.9928 -9.8178 -1.9159 38.4411
#
#
#
# Elastic Compliance Matrix: (Units=1/GPa)
#
#
# Indices 1 2 3 4 5 6 
#
# 1 0.011696 -0.003870 0.006334 -0.006197 0.002907 0.001472
# 2 -0.003870 0.012345 -0.009585 0.006164 0.003477 0.001147
# 3 0.006334 -0.009585 0.060276 -0.040880 0.009921 -0.012647
# 4 -0.006197 0.006164 -0.040880 0.068359 -0.004992 0.018508
# 5 0.002907 0.003477 0.009921 -0.004992 0.029286 0.000170
# 6 0.001472 0.001147 -0.012647 0.018508 0.000170 0.032130
#
#
# Mechanical properties :
#
#
# Convention : Reuss Voigt Hill
#
# Bulk Modulus (GPa) = 14.27064 39.85834 27.06449
# Shear Modulus (GPa) = 19.86549 34.68556 27.27552
#
# Velocity S-wave (km/s) = 2.99096 3.95216 3.50467
# Velocity P-wave (km/s) = 4.28417 6.22697 5.34459
#
# Compressibility (1/GPa) = 0.07007393
#
# Stress axis : x y z
#
# Youngs Moduli (GPa) = 85.50003 81.00459 16.59042
#
# Poissons Ratio (x) = 0.31352 -0.10509
# Poissons Ratio (y) = 0.33092 0.15902
# Poissons Ratio (z) = -0.54156 0.77643
#
# Static dielectric constant tensor:
#      x y z
#    x 1.858410 -0.002660 -0.026190 
#    y -0.002660 1.852310 0.022760 
#    z -0.026190 0.022760 1.855930 
# 
# From -- ./inp_files/205011.got.cif
#   From: 2010.05.17/outbox.cif.g08.bks.cpg/sg2_103_cif.got.tgz:205011.got - 2010.06.03 11:33:40.
