data_PCOD9055678
_publ_section_title
;
Structure prediction by ZEFSAII (Michael W. Deem and Ramdas Pophale) SiO2 
 PCOD9055678
Probable space group: P -1
;
_chemical_formula_sum "Si O2"
_cell_formula_units_Z 14
_cell_length_a 11.705893
_cell_length_b 11.545789
_cell_length_c 11.975227
_cell_angle_alpha 49.472559
_cell_angle_beta 42.134695
_cell_angle_gamma 30.712316
_cell_volume 554.198827
_symmetry_space_group_name_H-M "P -1"
_symmetry_group_IT_number 2
_symmetry_cell_setting 'triclinic'
loop_
_space_group_symop_operation_xyz
x,y,z
-x,-y,-z
loop_
_atom_site_type_symbol
_atom_site_label
_atom_site_fract_x
_atom_site_fract_y
_atom_site_fract_z
Si Si1 0.734313 0.938376 0.022069
Si Si2 0.529325 0.661573 0.870874
Si Si3 0.605292 0.148027 0.393109
Si Si4 0.936735 0.594974 0.278763
Si Si5 0.525097 0.510010 0.343077
Si Si6 0.035219 0.188565 0.484980
Si Si7 0.365003 0.920849 0.221122
O O1 0.509136 0.973202 0.128440
O O2 0.908056 0.728015 0.111994
O O3 0.614491 0.159853 0.035336
O O4 0.822973 0.926397 0.842039
O O5 0.408506 0.813332 0.751776
O O6 0.828212 0.502379 0.757767
O O7 0.500000 0.500000 0.000000
O O8 0.650793 0.285727 0.328756
O O9 0.339684 0.247163 0.563017
O O10 0.825020 0.899655 0.442509
O O11 0.007319 0.374719 0.335643
O O12 0.500000 0.500000 0.500000
O O13 0.579285 0.653627 0.201811
O O14 0.243581 0.690014 0.381116
O O15 0.203482 0.980745 0.407895
#
# Coordination Sequence:
#
# PCOD9055678 Si02
#       7
#     2   2   2   2   2   2   2
#     4  11  25  44  66  93 135 175 217 274 326 396
#     4  12  27  47  67  97 132 173 226 273 338 390
#     4  11  24  43  70  98 134 174 220 275 324 393
#     4  11  23  45  67  99 129 177 225 270 329 392
#     4  11  22  39  66 103 135 166 219 270 326 390
#     4  11  22  42  69 101 130 174 218 269 331 389
#     4  11  21  43  64  98 137 169 218 268 328 394
#
# _framework density 25.261693000000001
#
# number of rings (size 3 to 8) (size 9 to 14) (size 15 to 20)
#    0.000    0.857    4.286    2.571    0.000    6.857 
#    2.571    0.000    0.000    0.000    0.000    0.000 
#    0.000    0.000    0.000    0.000    0.000    0.000 
#
# Total GULP energy -78341.894644 kJ/mol
# GULP energy per Si atom -5595.849617 kJ/mol
# Density = 2.520420 g / cm^3
# Si number density = 25.261693 Si / 1000 Ang^3
#
#
#
# Elastic Constant Matrix: (Units=GPa)
#
#
# Indices 1 2 3 4 5 6 
#
# 1 129.6053 37.4736 37.7780 -12.7458 12.9018 3.3007
# 2 37.4736 83.9128 21.0859 -27.2886 6.6917 5.1579
# 3 37.7780 21.0859 78.5030 -29.7218 25.7476 1.0743
# 4 -12.7458 -27.2886 -29.7218 40.0163 -3.8817 -4.7898
# 5 12.9018 6.6917 25.7476 -3.8817 59.1341 -15.5053
# 6 3.3007 5.1579 1.0743 -4.7898 -15.5053 51.7547
#
#
#
# Elastic Compliance Matrix: (Units=1/GPa)
#
#
# Indices 1 2 3 4 5 6 
#
# 1 0.010111 -0.004392 -0.005097 -0.003589 0.000175 -0.000381
# 2 -0.004392 0.017337 0.002539 0.012059 -0.001539 -0.000845
# 3 -0.005097 0.002539 0.023748 0.016710 -0.008816 -0.001516
# 4 -0.003589 0.012059 0.016710 0.044203 -0.004590 0.001396
# 5 0.000175 -0.001539 -0.008816 -0.004590 0.022311 0.006585
# 6 -0.000381 -0.000845 -0.001516 0.001396 0.006585 0.021564
#
#
# Mechanical properties :
#
#
# Convention : Reuss Voigt Hill
#
# Bulk Modulus (GPa) = 26.81289 53.85513 40.33401
# Shear Modulus (GPa) = 30.19244 43.22661 36.70953
#
# Velocity S-wave (km/s) = 3.46090 4.14110 3.81618
# Velocity P-wave (km/s) = 5.15825 6.65057 5.95137
#
# Compressibility (1/GPa) = 0.03729550
#
# Stress axis : x y z
#
# Youngs Moduli (GPa) = 98.90593 57.68066 42.10918
#
# Poissons Ratio (x) = 0.25334 0.21462
# Poissons Ratio (y) = 0.43440 -0.10691
# Poissons Ratio (z) = 0.50409 -0.14645
#
# Static dielectric constant tensor:
#      x y z
#    x 1.999630 0.034200 -0.052230 
#    y 0.034200 2.087170 -0.037090 
#    z -0.052230 -0.037090 2.073880 
# 
# From -- ./inp_files/427507.got.cif
#   From: 2010.05.17/outbox.cif.g08.bks.cpg/sg2_214_cif.got.tgz:427507.got - 2010.06.03 11:33:40.
