data_PCOD9055067
_publ_section_title
;
Structure prediction by ZEFSAII (Michael W. Deem and Ramdas Pophale) SiO2 
 PCOD9055067
Probable space group: P -1
;
_chemical_formula_sum "Si O2"
_cell_formula_units_Z 14
_cell_length_a 8.362649
_cell_length_b 8.989431
_cell_length_c 18.739191
_cell_angle_alpha 147.291989
_cell_angle_beta 54.456442
_cell_angle_gamma 113.646276
_cell_volume 606.833589
_symmetry_space_group_name_H-M "P -1"
_symmetry_group_IT_number 2
_symmetry_cell_setting 'triclinic'
loop_
_space_group_symop_operation_xyz
x,y,z
-x,-y,-z
loop_
_atom_site_type_symbol
_atom_site_label
_atom_site_fract_x
_atom_site_fract_y
_atom_site_fract_z
Si Si1 0.363107 0.616366 0.377417
Si Si2 0.590681 0.821718 0.158695
Si Si3 0.754306 0.905173 0.750956
Si Si4 0.753377 0.768654 0.366001
Si Si5 0.103067 0.268579 0.087760
Si Si6 0.111014 0.203912 0.814597
Si Si7 0.479145 0.331741 0.089207
O O1 0.234220 0.424057 0.373241
O O2 0.537391 0.704050 0.415884
O O3 0.479925 0.429490 0.208699
O O4 0.246155 0.905373 0.489505
O O5 0.724251 0.950780 0.233974
O O6 0.514123 0.580727 0.126613
O O7 0.398145 0.995288 0.236108
O O8 0.760343 0.708983 0.008951
O O9 0.959251 0.018090 0.747914
O O10 0.641420 0.072466 0.915388
O O11 0.779391 0.729358 0.258119
O O12 0.934684 0.541849 0.256967
O O13 0.265494 0.250273 0.099397
O O14 0.000000 0.000000 0.000000
O O15 0.000000 0.500000 0.000000
#
# Coordination Sequence:
#
# PCOD9055067 Si02
#       7
#     2   2   2   2   2   2   2
#     4  11  25  40  62  88 131 174 202 265 320 372
#     4  11  22  40  65  96 121 163 209 263 320 366
#     4  11  23  40  64  97 127 157 221 270 308 373
#     4  11  22  43  61  89 130 169 211 252 327 388
#     4  11  23  37  67  98 124 155 214 276 309 370
#     4  12  21  38  71  91 123 167 212 264 323 376
#     4  11  21  40  65  90 126 167 212 256 322 376
#
# _framework density 23.070575999999999
#
# number of rings (size 3 to 8) (size 9 to 14) (size 15 to 20)
#    0.000    0.857    4.286    4.714    2.000    1.143 
#    0.000    0.714    3.143    0.000    0.000    0.000 
#    0.000    0.000    0.000    0.000    0.000    0.000 
#
# Total GULP energy -78173.713285 kJ/mol
# GULP energy per Si atom -5583.836663 kJ/mol
# Density = 2.301807 g / cm^3
# Si number density = 23.070576 Si / 1000 Ang^3
#
#
#
# Elastic Constant Matrix: (Units=GPa)
#
#
# Indices 1 2 3 4 5 6 
#
# 1 123.7561 46.7521 0.8805 11.2389 -5.5404 34.3607
# 2 46.7521 110.8164 20.4252 32.4093 1.7007 28.4330
# 3 0.8805 20.4252 50.2350 12.4376 0.1651 10.0264
# 4 11.2389 32.4093 12.4376 33.2473 1.0592 11.7279
# 5 -5.5404 1.7007 0.1651 1.0592 13.9459 -2.9827
# 6 34.3607 28.4330 10.0264 11.7279 -2.9827 45.9429
#
#
#
# Elastic Compliance Matrix: (Units=1/GPa)
#
#
# Indices 1 2 3 4 5 6 
#
# 1 0.011489 -0.004023 0.002425 0.001406 0.003472 -0.006766
# 2 -0.004023 0.015451 -0.002721 -0.011431 -0.003278 -0.003255
# 3 0.002425 -0.002721 0.023074 -0.005508 0.000646 -0.003717
# 4 0.001406 -0.011431 -0.005508 0.044377 -0.002261 -0.004250
# 5 0.003472 -0.003278 0.000646 -0.002261 0.074658 0.004715
# 6 -0.006766 -0.003255 -0.003717 -0.004250 0.004715 0.031043
#
#
# Mechanical properties :
#
#
# Convention : Reuss Voigt Hill
#
# Bulk Modulus (GPa) = 24.16831 46.76926 35.46878
# Shear Modulus (GPa) = 22.46966 33.07720 27.77343
#
# Velocity S-wave (km/s) = 3.12421 3.79058 3.47341
# Velocity P-wave (km/s) = 4.84900 6.28286 5.61191
#
# Compressibility (1/GPa) = 0.04137650
#
# Stress axis : x y z
#
# Youngs Moduli (GPa) = 87.03881 64.71963 43.33900
#
# Poissons Ratio (x) = 0.26035 -0.10510
# Poissons Ratio (y) = 0.35013 0.11793
# Poissons Ratio (z) = -0.21107 0.17611
#
# Static dielectric constant tensor:
#      x y z
#    x 1.906340 0.011940 -0.045200 
#    y 0.011940 1.927070 -0.002460 
#    z -0.045200 -0.002460 1.957070 
# 
# From -- ./inp_files/157719.got.cif
#   From: 2010.05.17/outbox.cif.g08.bks.cpg/sg2_79_cif.got.tgz:157719.got - 2010.06.03 11:33:40.
