data_PCOD9055262
_publ_section_title
;
Structure prediction by ZEFSAII (Michael W. Deem and Ramdas Pophale) SiO2 
 PCOD9055262
Probable space group: P -1
;
_chemical_formula_sum "Si O2"
_cell_formula_units_Z 14
_cell_length_a 7.925146
_cell_length_b 9.167224
_cell_length_c 11.932279
_cell_angle_alpha 83.352349
_cell_angle_beta 137.983235
_cell_angle_gamma 96.767307
_cell_volume 575.695032
_symmetry_space_group_name_H-M "P -1"
_symmetry_group_IT_number 2
_symmetry_cell_setting 'triclinic'
loop_
_space_group_symop_operation_xyz
x,y,z
-x,-y,-z
loop_
_atom_site_type_symbol
_atom_site_label
_atom_site_fract_x
_atom_site_fract_y
_atom_site_fract_z
Si Si1 0.945873 0.527145 0.844332
Si Si2 0.677270 0.129657 0.242531
Si Si3 0.741112 0.031949 0.807013
Si Si4 0.107876 0.167538 0.298708
Si Si5 0.950676 0.337831 0.544682
Si Si6 0.389782 0.680166 0.399567
Si Si7 0.333304 0.349052 0.918337
O O1 0.095960 0.409062 0.861218
O O2 0.018340 0.695263 0.836264
O O3 0.662050 0.476205 0.673776
O O4 0.000000 0.500000 0.000000
O O5 0.838852 0.232247 0.400905
O O6 0.893036 0.077446 0.269454
O O7 0.501571 0.013663 0.233929
O O8 0.482133 0.224413 0.065795
O O9 0.737073 0.197251 0.750379
O O10 0.749325 0.931162 0.709216
O O11 0.000000 0.000000 0.000000
O O12 0.322619 0.255440 0.467323
O O13 0.737319 0.322757 0.539067
O O14 0.000000 0.500000 0.500000
O O15 0.215438 0.307240 0.742288
O O16 0.500000 0.500000 0.000000
#
# Coordination Sequence:
#
# PCOD9055262 Si02
#       7
#     2   2   2   2   2   2   2
#     4  11  23  41  71 105 139 189 236 301 361 417
#     4  12  25  46  75 105 143 195 241 299 362 429
#     4  12  27  52  74  99 151 197 233 301 370 426
#     4  12  25  45  74 108 140 181 253 294 352 443
#     4  11  22  41  73 102 141 195 228 294 374 414
#     4  11  25  47  69 103 151 186 240 299 357 441
#     4  11  21  41  65 103 150 177 237 296 356 428
#
# _framework density 24.318431
#
# number of rings (size 3 to 8) (size 9 to 14) (size 15 to 20)
#    0.000    0.571    4.286    5.143    0.000    2.286 
#    2.571    0.000    0.000    0.000    0.000    0.000 
#    0.000    0.000    0.000    0.000    0.000    0.000 
#
# Total GULP energy -78284.352033 kJ/mol
# GULP energy per Si atom -5591.739431 kJ/mol
# Density = 2.426308 g / cm^3
# Si number density = 24.318431 Si / 1000 Ang^3
#
#
#
# Elastic Constant Matrix: (Units=GPa)
#
#
# Indices 1 2 3 4 5 6 
#
# 1 106.8344 34.5247 12.6988 -8.7039 9.2671 43.6005
# 2 34.5247 79.8207 3.4019 -1.6500 3.2766 41.9528
# 3 12.6988 3.4019 125.2493 6.4918 -2.9784 5.8331
# 4 -8.7039 -1.6500 6.4918 36.0196 5.5879 1.3765
# 5 9.2671 3.2766 -2.9784 5.5879 30.6508 5.0080
# 6 43.6005 41.9528 5.8331 1.3765 5.0080 42.6315
#
#
#
# Elastic Compliance Matrix: (Units=1/GPa)
#
#
# Indices 1 2 3 4 5 6 
#
# 1 0.018007 0.004167 -0.001312 0.006171 -0.003528 -0.022122
# 2 0.004167 0.027140 0.000123 0.003367 0.000324 -0.031133
# 3 -0.001312 0.000123 0.008258 -0.002041 0.001563 -0.000027
# 4 0.006171 0.003367 -0.002041 0.031157 -0.006538 -0.009584
# 5 -0.003528 0.000324 0.001563 -0.006538 0.035139 -0.000841
# 6 -0.022122 -0.031133 -0.000027 -0.009584 -0.000841 0.077131
#
#
# Mechanical properties :
#
#
# Convention : Reuss Voigt Hill
#
# Bulk Modulus (GPa) = 16.84621 45.90613 31.37617
# Shear Modulus (GPa) = 23.73474 39.27899 31.50687
#
# Velocity S-wave (km/s) = 3.12749 4.02331 3.60334
# Velocity P-wave (km/s) = 4.47034 6.36402 5.49930
#
# Compressibility (1/GPa) = 0.05936052
#
# Stress axis : x y z
#
# Youngs Moduli (GPa) = 55.53508 36.84596 121.09498
#
# Poissons Ratio (x) = -0.15353 0.15892
# Poissons Ratio (y) = -0.23140 -0.01495
# Poissons Ratio (z) = 0.07288 -0.00455
#
# Static dielectric constant tensor:
#      x y z
#    x 1.923850 0.128250 0.150960 
#    y 0.128250 1.732950 0.003970 
#    z 0.150960 0.003970 2.177900 
# 
# From -- ./inp_files/382151.got.cif
#   From: 2010.05.17/outbox.cif.g08.bks.cpg/sg2_192_cif.got.tgz:382151.got - 2010.06.03 11:33:40.
