data_PCOD9055715
_publ_section_title
;
Structure prediction by ZEFSAII (Michael W. Deem and Ramdas Pophale) SiO2 
 PCOD9055715
Probable space group: P -1
;
_chemical_formula_sum "Si O2"
_cell_formula_units_Z 14
_cell_length_a 6.717533
_cell_length_b 22.942671
_cell_length_c 17.512451
_cell_angle_alpha 158.518164
_cell_angle_beta 32.290070
_cell_angle_gamma 137.527621
_cell_volume 511.151125
_symmetry_space_group_name_H-M "P -1"
_symmetry_group_IT_number 2
_symmetry_cell_setting 'triclinic'
loop_
_space_group_symop_operation_xyz
x,y,z
-x,-y,-z
loop_
_atom_site_type_symbol
_atom_site_label
_atom_site_fract_x
_atom_site_fract_y
_atom_site_fract_z
Si Si1 0.363866 0.822313 0.744053
Si Si2 0.633830 0.880870 0.437591
Si Si3 0.731972 0.830026 0.839323
Si Si4 0.846089 0.748100 0.936955
Si Si5 0.612851 0.624949 0.022873
Si Si6 0.327137 0.673056 0.891282
Si Si7 0.432390 0.321587 0.653039
O O1 0.593555 0.704604 0.460522
O O2 0.930648 0.869768 0.903532
O O3 0.264007 0.748553 0.766292
O O4 0.481684 0.994766 0.912866
O O5 0.754113 0.789444 0.367671
O O6 0.385798 0.061491 0.750246
O O7 0.416561 0.772201 0.322926
O O8 0.030526 0.851426 0.225252
O O9 0.517376 0.698459 0.780389
O O10 0.103856 0.750253 0.571439
O O11 0.769463 0.683681 0.965753
O O12 0.646834 0.643742 0.816671
O O13 0.364604 0.502731 0.929247
O O14 0.027174 0.559630 0.851533
#
# Coordination Sequence:
#
# PCOD9055715 Si02
#       7
#     2   2   2   2   2   2   2
#     4   8  16  29  60  78 100 150 184 210 279 311
#     4  10  20  36  60  80 109 149 185 220 273 326
#     4   8  14  33  55  81 103 142 189 216 263 324
#     4  11  18  40  56  82 113 141 184 236 259 324
#     4  10  24  32  57  87 112 142 182 221 285 322
#     4   9  21  34  56  86 106 144 189 218 276 319
#     4  10  17  36  59  77 114 149 177 223 276 334
#
# _framework density 27.389161999999999
#
# number of rings (size 3 to 8) (size 9 to 14) (size 15 to 20)
#    1.714    0.857    1.429    2.143    0.000    1.143 
#    0.000    1.429    0.000    0.000    0.000    0.000 
#    0.000    0.000    0.000    0.000    0.000    0.000 
#
# Total GULP energy -78123.619365 kJ/mol
# GULP energy per Si atom -5580.258526 kJ/mol
# Density = 2.732682 g / cm^3
# Si number density = 27.389162 Si / 1000 Ang^3
#
#
#
# Elastic Constant Matrix: (Units=GPa)
#
#
# Indices 1 2 3 4 5 6 
#
# 1 88.0701 27.7440 23.6629 -0.3486 29.7066 -15.3010
# 2 27.7440 60.0371 0.2009 -8.7031 7.6046 -27.1914
# 3 23.6629 0.2009 115.0615 -14.7136 11.7760 -3.6012
# 4 -0.3486 -8.7031 -14.7136 32.2932 5.1369 12.4662
# 5 29.7066 7.6046 11.7760 5.1369 29.5006 -3.4531
# 6 -15.3010 -27.1914 -3.6012 12.4662 -3.4531 59.7641
#
#
#
# Elastic Compliance Matrix: (Units=1/GPa)
#
#
# Indices 1 2 3 4 5 6 
#
# 1 0.020158 -0.006665 -0.002347 -0.000267 -0.017477 0.001033
# 2 -0.006665 0.024226 0.002136 0.004136 -0.000103 0.008576
# 3 -0.002347 0.002136 0.010259 0.005931 -0.003367 -0.000443
# 4 -0.000267 0.004136 0.005931 0.039032 -0.010733 -0.006591
# 5 -0.017477 -0.000103 -0.003367 -0.010733 0.054816 0.000682
# 6 0.001033 0.008576 -0.000443 -0.006591 0.000682 0.022286
#
#
# Mechanical properties :
#
#
# Convention : Reuss Voigt Hill
#
# Bulk Modulus (GPa) = 24.45468 40.70936 32.58202
# Shear Modulus (GPa) = 25.23230 38.41563 31.82396
#
# Velocity S-wave (km/s) = 3.03850 3.74917 3.41239
# Velocity P-wave (km/s) = 4.61064 5.79977 5.23905
#
# Compressibility (1/GPa) = 0.04089197
#
# Stress axis : x y z
#
# Youngs Moduli (GPa) = 49.60790 41.27838 97.47383
#
# Poissons Ratio (x) = 0.27510 0.22878
# Poissons Ratio (y) = 0.33061 -0.20822
# Poissons Ratio (z) = 0.11643 -0.08818
#
# Static dielectric constant tensor:
#      x y z
#    x 2.254450 0.037640 -0.030900 
#    y 0.037640 2.126040 0.068590 
#    z -0.030900 0.068590 2.103400 
# 
# From -- ./inp_files/592049.got.cif
#   From: 2010.05.17/outbox.cif.g08.bks.cpg/sg2_297_cif.got.tgz:592049.got - 2010.06.03 11:33:40.
