data_PCOD9055494
_publ_section_title
;
Structure prediction by ZEFSAII (Michael W. Deem and Ramdas Pophale) SiO2 
 PCOD9055494
Probable space group: P -1
;
_chemical_formula_sum "Si O2"
_cell_formula_units_Z 16
_cell_length_a 20.540998
_cell_length_b 6.341800
_cell_length_c 16.933437
_cell_angle_alpha 68.774649
_cell_angle_beta 19.262489
_cell_angle_gamma 64.793908
_cell_volume 652.478431
_symmetry_space_group_name_H-M "P -1"
_symmetry_group_IT_number 2
_symmetry_cell_setting 'triclinic'
loop_
_space_group_symop_operation_xyz
x,y,z
-x,-y,-z
loop_
_atom_site_type_symbol
_atom_site_label
_atom_site_fract_x
_atom_site_fract_y
_atom_site_fract_z
Si Si1 0.802259 0.957627 0.044781
Si Si2 0.344688 0.958061 0.970249
Si Si3 0.982719 0.209139 0.927917
Si Si4 0.321424 0.419636 0.674787
Si Si5 0.774762 0.460043 0.408809
Si Si6 0.952732 0.204942 0.462332
Si Si7 0.308637 0.503064 0.162066
Si Si8 0.423825 0.811650 0.214893
O O1 0.665135 0.029758 0.114389
O O2 0.024093 0.771369 0.793358
O O3 0.854169 0.164015 0.006986
O O4 0.681971 0.838305 0.261244
O O5 0.154741 0.180161 0.183555
O O6 0.290234 0.725184 0.095425
O O7 0.535427 0.994200 0.798220
O O8 0.167467 0.299468 0.668074
O O9 0.880215 0.425038 0.072373
O O10 0.000000 0.000000 0.000000
O O11 0.500000 0.500000 0.500000
O O12 0.314501 0.486048 0.583414
O O13 0.609819 0.396763 0.662964
O O14 0.875861 0.441471 0.571069
O O15 0.777044 0.150878 0.615099
O O16 0.000000 0.000000 0.500000
O O17 0.500000 0.500000 0.000000
O O18 0.383129 0.272494 0.054504
#
# Coordination Sequence:
#
# PCOD9055494 Si02
#       8
#     2   2   2   2   2   2   2   2
#     4  11  22  41  64  94 126 174 224 259 325 388
#     4  11  23  41  68  95 133 175 213 268 329 389
#     4  11  21  42  67  86 125 179 219 266 318 384
#     4  11  23  39  62  94 131 168 217 271 318 383
#     4  11  22  40  65  94 130 173 219 265 327 379
#     4   9  20  42  67  94 128 169 213 257 328 398
#     4   9  22  42  65  99 129 161 219 262 321 399
#     4  11  23  42  66  97 137 166 214 275 324 384
#
# _framework density 24.521884
#
# number of rings (size 3 to 8) (size 9 to 14) (size 15 to 20)
#    0.000    1.500    3.750    1.500    0.000    9.500 
#    2.250    2.500    0.000    0.000    0.000    0.000 
#    0.000    0.000    0.000    0.000    0.000    0.000 
#
# Total GULP energy -89369.292436 kJ/mol
# GULP energy per Si atom -5585.580777 kJ/mol
# Density = 2.446607 g / cm^3
# Si number density = 24.521884 Si / 1000 Ang^3
#
#
#
# Elastic Constant Matrix: (Units=GPa)
#
#
# Indices 1 2 3 4 5 6 
#
# 1 201.2970 29.7301 13.4583 -5.5302 -12.4508 8.2447
# 2 29.7301 44.1206 5.1716 -12.1782 1.3533 6.7399
# 3 13.4583 5.1716 53.4487 -2.5867 4.3547 3.6939
# 4 -5.5302 -12.1782 -2.5867 35.9892 8.0395 -4.6628
# 5 -12.4508 1.3533 4.3547 8.0395 38.9324 -8.9104
# 6 8.2447 6.7399 3.6939 -4.6628 -8.9104 34.5127
#
#
#
# Elastic Compliance Matrix: (Units=1/GPa)
#
#
# Indices 1 2 3 4 5 6 
#
# 1 0.005780 -0.004131 -0.001306 -0.001131 0.002378 0.000027
# 2 -0.004131 0.029088 -0.000540 0.009758 -0.005363 -0.004702
# 3 -0.001306 -0.000540 0.019607 0.001488 -0.003441 -0.002369
# 4 -0.001131 0.009758 0.001488 0.032783 -0.007476 0.000704
# 5 0.002378 -0.005363 -0.003441 -0.007476 0.030315 0.007664
# 6 0.000027 -0.004702 -0.002369 0.000704 0.007664 0.032214
#
#
# Mechanical properties :
#
#
# Convention : Reuss Voigt Hill
#
# Bulk Modulus (GPa) = 23.51794 43.95405 33.73599
# Shear Modulus (GPa) = 28.42274 38.58727 33.50500
#
# Velocity S-wave (km/s) = 3.40821 3.97115 3.70040
# Velocity P-wave (km/s) = 5.00992 6.24420 5.66080
#
# Compressibility (1/GPa) = 0.04252074
#
# Stress axis : x y z
#
# Youngs Moduli (GPa) = 173.00611 34.37787 51.00288
#
# Poissons Ratio (x) = 0.14202 0.06661
# Poissons Ratio (y) = 0.71470 0.02755
# Poissons Ratio (z) = 0.22596 0.01857
#
# Static dielectric constant tensor:
#      x y z
#    x 1.908510 -0.005040 0.001610 
#    y -0.005040 1.959420 -0.004580 
#    z 0.001610 -0.004580 2.011570 
# 
# From -- ./inp_files/576770.got.cif
#   From: 2010.05.17/outbox.cif.g08.bks.cpg/sg2_289_cif.got.tgz:576770.got - 2010.06.03 11:33:40.
