data_PCOD9055195
_publ_section_title
;
Structure prediction by ZEFSAII (Michael W. Deem and Ramdas Pophale) SiO2 
 PCOD9055195
Probable space group: P -1
;
_chemical_formula_sum "Si O2"
_cell_formula_units_Z 16
_cell_length_a 10.972906
_cell_length_b 11.959647
_cell_length_c 11.805946
_cell_angle_alpha 133.464104
_cell_angle_beta 98.726272
_cell_angle_gamma 116.230215
_cell_volume 720.354256
_symmetry_space_group_name_H-M "P -1"
_symmetry_group_IT_number 2
_symmetry_cell_setting 'triclinic'
loop_
_space_group_symop_operation_xyz
x,y,z
-x,-y,-z
loop_
_atom_site_type_symbol
_atom_site_label
_atom_site_fract_x
_atom_site_fract_y
_atom_site_fract_z
Si Si1 0.267229 0.464714 0.226439
Si Si2 0.131929 0.321517 0.488897
Si Si3 0.184627 0.721549 0.009062
Si Si4 0.440596 0.962463 0.596963
Si Si5 0.920606 0.189649 0.147521
Si Si6 0.923774 0.205360 0.606632
Si Si7 0.540326 0.625610 0.710841
Si Si8 0.950756 0.104952 0.775096
O O1 0.348905 0.709553 0.436414
O O2 0.420693 0.477031 0.268600
O O3 0.092390 0.276419 0.159251
O O4 0.165077 0.356129 0.015209
O O5 0.357117 0.552944 0.664547
O O6 0.009622 0.292013 0.355553
O O7 0.057078 0.289557 0.579993
O O8 0.094264 0.101713 0.320311
O O9 0.175829 0.879411 0.178716
O O10 0.384266 0.841887 0.158284
O O11 0.141346 0.719214 0.870010
O O12 0.016279 0.451225 0.839146
O O13 0.284772 0.947795 0.571231
O O14 0.500000 0.000000 0.500000
O O15 0.732704 0.906845 0.928915
O O16 0.921240 0.081214 0.620593
O O17 0.500000 0.500000 0.500000
#
# Coordination Sequence:
#
# PCOD9055195 Si02
#       8
#     2   2   2   2   2   2   2   2
#     4  11  21  40  71 100 127 169 230 284 317 385
#     4  12  27  43  66 101 142 178 213 278 346 397
#     4  11  24  42  73  99 127 176 231 277 324 397
#     4  12  23  42  71 101 127 175 231 270 328 398
#     4  11  23  42  66  99 136 171 218 280 335 389
#     4  12  26  46  65  99 142 176 217 281 340 393
#     4  12  22  39  68  99 131 175 230 268 326 400
#     4  11  21  45  70  95 134 175 225 278 329 393
#
# _framework density 22.211295
#
# number of rings (size 3 to 8) (size 9 to 14) (size 15 to 20)
#    0.000    0.500    6.250    4.875    0.000    1.500 
#    0.000    1.875    0.000    0.000    0.000    0.000 
#    0.000    0.000    0.000    0.000    0.000    0.000 
#
# Total GULP energy -89495.925177 kJ/mol
# GULP energy per Si atom -5593.495324 kJ/mol
# Density = 2.216074 g / cm^3
# Si number density = 22.211295 Si / 1000 Ang^3
#
#
#
# Elastic Constant Matrix: (Units=GPa)
#
#
# Indices 1 2 3 4 5 6 
#
# 1 53.3355 19.2080 20.4773 -17.8975 28.9888 5.0928
# 2 19.2080 93.7343 17.5274 -17.1010 17.7992 -5.4076
# 3 20.4773 17.5274 63.4249 -10.4700 35.4362 -8.3210
# 4 -17.8975 -17.1010 -10.4700 30.8265 -11.6802 4.1940
# 5 28.9888 17.7992 35.4362 -11.6802 45.1287 -6.6260
# 6 5.0928 -5.4076 -8.3210 4.1940 -6.6260 41.6782
#
#
#
# Elastic Compliance Matrix: (Units=1/GPa)
#
#
# Indices 1 2 3 4 5 6 
#
# 1 0.035795 -0.001635 0.002168 0.013550 -0.021863 -0.008993
# 2 -0.001635 0.012451 -0.001095 0.004857 -0.001618 0.000851
# 3 0.002168 -0.001095 0.028527 0.001515 -0.022745 0.001520
# 4 0.013550 0.004857 0.001515 0.043761 -0.001265 -0.005328
# 5 -0.021863 -0.001618 -0.022745 -0.001265 0.055380 0.006852
# 6 -0.008993 0.000851 0.001520 -0.005328 0.006852 0.027132
#
#
# Mechanical properties :
#
#
# Convention : Reuss Voigt Hill
#
# Bulk Modulus (GPa) = 13.21935 36.10225 24.66080
# Shear Modulus (GPa) = 21.79722 33.74549 27.77135
#
# Velocity S-wave (km/s) = 3.13606 3.90204 3.53983
# Velocity P-wave (km/s) = 4.36781 6.04901 5.27581
#
# Compressibility (1/GPa) = 0.07564670
#
# Stress axis : x y z
#
# Youngs Moduli (GPa) = 27.93697 80.31603 35.05440
#
# Poissons Ratio (x) = 0.13135 -0.07599
# Poissons Ratio (y) = 0.04569 0.03840
# Poissons Ratio (z) = -0.06056 0.08797
#
# Static dielectric constant tensor:
#      x y z
#    x 1.830650 -0.020570 0.007900 
#    y -0.020570 1.852040 -0.013490 
#    z 0.007900 -0.013490 1.835430 
# 
# From -- ./inp_files/427894.got.cif
#   From: 2010.05.17/outbox.cif.g08.bks.cpg/sg2_214_cif.got.tgz:427894.got - 2010.06.03 11:33:40.
