data_PCOD9055645
_publ_section_title
;
Structure prediction by ZEFSAII (Michael W. Deem and Ramdas Pophale) SiO2 
 PCOD9055645
Probable space group: P -1
;
_chemical_formula_sum "Si O2"
_cell_formula_units_Z 14
_cell_length_a 9.205022
_cell_length_b 14.268876
_cell_length_c 18.357418
_cell_angle_alpha 20.631770
_cell_angle_beta 121.888831
_cell_angle_gamma 125.927247
_cell_volume 686.133193
_symmetry_space_group_name_H-M "P -1"
_symmetry_group_IT_number 2
_symmetry_cell_setting 'triclinic'
loop_
_space_group_symop_operation_xyz
x,y,z
-x,-y,-z
loop_
_atom_site_type_symbol
_atom_site_label
_atom_site_fract_x
_atom_site_fract_y
_atom_site_fract_z
Si Si1 0.793300 0.950810 0.506207
Si Si2 0.669034 0.424688 0.070905
Si Si3 0.731174 0.665670 0.492548
Si Si4 0.055040 0.221612 0.196678
Si Si5 0.800380 0.426920 0.531767
Si Si6 0.481555 0.568149 0.264036
Si Si7 0.495967 0.070053 0.139485
O O1 0.793924 0.819517 0.680092
O O2 0.643596 0.731888 0.578897
O O3 0.738309 0.227471 0.285538
O O4 0.000000 0.000000 0.500000
O O5 0.609995 0.263650 0.094289
O O6 0.500000 0.500000 0.000000
O O7 0.841964 0.697529 0.910040
O O8 0.797646 0.558766 0.514942
O O9 0.641887 0.417868 0.707685
O O10 0.580733 0.819897 0.327364
O O11 0.896014 0.933119 0.367456
O O12 0.000000 0.500000 0.000000
O O13 0.670929 0.545257 0.359621
O O14 0.000000 0.500000 0.500000
O O15 0.698827 0.095702 0.758208
O O16 0.500684 0.769606 0.052756
#
# Coordination Sequence:
#
# PCOD9055645 Si02
#       7
#     2   2   2   2   2   2   2
#     4  12  20  40  69 100 135 173 217 276 332 403
#     4  12  26  40  64 103 145 176 216 280 344 398
#     4  11  23  41  69  97 130 175 219 278 326 398
#     4  12  21  40  69 104 134 172 226 273 334 409
#     4  11  27  46  64  94 136 174 221 277 337 397
#     4  11  21  42  73  94 128 173 228 277 327 393
#     4  11  22  45  67  94 131 173 227 274 329 398
#
# _framework density 20.404202000000002
#
# number of rings (size 3 to 8) (size 9 to 14) (size 15 to 20)
#    0.000    0.571    8.571    1.714    2.000    3.429 
#    2.571    0.000    0.000    0.000    0.000    0.000 
#    0.000    0.000    0.000    0.000    0.000    0.000 
#
# Total GULP energy -78030.074355 kJ/mol
# GULP energy per Si atom -5573.576740 kJ/mol
# Density = 2.035776 g / cm^3
# Si number density = 20.404202 Si / 1000 Ang^3
#
#
#
# Elastic Constant Matrix: (Units=GPa)
#
#
# Indices 1 2 3 4 5 6 
#
# 1 130.0167 24.3061 41.3524 1.3286 -4.0922 20.2059
# 2 24.3061 80.1670 14.4952 6.4996 -3.6446 7.0794
# 3 41.3524 14.4952 120.4429 24.5119 -15.4758 -0.5138
# 4 1.3286 6.4996 24.5119 29.8355 6.5857 -7.5332
# 5 -4.0922 -3.6446 -15.4758 6.5857 32.5375 -1.9575
# 6 20.2059 7.0794 -0.5138 -7.5332 -1.9575 32.7520
#
#
#
# Elastic Compliance Matrix: (Units=1/GPa)
#
#
# Indices 1 2 3 4 5 6 
#
# 1 0.010094 -0.002129 -0.003880 0.002183 -0.001582 -0.005420
# 2 -0.002129 0.013734 0.000164 -0.004105 0.002030 -0.002475
# 3 -0.003880 0.000164 0.013247 -0.012551 0.008382 0.000180
# 4 0.002183 -0.004105 -0.012551 0.050652 -0.015802 0.010050
# 5 -0.001582 0.002030 0.008382 -0.015802 0.037906 -0.000700
# 6 -0.005420 -0.002475 0.000180 0.010050 -0.000700 0.036684
#
#
# Mechanical properties :
#
#
# Convention : Reuss Voigt Hill
#
# Bulk Modulus (GPa) = 39.39432 54.54823 46.97128
# Shear Modulus (GPa) = 27.40220 35.72318 31.56269
#
# Velocity S-wave (km/s) = 3.66863 4.18877 3.93730
# Velocity P-wave (km/s) = 6.10688 7.08422 6.61363
#
# Compressibility (1/GPa) = 0.02538437
#
# Stress axis : x y z
#
# Youngs Moduli (GPa) = 99.07240 72.81444 75.48705
#
# Poissons Ratio (x) = 0.15502 0.29288
# Poissons Ratio (y) = 0.21093 -0.01237
# Poissons Ratio (z) = 0.38439 -0.01193
#
# Static dielectric constant tensor:
#      x y z
#    x 1.856900 -0.102260 -0.141110 
#    y -0.102260 1.889390 0.056480 
#    z -0.141110 0.056480 1.778440 
# 
# From -- ./inp_files/454730.got.cif
#   From: 2010.05.17/outbox.cif.g08.bks.cpg/sg2_228_cif.got.tgz:454730.got - 2010.06.03 11:33:40.
