data_PCOD9055951
_publ_section_title
;
Structure prediction by ZEFSAII (Michael W. Deem and Ramdas Pophale) SiO2 
 PCOD9055951
Probable space group: P -1
;
_chemical_formula_sum "Si O2"
_cell_formula_units_Z 14
_cell_length_a 15.437815
_cell_length_b 11.797338
_cell_length_c 8.589290
_cell_angle_alpha 52.632643
_cell_angle_beta 135.958944
_cell_angle_gamma 149.499063
_cell_volume 551.608558
_symmetry_space_group_name_H-M "P -1"
_symmetry_group_IT_number 2
_symmetry_cell_setting 'triclinic'
loop_
_space_group_symop_operation_xyz
x,y,z
-x,-y,-z
loop_
_atom_site_type_symbol
_atom_site_label
_atom_site_fract_x
_atom_site_fract_y
_atom_site_fract_z
Si Si1 0.617451 0.800708 0.126391
Si Si2 0.065062 0.713141 0.350298
Si Si3 0.342365 0.164045 0.503180
Si Si4 0.756646 0.648921 0.132284
Si Si5 0.261020 0.493559 0.425723
Si Si6 0.004130 0.928479 0.768551
Si Si7 0.684828 0.137492 0.736124
O O1 0.562778 0.769524 0.260253
O O2 0.832585 0.920341 0.288397
O O3 0.461171 0.572283 0.019474
O O4 0.633356 0.970096 0.930315
O O5 0.145900 0.770893 0.233484
O O6 0.000000 0.500000 0.500000
O O7 0.889744 0.670758 0.172360
O O8 0.236776 0.929153 0.499861
O O9 0.518602 0.359344 0.454677
O O10 0.170888 0.126119 0.345769
O O11 0.789184 0.605878 0.381834
O O12 0.833867 0.879543 0.050274
O O13 0.258444 0.662052 0.285307
O O14 0.117959 0.309991 0.261136
O O15 0.500000 0.000000 0.500000
#
# Coordination Sequence:
#
# PCOD9055951 Si02
#       7
#     2   2   2   2   2   2   2
#     4  12  25  45  69 106 138 177 229 283 340 403
#     4  11  21  44  72  98 136 182 226 273 343 405
#     4  11  25  44  72 102 138 180 226 285 338 403
#     4  11  23  44  73  99 137 182 226 282 337 405
#     4  12  23  46  72  99 143 181 225 280 340 409
#     4  11  26  46  69 103 137 183 229 280 342 400
#     4  12  24  46  71 102 138 181 224 279 344 405
#
# _framework density 25.380316000000001
#
# number of rings (size 3 to 8) (size 9 to 14) (size 15 to 20)
#    0.000    0.571    4.286    4.286    0.000    2.286 
#    0.000    7.143    0.000    0.000    0.000    0.000 
#    0.000    0.000    0.000    0.000    0.000    0.000 
#
# Total GULP energy -78366.260859 kJ/mol
# GULP energy per Si atom -5597.590061 kJ/mol
# Density = 2.532255 g / cm^3
# Si number density = 25.380316 Si / 1000 Ang^3
#
#
#
# Elastic Constant Matrix: (Units=GPa)
#
#
# Indices 1 2 3 4 5 6 
#
# 1 162.5710 76.3387 38.6226 14.7869 2.2545 -12.1496
# 2 76.3387 195.5996 61.8716 36.6108 1.0979 -47.6622
# 3 38.6226 61.8716 102.7992 2.7655 -3.6856 -13.6997
# 4 14.7869 36.6108 2.7655 53.0337 -1.1889 0.2177
# 5 2.2545 1.0979 -3.6856 -1.1889 29.3250 10.9299
# 6 -12.1496 -47.6622 -13.6997 0.2177 10.9299 76.8465
#
#
#
# Elastic Compliance Matrix: (Units=1/GPa)
#
#
# Indices 1 2 3 4 5 6 
#
# 1 0.007719 -0.002682 -0.001379 -0.000236 -0.000443 -0.000625
# 2 -0.002682 0.009952 -0.004202 -0.005992 -0.002964 0.005438
# 3 -0.001379 -0.004202 0.012665 0.002680 0.002300 -0.000901
# 4 -0.000236 -0.005992 0.002680 0.022999 0.002911 -0.003755
# 5 -0.000443 -0.002964 0.002300 0.002911 0.037186 -0.006796
# 6 -0.000625 0.005438 -0.000901 -0.003755 -0.006796 0.017103
#
#
# Mechanical properties :
#
#
# Convention : Reuss Voigt Hill
#
# Bulk Modulus (GPa) = 72.41337 90.51506 81.46421
# Shear Modulus (GPa) = 38.83401 50.78349 44.80875
#
# Velocity S-wave (km/s) = 3.91587 4.47800 4.20633
# Velocity P-wave (km/s) = 7.00276 7.90427 7.46713
#
# Compressibility (1/GPa) = 0.01380960
#
# Stress axis : x y z
#
# Youngs Moduli (GPa) = 129.54954 100.48543 78.95676
#
# Poissons Ratio (x) = 0.26952 0.10885
# Poissons Ratio (y) = 0.34748 0.33180
# Poissons Ratio (z) = 0.17860 0.42227
#
# Static dielectric constant tensor:
#      x y z
#    x 1.987530 0.017720 0.056340 
#    y 0.017720 1.980610 -0.058770 
#    z 0.056340 -0.058770 2.117020 
# 
# From -- ./inp_files/306814.got.cif
#   From: 2010.05.17/outbox.cif.g08.bks.cpg/sg2_154_cif.got.tgz:306814.got - 2010.06.03 11:33:40.
