data_PCOD9055612
_publ_section_title
;
Structure prediction by ZEFSAII (Michael W. Deem and Ramdas Pophale) SiO2 
 PCOD9055612
Probable space group: P -1
;
_chemical_formula_sum "Si O2"
_cell_formula_units_Z 14
_cell_length_a 9.540885
_cell_length_b 10.721274
_cell_length_c 7.321889
_cell_angle_alpha 70.672563
_cell_angle_beta 105.473333
_cell_angle_gamma 124.515671
_cell_volume 579.308479
_symmetry_space_group_name_H-M "P -1"
_symmetry_group_IT_number 2
_symmetry_cell_setting 'triclinic'
loop_
_space_group_symop_operation_xyz
x,y,z
-x,-y,-z
loop_
_atom_site_type_symbol
_atom_site_label
_atom_site_fract_x
_atom_site_fract_y
_atom_site_fract_z
Si Si1 0.746022 0.110628 0.960165
Si Si2 0.843648 0.906140 0.355218
Si Si3 0.587507 0.150331 0.224702
Si Si4 0.414790 0.321533 0.020792
Si Si5 0.201955 0.607066 0.557150
Si Si6 0.505360 0.346678 0.616129
Si Si7 0.103831 0.291892 0.819457
O O1 0.702521 0.194427 0.062057
O O2 0.801983 0.004532 0.146907
O O3 0.912234 0.223437 0.847436
O O4 0.576184 0.015887 0.819074
O O5 0.665093 0.802662 0.450537
O O6 0.883662 0.787467 0.322320
O O7 0.000000 0.000000 0.500000
O O8 0.728376 0.226794 0.399190
O O9 0.487030 0.235374 0.197707
O O10 0.471299 0.315086 0.835503
O O11 0.213214 0.248634 0.011282
O O12 0.500000 0.500000 0.000000
O O13 0.322387 0.632368 0.414176
O O14 0.207737 0.477799 0.749365
O O15 0.000000 0.500000 0.500000
O O16 0.500000 0.500000 0.500000
#
# Coordination Sequence:
#
# PCOD9055612 Si02
#       7
#     2   2   2   2   2   2   2
#     4  11  26  45  68 100 139 179 226 280 342 416
#     4  11  25  43  71 104 135 175 226 281 348 404
#     4  11  25  46  67  98 135 183 226 276 349 400
#     4  11  21  42  71  98 129 175 228 272 336 402
#     4  12  28  44  67 102 138 179 229 286 344 398
#     4  11  22  45  68  98 138 170 228 281 332 406
#     4  11  24  45  67 101 133 175 237 273 334 417
#
# _framework density 24.166743
#
# number of rings (size 3 to 8) (size 9 to 14) (size 15 to 20)
#    0.000    0.857    7.143    0.429    6.000    2.857 
#    0.000    1.429    0.000    0.000    0.000    0.000 
#    0.000    0.000    0.000    0.000    0.000    0.000 
#
# Total GULP energy -78073.018358 kJ/mol
# GULP energy per Si atom -5576.644168 kJ/mol
# Density = 2.411174 g / cm^3
# Si number density = 24.166743 Si / 1000 Ang^3
#
#
#
# Elastic Constant Matrix: (Units=GPa)
#
#
# Indices 1 2 3 4 5 6 
#
# 1 155.1004 34.0785 31.8347 14.3051 -22.8079 41.4557
# 2 34.0785 94.5204 40.9805 26.2372 -10.1730 25.7563
# 3 31.8347 40.9805 68.0062 7.8426 -8.6139 17.2832
# 4 14.3051 26.2372 7.8426 44.3307 1.3133 3.6118
# 5 -22.8079 -10.1730 -8.6139 1.3133 46.2626 -4.1064
# 6 41.4557 25.7563 17.2832 3.6118 -4.1064 54.7275
#
#
#
# Elastic Compliance Matrix: (Units=1/GPa)
#
#
# Indices 1 2 3 4 5 6 
#
# 1 0.009203 0.000361 -0.002253 -0.002407 0.003734 -0.005991
# 2 0.000361 0.018437 -0.008527 -0.009146 0.002418 -0.005472
# 3 -0.002253 -0.008527 0.021005 0.002116 0.000777 -0.000995
# 4 -0.002407 -0.009146 0.002116 0.028198 -0.003307 0.003350
# 5 0.003734 0.002418 0.000777 -0.003307 0.024032 -0.002190
# 6 -0.005991 -0.005472 -0.000995 0.003350 -0.002190 0.025315
#
#
# Mechanical properties :
#
#
# Convention : Reuss Voigt Hill
#
# Bulk Modulus (GPa) = 35.96220 59.04605 47.50413
# Shear Modulus (GPa) = 31.99070 43.11304 37.55187
#
# Velocity S-wave (km/s) = 3.64228 4.22830 3.94619
# Velocity P-wave (km/s) = 5.70977 6.95154 6.36103
#
# Compressibility (1/GPa) = 0.02780697
#
# Stress axis : x y z
#
# Youngs Moduli (GPa) = 108.66416 54.23953 47.60804
#
# Poissons Ratio (x) = -0.01959 0.10724
# Poissons Ratio (y) = -0.03924 0.40597
# Poissons Ratio (z) = 0.24477 0.46251
#
# Static dielectric constant tensor:
#      x y z
#    x 1.828090 -0.010510 -0.130680 
#    y -0.010510 1.957710 0.004030 
#    z -0.130680 0.004030 1.376630 
# 
# From -- ./inp_files/177984.got.cif
#   From: 2010.05.17/outbox.cif.g08.bks.cpg/sg2_89_cif.got.tgz:177984.got - 2010.06.03 11:33:40.
