data_PCOD9055127
_publ_section_title
;
Structure prediction by ZEFSAII (Michael W. Deem and Ramdas Pophale) SiO2 
 PCOD9055127
Probable space group: P -1
;
_chemical_formula_sum "Si O2"
_cell_formula_units_Z 16
_cell_length_a 9.224439
_cell_length_b 9.244060
_cell_length_c 24.472917
_cell_angle_alpha 40.343959
_cell_angle_beta 130.737008
_cell_angle_gamma 99.435678
_cell_volume 750.765938
_symmetry_space_group_name_H-M "P -1"
_symmetry_group_IT_number 2
_symmetry_cell_setting 'triclinic'
loop_
_space_group_symop_operation_xyz
x,y,z
-x,-y,-z
loop_
_atom_site_type_symbol
_atom_site_label
_atom_site_fract_x
_atom_site_fract_y
_atom_site_fract_z
Si Si1 0.048517 0.334784 0.650073
Si Si2 0.107306 0.692409 0.646300
Si Si3 0.685076 0.066449 0.526589
Si Si4 0.730748 0.235482 0.798356
Si Si5 0.224993 0.334539 0.148106
Si Si6 0.395209 0.143243 0.691333
Si Si7 0.247686 0.846059 0.356887
Si Si8 0.280411 0.771996 0.078542
O O1 0.047452 0.526565 0.640477
O O2 0.297064 0.152185 0.724154
O O3 0.821861 0.569476 0.482377
O O4 0.990771 0.135773 0.716653
O O5 0.420605 0.438400 0.805712
O O6 0.000000 0.000000 0.500000
O O7 0.939828 0.821182 0.623541
O O8 0.499690 0.402727 0.358755
O O9 0.744515 0.101071 0.592280
O O10 0.500000 0.000000 0.500000
O O11 0.626086 0.136114 0.759446
O O12 0.736613 0.135691 0.889751
O O13 0.021373 0.086017 0.896828
O O14 0.212243 0.561845 0.117310
O O15 0.491456 0.146019 0.233234
O O16 0.235418 0.094902 0.252767
O O17 0.000000 0.500000 0.000000
O O18 0.500000 0.500000 0.500000
#
# Coordination Sequence:
#
# PCOD9055127 Si02
#       8
#     2   2   2   2   2   2   2   2
#     4  11  23  40  69 104 141 174 238 295 350 410
#     4  12  24  42  70 108 143 186 242 292 347 423
#     4  12  25  43  69 105 142 183 238 299 354 413
#     4  11  21  43  67 101 137 191 229 283 352 426
#     4  12  25  44  71  99 136 183 236 287 354 431
#     4  11  21  40  68 101 131 184 231 285 347 417
#     4  12  25  43  69 104 137 183 236 301 355 415
#     4  11  24  40  70 100 142 181 242 281 347 428
#
# _framework density 21.31157
#
# number of rings (size 3 to 8) (size 9 to 14) (size 15 to 20)
#    0.000    0.500    6.250    2.250    3.500    0.000 
#    0.000    1.250    0.000    0.000    0.000    0.000 
#    0.000    0.000    0.000    0.000    0.000    0.000 
#
# Total GULP energy -89322.575138 kJ/mol
# GULP energy per Si atom -5582.660946 kJ/mol
# Density = 2.126306 g / cm^3
# Si number density = 21.311570 Si / 1000 Ang^3
#
#
#
# Elastic Constant Matrix: (Units=GPa)
#
#
# Indices 1 2 3 4 5 6 
#
# 1 104.7471 52.1414 37.3842 -1.5133 26.8144 -20.3664
# 2 52.1414 144.8485 22.2202 0.7918 5.9061 -7.1334
# 3 37.3842 22.2202 79.5457 7.5311 29.0193 -8.1069
# 4 -1.5133 0.7918 7.5311 34.5484 -0.8674 8.8105
# 5 26.8144 5.9061 29.0193 -0.8674 35.7781 -4.6909
# 6 -20.3664 -7.1334 -8.1069 8.8105 -4.6909 39.1833
#
#
#
# Elastic Compliance Matrix: (Units=1/GPa)
#
#
# Indices 1 2 3 4 5 6 
#
# 1 0.016185 -0.004793 -0.002499 -0.000404 -0.008523 0.006094
# 2 -0.004793 0.008677 -0.001461 0.000214 0.003235 -0.000875
# 3 -0.002499 -0.001461 0.019947 -0.005306 -0.013920 0.002089
# 4 -0.000404 0.000214 -0.005306 0.032227 0.004304 -0.008000
# 5 -0.008523 0.003235 -0.013920 0.004304 0.044895 -0.002314
# 6 0.006094 -0.000875 0.002089 -0.008000 -0.002314 0.030483
#
#
# Mechanical properties :
#
#
# Convention : Reuss Voigt Hill
#
# Bulk Modulus (GPa) = 36.62530 61.40367 49.01448
# Shear Modulus (GPa) = 27.92940 36.39498 32.16219
#
# Velocity S-wave (km/s) = 3.62405 4.13698 3.88898
# Velocity P-wave (km/s) = 5.89361 7.18988 6.57377
#
# Compressibility (1/GPa) = 0.02730353
#
# Stress axis : x y z
#
# Youngs Moduli (GPa) = 61.78370 115.24589 50.13185
#
# Poissons Ratio (x) = 0.55239 0.12529
# Poissons Ratio (y) = 0.29614 0.07324
# Poissons Ratio (z) = 0.15441 0.16836
#
# Static dielectric constant tensor:
#      x y z
#    x 1.822820 -0.016730 0.058100 
#    y -0.016730 1.708990 0.069730 
#    z 0.058100 0.069730 1.750100 
# 
# From -- ./inp_files/381457.got.cif
#   From: 2010.05.17/outbox.cif.g08.bks.cpg/sg2_191_cif.got.tgz:381457.got - 2010.06.03 11:33:40.
