data_PCOD9055648
_publ_section_title
;
Structure prediction by ZEFSAII (Michael W. Deem and Ramdas Pophale) SiO2 
 PCOD9055648
Probable space group: P -1
;
_chemical_formula_sum "Si O2"
_cell_formula_units_Z 12
_cell_length_a 6.613390
_cell_length_b 9.071899
_cell_length_c 8.145518
_cell_angle_alpha 80.468444
_cell_angle_beta 80.320341
_cell_angle_gamma 105.659548
_cell_volume 452.256432
_symmetry_space_group_name_H-M "P -1"
_symmetry_group_IT_number 2
_symmetry_cell_setting 'triclinic'
loop_
_space_group_symop_operation_xyz
x,y,z
-x,-y,-z
loop_
_atom_site_type_symbol
_atom_site_label
_atom_site_fract_x
_atom_site_fract_y
_atom_site_fract_z
Si Si1 0.788374 0.888802 0.910662
Si Si2 0.125368 0.435991 0.134229
Si Si3 0.420628 0.131742 0.401762
Si Si4 0.529691 0.647659 0.215409
Si Si5 0.204240 0.651592 0.533859
Si Si6 0.076722 0.203443 0.682004
O O1 0.877308 0.740916 0.881188
O O2 0.654744 0.900325 0.764873
O O3 0.614610 0.822891 0.091861
O O4 0.966959 0.060368 0.847877
O O5 0.371988 0.539591 0.121777
O O6 0.008526 0.440569 0.323179
O O7 0.000000 0.500000 0.000000
O O8 0.636961 0.275903 0.350295
O O9 0.229920 0.155502 0.536913
O O10 0.500000 0.000000 0.500000
O O11 0.376963 0.614066 0.399362
O O12 0.761753 0.652858 0.262631
O O13 0.106602 0.757642 0.406690
#
# Coordination Sequence:
#
# PCOD9055648 Si02
#       6
#     2   2   2   2   2   2
#     4  12  24  48  75 106 145 182 245 297 346 422
#     4  12  27  50  74 102 144 195 241 288 350 428
#     4  11  21  42  74 109 139 182 239 291 356 412
#     4  11  28  45  71 110 145 190 230 294 362 427
#     4  11  24  47  73 105 146 188 236 292 360 423
#     4  11  24  46  74 108 143 187 234 299 360 414
#
# _framework density 26.533622000000001
#
# number of rings (size 3 to 8) (size 9 to 14) (size 15 to 20)
#    0.000    0.667    3.333    4.000    2.333    1.333 
#    0.000    0.000    0.000    0.000    0.000    0.000 
#    0.000    0.000    0.000    0.000    0.000    0.000 
#
# Total GULP energy -67007.730238 kJ/mol
# GULP energy per Si atom -5583.977520 kJ/mol
# Density = 2.647323 g / cm^3
# Si number density = 26.533622 Si / 1000 Ang^3
#
#
#
# Elastic Constant Matrix: (Units=GPa)
#
#
# Indices 1 2 3 4 5 6 
#
# 1 119.8768 60.6645 38.1296 0.2766 -1.2819 17.9063
# 2 60.6645 110.7212 15.3719 -24.1508 -14.6739 31.9171
# 3 38.1296 15.3719 160.3091 -17.3637 -10.6772 8.0266
# 4 0.2766 -24.1508 -17.3637 25.8031 5.9231 -4.2259
# 5 -1.2819 -14.6739 -10.6772 5.9231 48.9818 -19.0512
# 6 17.9063 31.9171 8.0266 -4.2259 -19.0512 52.6153
#
#
#
# Elastic Compliance Matrix: (Units=1/GPa)
#
#
# Indices 1 2 3 4 5 6 
#
# 1 0.015023 -0.010725 -0.004040 -0.012394 -0.002104 0.000253
# 2 -0.010725 0.021363 0.003219 0.020715 0.001340 -0.007651
# 3 -0.004040 0.003219 0.007873 0.007935 0.001363 -0.000648
# 4 -0.012394 0.020715 0.007935 0.063234 -0.002069 -0.005229
# 5 -0.002104 0.001340 0.001363 -0.002069 0.024589 0.008432
# 6 0.000253 -0.007651 -0.000648 -0.005229 0.008432 0.026293
#
#
# Mechanical properties :
#
#
# Convention : Reuss Voigt Hill
#
# Bulk Modulus (GPa) = 47.24692 68.80434 58.02563
# Shear Modulus (GPa) = 26.52202 43.92945 35.22574
#
# Velocity S-wave (km/s) = 3.16502 4.07334 3.64756
# Velocity P-wave (km/s) = 5.58583 6.93614 6.29729
#
# Compressibility (1/GPa) = 0.02116540
#
# Stress axis : x y z
#
# Youngs Moduli (GPa) = 66.56577 46.81082 127.01831
#
# Poissons Ratio (x) = 0.50205 0.51314
# Poissons Ratio (y) = 0.71392 -0.40882
# Poissons Ratio (z) = 0.26892 -0.15066
#
# Static dielectric constant tensor:
#      x y z
#    x 2.025180 0.023690 0.019070 
#    y 0.023690 2.308500 -0.055470 
#    z 0.019070 -0.055470 2.064050 
# 
# From -- ./inp_files/25727.got.cif
#   From: 2010.05.17/outbox.cif.g08.bks.cpg/sg2_13_cif.got.tgz:25727.got - 2010.06.03 11:33:40.
