data_PCOD9055941
_publ_section_title
;
Structure prediction by ZEFSAII (Michael W. Deem and Ramdas Pophale) SiO2 
 PCOD9055941
Probable space group: P -1
;
_chemical_formula_sum "Si O2"
_cell_formula_units_Z 16
_cell_length_a 8.786505
_cell_length_b 7.627770
_cell_length_c 12.388461
_cell_angle_alpha 79.427105
_cell_angle_beta 117.955030
_cell_angle_gamma 98.289679
_cell_volume 719.339579
_symmetry_space_group_name_H-M "P -1"
_symmetry_group_IT_number 2
_symmetry_cell_setting 'triclinic'
loop_
_space_group_symop_operation_xyz
x,y,z
-x,-y,-z
loop_
_atom_site_type_symbol
_atom_site_label
_atom_site_fract_x
_atom_site_fract_y
_atom_site_fract_z
Si Si1 0.890541 0.363812 0.295271
Si Si2 0.610955 0.843779 0.354941
Si Si3 0.307773 0.459782 0.982911
Si Si4 0.047737 0.041596 0.678097
Si Si5 0.708926 0.200837 0.449814
Si Si6 0.283035 0.621111 0.192748
Si Si7 0.045172 0.154770 0.912290
Si Si8 0.736938 0.516015 0.570498
O O1 0.749076 0.329518 0.345744
O O2 0.056161 0.483763 0.377472
O O3 0.959204 0.171256 0.313837
O O4 0.810503 0.443423 0.153433
O O5 0.769637 0.885347 0.319987
O O6 0.437758 0.772228 0.245183
O O7 0.670599 0.684785 0.468340
O O8 0.590430 0.027794 0.393204
O O9 0.294585 0.533849 0.090340
O O10 0.500000 0.500000 0.000000
O O11 0.232834 0.254723 0.981496
O O12 0.035203 0.088333 0.793839
O O13 0.889723 0.119537 0.552611
O O14 0.658526 0.329610 0.514651
O O15 0.294945 0.485027 0.312221
O O16 0.100076 0.705269 0.134403
O O17 0.000000 0.000000 0.000000
#
# Coordination Sequence:
#
# PCOD9055941 Si02
#       8
#     2   2   2   2   2   2   2   2
#     4  11  22  42  75 101 136 181 237 292 346 418
#     4  11  25  44  68 107 147 181 237 290 349 434
#     4  12  28  49  73 100 137 192 249 289 348 433
#     4  11  21  44  72 103 139 184 233 290 355 425
#     4  11  22  40  72 106 136 184 236 287 358 417
#     4  12  27  46  67 103 144 185 230 297 357 417
#     4  12  27  45  71 104 141 191 235 297 361 418
#     4  12  23  41  73 103 142 186 226 293 358 421
#
# _framework density 22.242622000000001
#
# number of rings (size 3 to 8) (size 9 to 14) (size 15 to 20)
#    0.000    0.500    5.000    3.375    5.250    2.500 
#    0.000    4.375    0.000    0.000    0.000    0.000 
#    0.000    0.000    0.000    0.000    0.000    0.000 
#
# Total GULP energy -89640.928953 kJ/mol
# GULP energy per Si atom -5602.558060 kJ/mol
# Density = 2.219200 g / cm^3
# Si number density = 22.242622 Si / 1000 Ang^3
#
#
#
# Elastic Constant Matrix: (Units=GPa)
#
#
# Indices 1 2 3 4 5 6 
#
# 1 53.6893 10.0202 19.7421 -6.2113 -7.6543 6.7296
# 2 10.0202 90.2327 39.7995 -10.4384 -3.0568 16.0358
# 3 19.7421 39.7995 122.8373 1.7504 -28.6615 1.3510
# 4 -6.2113 -10.4384 1.7504 38.5897 5.2387 0.7223
# 5 -7.6543 -3.0568 -28.6615 5.2387 43.1575 12.5597
# 6 6.7296 16.0358 1.3510 0.7223 12.5597 27.3346
#
#
#
# Elastic Compliance Matrix: (Units=1/GPa)
#
#
# Indices 1 2 3 4 5 6 
#
# 1 0.021349 0.000652 -0.002739 0.003367 0.003731 -0.007306
# 2 0.000652 0.015393 -0.005088 0.004684 -0.000120 -0.009008
# 3 -0.002739 -0.005088 0.012079 -0.003403 0.007701 -0.000387
# 4 0.003367 0.004684 -0.003403 0.028480 -0.004129 -0.002264
# 5 0.003731 -0.000120 0.007701 -0.004129 0.034360 -0.016907
# 6 -0.007306 -0.009008 -0.000387 -0.002264 -0.016907 0.051514
#
#
# Mechanical properties :
#
#
# Convention : Reuss Voigt Hill
#
# Bulk Modulus (GPa) = 29.01082 45.09810 37.05446
# Shear Modulus (GPa) = 26.45281 34.96286 30.70784
#
# Velocity S-wave (km/s) = 3.45234 3.96900 3.71965
# Velocity P-wave (km/s) = 5.38171 6.42834 5.92817
#
# Compressibility (1/GPa) = 0.03446990
#
# Stress axis : x y z
#
# Youngs Moduli (GPa) = 46.84166 64.96541 82.78639
#
# Poissons Ratio (x) = -0.04235 0.22679
# Poissons Ratio (y) = -0.03053 0.42120
# Poissons Ratio (z) = 0.12832 0.33053
#
# Static dielectric constant tensor:
#      x y z
#    x 1.831610 0.028980 0.012660 
#    y 0.028980 1.826590 0.012820 
#    z 0.012660 0.012820 1.795740 
# 
# From -- ./inp_files/379275.got.cif
#   From: 2010.05.17/outbox.cif.g08.bks.cpg/sg2_190_cif.got.tgz:379275.got - 2010.06.03 11:33:40.
