data_PCOD9055620
_publ_section_title
;
Structure prediction by ZEFSAII (Michael W. Deem and Ramdas Pophale) SiO2 
 PCOD9055620
Probable space group: P -1
;
_chemical_formula_sum "Si O2"
_cell_formula_units_Z 16
_cell_length_a 12.080050
_cell_length_b 15.961603
_cell_length_c 8.169051
_cell_angle_alpha 62.578006
_cell_angle_beta 103.474081
_cell_angle_gamma 49.811486
_cell_volume 665.853404
_symmetry_space_group_name_H-M "P -1"
_symmetry_group_IT_number 2
_symmetry_cell_setting 'triclinic'
loop_
_space_group_symop_operation_xyz
x,y,z
-x,-y,-z
loop_
_atom_site_type_symbol
_atom_site_label
_atom_site_fract_x
_atom_site_fract_y
_atom_site_fract_z
Si Si1 0.383315 0.620369 0.609681
Si Si2 0.617601 0.801076 0.546295
Si Si3 0.639303 0.595941 0.559637
Si Si4 0.671905 0.852343 0.044852
Si Si5 0.542836 0.147724 0.206526
Si Si6 0.004464 0.313868 0.233725
Si Si7 0.272259 0.779836 0.784956
Si Si8 0.144878 0.607511 0.524692
O O1 0.437879 0.666069 0.466162
O O2 0.333136 0.704071 0.690987
O O3 0.172404 0.701088 0.429231
O O4 0.611170 0.387216 0.915587
O O5 0.585984 0.742922 0.452531
O O6 0.572595 0.784288 0.717855
O O7 0.857332 0.685962 0.716034
O O8 0.417716 0.023521 0.253348
O O9 0.706251 0.534227 0.451993
O O10 0.846980 0.422709 0.918663
O O11 0.638562 0.769154 0.055337
O O12 0.910858 0.721248 0.300804
O O13 0.500000 0.000000 0.000000
O O14 0.601740 0.213100 0.139156
O O15 0.787221 0.913835 0.490282
O O16 0.852454 0.407907 0.261447
O O17 0.000000 0.000000 0.500000
#
# Coordination Sequence:
#
# PCOD9055620 Si02
#       8
#     2   2   2   2   2   2   2   2
#     4  11  25  47  67 109 150 190 246 306 358 435
#     4  11  23  42  68 104 139 186 238 295 366 435
#     4  12  25  46  69 103 151 189 242 297 369 438
#     4  11  23  44  67 102 146 180 241 304 359 434
#     4  11  21  42  72 103 136 186 243 297 363 436
#     4  11  23  44  72 103 140 188 236 303 368 430
#     4  11  23  43  78 106 142 196 250 300 366 437
#     4  12  25  46  73 100 149 192 236 304 369 424
#
# _framework density 24.029312999999998
#
# number of rings (size 3 to 8) (size 9 to 14) (size 15 to 20)
#    0.000    0.750    3.750    6.750    0.000    1.500 
#    0.000    0.625    0.000    0.000    0.000    0.000 
#    0.000    0.000    0.000    0.000    0.000    0.000 
#
# Total GULP energy -89509.045681 kJ/mol
# GULP energy per Si atom -5594.315355 kJ/mol
# Density = 2.397462 g / cm^3
# Si number density = 24.029313 Si / 1000 Ang^3
#
#
#
# Elastic Constant Matrix: (Units=GPa)
#
#
# Indices 1 2 3 4 5 6 
#
# 1 188.8138 77.5233 31.1662 9.7686 10.5093 20.9273
# 2 77.5233 139.9195 29.0869 16.0738 12.2473 0.1638
# 3 31.1662 29.0869 65.6751 7.0191 10.2111 5.9817
# 4 9.7686 16.0738 7.0191 37.2857 6.3682 2.2256
# 5 10.5093 12.2473 10.2111 6.3682 36.3433 3.6374
# 6 20.9273 0.1638 5.9817 2.2256 3.6374 50.7413
#
#
#
# Elastic Compliance Matrix: (Units=1/GPa)
#
#
# Indices 1 2 3 4 5 6 
#
# 1 0.007431 -0.003792 -0.001579 0.000185 -0.000173 -0.002862
# 2 -0.003792 0.010186 -0.002381 -0.002837 -0.001374 0.002034
# 3 -0.001579 -0.002381 0.017799 -0.001261 -0.003407 -0.001140
# 4 0.000185 -0.002837 -0.001261 0.028922 -0.003719 -0.000921
# 5 -0.000173 -0.001374 -0.003407 -0.003719 0.029787 -0.001495
# 6 -0.002862 0.002034 -0.001140 -0.000921 -0.001495 0.021164
#
#
# Mechanical properties :
#
#
# Convention : Reuss Voigt Hill
#
# Bulk Modulus (GPa) = 50.21907 74.44010 62.32959
# Shear Modulus (GPa) = 36.38253 41.98288 39.18271
#
# Velocity S-wave (km/s) = 3.89535 4.18443 4.04248
# Velocity P-wave (km/s) = 6.41686 7.37510 6.91260
#
# Compressibility (1/GPa) = 0.01991275
#
# Stress axis : x y z
#
# Youngs Moduli (GPa) = 134.57236 98.17022 56.18447
#
# Poissons Ratio (x) = 0.37223 0.08873
# Poissons Ratio (y) = 0.51025 0.13375
# Poissons Ratio (z) = 0.21253 0.23371
#
# Static dielectric constant tensor:
#      x y z
#    x 1.943290 0.065230 -0.051320 
#    y 0.065230 1.964150 -0.103210 
#    z -0.051320 -0.103210 2.088510 
# 
# From -- ./inp_files/277600.got.cif
#   From: 2010.05.17/outbox.cif.g08.bks.cpg/sg2_139_cif.got.tgz:277600.got - 2010.06.03 11:33:40.
