data_PCOD9055154
_publ_section_title
;
Structure prediction by ZEFSAII (Michael W. Deem and Ramdas Pophale) SiO2 
 PCOD9055154
Probable space group: P -1
;
_chemical_formula_sum "Si O2"
_cell_formula_units_Z 16
_cell_length_a 8.232254
_cell_length_b 15.530315
_cell_length_c 8.703921
_cell_angle_alpha 60.588191
_cell_angle_beta 91.158543
_cell_angle_gamma 51.074597
_cell_volume 659.445572
_symmetry_space_group_name_H-M "P -1"
_symmetry_group_IT_number 2
_symmetry_cell_setting 'triclinic'
loop_
_space_group_symop_operation_xyz
x,y,z
-x,-y,-z
loop_
_atom_site_type_symbol
_atom_site_label
_atom_site_fract_x
_atom_site_fract_y
_atom_site_fract_z
Si Si1 0.869481 0.029910 0.717679
Si Si2 0.395776 0.314757 0.427534
Si Si3 0.731863 0.572842 0.320420
Si Si4 0.782840 0.875627 0.652928
Si Si5 0.859495 0.948777 0.117626
Si Si6 0.853845 0.767783 0.442938
Si Si7 0.685295 0.356902 0.734461
Si Si8 0.999512 0.623355 0.097743
O O1 0.673989 0.193616 0.505749
O O2 0.109663 0.981620 0.812174
O O3 0.871842 0.933685 0.693103
O O4 0.778181 0.030532 0.883496
O O5 0.333441 0.376486 0.547373
O O6 0.333708 0.227425 0.503827
O O7 0.212112 0.455586 0.193348
O O8 0.493142 0.635706 0.184202
O O9 0.834483 0.626020 0.197939
O O10 0.933220 0.397192 0.468354
O O11 0.926830 0.798790 0.564395
O O12 0.500000 0.000000 0.500000
O O13 0.842007 0.752019 0.861495
O O14 0.130712 0.790605 0.228934
O O15 0.743525 0.897613 0.211902
O O16 0.500000 0.500000 0.500000
O O17 0.851035 0.356904 0.831927
#
# Coordination Sequence:
#
# PCOD9055154 Si02
#       8
#     2   2   2   2   2   2   2   2
#     4  11  24  42  69 100 138 179 230 286 355 410
#     4  11  21  40  69 103 128 171 230 288 345 404
#     4  11  23  39  72 113 132 173 238 293 351 410
#     4  12  27  49  65  98 144 195 228 277 354 427
#     4  11  22  41  69 103 137 179 226 303 347 397
#     4  11  24  42  68  99 136 183 234 281 343 422
#     4  12  19  38  73 104 139 171 226 294 356 397
#     4  11  24  43  70  95 146 183 223 295 341 415
#
# _framework density 24.262806999999999
#
# number of rings (size 3 to 8) (size 9 to 14) (size 15 to 20)
#    0.000    0.750    6.250    2.250    0.000    4.000 
#    0.000    1.875    0.000    0.000    0.000    0.000 
#    0.000    0.000    0.000    0.000    0.000    0.000 
#
# Total GULP energy -89380.177269 kJ/mol
# GULP energy per Si atom -5586.261079 kJ/mol
# Density = 2.420758 g / cm^3
# Si number density = 24.262807 Si / 1000 Ang^3
#
#
#
# Elastic Constant Matrix: (Units=GPa)
#
#
# Indices 1 2 3 4 5 6 
#
# 1 122.0460 15.5030 27.4898 -1.0203 1.5944 31.9189
# 2 15.5030 103.6483 27.7666 -7.8014 1.5774 27.9410
# 3 27.4898 27.7666 136.6465 -32.9857 1.3339 9.0316
# 4 -1.0203 -7.8014 -32.9857 33.0182 4.2163 4.5517
# 5 1.5944 1.5774 1.3339 4.2163 26.2875 -5.5014
# 6 31.9189 27.9410 9.0316 4.5517 -5.5014 34.1896
#
#
#
# Elastic Compliance Matrix: (Units=1/GPa)
#
#
# Indices 1 2 3 4 5 6 
#
# 1 0.011827 0.002482 -0.001515 0.001805 -0.003912 -0.013539
# 2 0.002482 0.014054 -0.001123 0.004957 -0.004860 -0.014948
# 3 -0.001515 -0.001123 0.010702 0.011049 -0.002657 -0.002393
# 4 0.001805 0.004957 0.011049 0.046381 -0.011911 -0.016745
# 5 -0.003912 -0.004860 -0.002657 -0.011911 0.044177 0.017021
# 6 -0.013539 -0.014948 -0.002393 -0.016745 0.017021 0.059705
#
#
# Mechanical properties :
#
#
# Convention : Reuss Voigt Hill
#
# Bulk Modulus (GPa) = 27.56996 55.98441 41.77719
# Shear Modulus (GPa) = 25.09419 38.13781 31.61600
#
# Velocity S-wave (km/s) = 3.21949 3.96897 3.61371
# Velocity P-wave (km/s) = 5.02074 6.64289 5.88795
#
# Compressibility (1/GPa) = 0.03627136
#
# Stress axis : x y z
#
# Youngs Moduli (GPa) = 84.55436 71.15220 93.43681
#
# Poissons Ratio (x) = -0.17661 0.14155
# Poissons Ratio (y) = -0.20987 0.10495
# Poissons Ratio (z) = 0.12809 0.07992
#
# Static dielectric constant tensor:
#      x y z
#    x 2.042300 0.028830 -0.022210 
#    y 0.028830 1.982480 0.014930 
#    z -0.022210 0.014930 1.981050 
# 
# From -- ./inp_files/205988.got.cif
#   From: 2010.05.17/outbox.cif.g08.bks.cpg/sg2_103_cif.got.tgz:205988.got - 2010.06.03 11:33:40.
