data_PCOD9055558
_publ_section_title
;
Structure prediction by ZEFSAII (Michael W. Deem and Ramdas Pophale) SiO2 
 PCOD9055558
Probable space group: P -1
;
_chemical_formula_sum "Si O2"
_cell_formula_units_Z 14
_cell_length_a 9.082620
_cell_length_b 12.641811
_cell_length_c 8.434700
_cell_angle_alpha 131.649747
_cell_angle_beta 112.363457
_cell_angle_gamma 59.082621
_cell_volume 619.690098
_symmetry_space_group_name_H-M "P -1"
_symmetry_group_IT_number 2
_symmetry_cell_setting 'triclinic'
loop_
_space_group_symop_operation_xyz
x,y,z
-x,-y,-z
loop_
_atom_site_type_symbol
_atom_site_label
_atom_site_fract_x
_atom_site_fract_y
_atom_site_fract_z
Si Si1 0.677008 0.369769 0.998806
Si Si2 0.830238 0.422179 0.637678
Si Si3 0.807781 0.076781 0.558991
Si Si4 0.763123 0.583970 0.452545
Si Si5 0.589454 0.233438 0.354168
Si Si6 0.792936 0.793231 0.411559
Si Si7 0.562955 0.722493 0.985805
O O1 0.765898 0.244852 0.778743
O O2 0.500000 0.500000 0.000000
O O3 0.791055 0.455769 0.202655
O O4 0.608941 0.289446 0.027229
O O5 0.861458 0.504240 0.571976
O O6 0.725032 0.313151 0.447419
O O7 0.706715 0.556666 0.832347
O O8 0.016140 0.318090 0.676872
O O9 0.683786 0.097416 0.378033
O O10 0.780399 0.965905 0.568672
O O11 0.000000 0.000000 0.500000
O O12 0.565538 0.640712 0.487893
O O13 0.774514 0.730466 0.515186
O O14 0.500284 0.194488 0.125481
O O15 0.650554 0.782779 0.220841
#
# Coordination Sequence:
#
# PCOD9055558 Si02
#       7
#     2   2   2   2   2   2   2
#     4  12  21  42  73  99 127 185 239 262 329 422
#     4  11  21  42  70 103 137 179 226 284 337 400
#     4  12  27  45  66  99 147 181 214 287 357 398
#     4  11  22  41  73 103 129 183 236 280 319 415
#     4  11  21  43  72  95 136 180 234 265 339 407
#     4  12  26  40  65 104 144 173 223 290 348 388
#     4  11  22  39  71 102 127 181 234 278 318 414
#
# _framework density 22.591939
#
# number of rings (size 3 to 8) (size 9 to 14) (size 15 to 20)
#    0.000    0.571    7.143    1.714    0.000    4.000 
#    0.000    4.286    0.000    0.000    0.000    0.000 
#    0.000    0.000    0.000    0.000    0.000    0.000 
#
# Total GULP energy -78252.619439 kJ/mol
# GULP energy per Si atom -5589.472817 kJ/mol
# Density = 2.254052 g / cm^3
# Si number density = 22.591939 Si / 1000 Ang^3
#
#
#
# Elastic Constant Matrix: (Units=GPa)
#
#
# Indices 1 2 3 4 5 6 
#
# 1 67.4573 33.2950 14.8535 -1.3820 5.5373 6.7380
# 2 33.2950 129.1448 25.7282 -3.5880 1.9890 6.5432
# 3 14.8535 25.7282 43.5168 -0.0429 -7.8974 2.3117
# 4 -1.3820 -3.5880 -0.0429 26.5810 -0.7748 3.3028
# 5 5.5373 1.9890 -7.8974 -0.7748 30.4154 -0.2662
# 6 6.7380 6.5432 2.3117 3.3028 -0.2662 45.7648
#
#
#
# Elastic Compliance Matrix: (Units=1/GPa)
#
#
# Indices 1 2 3 4 5 6 
#
# 1 0.018199 -0.003554 -0.004789 0.000581 -0.004327 -0.001997
# 2 -0.003554 0.009680 -0.004685 0.001169 -0.001179 -0.000715
# 3 -0.004789 -0.004685 0.028959 -0.000582 0.008683 0.000005
# 4 0.000581 0.001169 -0.000582 0.038196 0.000614 -0.002976
# 5 -0.004327 -0.001179 0.008683 0.000614 0.036018 0.000532
# 6 -0.001997 -0.000715 0.000005 -0.002976 0.000532 0.022465
#
#
# Mechanical properties :
#
#
# Convention : Reuss Voigt Hill
#
# Bulk Modulus (GPa) = 32.48644 43.09692 37.79168
# Shear Modulus (GPa) = 26.33901 31.63505 28.98703
#
# Velocity S-wave (km/s) = 3.41817 3.74609 3.58588
# Velocity P-wave (km/s) = 5.47626 6.15049 5.82314
#
# Compressibility (1/GPa) = 0.03078208
#
# Stress axis : x y z
#
# Youngs Moduli (GPa) = 54.94680 103.30991 34.53172
#
# Poissons Ratio (x) = 0.36716 0.16539
# Poissons Ratio (y) = 0.19528 0.16177
# Poissons Ratio (z) = 0.26316 0.48396
#
# Static dielectric constant tensor:
#      x y z
#    x 1.891970 0.028120 0.004130 
#    y 0.028120 1.874650 -0.018410 
#    z 0.004130 -0.018410 1.823220 
# 
# From -- ./inp_files/189945.got.cif
#   From: 2010.05.17/outbox.cif.g08.bks.cpg/sg2_95_cif.got.tgz:189945.got - 2010.06.03 11:33:40.
