data_PCOD9055393
_publ_section_title
;
Structure prediction by ZEFSAII (Michael W. Deem and Ramdas Pophale) SiO2 
 PCOD9055393
Probable space group: P -1
;
_chemical_formula_sum "Si O2"
_cell_formula_units_Z 16
_cell_length_a 17.520623
_cell_length_b 18.620904
_cell_length_c 8.785166
_cell_angle_alpha 130.639048
_cell_angle_beta 133.286439
_cell_angle_gamma 18.417271
_cell_volume 659.156178
_symmetry_space_group_name_H-M "P -1"
_symmetry_group_IT_number 2
_symmetry_cell_setting 'triclinic'
loop_
_space_group_symop_operation_xyz
x,y,z
-x,-y,-z
loop_
_atom_site_type_symbol
_atom_site_label
_atom_site_fract_x
_atom_site_fract_y
_atom_site_fract_z
Si Si1 0.246712 0.362677 0.644502
Si Si2 0.695327 0.253944 0.407039
Si Si3 0.522292 0.234970 0.368519
Si Si4 0.496396 0.916526 0.085621
Si Si5 0.351009 0.003653 0.547590
Si Si6 0.082976 0.215080 0.143849
Si Si7 0.601965 0.320254 0.812950
Si Si8 0.111617 0.977983 0.923519
O O1 0.414581 0.182987 0.759626
O O2 0.379703 0.247208 0.504612
O O3 0.000000 0.500000 0.500000
O O4 0.187399 0.516402 0.831362
O O5 0.500000 0.500000 0.500000
O O6 0.604092 0.236211 0.346346
O O7 0.698143 0.241053 0.212542
O O8 0.000000 0.000000 0.500000
O O9 0.715169 0.018084 0.443115
O O10 0.421138 0.398403 0.576792
O O11 0.415179 0.232704 0.123689
O O12 0.608101 0.928119 0.224821
O O13 0.200716 0.158900 0.068279
O O14 0.191444 0.145888 0.370169
O O15 0.092734 0.095321 0.983825
O O16 0.831083 0.167402 0.808888
O O17 0.500000 0.500000 0.000000
O O18 0.755689 0.129854 0.881009
#
# Coordination Sequence:
#
# PCOD9055393 Si02
#       8
#     2   2   2   2   2   2   2   2
#     4  11  21  41  71  97 133 186 238 296 355 439
#     4  12  27  51  76 108 151 197 249 313 382 455
#     4  12  25  46  67 105 146 187 235 307 384 432
#     4  11  23  42  67  99 140 181 235 293 367 437
#     4  11  23  43  67 100 139 182 236 294 360 444
#     4  11  21  41  70  96 132 180 236 287 354 430
#     4  11  25  45  69 101 138 180 242 307 370 437
#     4  11  24  43  72  99 133 189 244 296 364 454
#
# _framework density 24.273458999999999
#
# number of rings (size 3 to 8) (size 9 to 14) (size 15 to 20)
#    0.000    0.750    6.250    1.875    1.750    1.000 
#    2.250    0.625    0.000    0.000    0.000    0.000 
#    0.000    0.000    0.000    0.000    0.000    0.000 
#
# Total GULP energy -89078.437475 kJ/mol
# GULP energy per Si atom -5567.402342 kJ/mol
# Density = 2.421821 g / cm^3
# Si number density = 24.273459 Si / 1000 Ang^3
#
#
#
# Elastic Constant Matrix: (Units=GPa)
#
#
# Indices 1 2 3 4 5 6 
#
# 1 77.8769 24.2898 15.9031 11.3900 4.8876 21.9307
# 2 24.2898 61.7762 16.3226 30.0176 5.6584 6.3848
# 3 15.9031 16.3226 142.7184 36.6574 4.8533 -2.8375
# 4 11.3900 30.0176 36.6574 45.0575 9.0424 0.0917
# 5 4.8876 5.6584 4.8533 9.0424 23.6293 4.4610
# 6 21.9307 6.3848 -2.8375 0.0917 4.4610 27.4995
#
#
#
# Elastic Compliance Matrix: (Units=1/GPa)
#
#
# Indices 1 2 3 4 5 6 
#
# 1 0.018847 -0.005788 -0.001876 0.000591 0.000276 -0.013927
# 2 -0.005788 0.026951 0.002270 -0.018683 0.001734 -0.001626
# 3 -0.001876 0.002270 0.009198 -0.008716 0.000952 0.001793
# 4 0.000591 -0.018683 -0.008716 0.043889 -0.011539 0.004693
# 5 0.000276 0.001734 0.000952 -0.011539 0.047618 -0.008211
# 6 -0.013927 -0.001626 0.001793 0.004693 -0.008211 0.049350
#
#
# Mechanical properties :
#
#
# Convention : Reuss Voigt Hill
#
# Bulk Modulus (GPa) = 22.61990 43.93360 33.27675
# Shear Modulus (GPa) = 22.58575 34.29434 28.44004
#
# Velocity S-wave (km/s) = 3.05367 3.76284 3.42665
# Velocity P-wave (km/s) = 4.66607 6.08419 5.42170
#
# Compressibility (1/GPa) = 0.04420886
#
# Stress axis : x y z
#
# Youngs Moduli (GPa) = 53.05759 37.10429 108.71590
#
# Poissons Ratio (x) = 0.21475 0.20398
# Poissons Ratio (y) = 0.30709 -0.24680
# Poissons Ratio (z) = 0.09955 -0.08423
#
# Static dielectric constant tensor:
#      x y z
#    x 2.072790 -0.161630 0.011620 
#    y -0.161630 2.100070 -0.029450 
#    z 0.011620 -0.029450 2.051990 
# 
# From -- ./inp_files/336778.got.cif
#   From: 2010.05.17/outbox.cif.g08.bks.cpg/sg2_169_cif.got.tgz:336778.got - 2010.06.03 11:33:40.
