data_PCOD9055178
_publ_section_title
;
Structure prediction by ZEFSAII (Michael W. Deem and Ramdas Pophale) SiO2 
 PCOD9055178
Probable space group: P -1
;
_chemical_formula_sum "Si O2"
_cell_formula_units_Z 14
_cell_length_a 11.588430
_cell_length_b 13.905583
_cell_length_c 19.808735
_cell_angle_alpha 19.783765
_cell_angle_beta 146.441564
_cell_angle_gamma 149.076266
_cell_volume 548.935975
_symmetry_space_group_name_H-M "P -1"
_symmetry_group_IT_number 2
_symmetry_cell_setting 'triclinic'
loop_
_space_group_symop_operation_xyz
x,y,z
-x,-y,-z
loop_
_atom_site_type_symbol
_atom_site_label
_atom_site_fract_x
_atom_site_fract_y
_atom_site_fract_z
Si Si1 0.512486 0.046199 0.194901
Si Si2 0.259970 0.636983 0.554744
Si Si3 0.945354 0.926276 0.429368
Si Si4 0.466239 0.336102 0.209254
Si Si5 0.024392 0.239151 0.134126
Si Si6 0.775270 0.275363 0.852506
Si Si7 0.536596 0.585944 0.610545
O O1 0.751768 0.039525 0.289017
O O2 0.336213 0.975233 0.094004
O O3 0.430276 0.767377 0.391058
O O4 0.529559 0.365729 0.024812
O O5 0.306728 0.615007 0.671234
O O6 0.390426 0.481485 0.674779
O O7 0.000000 0.500000 0.500000
O O8 0.375771 0.002829 0.351635
O O9 0.902551 0.600761 0.659156
O O10 0.930845 0.934514 0.335950
O O11 0.202230 0.170557 0.408491
O O12 0.283144 0.309862 0.196020
O O13 0.917499 0.226438 0.016308
O O14 0.000000 0.500000 0.000000
O O15 0.567424 0.316554 0.762099
#
# Coordination Sequence:
#
# PCOD9055178 Si02
#       7
#     2   2   2   2   2   2   2
#     4  11  24  41  68 106 142 176 222 294 354 417
#     4  11  27  47  71  93 134 188 237 295 329 409
#     4  11  21  40  70 101 145 180 220 285 355 416
#     4  11  24  47  65 102 139 174 241 286 343 413
#     4  12  21  40  72 102 136 186 227 281 360 414
#     4  11  24  40  67 114 146 174 223 293 352 426
#     4  11  21  45  68  97 138 186 228 275 359 409
#
# _framework density 25.503883999999999
#
# number of rings (size 3 to 8) (size 9 to 14) (size 15 to 20)
#    0.000    0.857    4.286    4.286    2.000    3.429 
#    0.000    0.714    0.000    0.000    0.000    0.000 
#    0.000    0.000    0.000    0.000    0.000    0.000 
#
# Total GULP energy -78364.911044 kJ/mol
# GULP energy per Si atom -5597.493646 kJ/mol
# Density = 2.544584 g / cm^3
# Si number density = 25.503884 Si / 1000 Ang^3
#
#
#
# Elastic Constant Matrix: (Units=GPa)
#
#
# Indices 1 2 3 4 5 6 
#
# 1 53.5868 15.7156 7.6915 11.4734 -14.9133 -6.5761
# 2 15.7156 132.9584 30.6942 23.9540 -11.2846 -8.2233
# 3 7.6915 30.6942 119.2618 7.7261 -27.7868 -17.7307
# 4 11.4734 23.9540 7.7261 42.2230 -16.6014 -0.5367
# 5 -14.9133 -11.2846 -27.7868 -16.6014 47.1013 3.9161
# 6 -6.5761 -8.2233 -17.7307 -0.5367 3.9161 29.1634
#
#
#
# Elastic Compliance Matrix: (Units=1/GPa)
#
#
# Indices 1 2 3 4 5 6 
#
# 1 0.021721 -0.001558 0.001191 -0.002890 0.005827 0.004347
# 2 -0.001558 0.008999 -0.002063 -0.004817 -0.001337 0.001023
# 3 0.001191 -0.002063 0.011082 0.001430 0.006460 0.005583
# 4 -0.002890 -0.004817 0.001430 0.030759 0.009773 -0.001887
# 5 0.005827 -0.001337 0.006460 0.009773 0.029926 0.001026
# 6 0.004347 0.001023 0.005583 -0.001887 0.001026 0.038780
#
#
# Mechanical properties :
#
#
# Convention : Reuss Voigt Hill
#
# Bulk Modulus (GPa) = 27.06959 46.00109 36.53534
# Shear Modulus (GPa) = 31.55751 40.47791 36.01771
#
# Velocity S-wave (km/s) = 3.52143 3.98820 3.76206
# Velocity P-wave (km/s) = 5.21257 6.26767 5.76431
#
# Compressibility (1/GPa) = 0.03694183
#
# Stress axis : x y z
#
# Youngs Moduli (GPa) = 46.03791 111.12012 90.23950
#
# Poissons Ratio (x) = 0.17317 -0.10750
# Poissons Ratio (y) = 0.07174 0.18617
# Poissons Ratio (z) = -0.05485 0.22925
#
# Static dielectric constant tensor:
#      x y z
#    x 1.999670 -0.062450 -0.024940 
#    y -0.062450 2.148340 -0.018700 
#    z -0.024940 -0.018700 2.071490 
# 
# From -- ./inp_files/595600.got.cif
#   From: 2010.05.17/outbox.cif.g08.bks.cpg/sg2_298_cif.got.tgz:595600.got - 2010.06.03 11:33:40.
