data_PCOD9055692
_publ_section_title
;
Structure prediction by ZEFSAII (Michael W. Deem and Ramdas Pophale) SiO2 
 PCOD9055692
Probable space group: P -1
;
_chemical_formula_sum "Si O2"
_cell_formula_units_Z 16
_cell_length_a 9.083263
_cell_length_b 8.590506
_cell_length_c 13.665196
_cell_angle_alpha 90.570501
_cell_angle_beta 103.464228
_cell_angle_gamma 131.786852
_cell_volume 752.896386
_symmetry_space_group_name_H-M "P -1"
_symmetry_group_IT_number 2
_symmetry_cell_setting 'triclinic'
loop_
_space_group_symop_operation_xyz
x,y,z
-x,-y,-z
loop_
_atom_site_type_symbol
_atom_site_label
_atom_site_fract_x
_atom_site_fract_y
_atom_site_fract_z
Si Si1 0.030042 0.837200 0.979246
Si Si2 0.251926 0.978050 0.805257
Si Si3 0.502198 0.378878 0.309635
Si Si4 0.578345 0.399051 0.958216
Si Si5 0.173682 0.358020 0.355783
Si Si6 0.767716 0.788214 0.446209
Si Si7 0.449282 0.783875 0.483322
Si Si8 0.529715 0.875831 0.874119
O O1 0.113950 0.879113 0.882518
O O2 0.814088 0.595728 0.962561
O O3 0.225092 0.913748 0.074055
O O4 0.000000 0.000000 0.000000
O O5 0.391795 0.922998 0.819847
O O6 0.070388 0.848833 0.695451
O O7 0.417179 0.234465 0.847164
O O8 0.307938 0.361223 0.294249
O O9 0.706052 0.632821 0.347583
O O10 0.518519 0.268607 0.403150
O O11 0.485380 0.272659 0.207402
O O12 0.500000 0.500000 0.000000
O O13 0.555549 0.247338 0.035515
O O14 0.269416 0.344057 0.465455
O O15 0.233868 0.578848 0.393866
O O16 0.616704 0.825862 0.435866
O O17 0.000000 0.000000 0.500000
O O18 0.500000 0.000000 0.500000
#
# Coordination Sequence:
#
# PCOD9055692 Si02
#       8
#     2   2   2   2   2   2   2   2
#     4  11  21  43  66  85 122 161 199 256 299 359
#     4  11  24  40  61  94 125 154 204 256 304 357
#     4   9  20  40  61  83 122 162 197 245 297 360
#     4  11  23  41  66  89 116 165 209 240 307 371
#     4   9  20  40  61  83 122 162 197 245 297 360
#     4   9  19  37  60  86 114 159 202 240 290 364
#     4   9  19  39  62  88 122 156 197 245 307 350
#     4  11  24  40  61  94 125 154 204 256 304 357
#
# _framework density 21.251263999999999
#
# number of rings (size 3 to 8) (size 9 to 14) (size 15 to 20)
#    0.000    2.000    2.500    3.750    0.000    5.000 
#    9.000    2.500    0.000    0.000    0.000    0.000 
#    0.000    0.000    0.000    0.000    0.000    0.000 
#
# Total GULP energy -89242.527342 kJ/mol
# GULP energy per Si atom -5577.657959 kJ/mol
# Density = 2.120290 g / cm^3
# Si number density = 21.251264 Si / 1000 Ang^3
#
#
#
# Elastic Constant Matrix: (Units=GPa)
#
#
# Indices 1 2 3 4 5 6 
#
# 1 83.4282 41.4106 34.4321 22.0648 11.6796 0.8464
# 2 41.4106 129.0517 45.8097 44.1363 11.0093 17.1894
# 3 34.4321 45.8097 105.7933 32.9593 7.9245 4.5294
# 4 22.0648 44.1363 32.9593 43.8101 5.8746 3.5574
# 5 11.6796 11.0093 7.9245 5.8746 37.6516 7.8873
# 6 0.8464 17.1894 4.5294 3.5574 7.8873 46.1835
#
#
#
# Elastic Compliance Matrix: (Units=1/GPa)
#
#
# Indices 1 2 3 4 5 6 
#
# 1 0.015844 -0.003275 -0.002876 -0.002218 -0.003418 0.001965
# 2 -0.003275 0.013401 -0.001267 -0.010555 -0.000159 -0.003963
# 3 -0.002876 -0.001267 0.013196 -0.007141 -0.000368 -0.000157
# 4 -0.002218 -0.010555 -0.007141 0.039981 -0.001342 0.001819
# 5 -0.003418 -0.000159 -0.000368 -0.001342 0.028933 -0.004680
# 6 0.001965 -0.003963 -0.000157 0.001819 -0.004680 0.023766
#
#
# Mechanical properties :
#
#
# Convention : Reuss Voigt Hill
#
# Bulk Modulus (GPa) = 36.22431 62.39754 49.31092
# Shear Modulus (GPa) = 31.41549 38.63710 35.02629
#
# Velocity S-wave (km/s) = 3.84902 4.26855 4.06421
# Velocity P-wave (km/s) = 6.06927 7.32937 6.72888
#
# Compressibility (1/GPa) = 0.02760577
#
# Stress axis : x y z
#
# Youngs Moduli (GPa) = 63.11584 74.62349 75.78132
#
# Poissons Ratio (x) = 0.24437 0.21792
# Poissons Ratio (y) = 0.20669 0.09601
# Poissons Ratio (z) = 0.18150 0.09454
#
# Static dielectric constant tensor:
#      x y z
#    x 1.740020 -0.013560 0.009490 
#    y -0.013560 1.870230 -0.033450 
#    z 0.009490 -0.033450 1.835760 
# 
# From -- ./inp_files/201644.got.cif
#   From: 2010.05.17/outbox.cif.g08.bks.cpg/sg2_101_cif.got.tgz:201644.got - 2010.06.03 11:33:40.
