data_PCOD9055671
_publ_section_title
;
Structure prediction by ZEFSAII (Michael W. Deem and Ramdas Pophale) SiO2 
 PCOD9055671
Probable space group: P -1
;
_chemical_formula_sum "Si O2"
_cell_formula_units_Z 16
_cell_length_a 8.392930
_cell_length_b 24.153983
_cell_length_c 17.477919
_cell_angle_alpha 163.203783
_cell_angle_beta 70.616046
_cell_angle_gamma 116.268477
_cell_volume 858.584786
_symmetry_space_group_name_H-M "P -1"
_symmetry_group_IT_number 2
_symmetry_cell_setting 'triclinic'
loop_
_space_group_symop_operation_xyz
x,y,z
-x,-y,-z
loop_
_atom_site_type_symbol
_atom_site_label
_atom_site_fract_x
_atom_site_fract_y
_atom_site_fract_z
Si Si1 0.002023 0.435645 0.326438
Si Si2 0.967030 0.041922 0.474762
Si Si3 0.703946 0.632085 0.389561
Si Si4 0.036676 0.521872 0.934830
Si Si5 0.972473 0.187789 0.294167
Si Si6 0.716637 0.961753 0.696617
Si Si7 0.300081 0.262004 0.010896
Si Si8 0.698439 0.107950 0.366585
O O1 0.022276 0.629458 0.523277
O O2 0.000000 0.500000 0.500000
O O3 0.170720 0.368811 0.202688
O O4 0.820161 0.214549 0.037252
O O5 0.148473 0.082376 0.444410
O O6 0.921923 0.236395 0.759127
O O7 0.000000 0.000000 0.500000
O O8 0.794491 0.857838 0.211903
O O9 0.787380 0.515560 0.165838
O O10 0.855376 0.716741 0.546064
O O11 0.697884 0.822079 0.591324
O O12 0.505346 0.456636 0.221029
O O13 0.851991 0.340879 0.682163
O O14 0.000000 0.500000 0.000000
O O15 0.780014 0.095372 0.253206
O O16 0.000000 0.000000 0.000000
O O17 0.509403 0.906682 0.624476
O O18 0.298760 0.079358 0.827312
#
# Coordination Sequence:
#
# PCOD9055671 Si02
#       8
#     2   2   2   2   2   2   2   2
#     4  11  23  43  68  91 126 159 201 251 309 367
#     4  11  25  39  62  88 127 164 212 251 305 362
#     4  11  24  40  65  91 128 159 209 253 306 363
#     4  11  21  43  60  88 125 168 204 257 303 356
#     4  11  23  43  68  93 122 162 199 251 311 368
#     4  11  24  42  61  95 124 163 205 257 303 364
#     4  11  24  42  61  95 124 163 205 257 303 364
#     4  11  24  40  65  91 128 159 209 253 306 363
#
# _framework density 18.635318000000002
#
# number of rings (size 3 to 8) (size 9 to 14) (size 15 to 20)
#    0.000    1.000    2.500    5.250   10.500    3.000 
#    0.000    5.000    0.000    0.000    0.000    0.000 
#    0.000    0.000    0.000    0.000    0.000    0.000 
#
# Total GULP energy -89237.132358 kJ/mol
# GULP energy per Si atom -5577.320772 kJ/mol
# Density = 1.859290 g / cm^3
# Si number density = 18.635318 Si / 1000 Ang^3
#
#
#
# Elastic Constant Matrix: (Units=GPa)
#
#
# Indices 1 2 3 4 5 6 
#
# 1 77.2772 2.9931 9.1397 -7.4880 3.4782 0.8976
# 2 2.9931 72.7593 17.0235 -12.4873 4.6074 -18.0236
# 3 9.1397 17.0235 75.2560 -14.6682 -15.7472 6.1517
# 4 -7.4880 -12.4873 -14.6682 24.2975 5.6651 -4.3497
# 5 3.4782 4.6074 -15.7472 5.6651 29.5274 14.4819
# 6 0.8976 -18.0236 6.1517 -4.3497 14.4819 42.3368
#
#
#
# Elastic Compliance Matrix: (Units=1/GPa)
#
#
# Indices 1 2 3 4 5 6 
#
# 1 0.014055 0.002688 -0.002877 0.006361 -0.006934 0.004290
# 2 0.002688 0.026053 -0.009551 0.018063 -0.023964 0.022475
# 3 -0.002877 -0.009551 0.021061 -0.000214 0.019920 -0.013901
# 4 0.006361 0.018063 -0.000214 0.062782 -0.027169 0.023330
# 5 -0.006934 -0.023964 0.019920 -0.027169 0.074473 -0.041215
# 6 0.004290 0.022475 -0.013901 0.023330 -0.041215 0.051612
#
#
# Mechanical properties :
#
#
# Convention : Reuss Voigt Hill
#
# Bulk Modulus (GPa) = 23.98651 31.51167 27.74909
# Shear Modulus (GPa) = 17.64226 32.30809 24.97518
#
# Velocity S-wave (km/s) = 3.08020 4.16829 3.66485
# Velocity P-wave (km/s) = 5.05467 6.33345 5.72985
#
# Compressibility (1/GPa) = 0.04169010
#
# Stress axis : x y z
#
# Youngs Moduli (GPa) = 71.14815 38.38366 47.48194
#
# Poissons Ratio (x) = -0.10319 0.13660
# Poissons Ratio (y) = -0.19127 0.45349
# Poissons Ratio (z) = 0.20468 0.36659
#
# Static dielectric constant tensor:
#      x y z
#    x 1.616830 0.009100 0.014950 
#    y 0.009100 1.636940 0.000750 
#    z 0.014950 0.000750 1.604370 
# 
# From -- ./inp_files/343315.got.cif
#   From: 2010.05.17/outbox.cif.g08.bks.cpg/sg2_172_cif.got.tgz:343315.got - 2010.06.03 11:33:40.
