data_PCOD9055072
_publ_section_title
;
Structure prediction by ZEFSAII (Michael W. Deem and Ramdas Pophale) SiO2 
 PCOD9055072
Probable space group: P -1
;
_chemical_formula_sum "Si O2"
_cell_formula_units_Z 16
_cell_length_a 5.228358
_cell_length_b 16.533098
_cell_length_c 17.475012
_cell_angle_alpha 33.282476
_cell_angle_beta 123.320719
_cell_angle_gamma 122.331886
_cell_volume 683.194142
_symmetry_space_group_name_H-M "P -1"
_symmetry_group_IT_number 2
_symmetry_cell_setting 'triclinic'
loop_
_space_group_symop_operation_xyz
x,y,z
-x,-y,-z
loop_
_atom_site_type_symbol
_atom_site_label
_atom_site_fract_x
_atom_site_fract_y
_atom_site_fract_z
Si Si1 0.699292 0.167185 0.896487
Si Si2 0.935867 0.225933 0.112639
Si Si3 0.234030 0.279259 0.480422
Si Si4 0.746828 0.891328 0.879570
Si Si5 0.940042 0.223949 0.630377
Si Si6 0.020920 0.369225 0.670721
Si Si7 0.141595 0.013939 0.428052
Si Si8 0.363474 0.582860 0.184731
O O1 0.729280 0.273590 0.742071
O O2 0.668050 0.277481 0.875328
O O3 0.052410 0.134838 0.993216
O O4 0.500000 0.000000 0.000000
O O5 0.605346 0.111864 0.150607
O O6 0.183673 0.216788 0.092495
O O7 0.783444 0.374291 0.953194
O O8 0.093545 0.170910 0.257378
O O9 0.593738 0.260892 0.552134
O O10 0.191182 0.423627 0.310363
O O11 0.128015 0.309233 0.524993
O O12 0.033561 0.128185 0.535417
O O13 0.890654 0.049875 0.742968
O O14 0.110641 0.248901 0.720093
O O15 0.000000 0.500000 0.500000
O O16 0.274235 0.425477 0.732665
O O17 0.500000 0.000000 0.500000
O O18 0.000000 0.000000 0.500000
#
# Coordination Sequence:
#
# PCOD9055072 Si02
#       8
#     2   2   2   2   2   2   2   2
#     4  11  26  40  63  99 146 200 258 306 337 400
#     4  11  23  44  71 101 139 181 228 286 364 432
#     4  12  26  46  71 106 143 189 230 297 371 437
#     4  11  21  40  65  96 133 187 235 281 347 412
#     4  12  24  39  70  99 145 192 242 284 349 407
#     4  12  25  40  63 100 146 199 255 293 333 406
#     4  12  25  48  78 111 133 170 236 303 373 455
#     4  11  26  44  67 100 151 199 239 289 357 418
#
# _framework density 23.419402999999999
#
# number of rings (size 3 to 8) (size 9 to 14) (size 15 to 20)
#    0.000    0.500    5.000    3.000    7.000    2.000 
#    0.000    1.250    0.000    0.000    0.000    0.000 
#    0.000    0.000    0.000    0.000    0.000    0.000 
#
# Total GULP energy -89230.337836 kJ/mol
# GULP energy per Si atom -5576.896115 kJ/mol
# Density = 2.336610 g / cm^3
# Si number density = 23.419403 Si / 1000 Ang^3
#
#
#
# Elastic Constant Matrix: (Units=GPa)
#
#
# Indices 1 2 3 4 5 6 
#
# 1 124.5941 21.4379 37.4909 18.4862 -10.8677 9.2469
# 2 21.4379 33.3637 7.0286 10.7780 -0.6423 9.4346
# 3 37.4909 7.0286 172.1118 13.9783 -22.0508 17.5159
# 4 18.4862 10.7780 13.9783 40.9445 4.7161 0.3754
# 5 -10.8677 -0.6423 -22.0508 4.7161 46.2851 7.3095
# 6 9.2469 9.4346 17.5159 0.3754 7.3095 29.3568
#
#
#
# Elastic Compliance Matrix: (Units=1/GPa)
#
#
# Indices 1 2 3 4 5 6 
#
# 1 0.009977 -0.004728 -0.001318 -0.003048 0.002171 -0.001338
# 2 -0.004728 0.039294 0.001916 -0.009127 0.003330 -0.012994
# 3 -0.001318 0.001916 0.007401 -0.002894 0.004435 -0.005683
# 4 -0.003048 -0.009127 -0.002894 0.029858 -0.006340 0.006817
# 5 0.002171 0.003330 0.004435 -0.006340 0.026650 -0.010955
# 6 -0.001338 -0.012994 -0.005683 0.006817 -0.010955 0.044693
#
#
# Mechanical properties :
#
#
# Convention : Reuss Voigt Hill
#
# Bulk Modulus (GPa) = 20.65687 51.33159 35.99423
# Shear Modulus (GPa) = 27.43147 40.92476 34.17812
#
# Velocity S-wave (km/s) = 3.42616 4.18481 3.82434
# Velocity P-wave (km/s) = 4.94884 6.73173 5.90793
#
# Compressibility (1/GPa) = 0.04841005
#
# Stress axis : x y z
#
# Youngs Moduli (GPa) = 100.22872 25.44886 135.11903
#
# Poissons Ratio (x) = 0.12033 0.17815
# Poissons Ratio (y) = 0.47393 -0.25884
# Poissons Ratio (z) = 0.13215 -0.04875
#
# Static dielectric constant tensor:
#      x y z
#    x 1.926050 -0.007580 0.037230 
#    y -0.007580 1.933950 0.008910 
#    z 0.037230 0.008910 2.009620 
# 
# From -- ./inp_files/56428.got.cif
#   From: 2010.05.17/outbox.cif.g08.bks.cpg/sg2_29_cif.got.tgz:56428.got - 2010.06.03 11:33:40.
