data_PCOD9055647
_publ_section_title
;
Structure prediction by ZEFSAII (Michael W. Deem and Ramdas Pophale) SiO2 
 PCOD9055647
Probable space group: P -1
;
_chemical_formula_sum "Si O2"
_cell_formula_units_Z 14
_cell_length_a 13.804978
_cell_length_b 13.762480
_cell_length_c 8.232583
_cell_angle_alpha 50.964965
_cell_angle_beta 139.492154
_cell_angle_gamma 141.772941
_cell_volume 626.603057
_symmetry_space_group_name_H-M "P -1"
_symmetry_group_IT_number 2
_symmetry_cell_setting 'triclinic'
loop_
_space_group_symop_operation_xyz
x,y,z
-x,-y,-z
loop_
_atom_site_type_symbol
_atom_site_label
_atom_site_fract_x
_atom_site_fract_y
_atom_site_fract_z
Si Si1 0.413815 0.348199 0.660013
Si Si2 0.471157 0.256691 0.168497
Si Si3 0.321608 0.918196 0.743418
Si Si4 0.832216 0.314508 0.470679
Si Si5 0.000062 0.150464 0.366118
Si Si6 0.323846 0.184279 0.379490
Si Si7 0.915842 0.099775 0.962129
O O1 0.500000 0.500000 0.500000
O O2 0.380453 0.232776 0.589834
O O3 0.211967 0.292686 0.521435
O O4 0.504573 0.348001 0.944329
O O5 0.657291 0.266886 0.409376
O O6 0.435653 0.306891 0.244267
O O7 0.272871 0.080512 0.077053
O O8 0.267187 0.762815 0.748242
O O9 0.140583 0.872577 0.657207
O O10 0.359510 0.055573 0.529758
O O11 0.500000 0.000000 0.000000
O O12 0.000000 0.500000 0.500000
O O13 0.908040 0.215083 0.714809
O O14 0.000000 0.000000 0.500000
O O15 0.940128 0.172435 0.093799
O O16 0.105656 0.115334 0.158915
#
# Coordination Sequence:
#
# PCOD9055647 Si02
#       7
#     2   2   2   2   2   2   2
#     4  11  25  43  68 107 144 176 235 309 358 422
#     4  12  24  45  73  98 141 193 245 283 361 439
#     4  12  24  45  76 106 143 191 246 297 352 445
#     4  12  30  45  66 107 152 186 235 306 366 418
#     4  11  21  42  74 103 135 183 242 298 355 422
#     4  11  24  43  75 107 131 190 251 293 356 430
#     4  11  22  45  72 102 141 181 247 296 347 441
#
# _framework density 22.342694000000002
#
# number of rings (size 3 to 8) (size 9 to 14) (size 15 to 20)
#    0.000    0.571    5.714    2.571    8.000    1.714 
#    0.000    0.714    0.000    0.000    0.000    0.000 
#    0.000    0.000    0.000    0.000    0.000    0.000 
#
# Total GULP energy -78062.298999 kJ/mol
# GULP energy per Si atom -5575.878500 kJ/mol
# Density = 2.229184 g / cm^3
# Si number density = 22.342694 Si / 1000 Ang^3
#
#
#
# Elastic Constant Matrix: (Units=GPa)
#
#
# Indices 1 2 3 4 5 6 
#
# 1 133.4496 24.6429 25.5478 4.1131 0.0763 20.3601
# 2 24.6429 97.4782 25.9392 -6.1640 12.8006 3.6018
# 3 25.5478 25.9392 104.3643 -6.1092 -8.9941 8.3611
# 4 4.1131 -6.1640 -6.1092 24.8151 2.7695 -3.6060
# 5 0.0763 12.8006 -8.9941 2.7695 41.5552 12.7507
# 6 20.3601 3.6018 8.3611 -3.6060 12.7507 27.4003
#
#
#
# Elastic Compliance Matrix: (Units=1/GPa)
#
#
# Indices 1 2 3 4 5 6 
#
# 1 0.009600 -0.002573 -0.000954 -0.004117 0.003505 -0.008677
# 2 -0.002573 0.012680 -0.003199 0.004178 -0.006318 0.004711
# 3 -0.000954 -0.003199 0.011435 0.001002 0.004758 -0.004442
# 4 -0.004117 0.004178 0.001002 0.044809 -0.007623 0.011649
# 5 0.003505 -0.006318 0.004758 -0.007623 0.033644 -0.019886
# 6 -0.008677 0.004711 -0.004442 0.011649 -0.019886 0.054467
#
#
# Mechanical properties :
#
#
# Convention : Reuss Voigt Hill
#
# Bulk Modulus (GPa) = 49.35182 54.17243 51.76213
# Shear Modulus (GPa) = 26.76070 36.03160 31.39615
#
# Velocity S-wave (km/s) = 3.46459 4.02017 3.75268
# Velocity P-wave (km/s) = 6.17584 6.77110 6.48031
#
# Compressibility (1/GPa) = 0.02026268
#
# Stress axis : x y z
#
# Youngs Moduli (GPa) = 104.16641 78.86309 87.44957
#
# Poissons Ratio (x) = 0.20292 0.08345
# Poissons Ratio (y) = 0.26802 0.27975
# Poissons Ratio (z) = 0.09941 0.25229
#
# Static dielectric constant tensor:
#      x y z
#    x 1.847210 -0.044740 -0.094630 
#    y -0.044740 2.003230 -0.014100 
#    z -0.094630 -0.014100 1.945070 
# 
# From -- ./inp_files/311084.got.cif
#   From: 2010.05.17/outbox.cif.g08.bks.cpg/sg2_156_cif.got.tgz:311084.got - 2010.06.03 11:33:40.
