data_PCOD9055054
_publ_section_title
;
Structure prediction by ZEFSAII (Michael W. Deem and Ramdas Pophale) SiO2 
 PCOD9055054
Probable space group: P -1
;
_chemical_formula_sum "Si O2"
_cell_formula_units_Z 12
_cell_length_a 13.285093
_cell_length_b 13.310501
_cell_length_c 6.336122
_cell_angle_alpha 117.757877
_cell_angle_beta 103.392848
_cell_angle_gamma 30.920694
_cell_volume 473.467229
_symmetry_space_group_name_H-M "P -1"
_symmetry_group_IT_number 2
_symmetry_cell_setting 'triclinic'
loop_
_space_group_symop_operation_xyz
x,y,z
-x,-y,-z
loop_
_atom_site_type_symbol
_atom_site_label
_atom_site_fract_x
_atom_site_fract_y
_atom_site_fract_z
Si Si1 0.739649 0.487773 0.424548
Si Si2 0.802936 0.683974 0.749661
Si Si3 0.479879 0.347277 0.904520
Si Si4 0.423281 0.147996 0.806916
Si Si5 0.287279 0.682992 0.442419
Si Si6 0.897622 0.984125 0.031356
O O1 0.718141 0.637611 0.621177
O O2 0.535009 0.643256 0.345870
O O3 0.789863 0.359316 0.521212
O O4 0.939257 0.273926 0.160090
O O5 0.000000 0.500000 0.500000
O O6 0.633527 0.939198 0.846909
O O7 0.774459 0.713266 0.021066
O O8 0.387483 0.311958 0.886303
O O9 0.343121 0.586927 0.144730
O O10 0.695407 0.150918 0.949516
O O11 0.500000 0.000000 0.500000
O O12 0.500000 0.500000 0.500000
O O13 0.152869 0.922285 0.666049
O O14 0.000000 0.000000 0.000000
#
# Coordination Sequence:
#
# PCOD9055054 Si02
#       6
#     2   2   2   2   2   2
#     4  11  21  40  64  92 128 176 218 268 342 393
#     4  11  24  42  68  96 137 176 226 283 333 405
#     4  11  21  40  66  90 132 173 217 273 336 400
#     4  11  23  43  67  99 134 179 224 277 344 402
#     4   9  20  38  61  88 127 169 213 275 321 389
#     4   9  21  38  60  93 128 166 219 271 323 396
#
# _framework density 25.344944000000002
#
# number of rings (size 3 to 8) (size 9 to 14) (size 15 to 20)
#    0.000    1.667    3.333    1.000    0.000    7.333 
#    0.000    5.000    0.000    0.000    0.000    0.000 
#    0.000    0.000    0.000    0.000    0.000    0.000 
#
# Total GULP energy -66938.110960 kJ/mol
# GULP energy per Si atom -5578.175913 kJ/mol
# Density = 2.528726 g / cm^3
# Si number density = 25.344944 Si / 1000 Ang^3
#
#
#
# Elastic Constant Matrix: (Units=GPa)
#
#
# Indices 1 2 3 4 5 6 
#
# 1 63.4770 20.1305 48.2794 -1.5497 -21.1983 4.4463
# 2 20.1305 94.3454 20.8519 17.8778 -1.9591 4.6705
# 3 48.2794 20.8519 165.5803 20.6376 -5.5064 -1.9488
# 4 -1.5497 17.8778 20.6376 45.6311 3.4291 2.3581
# 5 -21.1983 -1.9591 -5.5064 3.4291 50.2541 4.0754
# 6 4.4463 4.6705 -1.9488 2.3581 4.0754 35.6456
#
#
#
# Elastic Compliance Matrix: (Units=1/GPa)
#
#
# Indices 1 2 3 4 5 6 
#
# 1 0.027053 -0.004699 -0.007719 0.005716 0.010377 -0.004745
# 2 -0.004699 0.012492 0.000394 -0.005123 -0.001056 -0.000569
# 3 -0.007719 0.000394 0.008728 -0.004302 -0.002147 0.001918
# 4 0.005716 -0.005123 -0.004302 0.026157 0.000119 -0.002021
# 5 0.010377 -0.001056 -0.002147 0.000119 0.024321 -0.004062
# 6 -0.004745 -0.000569 0.001918 -0.002021 -0.004062 0.029423
#
#
# Mechanical properties :
#
#
# Convention : Reuss Voigt Hill
#
# Bulk Modulus (GPa) = 41.28281 55.76959 48.52620
# Shear Modulus (GPa) = 31.19194 41.91556 36.55375
#
# Velocity S-wave (km/s) = 3.51193 4.07111 3.80182
# Velocity P-wave (km/s) = 5.72439 6.64459 6.20158
#
# Compressibility (1/GPa) = 0.02422316
#
# Stress axis : x y z
#
# Youngs Moduli (GPa) = 36.96511 80.05121 114.57470
#
# Poissons Ratio (x) = 0.37615 0.88445
# Poissons Ratio (y) = 0.17370 -0.04510
# Poissons Ratio (z) = 0.28535 -0.03151
#
# Static dielectric constant tensor:
#      x y z
#    x 2.025870 -0.061630 -0.150820 
#    y -0.061630 2.038380 -0.040540 
#    z -0.150820 -0.040540 2.184380 
# 
# From -- ./inp_files/97373.got.cif
#   From: 2010.05.17/outbox.cif.g08.bks.cpg/sg2_49_cif.got.tgz:97373.got - 2010.06.03 11:33:40.
