data_PCOD9055588
_publ_section_title
;
Structure prediction by ZEFSAII (Michael W. Deem and Ramdas Pophale) SiO2 
 PCOD9055588
Probable space group: P -1
;
_chemical_formula_sum "Si O2"
_cell_formula_units_Z 16
_cell_length_a 14.815002
_cell_length_b 19.743679
_cell_length_c 9.512360
_cell_angle_alpha 145.594701
_cell_angle_beta 25.940397
_cell_angle_gamma 146.524881
_cell_volume 638.097649
_symmetry_space_group_name_H-M "P -1"
_symmetry_group_IT_number 2
_symmetry_cell_setting 'triclinic'
loop_
_space_group_symop_operation_xyz
x,y,z
-x,-y,-z
loop_
_atom_site_type_symbol
_atom_site_label
_atom_site_fract_x
_atom_site_fract_y
_atom_site_fract_z
Si Si1 0.135747 0.369206 0.526506
Si Si2 0.544267 0.297745 0.828717
Si Si3 0.647965 0.984333 0.437978
Si Si4 0.370276 0.747613 0.062991
Si Si5 0.038433 0.988799 0.690093
Si Si6 0.260299 0.252973 0.677445
Si Si7 0.997862 0.717905 0.152135
Si Si8 0.359808 0.617362 0.446944
O O1 0.240048 0.494597 0.500640
O O2 0.881749 0.298563 0.717079
O O3 0.135425 0.389895 0.730504
O O4 0.288189 0.285444 0.152938
O O5 0.540322 0.157229 0.553382
O O6 0.620179 0.322604 0.924673
O O7 0.665045 0.400570 0.716120
O O8 0.770224 0.996315 0.437192
O O9 0.560160 0.099703 0.745753
O O10 0.832715 0.997578 0.082169
O O11 0.538901 0.730716 0.684472
O O12 0.127056 0.106143 0.657666
O O13 0.985555 0.852452 0.452492
O O14 0.383728 0.325936 0.768846
O O15 0.102043 0.307596 0.906937
O O16 0.245372 0.720087 0.814802
#
# Coordination Sequence:
#
# PCOD9055588 Si02
#       8
#     2   2   2   2   2   2   2   2
#     4  12  25  50  68  96 142 178 231 283 330 392
#     4  12  26  47  69 104 136 177 229 278 339 402
#     4  11  21  42  71 100 139 178 215 280 343 404
#     4  12  26  43  75 100 137 182 221 275 348 402
#     4  11  22  42  71 102 140 175 217 281 344 399
#     4  12  26  44  72 105 135 179 223 278 342 405
#     4  12  25  45  69 103 139 174 225 287 334 399
#     4  12  29  44  72 100 133 185 232 278 330 401
#
# _framework density 25.074532000000001
#
# number of rings (size 3 to 8) (size 9 to 14) (size 15 to 20)
#    0.000    0.250    6.250    2.250    3.500    3.000 
#    0.000    0.000    0.000    0.000    0.000    0.000 
#    0.000    0.000    0.000    0.000    0.000    0.000 
#
# Total GULP energy -89682.070170 kJ/mol
# GULP energy per Si atom -5605.129386 kJ/mol
# Density = 2.501746 g / cm^3
# Si number density = 25.074532 Si / 1000 Ang^3
#
#
#
# Elastic Constant Matrix: (Units=GPa)
#
#
# Indices 1 2 3 4 5 6 
#
# 1 171.6944 35.1795 24.8776 -8.4937 -4.8427 -41.8289
# 2 35.1795 106.1199 9.2793 -10.2404 3.3902 -36.5638
# 3 24.8776 9.2793 36.3056 7.8256 3.5067 -5.5087
# 4 -8.4937 -10.2404 7.8256 28.8299 -6.8103 11.5062
# 5 -4.8427 3.3902 3.5067 -6.8103 34.2698 -10.9385
# 6 -41.8289 -36.5638 -5.5087 11.5062 -10.9385 44.0078
#
#
#
# Elastic Compliance Matrix: (Units=1/GPa)
#
#
# Indices 1 2 3 4 5 6 
#
# 1 0.009013 0.000722 -0.005915 0.002076 0.005145 0.009163
# 2 0.000722 0.013636 -0.002864 0.001814 0.003233 0.011987
# 3 -0.005915 -0.002864 0.035667 -0.013459 -0.007476 -0.001877
# 4 0.002076 0.001814 -0.013459 0.044606 0.007827 -0.007922
# 5 0.005145 0.003233 -0.007476 0.007827 0.036250 0.013604
# 6 0.009163 0.011987 -0.001877 -0.007922 0.013604 0.046609
#
#
# Mechanical properties :
#
#
# Convention : Reuss Voigt Hill
#
# Bulk Modulus (GPa) = 23.69520 50.31030 37.00275
# Shear Modulus (GPa) = 23.15201 37.74041 30.44621
#
# Velocity S-wave (km/s) = 3.04193 3.88381 3.48836
# Velocity P-wave (km/s) = 4.66992 6.34191 5.56902
#
# Compressibility (1/GPa) = 0.04220264
#
# Stress axis : x y z
#
# Youngs Moduli (GPa) = 110.94523 73.33441 28.03676
#
# Poissons Ratio (x) = -0.05296 0.16584
# Poissons Ratio (y) = -0.08013 0.08031
# Poissons Ratio (z) = 0.65624 0.21007
#
# Static dielectric constant tensor:
#      x y z
#    x 1.984160 -0.000090 0.026690 
#    y -0.000090 1.959870 0.005620 
#    z 0.026690 0.005620 1.964850 
# 
# From -- ./inp_files/226776.got.cif
#   From: 2010.05.17/outbox.cif.g08.bks.cpg/sg2_114_cif.got.tgz:226776.got - 2010.06.03 11:33:40.
