data_PCOD9055440
_publ_section_title
;
Structure prediction by ZEFSAII (Michael W. Deem and Ramdas Pophale) SiO2 
 PCOD9055440
Probable space group: P -1
;
_chemical_formula_sum "Si O2"
_cell_formula_units_Z 16
_cell_length_a 7.288248
_cell_length_b 11.728322
_cell_length_c 14.591164
_cell_angle_alpha 143.623770
_cell_angle_beta 105.366143
_cell_angle_gamma 59.167268
_cell_volume 607.879958
_symmetry_space_group_name_H-M "P -1"
_symmetry_group_IT_number 2
_symmetry_cell_setting 'triclinic'
loop_
_space_group_symop_operation_xyz
x,y,z
-x,-y,-z
loop_
_atom_site_type_symbol
_atom_site_label
_atom_site_fract_x
_atom_site_fract_y
_atom_site_fract_z
Si Si1 0.199809 0.977318 0.298718
Si Si2 0.767227 0.232453 0.136375
Si Si3 0.572801 0.567773 0.171580
Si Si4 0.557799 0.663555 0.673227
Si Si5 0.533540 0.125679 0.474078
Si Si6 0.093702 0.269771 0.311053
Si Si7 0.160277 0.706353 0.412111
Si Si8 0.070792 0.381843 0.834715
O O1 0.376309 0.708654 0.160271
O O2 0.500737 0.786082 0.369298
O O3 0.321503 0.117477 0.414692
O O4 0.030612 0.063704 0.418064
O O5 0.614280 0.363488 0.111912
O O6 0.087760 0.078191 0.250523
O O7 0.000000 0.000000 0.000000
O O8 0.891185 0.357529 0.267941
O O9 0.817005 0.496465 0.122130
O O10 0.500000 0.500000 0.500000
O O11 0.378814 0.779651 0.807202
O O12 0.645774 0.814385 0.734602
O O13 0.791159 0.489860 0.640322
O O14 0.617710 0.282839 0.547381
O O15 0.729968 0.878492 0.308568
O O16 0.000000 0.500000 0.500000
O O17 0.108113 0.637817 0.263691
O O18 0.000000 0.500000 0.000000
#
# Coordination Sequence:
#
# PCOD9055440 Si02
#       8
#     2   2   2   2   2   2   2   2
#     4  11  22  41  72 113 140 179 246 304 348 422
#     4  12  28  52  71 105 150 193 242 311 375 432
#     4  11  22  48  72  96 144 193 235 298 354 434
#     4  12  24  44  80 110 138 192 259 297 354 452
#     4  11  21  41  74 100 138 187 243 285 350 435
#     4  12  23  44  78 108 146 190 242 302 364 439
#     4  12  21  39  77 104 139 194 243 288 360 432
#     4  11  24  43  64 110 152 186 228 299 368 424
#
# _framework density 26.320986999999999
#
# number of rings (size 3 to 8) (size 9 to 14) (size 15 to 20)
#    0.000    0.500    6.250    3.375    0.000    0.500 
#   13.500    1.250    0.000    0.000    0.000    0.000 
#    0.000    0.000    0.000    0.000    0.000    0.000 
#
# Total GULP energy -89189.394228 kJ/mol
# GULP energy per Si atom -5574.337139 kJ/mol
# Density = 2.626108 g / cm^3
# Si number density = 26.320987 Si / 1000 Ang^3
#
#
#
# Elastic Constant Matrix: (Units=GPa)
#
#
# Indices 1 2 3 4 5 6 
#
# 1 162.3733 30.0832 18.3935 -14.6328 -23.8721 15.5825
# 2 30.0832 141.3018 28.3292 -3.6695 -14.1066 2.9982
# 3 18.3935 28.3292 91.7743 10.6905 -31.0600 12.5082
# 4 -14.6328 -3.6695 10.6905 27.9783 -4.4363 -10.9216
# 5 -23.8721 -14.1066 -31.0600 -4.4363 48.0825 -8.7970
# 6 15.5825 2.9982 12.5082 -10.9216 -8.7970 44.5580
#
#
#
# Elastic Compliance Matrix: (Units=1/GPa)
#
#
# Indices 1 2 3 4 5 6 
#
# 1 0.007320 -0.001024 -0.000408 0.004096 0.003317 -0.000718
# 2 -0.001024 0.007863 -0.002380 0.001935 0.000640 0.001098
# 3 -0.000408 -0.002380 0.015769 -0.006976 0.007858 -0.004282
# 4 0.004096 0.001935 -0.006976 0.046520 0.004716 0.012729
# 5 0.003317 0.000640 0.007858 0.004716 0.028771 0.003427
# 6 -0.000718 0.001098 -0.004282 0.012729 0.003427 0.027619
#
#
# Mechanical properties :
#
#
# Convention : Reuss Voigt Hill
#
# Bulk Modulus (GPa) = 42.86711 61.00679 51.93695
# Shear Modulus (GPa) = 33.49826 45.36667 39.43246
#
# Velocity S-wave (km/s) = 3.57134 4.15612 3.87478
# Velocity P-wave (km/s) = 5.77300 6.80143 6.30821
#
# Compressibility (1/GPa) = 0.02332791
#
# Stress axis : x y z
#
# Youngs Moduli (GPa) = 136.60797 127.17479 63.41722
#
# Poissons Ratio (x) = 0.13023 0.02585
# Poissons Ratio (y) = 0.13989 0.15096
# Poissons Ratio (z) = 0.05569 0.30273
#
# Static dielectric constant tensor:
#      x y z
#    x 2.070170 0.080180 -0.101510 
#    y 0.080180 2.274970 -0.064720 
#    z -0.101510 -0.064720 2.032050 
# 
# From -- ./inp_files/499524.got.cif
#   From: 2010.05.17/outbox.cif.g08.bks.cpg/sg2_250_cif.got.tgz:499524.got - 2010.06.03 11:33:40.
