data_PCOD9055733
_publ_section_title
;
Structure prediction by ZEFSAII (Michael W. Deem and Ramdas Pophale) SiO2 
 PCOD9055733
Probable space group: P -1
;
_chemical_formula_sum "Si O2"
_cell_formula_units_Z 12
_cell_length_a 9.468511
_cell_length_b 9.124120
_cell_length_c 12.028370
_cell_angle_alpha 131.561024
_cell_angle_beta 79.880200
_cell_angle_gamma 117.448842
_cell_volume 676.638000
_symmetry_space_group_name_H-M "P -1"
_symmetry_group_IT_number 2
_symmetry_cell_setting 'triclinic'
loop_
_space_group_symop_operation_xyz
x,y,z
-x,-y,-z
loop_
_atom_site_type_symbol
_atom_site_label
_atom_site_fract_x
_atom_site_fract_y
_atom_site_fract_z
Si Si1 0.941239 0.049940 0.372191
Si Si2 0.517736 0.302727 0.459169
Si Si3 0.611322 0.157809 0.161876
Si Si4 0.937279 0.129010 0.152341
Si Si5 0.757698 0.687820 0.381082
Si Si6 0.859235 0.414701 0.571144
O O1 0.943920 0.054881 0.241267
O O2 0.841740 0.179522 0.489181
O O3 0.117813 0.200229 0.477117
O O4 0.858491 0.809967 0.319093
O O5 0.500000 0.500000 0.500000
O O6 0.509880 0.135715 0.278466
O O7 0.383939 0.243728 0.543074
O O8 0.694061 0.389500 0.531500
O O9 0.759651 0.104291 0.139688
O O10 0.688864 0.422086 0.255276
O O11 0.500000 0.000000 0.000000
O O12 0.063853 0.389412 0.253346
O O13 0.000000 0.000000 0.000000
O O14 0.000000 0.500000 0.500000
#
# Coordination Sequence:
#
# PCOD9055733 Si02
#       6
#     2   2   2   2   2   2
#     4  10  20  41  61  83 115 150 197 245 278 335
#     4  10  19  34  59  84 110 150 194 237 279 334
#     4  11  22  37  56  86 119 150 188 237 286 348
#     4  11  22  36  59  84 113 158 193 228 287 344
#     4  10  22  38  62  87 114 149 193 244 291 328
#     4  10  17  36  59  79 111 149 198 235 269 336
#
# _framework density 17.734741
#
# number of rings (size 3 to 8) (size 9 to 14) (size 15 to 20)
#    0.000    1.667    5.000    3.000    7.000    0.667 
#    0.000    3.333    0.000    0.000    0.000    0.000 
#    0.000    0.000    0.000    0.000    0.000    0.000 
#
# Total GULP energy -66835.922329 kJ/mol
# GULP energy per Si atom -5569.660194 kJ/mol
# Density = 1.769438 g / cm^3
# Si number density = 17.734741 Si / 1000 Ang^3
#
#
#
# Elastic Constant Matrix: (Units=GPa)
#
#
# Indices 1 2 3 4 5 6 
#
# 1 146.4923 14.5625 53.7232 -5.8366 7.0372 -3.1125
# 2 14.5625 79.0455 29.6307 3.8703 2.6087 4.7648
# 3 53.7232 29.6307 133.7066 -2.5967 -5.3308 3.9687
# 4 -5.8366 3.8703 -2.5967 19.2542 -3.2615 0.5884
# 5 7.0372 2.6087 -5.3308 -3.2615 37.9575 0.6373
# 6 -3.1125 4.7648 3.9687 0.5884 0.6373 17.1745
#
#
#
# Elastic Compliance Matrix: (Units=1/GPa)
#
#
# Indices 1 2 3 4 5 6 
#
# 1 0.008312 -0.000445 -0.003353 0.001766 -0.001870 0.002413
# 2 -0.000445 0.014285 -0.003026 -0.003585 -0.001579 -0.003163
# 3 -0.003353 -0.003026 0.009680 0.001359 0.002342 -0.002139
# 4 0.001766 -0.003585 0.001359 0.054219 0.004786 -0.001034
# 5 -0.001870 -0.001579 0.002342 0.004786 0.027568 -0.001629
# 6 0.002413 -0.003163 -0.002139 -0.001034 -0.001629 0.060131
#
#
# Mechanical properties :
#
#
# Convention : Reuss Voigt Hill
#
# Bulk Modulus (GPa) = 53.67601 61.67524 57.67562
# Shear Modulus (GPa) = 25.76640 32.29912 29.03276
#
# Velocity S-wave (km/s) = 3.81580 4.27222 4.05044
# Velocity P-wave (km/s) = 7.05305 7.69336 7.38015
#
# Compressibility (1/GPa) = 0.01863030
#
# Stress axis : x y z
#
# Youngs Moduli (GPa) = 120.31374 70.00133 103.30498
#
# Poissons Ratio (x) = 0.03112 0.34638
# Poissons Ratio (y) = 0.05349 0.31259
# Poissons Ratio (z) = 0.40341 0.21181
#
# Static dielectric constant tensor:
#      x y z
#    x 1.624900 -0.007320 -0.029800 
#    y -0.007320 1.640130 -0.026490 
#    z -0.029800 -0.026490 1.556690 
# 
# From -- ./inp_files/145588.got.cif
#   From: 2010.05.17/outbox.cif.g08.bks.cpg/sg2_73_cif.got.tgz:145588.got - 2010.06.03 11:33:40.
