data_PCOD9055219
_publ_section_title
;
Structure prediction by ZEFSAII (Michael W. Deem and Ramdas Pophale) SiO2 
 PCOD9055219
Probable space group: P -1
;
_chemical_formula_sum "Si O2"
_cell_formula_units_Z 16
_cell_length_a 9.519349
_cell_length_b 17.821924
_cell_length_c 7.492035
_cell_angle_alpha 137.989027
_cell_angle_beta 59.958567
_cell_angle_gamma 96.719980
_cell_volume 661.263667
_symmetry_space_group_name_H-M "P -1"
_symmetry_group_IT_number 2
_symmetry_cell_setting 'triclinic'
loop_
_space_group_symop_operation_xyz
x,y,z
-x,-y,-z
loop_
_atom_site_type_symbol
_atom_site_label
_atom_site_fract_x
_atom_site_fract_y
_atom_site_fract_z
Si Si1 0.742199 0.837765 0.140433
Si Si2 0.145876 0.181336 0.379595
Si Si3 0.463545 0.254879 0.392397
Si Si4 0.182772 0.692214 0.371121
Si Si5 0.069562 0.602926 0.607712
Si Si6 0.618918 0.119602 0.701684
Si Si7 0.755301 0.097289 0.195107
Si Si8 0.528491 0.484390 0.665305
O O1 0.570180 0.812444 0.164550
O O2 0.657535 0.982041 0.505742
O O3 0.811154 0.833654 0.886716
O O4 0.898468 0.738237 0.986616
O O5 0.281243 0.236276 0.458320
O O6 0.933295 0.271903 0.673220
O O7 0.177049 0.042521 0.169393
O O8 0.565618 0.174137 0.354648
O O9 0.452309 0.392118 0.636447
O O10 0.593172 0.196641 0.032921
O O11 0.116821 0.607517 0.378224
O O12 0.148480 0.812117 0.730777
O O13 0.395043 0.618948 0.068983
O O14 0.259874 0.567333 0.519308
O O15 0.000000 0.500000 0.500000
O O16 0.756266 0.095478 0.408701
O O17 0.500000 0.500000 0.500000
#
# Coordination Sequence:
#
# PCOD9055219 Si02
#       8
#     2   2   2   2   2   2   2   2
#     4   8  18  38  65  95 129 171 223 268 332 400
#     4   9  21  40  68 101 130 175 217 283 338 410
#     4  11  23  42  66 100 140 168 230 277 335 410
#     4  11  24  46  69  95 135 182 227 278 341 403
#     4  11  25  44  70  96 129 180 238 275 327 412
#     4   9  19  39  68  97 135 174 208 280 343 398
#     4  11  21  40  72  99 134 174 224 274 349 400
#     4  12  28  47  64  97 140 183 223 289 339 390
#
# _framework density 24.196097000000002
#
# number of rings (size 3 to 8) (size 9 to 14) (size 15 to 20)
#    0.000    1.750    1.250    2.625    7.000    0.500 
#    4.500    0.625    0.000    0.000    0.000    0.000 
#    0.000    0.000    0.000    0.000    0.000    0.000 
#
# Total GULP energy -89265.601880 kJ/mol
# GULP energy per Si atom -5579.100117 kJ/mol
# Density = 2.414103 g / cm^3
# Si number density = 24.196097 Si / 1000 Ang^3
#
#
#
# Elastic Constant Matrix: (Units=GPa)
#
#
# Indices 1 2 3 4 5 6 
#
# 1 164.3853 38.8459 52.4573 37.5320 -27.1009 6.7988
# 2 38.8459 89.3813 36.9946 25.2467 -1.6151 0.2963
# 3 52.4573 36.9946 80.7443 23.7435 -21.0797 0.7787
# 4 37.5320 25.2467 23.7435 35.4479 -8.3353 2.8436
# 5 -27.1009 -1.6151 -21.0797 -8.3353 31.1850 7.1506
# 6 6.7988 0.2963 0.7787 2.8436 7.1506 40.6066
#
#
#
# Elastic Compliance Matrix: (Units=1/GPa)
#
#
# Indices 1 2 3 4 5 6 
#
# 1 0.009530 -0.001345 -0.002324 -0.006119 0.005482 -0.002078
# 2 -0.001345 0.016455 -0.006192 -0.007981 -0.007102 0.002033
# 3 -0.002324 -0.006192 0.020916 -0.004430 0.010978 -0.001590
# 4 -0.006119 -0.007981 -0.004430 0.044431 0.003747 -0.002603
# 5 0.005482 -0.007102 0.010978 0.003747 0.047093 -0.009632
# 6 -0.002078 0.002033 -0.001590 -0.002603 -0.009632 0.026868
#
#
# Mechanical properties :
#
#
# Convention : Reuss Voigt Hill
#
# Bulk Modulus (GPa) = 36.79564 65.67851 51.23707
# Shear Modulus (GPa) = 25.76333 35.19544 30.47938
#
# Velocity S-wave (km/s) = 3.26662 3.81805 3.55305
# Velocity P-wave (km/s) = 5.42845 6.82934 6.16879
#
# Compressibility (1/GPa) = 0.02717714
#
# Stress axis : x y z
#
# Youngs Moduli (GPa) = 104.93526 60.77318 47.81107
#
# Poissons Ratio (x) = 0.08176 0.11112
# Poissons Ratio (y) = 0.14117 0.29604
# Poissons Ratio (z) = 0.24389 0.37630
#
# Static dielectric constant tensor:
#      x y z
#    x 1.982550 0.055540 -0.076510 
#    y 0.055540 2.010430 -0.027680 
#    z -0.076510 -0.027680 2.078860 
# 
# From -- ./inp_files/218794.got.cif
#   From: 2010.05.17/outbox.cif.g08.bks.cpg/sg2_110_cif.got.tgz:218794.got - 2010.06.03 11:33:40.
