data_PCOD9055639
_publ_section_title
;
Structure prediction by ZEFSAII (Michael W. Deem and Ramdas Pophale) SiO2 
 PCOD9055639
Probable space group: P -1
;
_chemical_formula_sum "Si O2"
_cell_formula_units_Z 13
_cell_length_a 7.484654
_cell_length_b 8.346601
_cell_length_c 13.811562
_cell_angle_alpha 68.708451
_cell_angle_beta 131.356711
_cell_angle_gamma 109.621565
_cell_volume 597.744672
_symmetry_space_group_name_H-M "P -1"
_symmetry_group_IT_number 2
_symmetry_cell_setting 'triclinic'
loop_
_space_group_symop_operation_xyz
x,y,z
-x,-y,-z
loop_
_atom_site_type_symbol
_atom_site_label
_atom_site_fract_x
_atom_site_fract_y
_atom_site_fract_z
Si Si1 0.124436 0.273916 0.726765
Si Si2 0.000000 0.500000 0.500000
Si Si3 0.207847 0.890874 0.820245
Si Si4 0.900611 0.805642 0.544423
Si Si5 0.102166 0.105744 0.108565
Si Si6 0.392276 0.876193 0.401656
Si Si7 0.644463 0.687174 0.997048
O O1 0.215971 0.439298 0.660797
O O2 0.032638 0.339311 0.471767
O O3 0.212961 0.097327 0.762806
O O4 0.169670 0.289866 0.852857
O O5 0.167035 0.741420 0.390948
O O6 0.463289 0.828577 0.914564
O O7 0.026969 0.796138 0.696456
O O8 0.100194 0.858110 0.896043
O O9 0.613714 0.792557 0.457435
O O10 0.000000 0.000000 0.500000
O O11 0.239390 0.279737 0.073265
O O12 0.275393 0.994685 0.255508
O O13 0.000000 0.000000 0.000000
O O14 0.500000 0.000000 0.500000
O O15 0.500000 0.500000 0.000000
#
# Coordination Sequence:
#
# PCOD9055639 Si02
#       7
#     2   1   2   2   2   2   2
#     4  11  24  45  67 109 142 190 258 294 377 454
#     4  12  26  42  70 106 146 192 248 304 370 452
#     4  11  23  46  75 102 147 198 248 306 376 445
#     4  12  23  44  72 106 147 196 244 307 377 451
#     4  11  23  42  74 108 140 199 257 295 381 461
#     4  11  21  42  73 103 145 194 248 307 367 447
#     4  12  26  45  72 108 150 190 250 318 368 451
#
# _framework density 21.748418000000001
#
# number of rings (size 3 to 8) (size 9 to 14) (size 15 to 20)
#    0.000    0.615    7.692    2.308    0.000    2.462 
#    0.000    0.000    0.000    0.000    0.000    0.000 
#    0.000    0.000    0.000    0.000    0.000    0.000 
#
# Total GULP energy -72445.547903 kJ/mol
# GULP energy per Si atom -5572.734454 kJ/mol
# Density = 2.169892 g / cm^3
# Si number density = 21.748418 Si / 1000 Ang^3
#
#
#
# Elastic Constant Matrix: (Units=GPa)
#
#
# Indices 1 2 3 4 5 6 
#
# 1 80.1396 18.4419 8.5216 4.7287 3.1831 -21.6711
# 2 18.4419 72.6180 -3.2092 9.3976 0.5245 -30.6459
# 3 8.5216 -3.2092 108.9693 17.0222 -8.6917 -7.8219
# 4 4.7287 9.3976 17.0222 38.4609 -0.9615 3.6072
# 5 3.1831 0.5245 -8.6917 -0.9615 36.3899 6.3011
# 6 -21.6711 -30.6459 -7.8219 3.6072 6.3011 32.3038
#
#
#
# Elastic Compliance Matrix: (Units=1/GPa)
#
#
# Indices 1 2 3 4 5 6 
#
# 1 0.016243 0.002696 0.000205 -0.004234 -0.004080 0.014772
# 2 0.002696 0.028711 0.004490 -0.012532 -0.005556 0.032616
# 3 0.000205 0.004490 0.010962 -0.006660 0.001045 0.007592
# 4 -0.004234 -0.012532 -0.006660 0.034576 0.003490 -0.020883
# 5 -0.004080 -0.005556 0.001045 0.003490 0.030706 -0.014134
# 6 0.014772 0.032616 0.007592 -0.020883 -0.014134 0.078735
#
#
# Mechanical properties :
#
#
# Convention : Reuss Voigt Hill
#
# Bulk Modulus (GPa) = 14.14463 34.35951 24.25207
# Shear Modulus (GPa) = 23.95595 37.29576 30.62585
#
# Velocity S-wave (km/s) = 3.32249 4.14559 3.75665
# Velocity P-wave (km/s) = 4.60830 6.22475 5.47649
#
# Compressibility (1/GPa) = 0.07069822
#
# Stress axis : x y z
#
# Youngs Moduli (GPa) = 61.56666 34.82984 91.22661
#
# Poissons Ratio (x) = -0.09389 -0.01874
# Poissons Ratio (y) = -0.16596 -0.40965
# Poissons Ratio (z) = -0.01265 -0.15640
#
# Static dielectric constant tensor:
#      x y z
#    x 1.800870 0.085810 -0.030830 
#    y 0.085810 1.887810 -0.039160 
#    z -0.030830 -0.039160 1.857010 
# 
# From -- ./inp_files/381544.got.cif
#   From: 2010.05.17/outbox.cif.g08.bks.cpg/sg2_191_cif.got.tgz:381544.got - 2010.06.03 11:33:40.
