data_PCOD9055210
_publ_section_title
;
Structure prediction by ZEFSAII (Michael W. Deem and Ramdas Pophale) SiO2 
 PCOD9055210
Probable space group: P -1
;
_chemical_formula_sum "Si O2"
_cell_formula_units_Z 12
_cell_length_a 19.875462
_cell_length_b 9.575916
_cell_length_c 6.827740
_cell_angle_alpha 77.587722
_cell_angle_beta 61.270114
_cell_angle_gamma 33.481935
_cell_volume 580.335551
_symmetry_space_group_name_H-M "P -1"
_symmetry_group_IT_number 2
_symmetry_cell_setting 'triclinic'
loop_
_space_group_symop_operation_xyz
x,y,z
-x,-y,-z
loop_
_atom_site_type_symbol
_atom_site_label
_atom_site_fract_x
_atom_site_fract_y
_atom_site_fract_z
Si Si1 0.458016 0.414568 0.671517
Si Si2 0.807808 0.192089 0.764788
Si Si3 0.090975 0.751101 0.080684
Si Si4 0.675606 0.571782 0.459656
Si Si5 0.032687 0.613734 0.452604
Si Si6 0.626781 0.886330 0.739102
O O1 0.500000 0.500000 0.500000
O O2 0.427274 0.371581 0.531517
O O3 0.576485 0.129219 0.705701
O O4 0.322737 0.639990 0.949110
O O5 0.885590 0.199269 0.767192
O O6 0.752115 0.350269 0.589146
O O7 0.916996 0.884098 0.670301
O O8 0.014529 0.724196 0.238259
O O9 0.235057 0.505491 0.825894
O O10 0.000000 0.000000 0.000000
O O11 0.626506 0.790586 0.574564
O O12 0.204388 0.372154 0.341291
O O13 0.000000 0.500000 0.500000
O O14 0.500000 0.000000 0.000000
#
# Coordination Sequence:
#
# PCOD9055210 Si02
#       6
#     2   2   2   2   2   2
#     4  11  27  43  72 106 141 187 236 293 361 421
#     4  11  23  46  70 100 141 187 237 288 353 427
#     4  11  21  40  71  98 129 187 238 275 345 429
#     4  11  22  43  75  97 137 187 244 282 344 430
#     4  12  27  43  71 109 146 181 232 307 361 400
#     4  12  24  48  71 103 142 190 240 286 348 431
#
# _framework density 20.677692
#
# number of rings (size 3 to 8) (size 9 to 14) (size 15 to 20)
#    0.000    0.667    5.000    3.000    2.333    3.333 
#    0.000    2.500    0.000    0.000    0.000    0.000 
#    0.000    0.000    0.000    0.000    0.000    0.000 
#
# Total GULP energy -66857.062816 kJ/mol
# GULP energy per Si atom -5571.421901 kJ/mol
# Density = 2.063063 g / cm^3
# Si number density = 20.677692 Si / 1000 Ang^3
#
#
#
# Elastic Constant Matrix: (Units=GPa)
#
#
# Indices 1 2 3 4 5 6 
#
# 1 85.9583 52.9512 59.4090 4.6423 -6.7972 29.2701
# 2 52.9512 147.8384 60.2261 1.0354 -13.2627 26.8344
# 3 59.4090 60.2261 82.4968 -2.4561 -5.3340 23.8694
# 4 4.6423 1.0354 -2.4561 43.1243 10.1915 1.2238
# 5 -6.7972 -13.2627 -5.3340 10.1915 37.7173 -13.5103
# 6 29.2701 26.8344 23.8694 1.2238 -13.5103 47.3240
#
#
#
# Elastic Compliance Matrix: (Units=1/GPa)
#
#
# Indices 1 2 3 4 5 6 
#
# 1 0.026069 -0.001633 -0.015597 -0.003526 0.000309 -0.007152
# 2 -0.001633 0.010112 -0.005754 -0.000901 0.002280 -0.001148
# 3 -0.015597 -0.005754 0.028127 0.004130 -0.002749 -0.002169
# 4 -0.003526 -0.000901 0.004130 0.025834 -0.008209 -0.002404
# 5 0.000309 0.002280 -0.002749 -0.008209 0.032572 0.009414
# 6 -0.007152 -0.001148 -0.002169 -0.002404 0.009414 0.030049
#
#
# Mechanical properties :
#
#
# Convention : Reuss Voigt Hill
#
# Bulk Modulus (GPa) = 54.52256 73.49624 64.00940
# Shear Modulus (GPa) = 24.40882 35.21359 29.81121
#
# Velocity S-wave (km/s) = 3.43948 4.13119 3.80110
# Velocity P-wave (km/s) = 6.49603 7.64045 7.09137
#
# Compressibility (1/GPa) = 0.01834103
#
# Stress axis : x y z
#
# Youngs Moduli (GPa) = 38.35929 98.89155 35.55283
#
# Poissons Ratio (x) = 0.16146 0.55453
# Poissons Ratio (y) = 0.06263 0.20456
# Poissons Ratio (z) = 0.59830 0.56900
#
# Static dielectric constant tensor:
#      x y z
#    x 1.738660 -0.029450 0.015680 
#    y -0.029450 1.856570 0.058230 
#    z 0.015680 0.058230 1.505230 
# 
# From -- ./inp_files/22729.got.cif
#   From: 2010.05.17/outbox.cif.g08.bks.cpg/sg2_12_cif.got.tgz:22729.got - 2010.06.03 11:33:40.
