data_PCOD9055654
_publ_section_title
;
Structure prediction by ZEFSAII (Michael W. Deem and Ramdas Pophale) SiO2 
 PCOD9055654
Probable space group: P -1
;
_chemical_formula_sum "Si O2"
_cell_formula_units_Z 16
_cell_length_a 6.979259
_cell_length_b 17.530959
_cell_length_c 11.838976
_cell_angle_alpha 29.610912
_cell_angle_beta 86.483533
_cell_angle_gamma 103.905139
_cell_volume 573.954937
_symmetry_space_group_name_H-M "P -1"
_symmetry_group_IT_number 2
_symmetry_cell_setting 'triclinic'
loop_
_space_group_symop_operation_xyz
x,y,z
-x,-y,-z
loop_
_atom_site_type_symbol
_atom_site_label
_atom_site_fract_x
_atom_site_fract_y
_atom_site_fract_z
Si Si1 0.796227 0.343307 0.895048
Si Si2 0.697605 0.234928 0.443976
Si Si3 0.982787 0.144177 0.434142
Si Si4 0.488136 0.353113 0.474186
Si Si5 0.167751 0.255625 0.942947
Si Si6 0.560559 0.132416 0.945051
Si Si7 0.401182 0.155447 0.340471
Si Si8 0.962589 0.752213 0.297953
O O1 0.646144 0.248791 0.908223
O O2 0.941446 0.568536 0.580146
O O3 0.977253 0.286860 0.958794
O O4 0.629254 0.277737 0.094041
O O5 0.636153 0.360012 0.353198
O O6 0.496730 0.132985 0.483751
O O7 0.938769 0.289311 0.305922
O O8 0.655932 0.078285 0.737516
O O9 0.252973 0.239689 0.264720
O O10 0.794966 0.035746 0.477129
O O11 0.908384 0.955087 0.753063
O O12 0.589460 0.567031 0.236295
O O13 0.532775 0.255255 0.700159
O O14 0.199406 0.227598 0.635387
O O15 0.165020 0.281451 0.775584
O O16 0.761139 0.107145 0.927766
#
# Coordination Sequence:
#
# PCOD9055654 Si02
#       8
#     2   2   2   2   2   2   2   2
#     4  11  21  42  74  99 133 165 227 291 312 380
#     4  12  27  45  65  99 144 175 212 277 334 397
#     4  11  25  43  74  98 124 176 232 280 316 390
#     4  12  25  42  66 102 140 177 213 265 345 402
#     4  11  22  42  72 102 129 175 226 273 330 386
#     4  11  22  41  67 101 131 172 220 274 332 385
#     4  11  25  44  71  99 129 175 233 269 329 385
#     4  11  22  40  70 101 132 171 224 281 321 389
#
# _framework density 27.876752
#
# number of rings (size 3 to 8) (size 9 to 14) (size 15 to 20)
#    0.000    0.750    3.750    4.875    3.500    1.500 
#    0.000    3.125    0.000    0.000    0.000    0.000 
#    0.000    0.000    0.000    0.000    0.000    0.000 
#
# Total GULP energy -89704.522784 kJ/mol
# GULP energy per Si atom -5606.532674 kJ/mol
# Density = 2.781330 g / cm^3
# Si number density = 27.876752 Si / 1000 Ang^3
#
#
#
# Elastic Constant Matrix: (Units=GPa)
#
#
# Indices 1 2 3 4 5 6 
#
# 1 134.1101 67.4968 34.5802 19.6407 2.3841 -41.0277
# 2 67.4968 126.8891 44.8932 22.0392 1.3238 -28.9619
# 3 34.5802 44.8932 96.7295 20.4951 13.6680 -16.4518
# 4 19.6407 22.0392 20.4951 38.8304 -10.6020 -2.4115
# 5 2.3841 1.3238 13.6680 -10.6020 51.5980 14.6302
# 6 -41.0277 -28.9619 -16.4518 -2.4115 14.6302 62.0166
#
#
#
# Elastic Compliance Matrix: (Units=1/GPa)
#
#
# Indices 1 2 3 4 5 6 
#
# 1 0.012363 -0.004263 0.000121 -0.004383 -0.003333 0.006836
# 2 -0.004263 0.012276 -0.003049 -0.003227 -0.000573 0.002113
# 3 0.000121 -0.003049 0.014946 -0.007776 -0.006582 0.003871
# 4 -0.004383 -0.003227 -0.007776 0.036728 0.012133 -0.007904
# 5 -0.003333 -0.000573 -0.006582 0.012133 0.026629 -0.010029
# 6 0.006836 0.002113 0.003871 -0.007904 -0.010029 0.024720
#
#
# Mechanical properties :
#
#
# Convention : Reuss Voigt Hill
#
# Bulk Modulus (GPa) = 39.67759 72.40767 56.04263
# Shear Modulus (GPa) = 33.23444 44.53957 38.88700
#
# Velocity S-wave (km/s) = 3.45656 4.00150 3.73897
# Velocity P-wave (km/s) = 5.49495 6.88331 6.22794
#
# Compressibility (1/GPa) = 0.02520315
#
# Stress axis : x y z
#
# Youngs Moduli (GPa) = 80.88351 81.45807 66.90695
#
# Poissons Ratio (x) = 0.34725 -0.00810
# Poissons Ratio (y) = 0.34480 0.20403
# Poissons Ratio (z) = -0.00979 0.24841
#
# Static dielectric constant tensor:
#      x y z
#    x 2.164610 -0.008010 -0.041630 
#    y -0.008010 2.208330 -0.002780 
#    z -0.041630 -0.002780 2.144110 
# 
# From -- ./inp_files/507651.got.cif
#   From: 2010.05.17/outbox.cif.g08.bks.cpg/sg2_254_cif.got.tgz:507651.got - 2010.06.03 11:33:40.
