data_PCOD9055813
_publ_section_title
;
Structure prediction by ZEFSAII (Michael W. Deem and Ramdas Pophale) SiO2 
 PCOD9055813
Probable space group: P -1
;
_chemical_formula_sum "Si O2"
_cell_formula_units_Z 16
_cell_length_a 16.794357
_cell_length_b 9.237466
_cell_length_c 6.712626
_cell_angle_alpha 46.192773
_cell_angle_beta 89.406328
_cell_angle_gamma 102.257575
_cell_volume 715.893659
_symmetry_space_group_name_H-M "P -1"
_symmetry_group_IT_number 2
_symmetry_cell_setting 'triclinic'
loop_
_space_group_symop_operation_xyz
x,y,z
-x,-y,-z
loop_
_atom_site_type_symbol
_atom_site_label
_atom_site_fract_x
_atom_site_fract_y
_atom_site_fract_z
Si Si1 0.084062 0.561925 0.067216
Si Si2 0.363345 0.854833 0.648603
Si Si3 0.911243 0.673716 0.324475
Si Si4 0.667592 0.801553 0.936064
Si Si5 0.475370 0.612753 0.704565
Si Si6 0.047566 0.947519 0.745361
Si Si7 0.415953 0.040916 0.874984
Si Si8 0.213353 0.456926 0.887088
O O1 0.067466 0.483411 0.368468
O O2 0.110167 0.814775 0.814619
O O3 0.145833 0.454768 0.060920
O O4 0.000000 0.500000 0.000000
O O5 0.441540 0.800204 0.602972
O O6 0.286303 0.666818 0.745694
O O7 0.355908 0.077453 0.365312
O O8 0.375919 0.869243 0.871038
O O9 0.830672 0.545008 0.323237
O O10 0.906016 0.857283 0.301822
O O11 0.977300 0.796236 0.038168
O O12 0.600776 0.575032 0.200754
O O13 0.654592 0.949285 0.974649
O O14 0.751026 0.741999 0.940093
O O15 0.548878 0.727681 0.445833
O O16 0.500000 0.500000 0.000000
O O17 0.000000 0.000000 0.500000
O O18 0.500000 0.000000 0.000000
#
# Coordination Sequence:
#
# PCOD9055813 Si02
#       8
#     2   2   2   2   2   2   2   2
#     4  12  24  46  74 103 137 184 237 297 350 420
#     4  11  25  45  66 101 149 182 227 296 352 414
#     4  11  24  44  71 104 137 178 237 288 357 422
#     4  11  25  45  65 103 143 183 231 287 355 419
#     4  11  21  43  73 103 136 179 229 293 338 410
#     4  11  23  41  73 108 134 171 230 297 349 410
#     4  12  23  42  77 104 134 185 240 285 346 414
#     4  11  28  44  66  99 145 187 231 292 360 420
#
# _framework density 22.349691
#
# number of rings (size 3 to 8) (size 9 to 14) (size 15 to 20)
#    0.000    0.750    5.000    1.875    0.000    6.000 
#    0.000    0.000    0.000    0.000    0.000    0.000 
#    0.000    0.000    0.000    0.000    0.000    0.000 
#
# Total GULP energy -89285.041566 kJ/mol
# GULP energy per Si atom -5580.315098 kJ/mol
# Density = 2.229882 g / cm^3
# Si number density = 22.349691 Si / 1000 Ang^3
#
#
#
# Elastic Constant Matrix: (Units=GPa)
#
#
# Indices 1 2 3 4 5 6 
#
# 1 95.0577 51.7024 50.5260 15.6341 10.2817 -19.3262
# 2 51.7024 160.7993 37.3889 22.7859 11.9982 0.0656
# 3 50.5260 37.3889 126.7879 16.9155 27.6595 -7.4788
# 4 15.6341 22.7859 16.9155 38.8417 0.1530 -1.1510
# 5 10.2817 11.9982 27.6595 0.1530 28.4845 -0.0709
# 6 -19.3262 0.0656 -7.4788 -1.1510 -0.0709 53.3289
#
#
#
# Elastic Compliance Matrix: (Units=1/GPa)
#
#
# Indices 1 2 3 4 5 6 
#
# 1 0.016696 -0.003952 -0.005016 -0.002062 0.000533 0.005308
# 2 -0.003952 0.008096 -0.000063 -0.003169 -0.001909 -0.001522
# 3 -0.005016 -0.000063 0.012619 -0.003403 -0.010399 -0.000135
# 4 -0.002062 -0.003169 -0.003403 0.029879 0.005221 -0.000569
# 5 0.000533 -0.001909 -0.010399 0.005221 0.045785 -0.001089
# 6 0.005308 -0.001522 -0.000135 -0.000569 -0.001089 0.020644
#
#
# Mechanical properties :
#
#
# Convention : Reuss Voigt Hill
#
# Bulk Modulus (GPa) = 51.68079 73.54216 62.61148
# Shear Modulus (GPa) = 31.59888 40.33288 35.96588
#
# Velocity S-wave (km/s) = 3.76419 4.25270 4.01588
# Velocity P-wave (km/s) = 6.48583 7.55583 7.04119
#
# Compressibility (1/GPa) = 0.01934955
#
# Stress axis : x y z
#
# Youngs Moduli (GPa) = 59.89303 123.51150 79.24322
#
# Poissons Ratio (x) = 0.48809 0.39751
# Poissons Ratio (y) = 0.23668 0.00501
# Poissons Ratio (z) = 0.30045 0.00781
#
# Static dielectric constant tensor:
#      x y z
#    x 1.871080 -0.004030 -0.024340 
#    y -0.004030 1.896330 -0.023300 
#    z -0.024340 -0.023300 1.848150 
# 
# From -- ./inp_files/106109.got.cif
#   From: 2010.05.17/outbox.cif.g08.bks.cpg/sg2_54_cif.got.tgz:106109.got - 2010.06.03 11:33:40.
