data_PCOD9055809
_publ_section_title
;
Structure prediction by ZEFSAII (Michael W. Deem and Ramdas Pophale) SiO2 
 PCOD9055809
Probable space group: P -1
;
_chemical_formula_sum "Si O2"
_cell_formula_units_Z 12
_cell_length_a 8.289047
_cell_length_b 12.300840
_cell_length_c 8.963576
_cell_angle_alpha 70.283983
_cell_angle_beta 90.344081
_cell_angle_gamma 36.129657
_cell_volume 438.814011
_symmetry_space_group_name_H-M "P -1"
_symmetry_group_IT_number 2
_symmetry_cell_setting 'triclinic'
loop_
_space_group_symop_operation_xyz
x,y,z
-x,-y,-z
loop_
_atom_site_type_symbol
_atom_site_label
_atom_site_fract_x
_atom_site_fract_y
_atom_site_fract_z
Si Si1 0.389096 0.445882 0.660571
Si Si2 0.028371 0.468493 0.837292
Si Si3 0.162615 0.202891 0.750373
Si Si4 0.090603 0.987050 0.843804
Si Si5 0.193223 0.777997 0.687776
Si Si6 0.474149 0.903976 0.443325
O O1 0.721522 0.220370 0.682737
O O2 0.252531 0.429645 0.778764
O O3 0.134503 0.611684 0.450782
O O4 0.408401 0.555671 0.701320
O O5 0.692804 0.683708 0.643599
O O6 0.127692 0.277998 0.878337
O O7 0.000000 0.500000 0.000000
O O8 0.385070 0.155845 0.688095
O O9 0.246505 0.016748 0.834888
O O10 0.298979 0.773923 0.842708
O O11 0.000000 0.000000 0.000000
O O12 0.892839 0.886260 0.677449
O O13 0.000000 0.000000 0.500000
O O14 0.500000 0.000000 0.500000
#
# Coordination Sequence:
#
# PCOD9055809 Si02
#       6
#     2   2   2   2   2   2
#     4  11  24  48  71  99 136 185 230 275 342 412
#     4  11  25  42  68 102 136 175 225 289 342 395
#     4  11  23  46  71  96 134 186 227 279 335 412
#     4  12  28  45  67 105 141 177 224 289 348 400
#     4  12  24  44  74 103 135 181 232 277 335 416
#     4  11  21  43  72  98 131 178 237 267 330 415
#
# _framework density 27.346437999999999
#
# number of rings (size 3 to 8) (size 9 to 14) (size 15 to 20)
#    0.000    0.667    5.000    4.500    4.667    3.333 
#    0.000    2.500    0.000    0.000    0.000    0.000 
#    0.000    0.000    0.000    0.000    0.000    0.000 
#
# Total GULP energy -67167.149469 kJ/mol
# GULP energy per Si atom -5597.262456 kJ/mol
# Density = 2.728420 g / cm^3
# Si number density = 27.346438 Si / 1000 Ang^3
#
#
#
# Elastic Constant Matrix: (Units=GPa)
#
#
# Indices 1 2 3 4 5 6 
#
# 1 87.6191 33.1896 20.5367 22.4095 -3.5870 17.4953
# 2 33.1896 161.2682 23.5880 44.3353 6.5603 43.4053
# 3 20.5367 23.5880 116.9853 30.1847 -9.9011 11.8651
# 4 22.4095 44.3353 30.1847 52.5318 -3.8982 14.9850
# 5 -3.5870 6.5603 -9.9011 -3.8982 30.2789 8.9311
# 6 17.4953 43.4053 11.8651 14.9850 8.9311 64.8288
#
#
#
# Elastic Compliance Matrix: (Units=1/GPa)
#
#
# Indices 1 2 3 4 5 6 
#
# 1 0.013453 -0.001178 -0.000854 -0.003523 0.001739 -0.002111
# 2 -0.001178 0.009416 0.000282 -0.006500 -0.001653 -0.004308
# 3 -0.000854 0.000282 0.010358 -0.005326 0.002838 -0.001014
# 4 -0.003523 -0.006500 -0.005326 0.029631 0.003370 -0.001036
# 5 0.001739 -0.001653 0.002838 0.003370 0.036636 -0.005708
# 6 -0.002111 -0.004308 -0.001014 -0.001036 -0.005708 0.020090
#
#
# Mechanical properties :
#
#
# Convention : Reuss Voigt Hill
#
# Bulk Modulus (GPa) = 33.63782 57.83350 45.73566
# Shear Modulus (GPa) = 37.59614 48.76512 43.18063
#
# Velocity S-wave (km/s) = 3.71186 4.22742 3.97800
# Velocity P-wave (km/s) = 5.54057 6.70988 6.15306
#
# Compressibility (1/GPa) = 0.02972844
#
# Stress axis : x y z
#
# Youngs Moduli (GPa) = 74.33242 106.20630 96.54029
#
# Poissons Ratio (x) = 0.12509 0.08244
# Poissons Ratio (y) = 0.08755 -0.02727
# Poissons Ratio (z) = 0.06347 -0.03000
#
# Static dielectric constant tensor:
#      x y z
#    x 2.233790 -0.049820 0.147540 
#    y -0.049820 2.224730 -0.188160 
#    z 0.147540 -0.188160 2.575780 
# 
# From -- ./inp_files/158949.got.cif
#   From: 2010.05.17/outbox.cif.g08.bks.cpg/sg2_80_cif.got.tgz:158949.got - 2010.06.03 11:33:40.
