data_PCOD9055668
_publ_section_title
;
Structure prediction by ZEFSAII (Michael W. Deem and Ramdas Pophale) SiO2 
 PCOD9055668
Probable space group: P -1
;
_chemical_formula_sum "Si O2"
_cell_formula_units_Z 12
_cell_length_a 9.010605
_cell_length_b 9.981149
_cell_length_c 9.307499
_cell_angle_alpha 96.568294
_cell_angle_beta 76.345955
_cell_angle_gamma 137.596110
_cell_volume 546.236493
_symmetry_space_group_name_H-M "P -1"
_symmetry_group_IT_number 2
_symmetry_cell_setting 'triclinic'
loop_
_space_group_symop_operation_xyz
x,y,z
-x,-y,-z
loop_
_atom_site_type_symbol
_atom_site_label
_atom_site_fract_x
_atom_site_fract_y
_atom_site_fract_z
Si Si1 0.824306 0.405961 0.400759
Si Si2 0.869034 0.751963 0.400858
Si Si3 0.357133 0.153420 0.396654
Si Si4 0.065043 0.431793 0.091566
Si Si5 0.809086 0.749312 0.093023
Si Si6 0.460965 0.296025 0.073526
O O1 0.554543 0.214974 0.453304
O O2 0.919899 0.368025 0.254698
O O3 0.000000 0.500000 0.500000
O O4 0.831714 0.568310 0.369361
O O5 0.692558 0.723837 0.530840
O O6 0.870723 0.820705 0.250527
O O7 0.113877 0.926548 0.438804
O O8 0.423212 0.191526 0.216835
O O9 0.000000 0.500000 0.000000
O O10 0.032541 0.263098 0.011868
O O11 0.336801 0.625636 0.064692
O O12 0.567048 0.508920 0.128088
O O13 0.756118 0.823586 0.991421
#
# Coordination Sequence:
#
# PCOD9055668 Si02
#       6
#     2   2   2   2   2   2
#     4  12  25  38  66  86 121 162 192 243 314 338
#     4  11  24  41  60  88 121 158 204 241 288 360
#     4  11  24  41  60  88 121 158 204 241 288 360
#     4  10  17  36  58  92 109 150 204 236 284 368
#     4   9  19  35  63  85 117 151 194 243 289 348
#     4   9  19  35  63  85 117 151 194 243 289 348
#
# _framework density 21.968508
#
# number of rings (size 3 to 8) (size 9 to 14) (size 15 to 20)
#    1.000    0.667    5.000    0.500    4.667    1.333 
#    0.000    3.333    0.000    0.000    0.000    0.000 
#    0.000    0.000    0.000    0.000    0.000    0.000 
#
# Total GULP energy -66875.256650 kJ/mol
# GULP energy per Si atom -5572.938054 kJ/mol
# Density = 2.191851 g / cm^3
# Si number density = 21.968508 Si / 1000 Ang^3
#
#
#
# Elastic Constant Matrix: (Units=GPa)
#
#
# Indices 1 2 3 4 5 6 
#
# 1 120.5027 23.1826 37.1010 4.4503 1.5901 39.8611
# 2 23.1826 47.4013 13.6929 8.5584 -5.6653 21.7541
# 3 37.1010 13.6929 80.7044 5.5467 -9.3019 23.0712
# 4 4.4503 8.5584 5.5467 23.7224 8.3444 3.1472
# 5 1.5901 -5.6653 -9.3019 8.3444 45.1782 4.1036
# 6 39.8611 21.7541 23.0712 3.1472 4.1036 44.5768
#
#
#
# Elastic Compliance Matrix: (Units=1/GPa)
#
#
# Indices 1 2 3 4 5 6 
#
# 1 0.012407 -0.001170 -0.003006 0.000129 -0.000414 -0.008938
# 2 -0.001170 0.031145 0.001152 -0.012071 0.007740 -0.014609
# 3 -0.003006 0.001152 0.016321 -0.004585 0.005044 -0.006462
# 4 0.000129 -0.012071 -0.004585 0.051176 -0.012430 0.005679
# 5 -0.000414 0.007740 0.005044 -0.012430 0.027148 -0.007639
# 6 -0.008938 -0.014609 -0.006462 0.005679 -0.007639 0.041202
#
#
# Mechanical properties :
#
#
# Convention : Reuss Voigt Hill
#
# Bulk Modulus (GPa) = 18.57916 44.06238 31.32077
# Shear Modulus (GPa) = 24.58331 34.33761 29.46046
#
# Velocity S-wave (km/s) = 3.34881 3.95782 3.66598
# Velocity P-wave (km/s) = 4.84028 6.40206 5.67515
#
# Compressibility (1/GPa) = 0.05382374
#
# Stress axis : x y z
#
# Youngs Moduli (GPa) = 80.60181 32.10755 61.26943
#
# Poissons Ratio (x) = 0.03757 0.18421
# Poissons Ratio (y) = 0.09431 -0.07057
# Poissons Ratio (z) = 0.24233 -0.03698
#
# Static dielectric constant tensor:
#      x y z
#    x 1.805910 0.018610 0.062690 
#    y 0.018610 1.916750 -0.015020 
#    z 0.062690 -0.015020 1.629900 
# 
# From -- ./inp_files/181388.got.cif
#   From: 2010.05.17/outbox.cif.g08.bks.cpg/sg2_91_cif.got.tgz:181388.got - 2010.06.03 11:33:40.
