data_PCOD9055044
_publ_section_title
;
Structure prediction by ZEFSAII (Michael W. Deem and Ramdas Pophale) SiO2 
 PCOD9055044
Probable space group: P -1
;
_chemical_formula_sum "Si O2"
_cell_formula_units_Z 15
_cell_length_a 14.876730
_cell_length_b 11.507742
_cell_length_c 19.149083
_cell_angle_alpha 142.267777
_cell_angle_beta 158.301675
_cell_angle_gamma 47.658188
_cell_volume 714.005502
_symmetry_space_group_name_H-M "P -1"
_symmetry_group_IT_number 2
_symmetry_cell_setting 'triclinic'
loop_
_space_group_symop_operation_xyz
x,y,z
-x,-y,-z
loop_
_atom_site_type_symbol
_atom_site_label
_atom_site_fract_x
_atom_site_fract_y
_atom_site_fract_z
Si Si1 0.404987 0.854953 0.965864
Si Si2 0.665716 0.279162 0.850695
Si Si3 0.713867 0.280951 0.338722
Si Si4 0.088045 0.106590 0.297761
Si Si5 0.000000 0.000000 0.000000
Si Si6 0.685664 0.691612 0.577608
Si Si7 0.860571 0.317321 0.858714
Si Si8 0.713716 0.618506 0.158157
O O1 0.351355 0.730679 0.796064
O O2 0.139835 0.825061 0.800682
O O3 0.604514 0.783407 0.122108
O O4 0.531117 0.083154 0.145564
O O5 0.366136 0.212797 0.580436
O O6 0.818678 0.358206 0.928342
O O7 0.752979 0.096824 0.857947
O O8 0.727164 0.455968 0.033483
O O9 0.676278 0.476166 0.441647
O O10 0.010179 0.293887 0.567737
O O11 0.108958 0.149889 0.249071
O O12 0.038720 0.874779 0.164636
O O13 0.809656 0.777736 0.779611
O O14 0.422507 0.733581 0.397830
O O15 0.000000 0.500000 0.000000
O O16 0.500000 0.500000 0.000000
#
# Coordination Sequence:
#
# PCOD9055044 Si02
#       8
#     2   2   2   2   1   2   2   2
#     4  11  25  43  64  95 134 171 218 269 325 391
#     4  11  23  41  67  93 128 168 217 269 320 382
#     4  11  24  44  66  94 132 174 214 272 332 380
#     4  11  21  40  63  90 123 171 217 262 317 379
#     4  12  20  40  66  94 128 160 212 270 322 376
#     4  11  21  40  67  89 125 164 210 269 318 379
#     4  11  22  40  63  93 125 170 215 261 325 389
#     4  12  25  42  69  99 129 174 222 267 321 389
#
# _framework density 21.008241999999999
#
# number of rings (size 3 to 8) (size 9 to 14) (size 15 to 20)
#    0.000    0.800    4.000    5.200    0.000    2.667 
#    0.000    3.333    0.000    0.000    0.000    0.000 
#    0.000    0.000    0.000    0.000    0.000    0.000 
#
# Total GULP energy -83596.046641 kJ/mol
# GULP energy per Si atom -5573.069776 kJ/mol
# Density = 2.096043 g / cm^3
# Si number density = 21.008242 Si / 1000 Ang^3
#
#
#
# Elastic Constant Matrix: (Units=GPa)
#
#
# Indices 1 2 3 4 5 6 
#
# 1 28.1454 -1.8417 20.4224 6.0877 11.5941 3.4604
# 2 -1.8417 86.0662 13.0889 2.0311 0.3883 1.9572
# 3 20.4224 13.0889 74.0591 -3.8272 -3.2164 7.4693
# 4 6.0877 2.0311 -3.8272 51.2680 1.4946 -5.7748
# 5 11.5941 0.3883 -3.2164 1.4946 26.5373 3.9022
# 6 3.4604 1.9572 7.4693 -5.7748 3.9022 32.6651
#
#
#
# Elastic Compliance Matrix: (Units=1/GPa)
#
#
# Indices 1 2 3 4 5 6 
#
# 1 0.065304 0.004881 -0.020607 -0.008637 -0.030558 -0.000375
# 2 0.004881 0.012332 -0.003674 -0.001303 -0.002636 -0.000331
# 3 -0.020607 -0.003674 0.020847 0.003446 0.011856 -0.003171
# 4 -0.008637 -0.001303 0.003446 0.021179 0.002480 0.003653
# 5 -0.030558 -0.002636 0.011856 0.002480 0.053138 -0.005225
# 6 -0.000375 -0.000331 -0.003171 0.003653 -0.005225 0.032668
#
#
# Mechanical properties :
#
#
# Convention : Reuss Voigt Hill
#
# Bulk Modulus (GPa) = 16.75457 27.95666 22.35561
# Shear Modulus (GPa) = 18.92778 32.53416 25.73097
#
# Velocity S-wave (km/s) = 3.00487 3.93954 3.50352
# Velocity P-wave (km/s) = 4.47566 5.83350 5.19910
#
# Compressibility (1/GPa) = 0.05968522
#
# Stress axis : x y z
#
# Youngs Moduli (GPa) = 15.31303 81.08757 47.96792
#
# Poissons Ratio (x) = -0.39583 0.98845
# Poissons Ratio (y) = -0.07475 0.17624
# Poissons Ratio (z) = 0.31555 0.29792
#
# Static dielectric constant tensor:
#      x y z
#    x 1.520000 0.019740 0.238520 
#    y 0.019740 1.774190 -0.054100 
#    z 0.238520 -0.054100 1.199260 
# 
# From -- ./inp_files/345566.got.cif
#   From: 2010.05.17/outbox.cif.g08.bks.cpg/sg2_173_cif.got.tgz:345566.got - 2010.06.03 11:33:40.
