data_PCOD9055977
_publ_section_title
;
Structure prediction by ZEFSAII (Michael W. Deem and Ramdas Pophale) SiO2 
 PCOD9055977
Probable space group: P -1
;
_chemical_formula_sum "Si O2"
_cell_formula_units_Z 15
_cell_length_a 8.887478
_cell_length_b 13.776423
_cell_length_c 14.827575
_cell_angle_alpha 151.483416
_cell_angle_beta 88.639438
_cell_angle_gamma 73.043313
_cell_volume 654.900715
_symmetry_space_group_name_H-M "P -1"
_symmetry_group_IT_number 2
_symmetry_cell_setting 'triclinic'
loop_
_space_group_symop_operation_xyz
x,y,z
-x,-y,-z
loop_
_atom_site_type_symbol
_atom_site_label
_atom_site_fract_x
_atom_site_fract_y
_atom_site_fract_z
Si Si1 0.000000 0.500000 0.500000
Si Si2 0.057916 0.140536 0.052427
Si Si3 0.974683 0.842380 0.522509
Si Si4 0.238192 0.316678 0.969459
Si Si5 0.687871 0.455324 0.000653
Si Si6 0.664390 0.436870 0.195057
Si Si7 0.668175 0.962260 0.761323
Si Si8 0.251633 0.872472 0.654124
O O1 0.094217 0.296335 0.244201
O O2 0.215627 0.289034 0.378958
O O3 0.865333 0.343444 0.158198
O O4 0.230239 0.924545 0.803738
O O5 0.000000 0.000000 0.000000
O O6 0.122887 0.792528 0.558568
O O7 0.799764 0.869202 0.593086
O O8 0.094664 0.601493 0.254138
O O9 0.870998 0.136344 0.725616
O O10 0.442556 0.125063 0.868241
O O11 0.160986 0.155667 0.840553
O O12 0.281158 0.368888 0.913337
O O13 0.500000 0.500000 0.000000
O O14 0.648008 0.522795 0.162116
O O15 0.472455 0.656719 0.436316
O O16 0.680411 0.178083 0.979354
#
# Coordination Sequence:
#
# PCOD9055977 Si02
#       8
#     1   2   2   2   2   2   2   2
#     4  12  24  44  74  98 130 182 236 290 354 418
#     4  12  25  48  71  99 138 187 230 296 366 414
#     4  11  22  45  69  99 148 187 237 285 347 425
#     4  12  25  42  72 109 143 189 241 290 343 418
#     4  11  21  44  74 103 146 199 229 279 362 414
#     4  11  23  46  69 102 147 184 235 288 348 424
#     4  11  22  46  69  99 145 187 229 297 355 410
#     4  12  25  43  72 105 141 182 240 295 346 422
#
# _framework density 22.904233999999999
#
# number of rings (size 3 to 8) (size 9 to 14) (size 15 to 20)
#    0.000    0.533    8.000    2.000    0.000    1.600 
#    0.000    4.667    0.000    0.000    0.000    0.000 
#    0.000    0.000    0.000    0.000    0.000    0.000 
#
# Total GULP energy -83690.838234 kJ/mol
# GULP energy per Si atom -5579.389216 kJ/mol
# Density = 2.285210 g / cm^3
# Si number density = 22.904234 Si / 1000 Ang^3
#
#
#
# Elastic Constant Matrix: (Units=GPa)
#
#
# Indices 1 2 3 4 5 6 
#
# 1 49.3361 13.5790 26.4135 -9.4007 -6.5547 0.4507
# 2 13.5790 110.1633 44.5210 -12.9039 -14.7338 -6.5307
# 3 26.4135 44.5210 141.9279 -26.5738 -28.4096 3.1155
# 4 -9.4007 -12.9039 -26.5738 44.7642 -1.7424 -2.2315
# 5 -6.5547 -14.7338 -28.4096 -1.7424 37.6053 0.9987
# 6 0.4507 -6.5307 3.1155 -2.2315 0.9987 40.1486
#
#
#
# Elastic Compliance Matrix: (Units=1/GPa)
#
#
# Indices 1 2 3 4 5 6 
#
# 1 0.022944 -0.001061 -0.003171 0.002678 0.001313 -0.000068
# 2 -0.001061 0.010817 -0.002505 0.001593 0.002182 0.002000
# 3 -0.003171 -0.002505 0.010809 0.005243 0.006904 -0.001091
# 4 0.002678 0.001593 0.005243 0.026775 0.006262 0.001155
# 5 0.001313 0.002182 0.006904 0.006262 0.033199 -0.000673
# 6 -0.000068 0.002000 -0.001091 0.001155 -0.000673 0.025399
#
#
# Mechanical properties :
#
#
# Convention : Reuss Voigt Hill
#
# Bulk Modulus (GPa) = 32.15787 52.27268 42.21528
# Shear Modulus (GPa) = 32.51295 38.96453 35.73874
#
# Velocity S-wave (km/s) = 3.77174 4.12903 3.95442
# Velocity P-wave (km/s) = 5.74792 6.75305 6.27066
#
# Compressibility (1/GPa) = 0.03109659
#
# Stress axis : x y z
#
# Youngs Moduli (GPa) = 43.58348 92.44300 92.51260
#
# Poissons Ratio (x) = 0.09810 0.29340
# Poissons Ratio (y) = 0.04625 0.23171
# Poissons Ratio (z) = 0.13822 0.23154
#
# Static dielectric constant tensor:
#      x y z
#    x 1.881770 0.031140 0.017900 
#    y 0.031140 1.856550 0.030190 
#    z 0.017900 0.030190 1.859590 
# 
# From -- ./inp_files/505830.got.cif
#   From: 2010.05.17/outbox.cif.g08.bks.cpg/sg2_253_cif.got.tgz:505830.got - 2010.06.03 11:33:40.
