data_PCOD9055122
_publ_section_title
;
Structure prediction by ZEFSAII (Michael W. Deem and Ramdas Pophale) SiO2 
 PCOD9055122
Probable space group: P -1
;
_chemical_formula_sum "Si O2"
_cell_formula_units_Z 16
_cell_length_a 13.981313
_cell_length_b 10.943164
_cell_length_c 12.099559
_cell_angle_alpha 44.530422
_cell_angle_beta 118.893859
_cell_angle_gamma 83.210140
_cell_volume 747.188866
_symmetry_space_group_name_H-M "P -1"
_symmetry_group_IT_number 2
_symmetry_cell_setting 'triclinic'
loop_
_space_group_symop_operation_xyz
x,y,z
-x,-y,-z
loop_
_atom_site_type_symbol
_atom_site_label
_atom_site_fract_x
_atom_site_fract_y
_atom_site_fract_z
Si Si1 0.877692 0.746169 0.193376
Si Si2 0.111890 0.034223 0.530702
Si Si3 0.980080 0.567023 0.111521
Si Si4 0.524201 0.137815 0.843494
Si Si5 0.263080 0.461615 0.294213
Si Si6 0.992306 0.042961 0.838708
Si Si7 0.602316 0.388090 0.870202
Si Si8 0.262098 0.851557 0.493958
O O1 0.000000 0.500000 0.500000
O O2 0.948073 0.647731 0.171723
O O3 0.904198 0.908427 0.147106
O O4 0.689140 0.916419 0.001888
O O5 0.989274 0.347573 0.251386
O O6 0.219358 0.888144 0.574133
O O7 0.000000 0.000000 0.500000
O O8 0.237250 0.881325 0.802997
O O9 0.164641 0.395720 0.275503
O O10 0.830939 0.857978 0.785390
O O11 0.368537 0.331671 0.549049
O O12 0.544603 0.299987 0.812752
O O13 0.500000 0.000000 0.000000
O O14 0.363022 0.464790 0.263116
O O15 0.097382 0.771566 0.013256
O O16 0.814563 0.222280 0.570072
O O17 0.000000 0.000000 0.000000
O O18 0.454820 0.610175 0.729288
#
# Coordination Sequence:
#
# PCOD9055122 Si02
#       8
#     2   2   2   2   2   2   2   2
#     4  12  24  38  64  99 140 170 221 266 344 395
#     4  12  27  48  70  96 131 183 233 280 331 396
#     4  11  25  46  69 100 135 178 227 278 333 404
#     4  12  26  39  64 104 144 177 214 278 340 405
#     4  11  22  41  68  98 137 173 215 272 343 398
#     4  11  21  40  67  99 130 174 216 275 332 405
#     4  12  25  43  69 101 136 177 228 278 339 396
#     4  11  25  44  71  96 135 178 229 276 336 395
#
# _framework density 21.413595000000001
#
# number of rings (size 3 to 8) (size 9 to 14) (size 15 to 20)
#    0.000    0.500    3.750    6.375    3.500    0.000 
#    0.000    5.000    0.000    0.000    0.000    0.000 
#    0.000    0.000    0.000    0.000    0.000    0.000 
#
# Total GULP energy -89217.852327 kJ/mol
# GULP energy per Si atom -5576.115770 kJ/mol
# Density = 2.136486 g / cm^3
# Si number density = 21.413595 Si / 1000 Ang^3
#
#
#
# Elastic Constant Matrix: (Units=GPa)
#
#
# Indices 1 2 3 4 5 6 
#
# 1 117.7878 19.0623 22.6209 -16.0521 -11.8769 -1.3468
# 2 19.0623 58.9021 -10.0144 -8.5941 -4.0271 -8.5285
# 3 22.6209 -10.0144 52.2516 0.2144 2.8737 -9.0746
# 4 -16.0521 -8.5941 0.2144 25.6085 -8.4825 -5.6281
# 5 -11.8769 -4.0271 2.8737 -8.4825 33.6947 1.1823
# 6 -1.3468 -8.5285 -9.0746 -5.6281 1.1823 39.2436
#
#
#
# Elastic Compliance Matrix: (Units=1/GPa)
#
#
# Indices 1 2 3 4 5 6 
#
# 1 0.012087 -0.003435 -0.006425 0.008474 0.006559 -0.000800
# 2 -0.003435 0.021483 0.006672 0.007347 0.002389 0.007075
# 3 -0.006425 0.006672 0.024619 -0.001927 -0.004290 0.006775
# 4 0.008474 0.007347 -0.001927 0.054545 0.017454 0.008739
# 5 0.006559 0.002389 -0.004290 0.017454 0.036996 0.001141
# 6 -0.000800 0.007075 0.006775 0.008739 0.001141 0.029778
#
#
# Mechanical properties :
#
#
# Convention : Reuss Voigt Hill
#
# Bulk Modulus (GPa) = 19.30070 32.47543 25.88807
# Shear Modulus (GPa) = 24.61165 32.86087 28.73626
#
# Velocity S-wave (km/s) = 3.39388 3.92162 3.66726
# Velocity P-wave (km/s) = 4.93870 5.97530 5.48156
#
# Compressibility (1/GPa) = 0.05181159
#
# Stress axis : x y z
#
# Youngs Moduli (GPa) = 82.73429 46.54839 40.61884
#
# Poissons Ratio (x) = 0.15989 0.26099
# Poissons Ratio (y) = 0.28419 -0.27100
# Poissons Ratio (z) = 0.53161 -0.31056
#
# Static dielectric constant tensor:
#      x y z
#    x 1.702010 -0.023480 0.010030 
#    y -0.023480 1.758260 0.021000 
#    z 0.010030 0.021000 1.731400 
# 
# From -- ./inp_files/427449.got.cif
#   From: 2010.05.17/outbox.cif.g08.bks.cpg/sg2_214_cif.got.tgz:427449.got - 2010.06.03 11:33:40.
