data_PCOD9055638
_publ_section_title
;
Structure prediction by ZEFSAII (Michael W. Deem and Ramdas Pophale) SiO2 
 PCOD9055638
Probable space group: P -1
;
_chemical_formula_sum "Si O2"
_cell_formula_units_Z 16
_cell_length_a 11.485118
_cell_length_b 14.547947
_cell_length_c 14.764931
_cell_angle_alpha 138.117869
_cell_angle_beta 150.441479
_cell_angle_gamma 58.757990
_cell_volume 747.581662
_symmetry_space_group_name_H-M "P -1"
_symmetry_group_IT_number 2
_symmetry_cell_setting 'triclinic'
loop_
_space_group_symop_operation_xyz
x,y,z
-x,-y,-z
loop_
_atom_site_type_symbol
_atom_site_label
_atom_site_fract_x
_atom_site_fract_y
_atom_site_fract_z
Si Si1 0.293760 0.538690 0.203632
Si Si2 0.850456 0.376825 0.014336
Si Si3 0.563780 0.093638 0.829657
Si Si4 0.641748 0.765861 0.334202
Si Si5 0.068363 0.655624 0.607147
Si Si6 0.375695 0.628987 0.622067
Si Si7 0.438012 0.175186 0.284161
Si Si8 0.163131 0.937995 0.195533
O O1 0.402809 0.421310 0.228714
O O2 0.464463 0.690943 0.480333
O O3 0.289428 0.563508 0.112113
O O4 0.000000 0.500000 0.000000
O O5 0.139034 0.489627 0.313528
O O6 0.656436 0.346789 0.944802
O O7 0.844834 0.212056 0.867943
O O8 0.350485 0.154956 0.698331
O O9 0.701304 0.061013 0.808512
O O10 0.443480 0.943546 0.696066
O O11 0.781120 0.215580 0.125333
O O12 0.826886 0.684697 0.425460
O O13 0.700131 0.903939 0.545913
O O14 0.250727 0.668731 0.654544
O O15 0.000000 0.500000 0.500000
O O16 0.486512 0.755069 0.713042
O O17 0.134530 0.091376 0.032021
#
# Coordination Sequence:
#
# PCOD9055638 Si02
#       8
#     2   2   2   2   2   2   2   2
#     4  12  23  41  70 103 134 175 221 272 351 397
#     4  11  22  40  68 102 136 170 224 289 334 396
#     4  11  25  43  69 102 132 180 229 280 334 397
#     4  11  24  43  70 102 130 177 229 279 341 398
#     4  12  27  46  68  97 137 185 227 275 336 404
#     4  12  27  44  64 103 142 180 222 278 335 403
#     4  12  23  43  71  98 140 172 224 283 347 396
#     4  11  21  42  73 101 137 169 226 292 338 391
#
# _framework density 21.402342000000001
#
# number of rings (size 3 to 8) (size 9 to 14) (size 15 to 20)
#    0.000    0.500    3.750    6.750    1.750    3.500 
#    0.000    0.625    0.000    0.000    0.000    0.000 
#    0.000    0.000    0.000    0.000    0.000    0.000 
#
# Total GULP energy -89414.350475 kJ/mol
# GULP energy per Si atom -5588.396905 kJ/mol
# Density = 2.135363 g / cm^3
# Si number density = 21.402342 Si / 1000 Ang^3
#
#
#
# Elastic Constant Matrix: (Units=GPa)
#
#
# Indices 1 2 3 4 5 6 
#
# 1 66.7039 51.1529 25.3653 -5.5352 5.7081 8.6894
# 2 51.1529 207.4327 24.6145 -19.0247 6.4405 24.3204
# 3 25.3653 24.6145 52.5835 -8.8769 10.5999 -0.3109
# 4 -5.5352 -19.0247 -8.8769 38.0580 -1.1300 1.5038
# 5 5.7081 6.4405 10.5999 -1.1300 16.9665 -4.8669
# 6 8.6894 24.3204 -0.3109 1.5038 -4.8669 33.0060
#
#
#
# Elastic Compliance Matrix: (Units=1/GPa)
#
#
# Indices 1 2 3 4 5 6 
#
# 1 0.021754 -0.004032 -0.008466 -0.000749 -0.001412 -0.003010
# 2 -0.004032 0.006674 -0.000329 0.002783 -0.002015 -0.004283
# 3 -0.008466 -0.000329 0.026670 0.004410 -0.013232 0.000570
# 4 -0.000749 0.002783 0.004410 0.028646 -0.002658 -0.003509
# 5 -0.001412 -0.002015 -0.013232 -0.002658 0.071840 0.012446
# 6 -0.003010 -0.004283 0.000570 -0.003509 0.012446 0.036247
#
#
# Mechanical properties :
#
#
# Convention : Reuss Voigt Hill
#
# Bulk Modulus (GPa) = 33.96126 58.77619 46.36873
# Shear Modulus (GPa) = 21.99757 32.64524 27.32141
#
# Velocity S-wave (km/s) = 3.20943 3.90976 3.57678
# Velocity P-wave (km/s) = 5.44393 6.92125 6.22656
#
# Compressibility (1/GPa) = 0.02944531
#
# Stress axis : x y z
#
# Youngs Moduli (GPa) = 45.96954 149.83389 37.49515
#
# Poissons Ratio (x) = 0.60410 0.31742
# Poissons Ratio (y) = 0.18534 0.01232
# Poissons Ratio (z) = 0.38917 0.04924
#
# Static dielectric constant tensor:
#      x y z
#    x 1.795130 0.010830 0.049130 
#    y 0.010830 1.851340 0.020880 
#    z 0.049130 0.020880 1.719590 
# 
# From -- ./inp_files/522548.got.cif
#   From: 2010.05.17/outbox.cif.g08.bks.cpg/sg2_262_cif.got.tgz:522548.got - 2010.06.03 11:33:40.
