data_PCOD9055485
_publ_section_title
;
Structure prediction by ZEFSAII (Michael W. Deem and Ramdas Pophale) SiO2 
 PCOD9055485
Probable space group: P -1
;
_chemical_formula_sum "Si O2"
_cell_formula_units_Z 12
_cell_length_a 6.982534
_cell_length_b 11.873198
_cell_length_c 8.709700
_cell_angle_alpha 78.434308
_cell_angle_beta 77.961000
_cell_angle_gamma 37.576521
_cell_volume 429.902830
_symmetry_space_group_name_H-M "P -1"
_symmetry_group_IT_number 2
_symmetry_cell_setting 'triclinic'
loop_
_space_group_symop_operation_xyz
x,y,z
-x,-y,-z
loop_
_atom_site_type_symbol
_atom_site_label
_atom_site_fract_x
_atom_site_fract_y
_atom_site_fract_z
Si Si1 0.727159 0.085786 0.634901
Si Si2 0.679369 0.101650 0.100202
Si Si3 0.729285 0.291864 0.206240
Si Si4 0.267911 0.470405 0.514708
Si Si5 0.174861 0.183791 0.657621
Si Si6 0.946698 0.653661 0.027811
O O1 0.485814 0.303756 0.649497
O O2 0.501680 0.095984 0.592782
O O3 0.000000 0.000000 0.500000
O O4 0.928062 0.923183 0.767605
O O5 0.542508 0.282951 0.141615
O O6 0.413639 0.164158 0.024639
O O7 0.779686 0.966673 0.253575
O O8 0.000000 0.000000 0.000000
O O9 0.524533 0.387344 0.367281
O O10 0.808221 0.375596 0.092645
O O11 0.000000 0.500000 0.500000
O O12 0.049892 0.684214 0.485393
O O13 0.056942 0.302633 0.804824
O O14 0.000000 0.500000 0.000000
#
# Coordination Sequence:
#
# PCOD9055485 Si02
#       6
#     2   2   2   2   2   2
#     4   9  19  41  68  88 127 171 213 265 307 371
#     4  12  24  39  66 100 130 169 205 261 329 381
#     4  11  22  43  68  94 131 166 212 264 319 382
#     4   9  21  40  68  90 126 174 211 263 310 372
#     4  11  21  42  66  96 133 160 215 264 317 385
#     4  12  26  41  66  99 129 167 210 264 325 382
#
# _framework density 27.913285999999999
#
# number of rings (size 3 to 8) (size 9 to 14) (size 15 to 20)
#    0.000    1.333    3.333    2.500    2.333    1.333 
#    0.000    8.333   14.667    0.000    0.000    0.000 
#    0.000    0.000    0.000    0.000    0.000    0.000 
#
# Total GULP energy -67079.675058 kJ/mol
# GULP energy per Si atom -5589.972921 kJ/mol
# Density = 2.784975 g / cm^3
# Si number density = 27.913286 Si / 1000 Ang^3
#
#
#
# Elastic Constant Matrix: (Units=GPa)
#
#
# Indices 1 2 3 4 5 6 
#
# 1 179.5368 51.6893 56.7971 -4.2514 -24.2569 2.5617
# 2 51.6893 140.5224 44.0067 -32.9812 -8.6958 -8.6366
# 3 56.7971 44.0067 91.4824 -7.0540 -41.5169 5.9035
# 4 -4.2514 -32.9812 -7.0540 67.6382 -6.7724 -5.8422
# 5 -24.2569 -8.6958 -41.5169 -6.7724 67.8727 -11.9813
# 6 2.5617 -8.6366 5.9035 -5.8422 -11.9813 58.2094
#
#
#
# Elastic Compliance Matrix: (Units=1/GPa)
#
#
# Indices 1 2 3 4 5 6 
#
# 1 0.007216 -0.001691 -0.003731 -0.000789 -0.000048 -0.000279
# 2 -0.001691 0.010149 -0.004053 0.004521 -0.000935 0.002253
# 3 -0.003731 -0.004053 0.020021 0.000903 0.010444 -0.000227
# 4 -0.000789 0.004521 0.000903 0.017610 0.003141 0.003028
# 5 -0.000048 -0.000935 0.010444 0.003141 0.021940 0.003635
# 6 -0.000279 0.002253 -0.000227 0.003028 0.003635 0.018601
#
#
# Mechanical properties :
#
#
# Convention : Reuss Voigt Hill
#
# Bulk Modulus (GPa) = 54.24280 79.61422 66.92851
# Shear Modulus (GPa) = 41.44759 56.01396 48.73077
#
# Velocity S-wave (km/s) = 3.85758 4.48450 4.18280
# Velocity P-wave (km/s) = 6.27025 7.44299 6.88165
#
# Compressibility (1/GPa) = 0.01843563
#
# Stress axis : x y z
#
# Youngs Moduli (GPa) = 138.58186 98.52780 49.94643
#
# Poissons Ratio (x) = 0.16663 0.18636
# Poissons Ratio (y) = 0.23436 0.20244
# Poissons Ratio (z) = 0.51708 0.39936
#
# Static dielectric constant tensor:
#      x y z
#    x 2.217180 0.114720 0.095100 
#    y 0.114720 2.206150 0.007080 
#    z 0.095100 0.007080 2.159600 
# 
# From -- ./inp_files/26076.got.cif
#   From: 2010.05.17/outbox.cif.g08.bks.cpg/sg2_14_cif.got.tgz:26076.got - 2010.06.03 11:33:40.
