data_PCOD9055944
_publ_section_title
;
Structure prediction by ZEFSAII (Michael W. Deem and Ramdas Pophale) SiO2 
 PCOD9055944
Probable space group: P -1
;
_chemical_formula_sum "Si O2"
_cell_formula_units_Z 14
_cell_length_a 9.125647
_cell_length_b 9.232493
_cell_length_c 23.505237
_cell_angle_alpha 37.977747
_cell_angle_beta 151.923329
_cell_angle_gamma 131.643827
_cell_volume 570.260531
_symmetry_space_group_name_H-M "P -1"
_symmetry_group_IT_number 2
_symmetry_cell_setting 'triclinic'
loop_
_space_group_symop_operation_xyz
x,y,z
-x,-y,-z
loop_
_atom_site_type_symbol
_atom_site_label
_atom_site_fract_x
_atom_site_fract_y
_atom_site_fract_z
Si Si1 0.232904 0.978714 0.462584
Si Si2 0.332734 0.048122 0.277629
Si Si3 0.697299 0.839689 0.252493
Si Si4 0.107512 0.547625 0.754769
Si Si5 0.656868 0.215279 0.748194
Si Si6 0.114141 0.558037 0.404939
Si Si7 0.333779 0.801816 0.967204
O O1 0.395337 0.896475 0.603249
O O2 0.012909 0.224646 0.320935
O O3 0.500000 0.000000 0.500000
O O4 0.991502 0.815781 0.403605
O O5 0.405571 0.989786 0.254689
O O6 0.230433 0.800885 0.345634
O O7 0.011093 0.217090 0.120922
O O8 0.391367 0.841542 0.185224
O O9 0.790947 0.632197 0.303894
O O10 0.699746 0.078463 0.143456
O O11 0.976835 0.318995 0.809958
O O12 0.938756 0.591632 0.622505
O O13 0.459972 0.448668 0.890724
O O14 0.392550 0.430581 0.576280
O O15 0.500000 0.000000 0.000000
#
# Coordination Sequence:
#
# PCOD9055944 Si02
#       7
#     2   2   2   2   2   2   2
#     4  12  21  40  61  91 116 155 203 247 284 354
#     4  10  19  36  62  83 118 153 200 236 293 344
#     4  11  24  34  59  92 126 144 196 253 301 334
#     4  11  21  37  67  82 117 160 203 232 292 356
#     4  11  19  35  60  94 114 151 199 254 290 337
#     4  10  17  36  59  87 108 157 204 236 280 353
#     4  11  20  39  61  89 113 164 200 238 279 365
#
# _framework density 24.550183000000001
#
# number of rings (size 3 to 8) (size 9 to 14) (size 15 to 20)
#    0.000    1.143   10.000    1.286    0.000    1.714 
#    0.000    0.000    0.000    0.857    0.000    0.000 
#    0.000    0.000    0.000    0.000    0.000    0.000 
#
# Total GULP energy -78305.792955 kJ/mol
# GULP energy per Si atom -5593.270925 kJ/mol
# Density = 2.449431 g / cm^3
# Si number density = 24.550183 Si / 1000 Ang^3
#
#
#
# Elastic Constant Matrix: (Units=GPa)
#
#
# Indices 1 2 3 4 5 6 
#
# 1 114.2744 34.6846 1.8205 -2.9128 19.0765 -24.0196
# 2 34.6846 61.7461 18.0015 -8.8217 5.2865 -21.7611
# 3 1.8205 18.0015 93.5083 -14.4124 30.7329 -11.3223
# 4 -2.9128 -8.8217 -14.4124 31.7946 -11.5800 4.9707
# 5 19.0765 5.2865 30.7329 -11.5800 31.6949 -6.8653
# 6 -24.0196 -21.7611 -11.3223 4.9707 -6.8653 34.7041
#
#
#
# Elastic Compliance Matrix: (Units=1/GPa)
#
#
# Indices 1 2 3 4 5 6 
#
# 1 0.013813 -0.006991 0.005209 -0.003619 -0.012453 0.004931
# 2 -0.006991 0.025466 -0.005929 0.005785 0.010066 0.010358
# 3 0.005209 -0.005929 0.018393 -0.000307 -0.019650 0.002045
# 4 -0.003619 0.005785 -0.000307 0.038354 0.015207 -0.001463
# 5 -0.012453 0.010066 -0.019650 0.015207 0.062285 0.001426
# 6 0.004931 0.010358 0.002045 -0.001463 0.001426 0.039882
#
#
# Mechanical properties :
#
#
# Convention : Reuss Voigt Hill
#
# Bulk Modulus (GPa) = 23.66883 42.06023 32.86453
# Shear Modulus (GPa) = 21.95899 33.97354 27.96626
#
# Velocity S-wave (km/s) = 2.99399 3.72404 3.37879
# Velocity P-wave (km/s) = 4.64907 5.97167 5.35139
#
# Compressibility (1/GPa) = 0.04224967
#
# Stress axis : x y z
#
# Youngs Moduli (GPa) = 72.39702 39.26807 54.36915
#
# Poissons Ratio (x) = 0.27451 -0.28320
# Poissons Ratio (y) = 0.50611 0.32236
# Poissons Ratio (z) = -0.37711 0.23282
#
# Static dielectric constant tensor:
#      x y z
#    x 2.043970 0.010780 0.018140 
#    y 0.010780 1.972480 -0.000830 
#    z 0.018140 -0.000830 1.979020 
# 
# From -- ./inp_files/189135.got.cif
#   From: 2010.05.17/outbox.cif.g08.bks.cpg/sg2_95_cif.got.tgz:189135.got - 2010.06.03 11:33:40.
