data_PCOD9055196
_publ_section_title
;
Structure prediction by ZEFSAII (Michael W. Deem and Ramdas Pophale) SiO2 
 PCOD9055196
Probable space group: P -1
;
_chemical_formula_sum "Si O2"
_cell_formula_units_Z 12
_cell_length_a 13.904462
_cell_length_b 9.287880
_cell_length_c 8.225444
_cell_angle_alpha 47.536918
_cell_angle_beta 46.405930
_cell_angle_gamma 70.548647
_cell_volume 549.813101
_symmetry_space_group_name_H-M "P -1"
_symmetry_group_IT_number 2
_symmetry_cell_setting 'triclinic'
loop_
_space_group_symop_operation_xyz
x,y,z
-x,-y,-z
loop_
_atom_site_type_symbol
_atom_site_label
_atom_site_fract_x
_atom_site_fract_y
_atom_site_fract_z
Si Si1 0.460763 0.157464 0.304075
Si Si2 0.052004 0.947839 0.235895
Si Si3 0.875845 0.614915 0.063155
Si Si4 0.181666 0.927528 0.783715
Si Si5 0.694949 0.510686 0.674981
Si Si6 0.140081 0.465228 0.195304
O O1 0.398911 0.329144 0.330735
O O2 0.500000 0.000000 0.500000
O O3 0.331192 0.017395 0.467807
O O4 0.594006 0.287463 0.958831
O O5 0.000032 0.712206 0.519177
O O6 0.922406 0.973912 0.263075
O O7 0.177607 0.978101 0.940983
O O8 0.078322 0.140336 0.175192
O O9 0.792253 0.551309 0.374562
O O10 0.788637 0.560251 0.040182
O O11 0.000000 0.500000 0.000000
O O12 0.121829 0.689540 0.031855
O O13 0.778320 0.538077 0.729095
#
# Coordination Sequence:
#
# PCOD9055196 Si02
#       6
#     2   2   2   2   2   2
#     4  11  22  43  75  95 133 185 229 276 338 406
#     4  11  22  42  64 101 143 170 229 285 332 405
#     4  12  26  43  68 107 141 175 228 281 341 408
#     4  11  21  40  71 101 129 182 233 274 340 404
#     4  11  25  45  68 101 135 180 228 279 340 401
#     4  12  24  41  72  95 137 182 223 281 340 400
#
# _framework density 21.825597999999999
#
# number of rings (size 3 to 8) (size 9 to 14) (size 15 to 20)
#    0.000    0.667    6.667    2.000    2.333    0.000 
#    3.000    4.167    0.000    0.000    0.000    0.000 
#    0.000    0.000    0.000    0.000    0.000    0.000 
#
# Total GULP energy -66925.999504 kJ/mol
# GULP energy per Si atom -5577.166625 kJ/mol
# Density = 2.177592 g / cm^3
# Si number density = 21.825598 Si / 1000 Ang^3
#
#
#
# Elastic Constant Matrix: (Units=GPa)
#
#
# Indices 1 2 3 4 5 6 
#
# 1 67.9532 15.2309 42.2314 13.5392 14.7724 6.5499
# 2 15.2309 100.6903 57.3978 -17.2777 9.1397 9.7209
# 3 42.2314 57.3978 170.8276 -18.5730 5.7254 2.3358
# 4 13.5392 -17.2777 -18.5730 46.3105 0.7781 12.3497
# 5 14.7724 9.1397 5.7254 0.7781 28.5503 -0.6565
# 6 6.5499 9.7209 2.3358 12.3497 -0.6565 33.9365
#
#
#
# Elastic Compliance Matrix: (Units=1/GPa)
#
#
# Indices 1 2 3 4 5 6 
#
# 1 0.022611 -0.000506 -0.006032 -0.008840 -0.010105 -0.000783
# 2 -0.000506 0.013984 -0.003780 0.005431 -0.003736 -0.005696
# 3 -0.006032 -0.003780 0.008945 0.003823 0.002439 0.000287
# 4 -0.008840 0.005431 0.003823 0.030728 0.000972 -0.011276
# 5 -0.010105 -0.003736 0.002439 0.000972 0.041010 0.003292
# 6 -0.000783 -0.005696 0.000287 -0.011276 0.003292 0.035397
#
#
# Mechanical properties :
#
#
# Convention : Reuss Voigt Hill
#
# Bulk Modulus (GPa) = 40.15270 63.24347 51.69809
# Shear Modulus (GPa) = 27.53132 36.73353 32.13242
#
# Velocity S-wave (km/s) = 3.55551 4.10695 3.84113
# Velocity P-wave (km/s) = 5.94075 7.17837 6.58868
#
# Compressibility (1/GPa) = 0.02490492
#
# Stress axis : x y z
#
# Youngs Moduli (GPa) = 44.22544 71.51263 111.79506
#
# Poissons Ratio (x) = 0.03619 0.67430
# Poissons Ratio (y) = 0.02238 0.42256
# Poissons Ratio (z) = 0.26675 0.27030
#
# Static dielectric constant tensor:
#      x y z
#    x 1.818350 0.024200 -0.002230 
#    y 0.024200 1.860670 -0.019230 
#    z -0.002230 -0.019230 1.932300 
# 
# From -- ./inp_files/184608.got.cif
#   From: 2010.05.17/outbox.cif.g08.bks.cpg/sg2_93_cif.got.tgz:184608.got - 2010.06.03 11:33:40.
