data_PCOD9055032
_publ_section_title
;
Structure prediction by ZEFSAII (Michael W. Deem and Ramdas Pophale) SiO2 
 PCOD9055032
Probable space group: P -1
;
_chemical_formula_sum "Si O2"
_cell_formula_units_Z 14
_cell_length_a 9.304596
_cell_length_b 15.221279
_cell_length_c 8.756251
_cell_angle_alpha 105.910491
_cell_angle_beta 150.041910
_cell_angle_gamma 84.414698
_cell_volume 569.617865
_symmetry_space_group_name_H-M "P -1"
_symmetry_group_IT_number 2
_symmetry_cell_setting 'triclinic'
loop_
_space_group_symop_operation_xyz
x,y,z
-x,-y,-z
loop_
_atom_site_type_symbol
_atom_site_label
_atom_site_fract_x
_atom_site_fract_y
_atom_site_fract_z
Si Si1 0.920554 0.019061 0.606384
Si Si2 0.796441 0.566966 0.375940
Si Si3 0.724737 0.023305 0.856947
Si Si4 0.188949 0.228978 0.927497
Si Si5 0.127036 0.303576 0.227934
Si Si6 0.500461 0.190618 0.685036
Si Si7 0.239460 0.751293 0.718333
O O1 0.145466 0.123201 0.907184
O O2 0.584017 0.018201 0.341876
O O3 0.000000 0.000000 0.500000
O O4 0.034662 0.939875 0.764538
O O5 0.741369 0.599012 0.511447
O O6 0.000000 0.500000 0.500000
O O7 0.970111 0.665923 0.499015
O O8 0.500000 0.500000 0.000000
O O9 0.582860 0.094853 0.660061
O O10 0.000000 0.000000 0.000000
O O11 0.924042 0.207208 0.546642
O O12 0.178141 0.295545 0.092464
O O13 0.498664 0.274307 0.146936
O O14 0.228123 0.220446 0.372399
O O15 0.771171 0.277295 0.910076
O O16 0.572420 0.194352 0.935038
#
# Coordination Sequence:
#
# PCOD9055032 Si02
#       7
#     2   2   2   2   2   2   2
#     4  12  24  39  59  88 127 170 206 257 306 345
#     4  11  23  44  68  93 119 153 198 246 302 375
#     4  12  23  38  59  88 121 164 215 264 299 338
#     4  12  23  41  60  93 128 161 206 250 302 363
#     4  11  23  40  65  91 123 163 199 253 308 358
#     4  11  21  40  61  88 120 167 216 247 293 366
#     4  11  23  40  65  89 120 162 199 245 302 371
#
# _framework density 24.577878999999999
#
# number of rings (size 3 to 8) (size 9 to 14) (size 15 to 20)
#    0.000    0.571    0.000   11.143    0.000    0.000 
#    0.000    4.286    0.000    0.000    0.000    0.000 
#    0.000    0.000    0.000    0.000    0.000    0.000 
#
# Total GULP energy -77971.831839 kJ/mol
# GULP energy per Si atom -5569.416560 kJ/mol
# Density = 2.452194 g / cm^3
# Si number density = 24.577879 Si / 1000 Ang^3
#
#
#
# Elastic Constant Matrix: (Units=GPa)
#
#
# Indices 1 2 3 4 5 6 
#
# 1 154.3261 108.7293 220.4191 36.3188 -158.8177 -41.4492
# 2 108.7293 -140.6014 -346.0721 -79.2863 298.8195 -27.9802
# 3 220.4191 -346.0721 -547.5588 -143.3379 568.8977 -27.4125
# 4 36.3188 -79.2863 -143.3379 36.3404 99.4666 -6.0574
# 5 -158.8177 298.8195 568.8977 99.4666 -419.7010 11.3958
# 6 -41.4492 -27.9802 -27.4125 -6.0574 11.3958 42.3910
#
#
#
# Elastic Compliance Matrix: (Units=1/GPa)
#
#
# Indices 1 2 3 4 5 6 
#
# 1 0.006561 0.003278 -0.000523 0.001009 -0.000388 0.008489
# 2 0.003278 0.022068 -0.005101 0.003172 0.008651 0.012601
# 3 -0.000523 -0.005101 0.005760 0.000012 0.004341 -0.001319
# 4 0.001009 0.003172 0.000012 0.017383 0.006119 0.003927
# 5 -0.000388 0.008651 0.004341 0.006119 0.011419 0.005943
# 6 0.008489 0.012601 -0.001319 0.003927 0.005943 0.038318
#
#
# Mechanical properties :
#
#
# Convention : Reuss Voigt Hill
#
# Bulk Modulus (GPa) = 33.67314 -63.07572 -14.70129
# Shear Modulus (GPa) = 43.06635 -102.65459 -29.79412
#
# Velocity S-wave (km/s) = 4.19052 -6.46976 -3.48549
# Velocity P-wave (km/s) = 6.09461 9.02938 4.71091
#
# Compressibility (1/GPa) = 0.02969726
#
# Stress axis : x y z
#
# Youngs Moduli (GPa) = 152.42681 45.31418 173.60142
#
# Poissons Ratio (x) = -0.14856 0.09078
# Poissons Ratio (y) = -0.49971 0.88559
# Poissons Ratio (z) = 0.07971 0.23116
#
# Static dielectric constant tensor:
#      x y z
#    x 2.158500 -0.005610 -0.126990 
#    y -0.005610 2.039270 0.086240 
#    z -0.126990 0.086240 2.157620 
# 
# From -- ./inp_files/218470.got.cif
#   From: 2010.05.17/outbox.cif.g08.bks.cpg/sg2_110_cif.got.tgz:218470.got - 2010.06.03 11:33:40.
