data_PCOD9055462
_publ_section_title
;
Structure prediction by ZEFSAII (Michael W. Deem and Ramdas Pophale) SiO2 
 PCOD9055462
Probable space group: P -1
;
_chemical_formula_sum "Si O2"
_cell_formula_units_Z 12
_cell_length_a 5.077683
_cell_length_b 14.202168
_cell_length_c 7.329321
_cell_angle_alpha 82.991804
_cell_angle_beta 112.782916
_cell_angle_gamma 64.944877
_cell_volume 414.765356
_symmetry_space_group_name_H-M "P -1"
_symmetry_group_IT_number 2
_symmetry_cell_setting 'triclinic'
loop_
_space_group_symop_operation_xyz
x,y,z
-x,-y,-z
loop_
_atom_site_type_symbol
_atom_site_label
_atom_site_fract_x
_atom_site_fract_y
_atom_site_fract_z
Si Si1 0.799108 0.176211 0.028678
Si Si2 0.156508 0.773694 0.393702
Si Si3 0.299103 0.985919 0.787790
Si Si4 0.234424 0.237111 0.262246
Si Si5 0.116746 0.373170 0.707840
Si Si6 0.657051 0.442178 0.865179
O O1 0.924260 0.052919 0.155048
O O2 0.910407 0.226203 0.210640
O O3 0.888726 0.197422 0.844620
O O4 0.402718 0.251918 0.892220
O O5 0.527212 0.746065 0.545631
O O6 0.081366 0.676742 0.444171
O O7 0.902672 0.894108 0.382770
O O8 0.526312 0.883723 0.739621
O O9 0.500000 0.000000 0.000000
O O10 0.024737 0.345228 0.057285
O O11 0.368419 0.417936 0.720210
O O12 0.817770 0.467414 0.728995
O O13 0.500000 0.500000 0.000000
#
# Coordination Sequence:
#
# PCOD9055462 Si02
#       6
#     2   2   2   2   2   2
#     4  11  21  42  64  89 144 177 228 267 339 388
#     4  12  24  40  67 101 138 180 224 280 332 403
#     4  12  21  40  64  93 142 189 223 270 335 399
#     4  11  25  41  64 102 133 175 236 278 334 401
#     4  11  21  44  70  97 136 175 221 281 337 405
#     4  11  23  47  75  98 131 180 224 282 352 406
#
# _framework density 28.932023000000001
#
# number of rings (size 3 to 8) (size 9 to 14) (size 15 to 20)
#    0.000    0.667    8.333    1.500    0.000    2.000 
#    0.000    1.667    0.000    0.000    0.000    0.000 
#    0.000    0.000    0.000    0.000    0.000    0.000 
#
# Total GULP energy -66817.081086 kJ/mol
# GULP energy per Si atom -5568.090090 kJ/mol
# Density = 2.886617 g / cm^3
# Si number density = 28.932023 Si / 1000 Ang^3
#
#
#
# Elastic Constant Matrix: (Units=GPa)
#
#
# Indices 1 2 3 4 5 6 
#
# 1 112.4798 24.2145 40.5731 15.0244 30.6485 -1.9367
# 2 24.2145 112.1389 26.9491 17.1302 0.3650 -20.3265
# 3 40.5731 26.9491 168.9360 23.1599 40.4325 19.4295
# 4 15.0244 17.1302 23.1599 38.6169 16.1573 18.0766
# 5 30.6485 0.3650 40.4325 16.1573 52.6078 8.2331
# 6 -1.9367 -20.3265 19.4295 18.0766 8.2331 69.8222
#
#
#
# Elastic Compliance Matrix: (Units=1/GPa)
#
#
# Indices 1 2 3 4 5 6 
#
# 1 0.011360 -0.001824 -0.001061 -0.001108 -0.005611 0.001028
# 2 -0.001824 0.011942 -0.002012 -0.007627 0.004010 0.005488
# 3 -0.001061 -0.002012 0.008007 -0.000368 -0.005072 -0.002150
# 4 -0.001108 -0.007627 -0.000368 0.039029 -0.009259 -0.011161
# 5 -0.005611 0.004010 -0.005072 -0.009259 0.028768 0.001428
# 6 0.001028 0.005488 -0.002150 -0.011161 0.001428 0.019268
#
#
# Mechanical properties :
#
#
# Convention : Reuss Voigt Hill
#
# Bulk Modulus (GPa) = 46.48013 64.11424 55.29718
# Shear Modulus (GPa) = 36.94396 52.33059 44.63728
#
# Velocity S-wave (km/s) = 3.57728 4.25755 3.93215
# Velocity P-wave (km/s) = 5.75871 6.81009 6.30635
#
# Compressibility (1/GPa) = 0.02151457
#
# Stress axis : x y z
#
# Youngs Moduli (GPa) = 88.02467 83.73956 124.89309
#
# Poissons Ratio (x) = 0.15278 0.13248
# Poissons Ratio (y) = 0.16059 0.25129
# Poissons Ratio (z) = 0.09337 0.16849
#
# Static dielectric constant tensor:
#      x y z
#    x 2.420520 -0.019480 -0.190400 
#    y -0.019480 2.391110 0.036060 
#    z -0.190400 0.036060 2.404500 
# 
# From -- ./inp_files/136762.got.cif
#   From: 2010.05.17/outbox.cif.g08.bks.cpg/sg2_69_cif.got.tgz:136762.got - 2010.06.03 11:33:40.
