data_PCOD9055213
_publ_section_title
;
Structure prediction by ZEFSAII (Michael W. Deem and Ramdas Pophale) SiO2 
 PCOD9055213
Probable space group: P -1
;
_chemical_formula_sum "Si O2"
_cell_formula_units_Z 15
_cell_length_a 9.210368
_cell_length_b 11.532219
_cell_length_c 11.743008
_cell_angle_alpha 138.215784
_cell_angle_beta 85.970564
_cell_angle_gamma 113.840393
_cell_volume 703.413399
_symmetry_space_group_name_H-M "P -1"
_symmetry_group_IT_number 2
_symmetry_cell_setting 'triclinic'
loop_
_space_group_symop_operation_xyz
x,y,z
-x,-y,-z
loop_
_atom_site_type_symbol
_atom_site_label
_atom_site_fract_x
_atom_site_fract_y
_atom_site_fract_z
Si Si1 0.685000 0.378510 0.652826
Si Si2 0.141844 0.704725 0.205692
Si Si3 0.998260 0.328516 0.301559
Si Si4 0.641552 0.712151 0.943897
Si Si5 0.290362 0.009523 0.074453
Si Si6 0.000000 0.000000 0.500000
Si Si7 0.997851 0.992762 0.764989
Si Si8 0.524034 0.044932 0.783037
O O1 0.777641 0.349443 0.733031
O O2 0.829476 0.558626 0.698334
O O3 0.593927 0.165466 0.433163
O O4 0.564972 0.468318 0.759515
O O5 0.064014 0.838546 0.348694
O O6 0.298457 0.832754 0.204388
O O7 0.000000 0.500000 0.000000
O O8 0.991413 0.168705 0.273997
O O9 0.000000 0.500000 0.500000
O O10 0.832548 0.204210 0.140100
O O11 0.547792 0.804747 0.088493
O O12 0.661200 0.813616 0.892141
O O13 0.823945 0.799088 0.060902
O O14 0.167124 0.013860 0.180953
O O15 0.443220 0.014746 0.137365
O O16 0.990633 0.949589 0.601242
#
# Coordination Sequence:
#
# PCOD9055213 Si02
#       8
#     2   2   2   2   2   1   2   2
#     4  12  24  43  68 101 142 184 230 289 355 416
#     4  12  27  47  72 100 139 188 241 287 348 430
#     4  11  21  40  72 102 134 184 240 288 340 418
#     4  11  23  44  73  99 143 184 228 292 359 408
#     4  11  21  46  68 100 143 183 235 289 341 418
#     4  12  24  44  72 104 136 178 240 292 340 402
#     4  11  21  43  71  99 137 190 237 283 341 416
#     4  12  27  44  67 107 144 178 229 298 357 420
#
# _framework density 21.324587000000001
#
# number of rings (size 3 to 8) (size 9 to 14) (size 15 to 20)
#    0.000    0.533    4.000    6.400    0.000    2.133 
#    2.400    0.000    0.000    0.000    0.000    0.000 
#    0.000    0.000    0.000    0.000    0.000    0.000 
#
# Total GULP energy -83601.950349 kJ/mol
# GULP energy per Si atom -5573.463357 kJ/mol
# Density = 2.127605 g / cm^3
# Si number density = 21.324587 Si / 1000 Ang^3
#
#
#
# Elastic Constant Matrix: (Units=GPa)
#
#
# Indices 1 2 3 4 5 6 
#
# 1 95.0035 24.4747 80.1327 3.3226 -30.6136 -12.6463
# 2 24.4747 92.7408 63.6053 -21.6993 6.8981 -5.0424
# 3 80.1327 63.6053 166.2114 -10.2198 -22.4582 -4.2502
# 4 3.3226 -21.6993 -10.2198 26.2775 -2.8783 -9.8298
# 5 -30.6136 6.8981 -22.4582 -2.8783 51.0635 -5.0259
# 6 -12.6463 -5.0424 -4.2502 -9.8298 -5.0259 30.1195
#
#
#
# Elastic Compliance Matrix: (Units=1/GPa)
#
#
# Indices 1 2 3 4 5 6 
#
# 1 0.023601 -0.000447 -0.009657 -0.002379 0.010762 0.009491
# 2 -0.000447 0.020068 -0.006918 0.015936 -0.004468 0.006651
# 3 -0.009657 -0.006918 0.013284 -0.000532 0.000622 -0.003408
# 4 -0.002379 0.015936 -0.000532 0.059442 0.001630 0.021266
# 5 0.010762 -0.004468 0.000622 0.001630 0.027895 0.009045
# 6 0.009491 0.006651 -0.003408 0.021266 0.009045 0.046268
#
#
# Mechanical properties :
#
#
# Convention : Reuss Voigt Hill
#
# Bulk Modulus (GPa) = 43.64972 76.70902 60.17937
# Shear Modulus (GPa) = 21.52965 33.87497 27.70231
#
# Velocity S-wave (km/s) = 3.18089 3.98997 3.60818
# Velocity P-wave (km/s) = 5.83133 7.56814 6.75578
#
# Compressibility (1/GPa) = 0.02290965
#
# Stress axis : x y z
#
# Youngs Moduli (GPa) = 42.37128 49.83048 75.28049
#
# Poissons Ratio (x) = 0.02225 0.72697
# Poissons Ratio (y) = 0.01892 0.52080
# Poissons Ratio (z) = 0.40917 0.34473
#
# Static dielectric constant tensor:
#      x y z
#    x 1.832810 -0.000480 -0.061190 
#    y -0.000480 1.716890 -0.004590 
#    z -0.061190 -0.004590 1.817520 
# 
# From -- ./inp_files/391543.got.cif
#   From: 2010.05.17/outbox.cif.g08.bks.cpg/sg2_196_cif.got.tgz:391543.got - 2010.06.03 11:33:40.
