data_PCOD9055119
_publ_section_title
;
Structure prediction by ZEFSAII (Michael W. Deem and Ramdas Pophale) SiO2 
 PCOD9055119
Probable space group: P -1
;
_chemical_formula_sum "Si O2"
_cell_formula_units_Z 15
_cell_length_a 14.451153
_cell_length_b 13.269861
_cell_length_c 9.690639
_cell_angle_alpha 119.932007
_cell_angle_beta 38.702188
_cell_angle_gamma 147.947534
_cell_volume 537.674865
_symmetry_space_group_name_H-M "P -1"
_symmetry_group_IT_number 2
_symmetry_cell_setting 'triclinic'
loop_
_space_group_symop_operation_xyz
x,y,z
-x,-y,-z
loop_
_atom_site_type_symbol
_atom_site_label
_atom_site_fract_x
_atom_site_fract_y
_atom_site_fract_z
Si Si1 0.644764 0.830560 0.646180
Si Si2 0.144049 0.364608 0.813381
Si Si3 0.884938 0.794782 0.977024
Si Si4 0.122115 0.745129 0.513810
Si Si5 0.820606 0.946191 0.814557
Si Si6 0.253059 0.744936 0.644053
Si Si7 0.583973 0.377901 0.705916
Si Si8 0.500000 0.000000 0.000000
O O1 0.446911 0.621987 0.637987
O O2 0.963541 0.011643 0.368234
O O3 0.645598 0.792842 0.780991
O O4 0.552137 0.901522 0.815019
O O5 0.145363 0.287355 0.897230
O O6 0.007471 0.187473 0.738960
O O7 0.931249 0.326242 0.068303
O O8 0.581280 0.618311 0.145950
O O9 0.103913 0.860415 0.685327
O O10 0.000000 0.000000 0.000000
O O11 0.091731 0.642151 0.613607
O O12 0.864175 0.586939 0.603055
O O13 0.373605 0.871423 0.210630
O O14 0.616684 0.825313 0.095840
O O15 0.335367 0.667885 0.528507
O O16 0.500000 0.000000 0.500000
#
# Coordination Sequence:
#
# PCOD9055119 Si02
#       8
#     2   2   2   2   2   2   2   1
#     4  11  26  44  66  97 138 187 228 282 343 422
#     4  11  23  44  69 100 137 182 229 283 351 414
#     4  11  22  41  67 102 135 168 226 291 336 401
#     4  11  25  41  67  98 133 181 225 284 350 406
#     4  11  22  43  70  97 138 181 230 283 348 411
#     4  11  21  40  67  97 133 170 222 284 339 405
#     4  12  21  40  69 102 128 170 232 287 340 401
#     4  12  26  46  66  96 146 176 230 288 346 408
#
# _framework density 27.897901000000001
#
# number of rings (size 3 to 8) (size 9 to 14) (size 15 to 20)
#    0.000    0.800    2.667    6.000    0.000    2.133 
#    0.000    0.667    0.000    0.000    0.000    0.000 
#    0.000    0.000    0.000    0.000    0.000    0.000 
#
# Total GULP energy -83813.552345 kJ/mol
# GULP energy per Si atom -5587.570156 kJ/mol
# Density = 2.783440 g / cm^3
# Si number density = 27.897901 Si / 1000 Ang^3
#
#
#
# Elastic Constant Matrix: (Units=GPa)
#
#
# Indices 1 2 3 4 5 6 
#
# 1 94.8255 24.8770 12.4826 -3.2270 -2.0045 10.7720
# 2 24.8770 109.2864 20.8109 18.0817 -8.6685 5.4468
# 3 12.4826 20.8109 140.3662 43.6420 -9.2230 -6.4967
# 4 -3.2270 18.0817 43.6420 45.5643 2.7531 -14.8526
# 5 -2.0045 -8.6685 -9.2230 2.7531 29.4682 1.1383
# 6 10.7720 5.4468 -6.4967 -14.8526 1.1383 43.3178
#
#
#
# Elastic Compliance Matrix: (Units=1/GPa)
#
#
# Indices 1 2 3 4 5 6 
#
# 1 0.011807 -0.002847 -0.001723 0.003092 -0.000794 -0.001756
# 2 -0.002847 0.011214 0.000775 -0.006605 0.004079 -0.002958
# 3 -0.001723 0.000775 0.011150 -0.012147 0.004824 -0.002288
# 4 0.003092 -0.006605 -0.012147 0.041125 -0.009863 0.012600
# 5 -0.000794 0.004079 0.004824 -0.009863 0.037665 -0.003964
# 6 -0.001756 -0.002958 -0.002288 0.012600 -0.003964 0.027975
#
#
# Mechanical properties :
#
#
# Convention : Reuss Voigt Hill
#
# Bulk Modulus (GPa) = 37.61705 51.20211 44.40958
# Shear Modulus (GPa) = 31.76913 42.75723 37.26318
#
# Velocity S-wave (km/s) = 3.37822 3.91913 3.65869
# Velocity P-wave (km/s) = 5.36000 6.23480 5.81387
#
# Compressibility (1/GPa) = 0.02658369
#
# Stress axis : x y z
#
# Youngs Moduli (GPa) = 84.69477 89.17071 89.68497
#
# Poissons Ratio (x) = 0.25384 0.15449
# Poissons Ratio (y) = 0.24110 -0.06953
# Poissons Ratio (z) = 0.14590 -0.06913
#
# Static dielectric constant tensor:
#      x y z
#    x 2.175450 0.059460 -0.000900 
#    y 0.059460 2.230820 -0.046560 
#    z -0.000900 -0.046560 2.166300 
# 
# From -- ./inp_files/466111.got.cif
#   From: 2010.05.17/outbox.cif.g08.bks.cpg/sg2_234_cif.got.tgz:466111.got - 2010.06.03 11:33:40.
