data_PCOD9055239
_publ_section_title
;
Structure prediction by ZEFSAII (Michael W. Deem and Ramdas Pophale) SiO2 
 PCOD9055239
Probable space group: P -1
;
_chemical_formula_sum "Si O2"
_cell_formula_units_Z 16
_cell_length_a 9.754217
_cell_length_b 6.860893
_cell_length_c 13.647273
_cell_angle_alpha 98.660458
_cell_angle_beta 125.514148
_cell_angle_gamma 65.672103
_cell_volume 672.532597
_symmetry_space_group_name_H-M "P -1"
_symmetry_group_IT_number 2
_symmetry_cell_setting 'triclinic'
loop_
_space_group_symop_operation_xyz
x,y,z
-x,-y,-z
loop_
_atom_site_type_symbol
_atom_site_label
_atom_site_fract_x
_atom_site_fract_y
_atom_site_fract_z
Si Si1 0.974867 0.774056 0.403264
Si Si2 0.002900 0.093977 0.152882
Si Si3 0.307403 0.215370 0.220688
Si Si4 0.406781 0.750814 0.004701
Si Si5 0.455406 0.172810 0.579307
Si Si6 0.971421 0.690275 0.611299
Si Si7 0.408847 0.964124 0.817043
Si Si8 0.234833 0.666431 0.317603
O O1 0.928552 0.563702 0.352615
O O2 0.780201 0.966483 0.314713
O O3 0.135632 0.743233 0.388163
O O4 0.971904 0.231143 0.460704
O O5 0.123047 0.175573 0.138417
O O6 0.797844 0.181173 0.034516
O O7 0.012931 0.194201 0.273367
O O8 0.099268 0.838915 0.196550
O O9 0.267214 0.422510 0.287900
O O10 0.455461 0.986453 0.305718
O O11 0.412315 0.230370 0.167946
O O12 0.371333 0.885834 0.900125
O O13 0.500000 0.500000 0.000000
O O14 0.531976 0.837124 0.126367
O O15 0.570098 0.314380 0.613034
O O16 0.237312 0.282735 0.496941
O O17 0.500000 0.000000 0.500000
#
# Coordination Sequence:
#
# PCOD9055239 Si02
#       8
#     2   2   2   2   2   2   2   2
#     4  11  22  42  68  99 137 182 226 270 336 402
#     4  11  23  45  67 100 136 178 224 279 338 399
#     4  11  24  42  67  98 141 176 224 278 330 408
#     4  11  26  47  76  99 133 174 226 291 347 395
#     4  11  21  41  61  97 142 181 223 269 332 395
#     4  11  22  40  66 101 141 181 219 281 324 401
#     4  11  25  47  71 103 134 176 230 284 336 407
#     4  11  23  41  66  95 137 183 221 273 335 399
#
# _framework density 23.790669000000001
#
# number of rings (size 3 to 8) (size 9 to 14) (size 15 to 20)
#    0.000    1.000    6.250    0.750    0.000    5.000 
#    6.750    1.250    0.000    0.000    0.000    0.000 
#    0.000    0.000    0.000    0.000    0.000    0.000 
#
# Total GULP energy -89468.420506 kJ/mol
# GULP energy per Si atom -5591.776282 kJ/mol
# Density = 2.373652 g / cm^3
# Si number density = 23.790669 Si / 1000 Ang^3
#
#
#
# Elastic Constant Matrix: (Units=GPa)
#
#
# Indices 1 2 3 4 5 6 
#
# 1 108.1863 34.6379 16.1164 16.1712 27.2793 -9.2217
# 2 34.6379 105.8859 41.5147 8.7223 22.4196 3.6218
# 3 16.1164 41.5147 55.8020 5.9440 28.7427 6.8559
# 4 16.1712 8.7223 5.9440 19.0430 -4.6529 3.1460
# 5 27.2793 22.4196 28.7427 -4.6529 38.6684 7.4932
# 6 -9.2217 3.6218 6.8559 3.1460 7.4932 30.2462
#
#
#
# Elastic Compliance Matrix: (Units=1/GPa)
#
#
# Indices 1 2 3 4 5 6 
#
# 1 0.021730 -0.004135 0.013334 -0.030276 -0.029298 0.014505
# 2 -0.004135 0.014422 -0.011258 0.001481 0.003378 -0.001427
# 3 0.013334 -0.011258 0.047506 -0.033212 -0.043928 0.008982
# 4 -0.030276 0.001481 -0.033212 0.108290 0.063828 -0.028956
# 5 -0.029298 0.003378 -0.043928 0.063828 0.090410 -0.028417
# 6 0.014505 -0.001427 0.008982 -0.028956 -0.028417 0.045671
#
#
# Mechanical properties :
#
#
# Convention : Reuss Voigt Hill
#
# Bulk Modulus (GPa) = 12.57232 50.49024 31.53128
# Shear Modulus (GPa) = 13.94077 29.43186 21.68631
#
# Velocity S-wave (km/s) = 2.42332 3.52108 3.02246
# Velocity P-wave (km/s) = 3.62298 6.14813 5.04606
#
# Compressibility (1/GPa) = 0.07953983
#
# Stress axis : x y z
#
# Youngs Moduli (GPa) = 46.01880 69.33707 21.05018
#
# Poissons Ratio (x) = 0.28673 -0.28068
# Poissons Ratio (y) = 0.19030 0.23698
# Poissons Ratio (z) = -0.61361 0.78058
#
# Static dielectric constant tensor:
#      x y z
#    x 1.910210 0.259260 -0.732890 
#    y 0.259260 1.749930 0.504900 
#    z -0.732890 0.504900 0.212360 
# 
# From -- ./inp_files/297287.got.cif
#   From: 2010.05.17/outbox.cif.g08.bks.cpg/sg2_149_cif.got.tgz:297287.got - 2010.06.03 11:33:40.
