data_PCOD9055267
_publ_section_title
;
Structure prediction by ZEFSAII (Michael W. Deem and Ramdas Pophale) SiO2 
 PCOD9055267
Probable space group: P -1
;
_chemical_formula_sum "Si O2"
_cell_formula_units_Z 16
_cell_length_a 12.202013
_cell_length_b 9.368017
_cell_length_c 14.609174
_cell_angle_alpha 140.080691
_cell_angle_beta 139.076930
_cell_angle_gamma 50.398231
_cell_volume 695.259445
_symmetry_space_group_name_H-M "P -1"
_symmetry_group_IT_number 2
_symmetry_cell_setting 'triclinic'
loop_
_space_group_symop_operation_xyz
x,y,z
-x,-y,-z
loop_
_atom_site_type_symbol
_atom_site_label
_atom_site_fract_x
_atom_site_fract_y
_atom_site_fract_z
Si Si1 0.100118 0.911201 0.180897
Si Si2 0.097556 0.432439 0.873787
Si Si3 0.281408 0.461414 0.287222
Si Si4 0.712558 0.757695 0.619887
Si Si5 0.231061 0.627499 0.677085
Si Si6 0.876551 0.661245 0.368834
Si Si7 0.639207 0.074829 0.482867
Si Si8 0.737262 0.899419 0.040390
O O1 0.237115 0.923596 0.352426
O O2 0.912981 0.921496 0.108017
O O3 0.123108 0.125490 0.239507
O O4 0.147480 0.676707 0.044320
O O5 0.086892 0.396998 0.741766
O O6 0.217635 0.237083 0.905153
O O7 0.913945 0.441514 0.810725
O O8 0.268587 0.361142 0.329580
O O9 0.373965 0.679243 0.449633
O O10 0.348985 0.264797 0.162068
O O11 0.687879 0.578434 0.436944
O O12 0.549679 0.946438 0.616721
O O13 0.191882 0.523051 0.699249
O O14 0.050704 0.705990 0.550603
O O15 0.331156 0.840868 0.855055
O O16 0.733590 0.877355 0.384683
#
# Coordination Sequence:
#
# PCOD9055267 Si02
#       8
#     2   2   2   2   2   2   2   2
#     4  11  21  41  65  92 121 168 210 250 307 369
#     4  11  22  39  68  94 123 162 208 263 308 359
#     4  11  23  41  64  94 124 166 209 254 308 368
#     4  12  26  40  65  92 128 170 202 252 314 368
#     4  11  22  40  60  99 125 156 208 264 305 358
#     4  11  23  39  65  94 125 160 211 257 306 363
#     4  12  23  45  63  88 131 168 208 247 306 385
#     4  11  22  40  67  93 127 156 210 266 307 356
#
# _framework density 23.012989999999999
#
# number of rings (size 3 to 8) (size 9 to 14) (size 15 to 20)
#    0.000    0.750    6.250    2.250    3.500    2.000 
#    0.000    2.500    0.000    0.000    0.000    0.000 
#    0.000    0.000    0.000    0.000    0.000    0.000 
#
# Total GULP energy -89510.611449 kJ/mol
# GULP energy per Si atom -5594.413216 kJ/mol
# Density = 2.296061 g / cm^3
# Si number density = 23.012990 Si / 1000 Ang^3
#
#
#
# Elastic Constant Matrix: (Units=GPa)
#
#
# Indices 1 2 3 4 5 6 
#
# 1 53.7374 20.3264 24.5453 0.4243 -16.0847 10.8791
# 2 20.3264 52.5227 19.4161 18.2594 3.0421 10.0049
# 3 24.5453 19.4161 81.1478 32.8644 -19.9688 9.2917
# 4 0.4243 18.2594 32.8644 31.9639 -4.3146 -0.0831
# 5 -16.0847 3.0421 -19.9688 -4.3146 22.2959 3.4480
# 6 10.8791 10.0049 9.2917 -0.0831 3.4480 56.0764
#
#
#
# Elastic Compliance Matrix: (Units=1/GPa)
#
#
# Indices 1 2 3 4 5 6 
#
# 1 0.041114 -0.022332 -0.010190 0.026642 0.029366 -0.004070
# 2 -0.022332 0.037788 0.003538 -0.028075 -0.023283 -0.001606
# 3 -0.010190 0.003538 0.032334 -0.033051 0.015505 -0.005014
# 4 0.026642 -0.028075 -0.033051 0.082122 0.008582 0.004911
# 5 0.029366 -0.023283 0.015505 0.008582 0.086214 -0.009401
# 6 -0.004070 -0.001606 -0.005014 0.004911 -0.009401 0.020325
#
#
# Mechanical properties :
#
#
# Convention : Reuss Voigt Hill
#
# Bulk Modulus (GPa) = 18.77304 35.10929 26.94117
# Shear Modulus (GPa) = 13.31127 30.27525 21.79326
#
# Velocity S-wave (km/s) = 2.40765 3.63102 3.08067
# Velocity P-wave (km/s) = 3.98803 5.73310 4.93826
#
# Compressibility (1/GPa) = 0.05326789
#
# Stress axis : x y z
#
# Youngs Moduli (GPa) = 24.32263 26.46308 30.92741
#
# Poissons Ratio (x) = 0.59097 0.31516
# Poissons Ratio (y) = 0.54317 -0.10942
# Poissons Ratio (z) = 0.24785 -0.09362
#
# Static dielectric constant tensor:
#      x y z
#    x 1.867660 -0.012060 0.032040 
#    y -0.012060 1.905040 0.030440 
#    z 0.032040 0.030440 1.888050 
# 
# From -- ./inp_files/259383.got.cif
#   From: 2010.05.17/outbox.cif.g08.bks.cpg/sg2_130_cif.got.tgz:259383.got - 2010.06.03 11:33:40.
