data_PCOD9055099
_publ_section_title
;
Structure prediction by ZEFSAII (Michael W. Deem and Ramdas Pophale) SiO2 
 PCOD9055099
Probable space group: P -1
;
_chemical_formula_sum "Si O2"
_cell_formula_units_Z 16
_cell_length_a 13.911540
_cell_length_b 9.112224
_cell_length_c 11.320671
_cell_angle_alpha 121.609313
_cell_angle_beta 42.511719
_cell_angle_gamma 127.855937
_cell_volume 758.701892
_symmetry_space_group_name_H-M "P -1"
_symmetry_group_IT_number 2
_symmetry_cell_setting 'triclinic'
loop_
_space_group_symop_operation_xyz
x,y,z
-x,-y,-z
loop_
_atom_site_type_symbol
_atom_site_label
_atom_site_fract_x
_atom_site_fract_y
_atom_site_fract_z
Si Si1 0.730087 0.416257 0.226347
Si Si2 0.300817 0.013302 0.329609
Si Si3 0.539893 0.909226 0.545238
Si Si4 0.985504 0.679012 0.533629
Si Si5 0.870471 0.905888 0.913829
Si Si6 0.885429 0.719158 0.392052
Si Si7 0.762312 0.087233 0.909841
Si Si8 0.197227 0.213467 0.815813
O O1 0.594567 0.292928 0.386955
O O2 0.861197 0.548307 0.252831
O O3 0.715431 0.579367 0.227851
O O4 0.758951 0.275450 0.048898
O O5 0.423936 0.015556 0.318995
O O6 0.237142 0.182014 0.472909
O O7 0.154725 0.822018 0.403545
O O8 0.338049 0.002019 0.152646
O O9 0.703893 0.902604 0.362244
O O10 0.500000 0.000000 0.500000
O O11 0.000000 0.500000 0.500000
O O12 0.925844 0.780944 0.727997
O O13 0.880224 0.646786 0.499100
O O14 0.740190 0.951540 0.983785
O O15 0.810362 0.795134 0.041139
O O16 0.018816 0.101147 0.889007
O O17 0.059902 0.870202 0.274997
#
# Coordination Sequence:
#
# PCOD9055099 Si02
#       8
#     2   2   2   2   2   2   2   2
#     4  12  25  40  68  97 130 173 220 262 310 394
#     4  11  22  44  65  92 132 175 213 260 331 384
#     4  12  26  46  66  88 132 179 222 257 320 395
#     4  11  22  35  65 100 129 164 210 273 325 381
#     4  11  21  40  66  97 138 164 204 276 336 373
#     4  11  21  40  68  97 132 166 214 263 331 379
#     4  11  21  40  66  98 130 164 214 267 328 377
#     4  11  24  40  64  96 132 168 217 268 324 381
#
# _framework density 21.088653999999998
#
# number of rings (size 3 to 8) (size 9 to 14) (size 15 to 20)
#    0.000    0.750    6.250    2.250    5.250    1.500 
#    0.000    0.000    0.000    2.250    0.000    0.000 
#    0.000    0.000    0.000    0.000    0.000    0.000 
#
# Total GULP energy -89197.047253 kJ/mol
# GULP energy per Si atom -5574.815453 kJ/mol
# Density = 2.104066 g / cm^3
# Si number density = 21.088654 Si / 1000 Ang^3
#
#
#
# Elastic Constant Matrix: (Units=GPa)
#
#
# Indices 1 2 3 4 5 6 
#
# 1 171.9664 51.7592 43.8995 -0.1650 33.5812 -33.0433
# 2 51.7592 74.8681 13.1465 3.3466 5.2265 -27.9724
# 3 43.8995 13.1465 53.4011 5.9530 15.3781 -10.8106
# 4 -0.1650 3.3466 5.9530 38.4004 1.4154 1.1878
# 5 33.5812 5.2265 15.3781 1.4154 38.8868 -7.8429
# 6 -33.0433 -27.9724 -10.8106 1.1878 -7.8429 36.7402
#
#
#
# Elastic Compliance Matrix: (Units=1/GPa)
#
#
# Indices 1 2 3 4 5 6 
#
# 1 0.010210 -0.004781 -0.005194 0.001387 -0.005612 0.002771
# 2 -0.004781 0.021244 0.000506 -0.002489 0.003767 0.012908
# 3 -0.005194 0.000506 0.025171 -0.003853 -0.004956 0.002187
# 4 0.001387 -0.002489 -0.003853 0.026983 -0.000895 -0.002845
# 5 -0.005612 0.003767 -0.004956 -0.000895 0.032729 0.003379
# 6 0.002771 0.012908 0.002187 -0.002845 0.003379 0.040995
#
#
# Mechanical properties :
#
#
# Convention : Reuss Voigt Hill
#
# Bulk Modulus (GPa) = 26.53417 57.53844 42.03631
# Shear Modulus (GPa) = 26.47872 35.56750 31.02311
#
# Velocity S-wave (km/s) = 3.54728 4.11124 3.83963
# Velocity P-wave (km/s) = 5.42098 7.06256 6.29551
#
# Compressibility (1/GPa) = 0.03768726
#
# Stress axis : x y z
#
# Youngs Moduli (GPa) = 97.94680 47.07135 39.72896
#
# Poissons Ratio (x) = 0.22506 0.20633
# Poissons Ratio (y) = 0.46831 -0.02011
# Poissons Ratio (z) = 0.50869 -0.02382
#
# Static dielectric constant tensor:
#      x y z
#    x 1.884110 0.013770 0.016400 
#    y 0.013770 1.761020 -0.006080 
#    z 0.016400 -0.006080 1.846410 
# 
# From -- ./inp_files/206306.got.cif
#   From: 2010.05.17/outbox.cif.g08.bks.cpg/sg2_104_cif.got.tgz:206306.got - 2010.06.03 11:33:40.
