data_PCOD9055695
_publ_section_title
;
Structure prediction by ZEFSAII (Michael W. Deem and Ramdas Pophale) SiO2 
 PCOD9055695
Probable space group: P -1
;
_chemical_formula_sum "Si O2"
_cell_formula_units_Z 16
_cell_length_a 20.482653
_cell_length_b 11.640843
_cell_length_c 10.420976
_cell_angle_alpha 65.855664
_cell_angle_beta 46.148242
_cell_angle_gamma 29.658039
_cell_volume 745.758136
_symmetry_space_group_name_H-M "P -1"
_symmetry_group_IT_number 2
_symmetry_cell_setting 'triclinic'
loop_
_space_group_symop_operation_xyz
x,y,z
-x,-y,-z
loop_
_atom_site_type_symbol
_atom_site_label
_atom_site_fract_x
_atom_site_fract_y
_atom_site_fract_z
Si Si1 0.049796 0.897906 0.121420
Si Si2 0.322231 0.528471 0.483021
Si Si3 0.002398 0.401073 0.923064
Si Si4 0.219904 0.223292 0.458546
Si Si5 0.991824 0.159219 0.411646
Si Si6 0.730302 0.144245 0.063490
Si Si7 0.000256 0.292990 0.604514
Si Si8 0.434995 0.153547 0.649654
O O1 0.858776 0.172924 0.342155
O O2 0.077794 0.715208 0.186714
O O3 0.000000 0.000000 0.000000
O O4 0.229327 0.764606 0.983284
O O5 0.500751 0.392814 0.252270
O O6 0.414167 0.323600 0.557138
O O7 0.220895 0.565658 0.495446
O O8 0.069629 0.388873 0.708340
O O9 0.779562 0.627439 0.115138
O O10 0.151744 0.101526 0.893663
O O11 0.000000 0.500000 0.000000
O O12 0.200320 0.111197 0.467963
O O13 0.150274 0.408694 0.361764
O O14 0.413714 0.033418 0.352989
O O15 0.018512 0.199822 0.487184
O O16 0.000000 0.000000 0.500000
O O17 0.157830 0.998221 0.159600
O O18 0.500000 0.000000 0.500000
#
# Coordination Sequence:
#
# PCOD9055695 Si02
#       8
#     2   2   2   2   2   2   2   2
#     4  11  24  45  69  95 140 183 226 286 341 405
#     4  11  23  41  71 107 130 173 240 283 337 412
#     4  12  21  40  70 101 134 176 226 282 342 402
#     4  11  25  43  70  97 142 178 224 282 349 408
#     4  11  21  43  66  95 143 176 223 284 337 404
#     4  11  22  41  68 102 132 176 234 282 341 400
#     4  11  24  47  65  98 142 185 220 286 346 409
#     4  12  22  41  70 104 133 172 231 284 333 409
#
# _framework density 21.454675999999999
#
# number of rings (size 3 to 8) (size 9 to 14) (size 15 to 20)
#    0.000    0.750    7.500    2.250    0.000    1.000 
#    0.000    5.000    0.000    0.000    0.000    0.000 
#    0.000    0.000    0.000    0.000    0.000    0.000 
#
# Total GULP energy -89402.226687 kJ/mol
# GULP energy per Si atom -5587.639168 kJ/mol
# Density = 2.140584 g / cm^3
# Si number density = 21.454676 Si / 1000 Ang^3
#
#
#
# Elastic Constant Matrix: (Units=GPa)
#
#
# Indices 1 2 3 4 5 6 
#
# 1 142.5142 15.2701 46.5091 5.0485 -19.9556 -15.1341
# 2 15.2701 73.1720 20.2307 -25.7496 -2.2306 -3.9151
# 3 46.5091 20.2307 147.6783 0.8560 -25.8656 -15.4682
# 4 5.0485 -25.7496 0.8560 38.5427 -7.1396 -5.1584
# 5 -19.9556 -2.2306 -25.8656 -7.1396 29.4082 -7.9278
# 6 -15.1341 -3.9151 -15.4682 -5.1584 -7.9278 34.5980
#
#
#
# Elastic Compliance Matrix: (Units=1/GPa)
#
#
# Indices 1 2 3 4 5 6 
#
# 1 0.008858 -0.001166 -0.001048 -0.000135 0.006230 0.004682
# 2 -0.001166 0.019841 -0.001188 0.014858 0.004474 0.004445
# 3 -0.001048 -0.001188 0.009612 0.001767 0.009755 0.006203
# 4 -0.000135 0.014858 0.001767 0.040351 0.015623 0.012008
# 5 0.006230 0.004474 0.009755 0.015623 0.057148 0.023017
# 6 0.004682 0.004445 0.006203 0.012008 0.023017 0.041292
#
#
# Mechanical properties :
#
#
# Convention : Reuss Voigt Hill
#
# Bulk Modulus (GPa) = 31.73764 58.59827 45.16795
# Shear Modulus (GPa) = 25.71898 39.26675 32.49287
#
# Velocity S-wave (km/s) = 3.46607 4.28275 3.89587
# Velocity P-wave (km/s) = 5.55366 7.19915 6.42927
#
# Compressibility (1/GPa) = 0.03150833
#
# Stress axis : x y z
#
# Youngs Moduli (GPa) = 112.89191 50.40056 104.03512
#
# Poissons Ratio (x) = 0.05878 0.10898
# Poissons Ratio (y) = 0.13165 0.12356
# Poissons Ratio (z) = 0.11826 0.05986
#
# Static dielectric constant tensor:
#      x y z
#    x 1.815580 0.027870 0.002760 
#    y 0.027870 1.767860 -0.022790 
#    z 0.002760 -0.022790 1.748530 
# 
# From -- ./inp_files/432621.got.cif
#   From: 2010.05.17/outbox.cif.g08.bks.cpg/sg2_217_cif.got.tgz:432621.got - 2010.06.03 11:33:40.
