data_PCOD9055288
_publ_section_title
;
Structure prediction by ZEFSAII (Michael W. Deem and Ramdas Pophale) SiO2 
 PCOD9055288
Probable space group: P -1
;
_chemical_formula_sum "Si O2"
_cell_formula_units_Z 14
_cell_length_a 9.815708
_cell_length_b 8.641292
_cell_length_c 7.124409
_cell_angle_alpha 77.103739
_cell_angle_beta 91.439062
_cell_angle_gamma 83.048212
_cell_volume 583.872720
_symmetry_space_group_name_H-M "P -1"
_symmetry_group_IT_number 2
_symmetry_cell_setting 'triclinic'
loop_
_space_group_symop_operation_xyz
x,y,z
-x,-y,-z
loop_
_atom_site_type_symbol
_atom_site_label
_atom_site_fract_x
_atom_site_fract_y
_atom_site_fract_z
Si Si1 0.866831 0.927254 0.335141
Si Si2 0.351965 0.108747 0.986043
Si Si3 0.306708 0.539737 0.357064
Si Si4 0.174722 0.876916 0.203932
Si Si5 0.816431 0.268953 0.175606
Si Si6 0.942321 0.611051 0.646209
Si Si7 0.397231 0.451760 0.792060
O O1 0.745797 0.895300 0.198574
O O2 0.886543 0.787737 0.524817
O O3 0.017102 0.918153 0.246199
O O4 0.829821 0.109762 0.348948
O O5 0.376723 0.292971 0.949446
O O6 0.500000 0.000000 0.000000
O O7 0.263323 0.025252 0.160221
O O8 0.252996 0.723565 0.353947
O O9 0.185426 0.469710 0.262883
O O10 0.334128 0.446077 0.579858
O O11 0.444794 0.535110 0.246984
O O12 0.172949 0.806662 0.010115
O O13 0.677745 0.386240 0.166307
O O14 0.938138 0.369829 0.209004
O O15 0.000000 0.500000 0.500000
#
# Coordination Sequence:
#
# PCOD9055288 Si02
#       7
#     2   2   2   2   2   2   2
#     4  11  23  45  66  98 134 174 215 275 324 395
#     4  11  21  41  66  95 126 175 212 267 325 384
#     4  11  23  42  69  96 129 175 220 264 327 391
#     4  11  24  44  67  99 136 169 219 271 335 379
#     4  11  24  41  66  98 133 173 215 277 326 388
#     4  12  21  42  70  97 129 174 224 267 328 386
#     4  11  23  44  69  93 133 176 221 264 330 392
#
# _framework density 23.977831999999999
#
# number of rings (size 3 to 8) (size 9 to 14) (size 15 to 20)
#    0.000    0.857    5.714    2.143    0.000    1.143 
#    2.571    0.714    0.000    0.000    0.000    0.000 
#    0.000    0.000    0.000    0.000    0.000    0.000 
#
# Total GULP energy -78403.685639 kJ/mol
# GULP energy per Si atom -5600.263260 kJ/mol
# Density = 2.392326 g / cm^3
# Si number density = 23.977832 Si / 1000 Ang^3
#
#
#
# Elastic Constant Matrix: (Units=GPa)
#
#
# Indices 1 2 3 4 5 6 
#
# 1 161.9569 74.5293 33.8687 -5.5748 -16.6016 -19.0467
# 2 74.5293 182.3882 48.2556 -23.4243 -28.8334 -21.1224
# 3 33.8687 48.2556 49.2827 -16.1094 -5.8476 -2.5651
# 4 -5.5748 -23.4243 -16.1094 46.3563 1.7645 -1.0819
# 5 -16.6016 -28.8334 -5.8476 1.7645 30.7649 -7.2163
# 6 -19.0467 -21.1224 -2.5651 -1.0819 -7.2163 50.3100
#
#
#
# Elastic Compliance Matrix: (Units=1/GPa)
#
#
# Indices 1 2 3 4 5 6 
#
# 1 0.008375 -0.001815 -0.003953 -0.001328 0.002747 0.002572
# 2 -0.001815 0.010083 -0.006664 0.002356 0.008106 0.004420
# 3 -0.003953 -0.006664 0.031268 0.007087 -0.003559 -0.003058
# 4 -0.001328 0.002356 0.007087 0.025036 0.001788 0.001642
# 5 0.002747 0.008106 -0.003559 0.001788 0.043269 0.010506
# 6 0.002572 0.004420 -0.003058 0.001642 0.010506 0.024093
#
#
# Mechanical properties :
#
#
# Convention : Reuss Voigt Hill
#
# Bulk Modulus (GPa) = 40.22087 78.54835 59.38461
# Shear Modulus (GPa) = 28.52662 41.28451 34.90556
#
# Velocity S-wave (km/s) = 3.45296 4.15393 3.81956
# Velocity P-wave (km/s) = 5.71907 7.47240 6.65374
#
# Compressibility (1/GPa) = 0.02486272
#
# Stress axis : x y z
#
# Youngs Moduli (GPa) = 119.40956 99.17199 31.98161
#
# Poissons Ratio (x) = 0.17997 0.12641
# Poissons Ratio (y) = 0.21670 0.21313
# Poissons Ratio (z) = 0.47198 0.66091
#
# Static dielectric constant tensor:
#      x y z
#    x 1.866600 0.014630 0.008780 
#    y 0.014630 1.911220 -0.012940 
#    z 0.008780 -0.012940 2.005930 
# 
# From -- ./inp_files/153947.got.cif
#   From: 2010.05.17/outbox.cif.g08.bks.cpg/sg2_77_cif.got.tgz:153947.got - 2010.06.03 11:33:40.
