data_PCOD9055821
_publ_section_title
;
Structure prediction by ZEFSAII (Michael W. Deem and Ramdas Pophale) SiO2 
 PCOD9055821
Probable space group: P -1
;
_chemical_formula_sum "Si O2"
_cell_formula_units_Z 14
_cell_length_a 16.116176
_cell_length_b 12.206121
_cell_length_c 9.300486
_cell_angle_alpha 55.571717
_cell_angle_beta 24.029233
_cell_angle_gamma 48.384362
_cell_volume 551.849726
_symmetry_space_group_name_H-M "P -1"
_symmetry_group_IT_number 2
_symmetry_cell_setting 'triclinic'
loop_
_space_group_symop_operation_xyz
x,y,z
-x,-y,-z
loop_
_atom_site_type_symbol
_atom_site_label
_atom_site_fract_x
_atom_site_fract_y
_atom_site_fract_z
Si Si1 0.339106 0.742647 0.385658
Si Si2 0.198554 0.528040 0.582672
Si Si3 0.905115 0.020085 0.795669
Si Si4 0.512417 0.848135 0.277594
Si Si5 0.003245 0.274954 0.525151
Si Si6 0.423237 0.208416 0.451830
Si Si7 0.262228 0.193474 0.433861
O O1 0.289746 0.619419 0.473689
O O2 0.435565 0.736581 0.398675
O O3 0.519858 0.778524 0.979114
O O4 0.095255 0.882781 0.674164
O O5 0.408094 0.371273 0.333272
O O6 0.099935 0.608409 0.526348
O O7 0.000000 0.500000 0.000000
O O8 0.882065 0.168954 0.796467
O O9 0.643119 0.060136 0.169060
O O10 0.000000 0.000000 0.500000
O O11 0.592576 0.800912 0.346679
O O12 0.328335 0.019430 0.435415
O O13 0.738182 0.832074 0.852002
O O14 0.048997 0.305275 0.594027
O O15 0.232762 0.219100 0.631646
#
# Coordination Sequence:
#
# PCOD9055821 Si02
#       7
#     2   2   2   2   2   2   2
#     4  11  23  43  75  97 138 182 230 281 345 402
#     4  12  27  47  66 101 143 188 224 280 346 414
#     4  12  21  43  72 104 131 183 229 288 340 398
#     4  11  22  44  73 107 132 178 232 290 337 402
#     4  11  21  43  73  94 138 179 230 275 341 406
#     4  12  27  42  68 105 147 178 227 281 345 409
#     4  11  22  42  73 107 129 177 235 287 336 403
#
# _framework density 25.369226000000001
#
# number of rings (size 3 to 8) (size 9 to 14) (size 15 to 20)
#    0.000    0.571    7.143    1.286    0.000    5.143 
#    2.571    0.000    0.000    0.000    0.000    0.000 
#    0.000    0.000    0.000    0.000    0.000    0.000 
#
# Total GULP energy -78249.578094 kJ/mol
# GULP energy per Si atom -5589.255578 kJ/mol
# Density = 2.531148 g / cm^3
# Si number density = 25.369226 Si / 1000 Ang^3
#
#
#
# Elastic Constant Matrix: (Units=GPa)
#
#
# Indices 1 2 3 4 5 6 
#
# 1 248.7270 62.0664 27.5625 -17.9576 -0.4695 0.3665
# 2 62.0664 101.5349 10.6448 -1.4362 -20.1494 5.1030
# 3 27.5625 10.6448 66.6689 -5.8749 -14.4828 9.2469
# 4 -17.9576 -1.4362 -5.8749 35.9087 5.5565 -1.6998
# 5 -0.4695 -20.1494 -14.4828 5.5565 32.4161 -9.6569
# 6 0.3665 5.1030 9.2469 -1.6998 -9.6569 31.5765
#
#
#
# Elastic Compliance Matrix: (Units=1/GPa)
#
#
# Indices 1 2 3 4 5 6 
#
# 1 0.005398 -0.003766 -0.002212 0.002763 -0.003658 0.000224
# 2 -0.003766 0.013888 0.001163 -0.002614 0.009624 0.000261
# 3 -0.002212 0.001163 0.017862 0.000531 0.007682 -0.003015
# 4 0.002763 -0.002614 0.000531 0.030223 -0.006572 -0.000148
# 5 -0.003658 0.009624 0.007682 -0.006572 0.044131 0.009380
# 6 0.000224 0.000261 -0.003015 -0.000148 0.009380 0.035368
#
#
# Mechanical properties :
#
#
# Convention : Reuss Voigt Hill
#
# Bulk Modulus (GPa) = 36.33853 68.60869 52.47361
# Shear Modulus (GPa) = 30.18007 41.09074 35.63541
#
# Velocity S-wave (km/s) = 3.45285 4.02893 3.75196
# Velocity P-wave (km/s) = 5.50011 6.98182 6.28478
#
# Compressibility (1/GPa) = 0.02751900
#
# Stress axis : x y z
#
# Youngs Moduli (GPa) = 185.26943 72.00248 55.98392
#
# Poissons Ratio (x) = 0.27113 0.12386
# Poissons Ratio (y) = 0.69764 -0.06513
# Poissons Ratio (z) = 0.40989 -0.08376
#
# Static dielectric constant tensor:
#      x y z
#    x 2.248410 -0.029920 -0.195020 
#    y -0.029920 2.037930 -0.008700 
#    z -0.195020 -0.008700 2.248880 
# 
# From -- ./inp_files/190326.got.cif
#   From: 2010.05.17/outbox.cif.g08.bks.cpg/sg2_96_cif.got.tgz:190326.got - 2010.06.03 11:33:40.
