data_PCOD9055581
_publ_section_title
;
Structure prediction by ZEFSAII (Michael W. Deem and Ramdas Pophale) SiO2 
 PCOD9055581
Probable space group: P -1
;
_chemical_formula_sum "Si O2"
_cell_formula_units_Z 14
_cell_length_a 14.312224
_cell_length_b 9.201613
_cell_length_c 9.192366
_cell_angle_alpha 79.574231
_cell_angle_beta 39.123170
_cell_angle_gamma 61.050264
_cell_volume 625.552234
_symmetry_space_group_name_H-M "P -1"
_symmetry_group_IT_number 2
_symmetry_cell_setting 'triclinic'
loop_
_space_group_symop_operation_xyz
x,y,z
-x,-y,-z
loop_
_atom_site_type_symbol
_atom_site_label
_atom_site_fract_x
_atom_site_fract_y
_atom_site_fract_z
Si Si1 0.146932 0.501663 0.419833
Si Si2 0.668828 0.877544 0.608445
Si Si3 0.586446 0.141982 0.270516
Si Si4 0.009188 0.824318 0.073447
Si Si5 0.550393 0.755766 0.267802
Si Si6 0.893361 0.739992 0.939680
Si Si7 0.669420 0.405157 0.053178
O O1 0.283175 0.294290 0.329856
O O2 0.237373 0.580580 0.203649
O O3 0.000000 0.500000 0.500000
O O4 0.046556 0.624695 0.658252
O O5 0.584418 0.860891 0.563790
O O6 0.846805 0.870882 0.366952
O O7 0.518337 0.080818 0.790837
O O8 0.572297 0.177469 0.452756
O O9 0.576774 0.299771 0.167116
O O10 0.763735 0.955706 0.043991
O O11 0.184897 0.702711 0.977075
O O12 0.985916 0.721987 0.986065
O O13 0.000000 0.000000 0.000000
O O14 0.749011 0.689039 0.094323
O O15 0.543264 0.602288 0.229905
#
# Coordination Sequence:
#
# PCOD9055581 Si02
#       7
#     2   2   2   2   2   2   2
#     4  12  26  45  67 101 136 186 225 271 337 408
#     4  11  23  43  69  94 137 175 227 271 343 399
#     4  11  23  44  67 104 135 174 225 284 339 393
#     4  12  22  42  72 107 128 173 232 284 330 392
#     4  11  21  42  70  99 133 177 223 284 336 390
#     4  11  22  43  71 100 134 178 223 280 341 394
#     4  12  26  43  69 101 143 174 229 276 331 411
#
# _framework density 22.380224999999999
#
# number of rings (size 3 to 8) (size 9 to 14) (size 15 to 20)
#    0.000    0.571    7.143    1.286    2.000    2.857 
#    0.000    0.000    0.000    0.000    0.000    0.000 
#    0.000    0.000    0.000    0.000    0.000    0.000 
#
# Total GULP energy -78224.605333 kJ/mol
# GULP energy per Si atom -5587.471810 kJ/mol
# Density = 2.232929 g / cm^3
# Si number density = 22.380225 Si / 1000 Ang^3
#
#
#
# Elastic Constant Matrix: (Units=GPa)
#
#
# Indices 1 2 3 4 5 6 
#
# 1 42.9734 2.0732 4.5929 6.0079 -12.7268 -10.5097
# 2 2.0732 133.9819 53.4445 -7.8519 -4.0390 -7.9017
# 3 4.5929 53.4445 79.8799 -7.3177 3.7770 6.6596
# 4 6.0079 -7.8519 -7.3177 38.5660 8.8662 -5.4752
# 5 -12.7268 -4.0390 3.7770 8.8662 22.7707 -6.4841
# 6 -10.5097 -7.9017 6.6596 -5.4752 -6.4841 37.2211
#
#
#
# Elastic Compliance Matrix: (Units=1/GPa)
#
#
# Indices 1 2 3 4 5 6 
#
# 1 0.041129 0.004789 -0.010013 -0.012914 0.035871 0.018771
# 2 0.004789 0.011627 -0.009132 -0.001131 0.008628 0.006791
# 3 -0.010013 -0.009132 0.021388 0.005963 -0.016080 -0.010517
# 4 -0.012914 -0.001131 0.005963 0.033468 -0.022567 -0.003961
# 5 0.035871 0.008628 -0.016080 -0.022567 0.084417 0.026224
# 6 0.018771 0.006791 -0.010517 -0.003961 0.026224 0.039476
#
#
# Mechanical properties :
#
#
# Convention : Reuss Voigt Hill
#
# Bulk Modulus (GPa) = 22.01120 41.89515 31.95318
# Shear Modulus (GPa) = 18.15810 32.82654 25.49232
#
# Velocity S-wave (km/s) = 2.85150 3.83399 3.37865
# Velocity P-wave (km/s) = 4.54949 6.19352 5.43404
#
# Compressibility (1/GPa) = 0.04543141
#
# Stress axis : x y z
#
# Youngs Moduli (GPa) = 24.31384 86.00937 46.75562
#
# Poissons Ratio (x) = -0.41193 0.46818
# Poissons Ratio (y) = -0.11645 0.42698
# Poissons Ratio (z) = 0.24346 0.78544
#
# Static dielectric constant tensor:
#      x y z
#    x 1.842490 -0.031370 -0.007320 
#    y -0.031370 1.876670 0.007050 
#    z -0.007320 0.007050 1.823260 
# 
# From -- ./inp_files/157390.got.cif
#   From: 2010.05.17/outbox.cif.g08.bks.cpg/sg2_79_cif.got.tgz:157390.got - 2010.06.03 11:33:40.
