data_PCOD9055363
_publ_section_title
;
Structure prediction by ZEFSAII (Michael W. Deem and Ramdas Pophale) SiO2 
 PCOD9055363
Probable space group: P -1
;
_chemical_formula_sum "Si O2"
_cell_formula_units_Z 16
_cell_length_a 14.763436
_cell_length_b 9.340829
_cell_length_c 15.212949
_cell_angle_alpha 94.297435
_cell_angle_beta 151.815494
_cell_angle_gamma 67.378303
_cell_volume 727.714444
_symmetry_space_group_name_H-M "P -1"
_symmetry_group_IT_number 2
_symmetry_cell_setting 'triclinic'
loop_
_space_group_symop_operation_xyz
x,y,z
-x,-y,-z
loop_
_atom_site_type_symbol
_atom_site_label
_atom_site_fract_x
_atom_site_fract_y
_atom_site_fract_z
Si Si1 0.348007 0.803634 0.665637
Si Si2 0.818729 0.501199 0.776317
Si Si3 0.004237 0.540972 0.401422
Si Si4 0.826095 0.769230 0.091288
Si Si5 0.266464 0.781977 0.246264
Si Si6 0.190498 0.905721 0.872846
Si Si7 0.477955 0.599804 0.234123
Si Si8 0.496424 0.344021 0.025944
O O1 0.451888 0.602124 0.704445
O O2 0.313601 0.776096 0.736352
O O3 0.556043 0.825919 0.844051
O O4 0.082327 0.979407 0.402000
O O5 0.513167 0.708201 0.516233
O O6 0.805467 0.341925 0.788895
O O7 0.963263 0.415991 0.800249
O O8 0.000000 0.500000 0.000000
O O9 0.298846 0.415751 0.620529
O O10 0.000000 0.500000 0.500000
O O11 0.887624 0.730524 0.248202
O O12 0.798610 0.530278 0.189088
O O13 0.816935 0.942791 0.072425
O O14 0.411721 0.694308 0.274708
O O15 0.000000 0.000000 0.000000
O O16 0.409014 0.804878 0.978786
O O17 0.243137 0.745350 0.973549
O O18 0.500000 0.500000 0.000000
#
# Coordination Sequence:
#
# PCOD9055363 Si02
#       8
#     2   2   2   2   2   2   2   2
#     4  11  24  44  65  98 141 179 239 282 340 414
#     4  11  24  47  75 102 142 184 234 302 364 421
#     4  11  21  41  69  95 141 183 228 273 340 414
#     4  11  25  44  69 104 136 187 234 282 354 412
#     4  11  25  45  74 105 140 180 238 297 362 424
#     4  12  24  43  69  96 142 182 233 288 342 407
#     4  12  23  46  70  98 139 188 226 288 352 416
#     4  11  23  41  64  98 136 189 233 277 339 407
#
# _framework density 21.986646
#
# number of rings (size 3 to 8) (size 9 to 14) (size 15 to 20)
#    0.000    0.750    5.000    1.875    0.000    6.500 
#    2.250    0.000    0.000    0.000    0.000    0.000 
#    0.000    0.000    0.000    0.000    0.000    0.000 
#
# Total GULP energy -89103.673094 kJ/mol
# GULP energy per Si atom -5568.979568 kJ/mol
# Density = 2.193660 g / cm^3
# Si number density = 21.986646 Si / 1000 Ang^3
#
#
#
# Elastic Constant Matrix: (Units=GPa)
#
#
# Indices 1 2 3 4 5 6 
#
# 1 73.9345 8.0173 32.4583 6.6600 -3.5630 1.6054
# 2 8.0173 41.3153 38.1404 7.7357 7.4500 -10.9583
# 3 32.4583 38.1404 186.3844 4.9696 -5.6513 8.3351
# 4 6.6600 7.7357 4.9696 23.8639 7.2703 -3.7811
# 5 -3.5630 7.4500 -5.6513 7.2703 23.1828 0.3700
# 6 1.6054 -10.9583 8.3351 -3.7811 0.3700 31.4970
#
#
#
# Elastic Compliance Matrix: (Units=1/GPa)
#
#
# Indices 1 2 3 4 5 6 
#
# 1 0.015212 -0.001063 -0.002140 -0.004763 0.003671 -0.001194
# 2 -0.001063 0.040541 -0.009172 -0.003954 -0.014447 0.016281
# 3 -0.002140 -0.009172 0.008007 -0.000393 0.004779 -0.005304
# 4 -0.004763 -0.003954 -0.000393 0.050092 -0.015349 0.005165
# 5 0.003671 -0.014447 0.004779 -0.015349 0.054464 -0.008960
# 6 -0.001194 0.016281 -0.005304 0.005165 -0.008960 0.039603
#
#
# Mechanical properties :
#
#
# Convention : Reuss Voigt Hill
#
# Bulk Modulus (GPa) = 25.63384 50.98511 38.30947
# Shear Modulus (GPa) = 20.35233 30.57662 25.46447
#
# Velocity S-wave (km/s) = 3.04578 3.73324 3.40690
# Velocity P-wave (km/s) = 4.90440 6.46701 5.73914
#
# Compressibility (1/GPa) = 0.03901093
#
# Stress axis : x y z
#
# Youngs Moduli (GPa) = 65.73735 24.66635 124.88605
#
# Poissons Ratio (x) = 0.02623 0.26724
# Poissons Ratio (y) = 0.06990 1.14540
# Poissons Ratio (z) = 0.14067 0.22623
#
# Static dielectric constant tensor:
#      x y z
#    x 1.830580 0.028770 -0.014240 
#    y 0.028770 1.837490 -0.040010 
#    z -0.014240 -0.040010 1.910290 
# 
# From -- ./inp_files/529827.got.cif
#   From: 2010.05.17/outbox.cif.g08.bks.cpg/sg2_265_cif.got.tgz:529827.got - 2010.06.03 11:33:40.
