data_PCOD9055673
_publ_section_title
;
Structure prediction by ZEFSAII (Michael W. Deem and Ramdas Pophale) SiO2 
 PCOD9055673
Probable space group: P -1
;
_chemical_formula_sum "Si O2"
_cell_formula_units_Z 14
_cell_length_a 13.235340
_cell_length_b 7.000038
_cell_length_c 8.578510
_cell_angle_alpha 56.440067
_cell_angle_beta 100.144855
_cell_angle_gamma 123.201991
_cell_volume 544.966439
_symmetry_space_group_name_H-M "P -1"
_symmetry_group_IT_number 2
_symmetry_cell_setting 'triclinic'
loop_
_space_group_symop_operation_xyz
x,y,z
-x,-y,-z
loop_
_atom_site_type_symbol
_atom_site_label
_atom_site_fract_x
_atom_site_fract_y
_atom_site_fract_z
Si Si1 0.010179 0.765999 0.807885
Si Si2 0.746582 0.550777 0.736770
Si Si3 0.493954 0.243173 0.954992
Si Si4 0.804355 0.710898 0.168675
Si Si5 0.109266 0.668789 0.577490
Si Si6 0.282827 0.983353 0.205938
Si Si7 0.626464 0.611881 0.390908
O O1 0.876812 0.714663 0.779642
O O2 0.060250 0.783332 0.640260
O O3 0.100998 0.039562 0.805145
O O4 0.000000 0.500000 0.000000
O O5 0.635433 0.479089 0.857561
O O6 0.741308 0.285959 0.776233
O O7 0.718884 0.683643 0.524567
O O8 0.391769 0.215413 0.820176
O O9 0.500000 0.000000 0.000000
O O10 0.431529 0.187479 0.132045
O O11 0.861572 0.533269 0.232114
O O12 0.679935 0.496216 0.331186
O O13 0.778886 0.871428 0.958791
O O14 0.225249 0.881930 0.406331
O O15 0.000000 0.500000 0.500000
O O16 0.500000 0.500000 0.500000
#
# Coordination Sequence:
#
# PCOD9055673 Si02
#       7
#     2   2   2   2   2   2   2
#     4  12  25  42  64  96 133 172 214 259 318 387
#     4  10  17  36  58  92 128 162 213 266 308 381
#     4   8  17  30  60  91 121 164 211 265 315 373
#     4  11  23  42  65  93 130 171 210 262 327 374
#     4  12  24  41  63  94 131 167 216 265 311 383
#     4  10  19  39  62  95 124 164 219 263 317 379
#     4   9  17  32  61  95 121 160 217 259 313 376
#
# _framework density 25.689657
#
# number of rings (size 3 to 8) (size 9 to 14) (size 15 to 20)
#    0.000    1.714    4.286    0.000    0.000    4.571 
#    0.000    1.429    0.000    3.429    0.000   15.000 
#    0.000    0.000    0.000    0.000    0.000    0.000 
#
# Total GULP energy -78091.823885 kJ/mol
# GULP energy per Si atom -5577.987420 kJ/mol
# Density = 2.563119 g / cm^3
# Si number density = 25.689657 Si / 1000 Ang^3
#
#
#
# Elastic Constant Matrix: (Units=GPa)
#
#
# Indices 1 2 3 4 5 6 
#
# 1 192.1159 50.4540 94.5726 2.9227 5.0083 -13.3132
# 2 50.4540 80.4827 38.9312 11.4236 -6.1973 -0.1841
# 3 94.5726 38.9312 129.0272 3.2207 -9.9142 8.6744
# 4 2.9227 11.4236 3.2207 26.5466 -0.2781 -7.7518
# 5 5.0083 -6.1973 -9.9142 -0.2781 63.3758 9.4456
# 6 -13.3132 -0.1841 8.6744 -7.7518 9.4456 37.4396
#
#
#
# Elastic Compliance Matrix: (Units=1/GPa)
#
#
# Indices 1 2 3 4 5 6 
#
# 1 0.010184 -0.003618 -0.007160 0.003244 -0.003272 0.006760
# 2 -0.003618 0.016808 -0.001891 -0.007404 0.002020 -0.002808
# 3 -0.007160 -0.001891 0.014400 -0.002235 0.003710 -0.007291
# 4 0.003244 -0.007404 -0.002235 0.044093 -0.002848 0.011483
# 5 -0.003272 0.002020 0.003710 -0.002848 0.017862 -0.007109
# 6 0.006760 -0.002808 -0.007291 0.011483 -0.007109 0.034960
#
#
# Mechanical properties :
#
#
# Convention : Reuss Voigt Hill
#
# Bulk Modulus (GPa) = 62.28756 85.50460 73.89608
# Shear Modulus (GPa) = 29.58649 39.98360 34.78504
#
# Velocity S-wave (km/s) = 3.39734 3.94941 3.68373
# Velocity P-wave (km/s) = 6.29984 7.35888 6.84986
#
# Compressibility (1/GPa) = 0.01605457
#
# Stress axis : x y z
#
# Youngs Moduli (GPa) = 98.18961 59.49663 69.44520
#
# Poissons Ratio (x) = 0.21526 0.49723
# Poissons Ratio (y) = 0.35525 0.13130
# Poissons Ratio (z) = 0.70304 0.11249
#
# Static dielectric constant tensor:
#      x y z
#    x 1.767270 0.016220 -0.150010 
#    y 0.016220 2.119100 -0.047610 
#    z -0.150010 -0.047610 2.084810 
# 
# From -- ./inp_files/219582.got.cif
#   From: 2010.05.17/outbox.cif.g08.bks.cpg/sg2_110_cif.got.tgz:219582.got - 2010.06.03 11:33:40.
