data_PCOD9055066
_publ_section_title
;
Structure prediction by ZEFSAII (Michael W. Deem and Ramdas Pophale) SiO2 
 PCOD9055066
Probable space group: P -1
;
_chemical_formula_sum "Si O2"
_cell_formula_units_Z 12
_cell_length_a 11.380268
_cell_length_b 6.608935
_cell_length_c 10.693393
_cell_angle_alpha 86.370142
_cell_angle_beta 40.676623
_cell_angle_gamma 78.006391
_cell_volume 507.130112
_symmetry_space_group_name_H-M "P -1"
_symmetry_group_IT_number 2
_symmetry_cell_setting 'triclinic'
loop_
_space_group_symop_operation_xyz
x,y,z
-x,-y,-z
loop_
_atom_site_type_symbol
_atom_site_label
_atom_site_fract_x
_atom_site_fract_y
_atom_site_fract_z
Si Si1 0.121389 0.935419 0.126875
Si Si2 0.828124 0.416111 0.094502
Si Si3 0.799008 0.346924 0.388212
Si Si4 0.090555 0.324975 0.534905
Si Si5 0.527714 0.802717 0.880614
Si Si6 0.506754 0.649075 0.172761
O O1 0.056561 0.800368 0.295214
O O2 0.984447 0.161731 0.234255
O O3 0.105565 0.805326 0.019814
O O4 0.336990 0.929955 0.967589
O O5 0.721194 0.392070 0.309471
O O6 0.699435 0.572363 0.094937
O O7 0.000000 0.500000 0.000000
O O8 0.848603 0.550157 0.402327
O O9 0.654951 0.275401 0.598709
O O10 0.273846 0.177137 0.330690
O O11 0.000000 0.500000 0.500000
O O12 0.532024 0.564415 0.842889
O O13 0.511101 0.794565 0.044301
#
# Coordination Sequence:
#
# PCOD9055066 Si02
#       6
#     2   2   2   2   2   2
#     4  11  23  43  63  96 130 159 210 261 310 371
#     4  11  21  40  65  89 124 168 209 253 314 370
#     4  11  23  40  65  93 124 167 209 257 311 371
#     4  11  22  40  66  91 127 170 205 252 315 369
#     4   9  20  39  63  93 126 161 206 259 308 370
#     4   9  19  38  63  88 123 164 206 256 308 366
#
# _framework density 23.662566999999999
#
# number of rings (size 3 to 8) (size 9 to 14) (size 15 to 20)
#    0.000    1.667    1.667    5.000    0.000    2.667 
#    3.000    2.500    0.000    0.000    0.000    0.000 
#    0.000    0.000    0.000    0.000    0.000    0.000 
#
# Total GULP energy -67206.011385 kJ/mol
# GULP energy per Si atom -5600.500949 kJ/mol
# Density = 2.360871 g / cm^3
# Si number density = 23.662567 Si / 1000 Ang^3
#
#
#
# Elastic Constant Matrix: (Units=GPa)
#
#
# Indices 1 2 3 4 5 6 
#
# 1 89.7588 9.4726 55.2650 -2.4235 13.2964 -2.3279
# 2 9.4726 57.5625 24.9355 4.3799 5.1007 -10.8261
# 3 55.2650 24.9355 169.1465 22.2500 7.8831 -5.1588
# 4 -2.4235 4.3799 22.2500 38.4620 -6.0940 1.8182
# 5 13.2964 5.1007 7.8831 -6.0940 43.5822 -3.2159
# 6 -2.3279 -10.8261 -5.1588 1.8182 -3.2159 41.0065
#
#
#
# Elastic Compliance Matrix: (Units=1/GPa)
#
#
# Indices 1 2 3 4 5 6 
#
# 1 0.014883 -0.000259 -0.005143 0.003461 -0.003116 -0.000268
# 2 -0.000259 0.019604 -0.002408 -0.001338 -0.001613 0.004791
# 3 -0.005143 -0.002408 0.008653 -0.005137 -0.000406 0.000357
# 4 0.003461 -0.001338 -0.005137 0.030077 0.004101 -0.001815
# 5 -0.003116 -0.001613 -0.000406 0.004101 0.024813 0.001110
# 6 -0.000268 0.004791 0.000357 -0.001815 0.001110 0.025848
#
#
# Mechanical properties :
#
#
# Convention : Reuss Voigt Hill
#
# Bulk Modulus (GPa) = 36.33746 55.09045 45.71395
# Shear Modulus (GPa) = 33.63116 39.72979 36.68048
#
# Velocity S-wave (km/s) = 3.77408 4.10202 3.94146
# Velocity P-wave (km/s) = 5.86357 6.76518 6.33045
#
# Compressibility (1/GPa) = 0.02751981
#
# Stress axis : x y z
#
# Youngs Moduli (GPa) = 67.19176 51.00998 115.56959
#
# Poissons Ratio (x) = 0.01322 0.59434
# Poissons Ratio (y) = 0.01741 0.27830
# Poissons Ratio (z) = 0.34555 0.12284
#
# Static dielectric constant tensor:
#      x y z
#    x 1.865830 0.025200 0.027650 
#    y 0.025200 1.952240 -0.012420 
#    z 0.027650 -0.012420 1.905330 
# 
# From -- ./inp_files/417259.got.cif
#   From: 2010.05.17/outbox.cif.g08.bks.cpg/sg2_209_cif.got.tgz:417259.got - 2010.06.03 11:33:40.
