data_PCOD9055079
_publ_section_title
;
Structure prediction by ZEFSAII (Michael W. Deem and Ramdas Pophale) SiO2 
 PCOD9055079
Probable space group: P -1
;
_chemical_formula_sum "Si O2"
_cell_formula_units_Z 13
_cell_length_a 15.260284
_cell_length_b 14.436064
_cell_length_c 9.196549
_cell_angle_alpha 42.202096
_cell_angle_beta 36.966878
_cell_angle_gamma 28.310585
_cell_volume 572.815344
_symmetry_space_group_name_H-M "P -1"
_symmetry_group_IT_number 2
_symmetry_cell_setting 'triclinic'
loop_
_space_group_symop_operation_xyz
x,y,z
-x,-y,-z
loop_
_atom_site_type_symbol
_atom_site_label
_atom_site_fract_x
_atom_site_fract_y
_atom_site_fract_z
Si Si1 0.500000 0.000000 0.500000
Si Si2 0.591038 0.426829 0.701596
Si Si3 0.969887 0.566596 0.795275
Si Si4 0.333840 0.993816 0.262907
Si Si5 0.738105 0.027498 0.941727
Si Si6 0.441296 0.286724 0.439455
Si Si7 0.199377 0.603004 0.833050
O O1 0.547991 0.117676 0.376611
O O2 0.583368 0.011940 0.220805
O O3 0.694099 0.209695 0.846317
O O4 0.571172 0.540272 0.733268
O O5 0.367290 0.545993 0.788729
O O6 0.724220 0.411757 0.414163
O O7 0.866493 0.786125 0.671587
O O8 0.197978 0.409008 0.608524
O O9 0.824995 0.545685 0.944541
O O10 0.000000 0.500000 0.000000
O O11 0.282921 0.950244 0.232023
O O12 0.442072 0.827160 0.432359
O O13 0.500000 0.000000 0.000000
O O14 0.971764 0.819962 0.906398
#
# Coordination Sequence:
#
# PCOD9055079 Si02
#       7
#     1   2   2   2   2   2   2
#     4  12  26  46  68  92 136 184 224 266 320 404
#     4  11  24  39  68  99 136 166 215 280 342 381
#     4  12  19  36  67  99 134 167 220 271 328 383
#     4  12  19  36  69  98 125 163 219 278 315 375
#     4  12  24  42  68  98 137 174 215 270 334 393
#     4  12  25  44  65 100 131 173 225 274 324 393
#     4  11  21  40  66 107 133 163 218 282 332 391
#
# _framework density 22.694921999999998
#
# number of rings (size 3 to 8) (size 9 to 14) (size 15 to 20)
#    0.000    0.308    7.692    3.231    0.000    1.846 
#    0.000    3.846    0.000    0.000    0.000    0.000 
#    0.000    0.000    0.000    0.000    0.000    0.000 
#
# Total GULP energy -72487.381753 kJ/mol
# GULP energy per Si atom -5575.952443 kJ/mol
# Density = 2.264327 g / cm^3
# Si number density = 22.694922 Si / 1000 Ang^3
#
#
#
# Elastic Constant Matrix: (Units=GPa)
#
#
# Indices 1 2 3 4 5 6 
#
# 1 96.8362 33.6869 24.8034 -4.0450 -23.8184 40.1744
# 2 33.6869 121.7382 19.1371 -27.2150 -3.9530 20.0823
# 3 24.8034 19.1371 66.2454 -21.4574 -6.8665 -1.2781
# 4 -4.0450 -27.2150 -21.4574 1.6113 6.2338 -25.3402
# 5 -23.8184 -3.9530 -6.8665 6.2338 25.1927 -2.3167
# 6 40.1744 20.0823 -1.2781 -25.3402 -2.3167 44.2756
#
#
#
# Elastic Compliance Matrix: (Units=1/GPa)
#
#
# Indices 1 2 3 4 5 6 
#
# 1 0.012857 0.000687 0.001708 0.018212 0.008123 -0.001080
# 2 0.000687 0.009072 -0.003849 -0.002984 0.001165 -0.006496
# 3 0.001708 -0.003849 0.012404 -0.011582 0.006731 -0.005722
# 4 0.018212 -0.002984 -0.011582 -0.021007 0.016339 -0.026674
# 5 0.008123 0.001165 0.006731 0.016339 0.045720 0.004039
# 6 -0.001080 -0.006496 -0.005722 -0.026674 0.004039 0.011292
#
#
# Mechanical properties :
#
#
# Convention : Reuss Voigt Hill
#
# Bulk Modulus (GPa) = 31.82276 48.89717 40.35997
# Shear Modulus (GPa) = 59.72235 28.02875 43.87555
#
# Velocity S-wave (km/s) = 5.13541 3.51810 4.40167
# Velocity P-wave (km/s) = 7.01539 6.17211 6.60721
#
# Compressibility (1/GPa) = 0.03142405
#
# Stress axis : x y z
#
# Youngs Moduli (GPa) = 77.77792 110.23402 80.62165
#
# Poissons Ratio (x) = -0.07574 -0.13769
# Poissons Ratio (y) = -0.05344 0.31032
# Poissons Ratio (z) = -0.13283 0.42430
#
# Static dielectric constant tensor:
#      x y z
#    x 1.833350 0.050720 0.003050 
#    y 0.050720 1.925560 0.026450 
#    z 0.003050 0.026450 1.861300 
# 
# From -- ./inp_files/310896.got.cif
#   From: 2010.05.17/outbox.cif.g08.bks.cpg/sg2_156_cif.got.tgz:310896.got - 2010.06.03 11:33:40.
