data_PCOD9055571
_publ_section_title
;
Structure prediction by ZEFSAII (Michael W. Deem and Ramdas Pophale) SiO2 
 PCOD9055571
Probable space group: P -1
;
_chemical_formula_sum "Si O2"
_cell_formula_units_Z 16
_cell_length_a 9.878372
_cell_length_b 7.981112
_cell_length_c 22.454855
_cell_angle_alpha 61.777470
_cell_angle_beta 28.994755
_cell_angle_gamma 61.385325
_cell_volume 747.235915
_symmetry_space_group_name_H-M "P -1"
_symmetry_group_IT_number 2
_symmetry_cell_setting 'triclinic'
loop_
_space_group_symop_operation_xyz
x,y,z
-x,-y,-z
loop_
_atom_site_type_symbol
_atom_site_label
_atom_site_fract_x
_atom_site_fract_y
_atom_site_fract_z
Si Si1 0.383202 0.126875 0.078311
Si Si2 0.229484 0.197754 0.470006
Si Si3 0.586276 0.474773 0.875742
Si Si4 0.185958 0.854032 0.995376
Si Si5 0.151322 0.375512 0.749268
Si Si6 0.754493 0.231884 0.334496
Si Si7 0.270839 0.771267 0.512973
Si Si8 0.124707 0.495847 0.358024
O O1 0.584470 0.062099 0.067034
O O2 0.062232 0.122127 0.219104
O O3 0.427631 0.337415 0.001347
O O4 0.500000 0.000000 0.000000
O O5 0.517480 0.143970 0.405402
O O6 0.269234 0.334523 0.375833
O O7 0.024276 0.328462 0.573399
O O8 0.141327 0.996503 0.516458
O O9 0.381635 0.676648 0.918216
O O10 0.677988 0.426384 0.780681
O O11 0.884138 0.471855 0.796078
O O12 0.973161 0.772494 0.136012
O O13 0.000000 0.000000 0.000000
O O14 0.255133 0.545872 0.718366
O O15 0.413583 0.274361 0.627075
O O16 0.712240 0.249780 0.418602
O O17 0.093955 0.620533 0.574443
#
# Coordination Sequence:
#
# PCOD9055571 Si02
#       8
#     2   2   2   2   2   2   2   2
#     4  11  25  43  67 100 131 174 224 277 328 398
#     4  11  27  41  64 105 138 169 226 283 330 403
#     4  11  22  45  71  92 132 182 221 269 336 400
#     4  11  24  44  68  97 131 174 230 271 327 405
#     4  11  21  42  70  95 129 178 224 271 331 396
#     4  12  22  45  66  96 132 175 230 273 327 405
#     4  12  24  42  73  96 130 183 229 269 336 401
#     4  11  24  46  65  97 143 177 214 281 348 386
#
# _framework density 21.412246
#
# number of rings (size 3 to 8) (size 9 to 14) (size 15 to 20)
#    0.000    0.750    5.000    2.625    7.000    0.000 
#    4.500    1.250    0.000    0.000    0.000    0.000 
#    0.000    0.000    0.000    0.000    0.000    0.000 
#
# Total GULP energy -89414.726969 kJ/mol
# GULP energy per Si atom -5588.420436 kJ/mol
# Density = 2.136351 g / cm^3
# Si number density = 21.412246 Si / 1000 Ang^3
#
#
#
# Elastic Constant Matrix: (Units=GPa)
#
#
# Indices 1 2 3 4 5 6 
#
# 1 78.2972 29.9792 26.5092 16.6807 11.5280 -21.7406
# 2 29.9792 102.1640 15.5311 23.1577 -5.6336 -10.7983
# 3 26.5092 15.5311 95.5813 26.5860 20.1346 -11.1929
# 4 16.6807 23.1577 26.5860 27.9508 6.8607 8.2000
# 5 11.5280 -5.6336 20.1346 6.8607 21.1719 -3.5053
# 6 -21.7406 -10.7983 -11.1929 8.2000 -3.5053 38.9425
#
#
#
# Elastic Compliance Matrix: (Units=1/GPa)
#
#
# Indices 1 2 3 4 5 6 
#
# 1 0.021103 -0.001731 0.001768 -0.015590 -0.006174 0.014536
# 2 -0.001731 0.016021 0.002078 -0.019650 0.011122 0.009212
# 3 0.001768 0.002078 0.018897 -0.021509 -0.009646 0.010655
# 4 -0.015590 -0.019650 -0.021509 0.097918 -0.015019 -0.042304
# 5 -0.006174 0.011122 -0.009646 -0.015019 0.068621 0.006204
# 6 0.014536 0.009212 0.010655 -0.042304 0.006204 0.048877
#
#
# Mechanical properties :
#
#
# Convention : Reuss Voigt Hill
#
# Bulk Modulus (GPa) = 16.59739 46.67570 31.63654
# Shear Modulus (GPa) = 17.40388 31.21456 24.30922
#
# Velocity S-wave (km/s) = 2.85406 3.82224 3.37307
# Velocity P-wave (km/s) = 4.31614 6.42848 5.47514
#
# Compressibility (1/GPa) = 0.06025044
#
# Stress axis : x y z
#
# Youngs Moduli (GPa) = 47.38694 62.41638 52.91844
#
# Poissons Ratio (x) = 0.10807 -0.09354
# Poissons Ratio (y) = 0.08205 -0.10999
# Poissons Ratio (z) = -0.08376 -0.12973
#
# Static dielectric constant tensor:
#      x y z
#    x 1.762610 0.011910 -0.018020 
#    y 0.011910 1.834800 -0.062560 
#    z -0.018020 -0.062560 1.779810 
# 
# From -- ./inp_files/206839.got.cif
#   From: 2010.05.17/outbox.cif.g08.bks.cpg/sg2_104_cif.got.tgz:206839.got - 2010.06.03 11:33:40.
