data_PCOD9055466
_publ_section_title
;
Structure prediction by ZEFSAII (Michael W. Deem and Ramdas Pophale) SiO2 
 PCOD9055466
Probable space group: P -1
;
_chemical_formula_sum "Si O2"
_cell_formula_units_Z 16
_cell_length_a 13.207290
_cell_length_b 9.443311
_cell_length_c 20.225881
_cell_angle_alpha 45.960055
_cell_angle_beta 141.573306
_cell_angle_gamma 103.652695
_cell_volume 815.088104
_symmetry_space_group_name_H-M "P -1"
_symmetry_group_IT_number 2
_symmetry_cell_setting 'triclinic'
loop_
_space_group_symop_operation_xyz
x,y,z
-x,-y,-z
loop_
_atom_site_type_symbol
_atom_site_label
_atom_site_fract_x
_atom_site_fract_y
_atom_site_fract_z
Si Si1 0.119396 0.325210 0.051519
Si Si2 0.993762 0.778753 0.285632
Si Si3 0.782812 0.828859 0.382604
Si Si4 0.495778 0.127420 0.888844
Si Si5 0.133705 0.780143 0.499218
Si Si6 0.348029 0.257904 0.388602
Si Si7 0.657051 0.274173 0.599467
Si Si8 0.599813 0.065571 0.358416
O O1 0.326176 0.295138 0.146758
O O2 0.214480 0.026882 0.210267
O O3 0.000000 0.500000 0.000000
O O4 0.910962 0.498765 0.839369
O O5 0.058718 0.497716 0.425151
O O6 0.024117 0.873649 0.339238
O O7 0.171267 0.715757 0.345709
O O8 0.748680 0.996325 0.057351
O O9 0.589597 0.933319 0.196556
O O10 0.936243 0.876033 0.416763
O O11 0.682037 0.961095 0.359835
O O12 0.318492 0.452142 0.698076
O O13 0.500000 0.000000 0.000000
O O14 0.265835 0.862855 0.564455
O O15 0.485867 0.344590 0.432407
O O16 0.500000 0.000000 0.500000
O O17 0.351052 0.156589 0.495087
O O18 0.500000 0.500000 0.500000
#
# Coordination Sequence:
#
# PCOD9055466 Si02
#       8
#     2   2   2   2   2   2   2   2
#     4  11  24  43  67  95 132 172 219 263 322 396
#     4  11  22  39  69  91 123 172 215 255 321 383
#     4  11  23  43  61  94 132 165 207 268 324 379
#     4  11  21  42  65  88 124 169 215 263 312 382
#     4  11  23  39  66  92 125 170 219 256 315 395
#     4  11  22  44  67  89 134 175 213 267 319 390
#     4  11  25  41  65 101 132 163 219 276 325 379
#     4  11  25  40  65  97 131 167 214 266 332 373
#
# _framework density 19.629778999999999
#
# number of rings (size 3 to 8) (size 9 to 14) (size 15 to 20)
#    0.000    1.000    5.000    3.375    1.750    3.500 
#    0.000    0.625    0.000    0.000    0.000    0.000 
#    0.000    0.000    0.000    0.000    0.000    0.000 
#
# Total GULP energy -89332.742803 kJ/mol
# GULP energy per Si atom -5583.296425 kJ/mol
# Density = 1.958510 g / cm^3
# Si number density = 19.629779 Si / 1000 Ang^3
#
#
#
# Elastic Constant Matrix: (Units=GPa)
#
#
# Indices 1 2 3 4 5 6 
#
# 1 109.1694 6.7453 33.3775 4.4020 27.2184 -6.5476
# 2 6.7453 56.5334 21.0775 2.1666 12.6340 -6.1683
# 3 33.3775 21.0775 135.9918 24.0286 21.0613 1.8567
# 4 4.4020 2.1666 24.0286 28.6351 7.4330 8.3945
# 5 27.2184 12.6340 21.0613 7.4330 35.1021 4.0016
# 6 -6.5476 -6.1683 1.8567 8.3945 4.0016 36.7666
#
#
#
# Elastic Compliance Matrix: (Units=1/GPa)
#
#
# Indices 1 2 3 4 5 6 
#
# 1 0.012196 0.001747 -0.002053 0.001203 -0.009488 0.003327
# 2 0.001747 0.020705 -0.002669 0.001145 -0.007964 0.004525
# 3 -0.002053 -0.002669 0.009867 -0.007454 -0.001857 0.000593
# 4 0.001203 0.001145 -0.007454 0.044904 -0.005368 -0.008885
# 5 -0.009488 -0.007964 -0.001857 -0.005368 0.041675 -0.006242
# 6 0.003327 0.004525 0.000593 -0.008885 -0.006242 0.031228
#
#
# Mechanical properties :
#
#
# Convention : Reuss Voigt Hill
#
# Bulk Modulus (GPa) = 27.15856 47.12171 37.14013
# Shear Modulus (GPa) = 27.96461 36.13371 32.04916
#
# Velocity S-wave (km/s) = 3.77848 4.29506 4.04503
# Velocity P-wave (km/s) = 5.73597 6.97525 6.38574
#
# Compressibility (1/GPa) = 0.03682081
#
# Stress axis : x y z
#
# Youngs Moduli (GPa) = 81.99114 48.29804 101.34282
#
# Poissons Ratio (x) = -0.08440 0.20804
# Poissons Ratio (y) = -0.14328 0.27044
# Poissons Ratio (z) = 0.16831 0.12889
#
# Static dielectric constant tensor:
#      x y z
#    x 1.673600 0.019800 -0.004080 
#    y 0.019800 1.681900 0.040170 
#    z -0.004080 0.040170 1.742310 
# 
# From -- ./inp_files/279911.got.cif
#   From: 2010.05.17/outbox.cif.g08.bks.cpg/sg2_140_cif.got.tgz:279911.got - 2010.06.03 11:33:40.
