data_PCOD9055441
_publ_section_title
;
Structure prediction by ZEFSAII (Michael W. Deem and Ramdas Pophale) SiO2 
 PCOD9055441
Probable space group: P -1
;
_chemical_formula_sum "Si O2"
_cell_formula_units_Z 16
_cell_length_a 11.420785
_cell_length_b 11.628655
_cell_length_c 8.420318
_cell_angle_alpha 92.723300
_cell_angle_beta 125.604351
_cell_angle_gamma 118.157333
_cell_volume 716.065462
_symmetry_space_group_name_H-M "P -1"
_symmetry_group_IT_number 2
_symmetry_cell_setting 'triclinic'
loop_
_space_group_symop_operation_xyz
x,y,z
-x,-y,-z
loop_
_atom_site_type_symbol
_atom_site_label
_atom_site_fract_x
_atom_site_fract_y
_atom_site_fract_z
Si Si1 0.558789 0.512152 0.723161
Si Si2 0.211855 0.325885 0.639098
Si Si3 0.909337 0.537047 0.056927
Si Si4 0.663563 0.998248 0.827355
Si Si5 0.295812 0.633726 0.827783
Si Si6 0.188887 0.825624 0.729528
Si Si7 0.252127 0.857024 0.440673
Si Si8 0.316694 0.207396 0.973862
O O1 0.500000 0.500000 0.500000
O O2 0.389982 0.377690 0.682048
O O3 0.748573 0.539143 0.870112
O O4 0.595924 0.652900 0.838048
O O5 0.254073 0.478877 0.740131
O O6 0.194395 0.222810 0.758832
O O7 0.018218 0.241947 0.395500
O O8 0.797580 0.402566 0.079142
O O9 0.070261 0.691346 0.269387
O O10 0.000000 0.500000 0.000000
O O11 0.741896 0.073065 0.721038
O O12 0.446086 0.885097 0.610594
O O13 0.693265 0.095450 0.012644
O O14 0.747328 0.923018 0.965432
O O15 0.204586 0.699499 0.678893
O O16 0.511320 0.757378 0.987098
O O17 0.238038 0.913084 0.606480
#
# Coordination Sequence:
#
# PCOD9055441 Si02
#       8
#     2   2   2   2   2   2   2   2
#     4  11  25  42  67 108 144 177 228 297 377 426
#     4  11  23  45  72 103 146 182 232 300 365 427
#     4  12  25  42  72 109 140 177 239 303 364 425
#     4  11  27  46  70 102 148 199 244 286 347 424
#     4  11  21  41  74 102 138 182 233 300 354 416
#     4  12  24  44  75 107 140 193 248 286 357 423
#     4  11  25  47  67 105 148 183 248 302 336 420
#     4  11  22  48  70  97 150 189 230 289 360 428
#
# _framework density 22.344327
#
# number of rings (size 3 to 8) (size 9 to 14) (size 15 to 20)
#    0.000    0.750    5.000    2.250    5.250    0.500 
#    2.250    2.500    0.000    0.000    0.000    0.000 
#    0.000    0.000    0.000    0.000    0.000    0.000 
#
# Total GULP energy -89152.203386 kJ/mol
# GULP energy per Si atom -5572.012712 kJ/mol
# Density = 2.229347 g / cm^3
# Si number density = 22.344327 Si / 1000 Ang^3
#
#
#
# Elastic Constant Matrix: (Units=GPa)
#
#
# Indices 1 2 3 4 5 6 
#
# 1 135.4437 40.5120 45.8364 -17.1286 19.3280 36.5569
# 2 40.5120 105.9103 49.9457 -43.9322 12.5623 16.9683
# 3 45.8364 49.9457 135.7533 -21.8124 10.0759 -0.1894
# 4 -17.1286 -43.9322 -21.8124 30.3051 -0.0039 -15.6452
# 5 19.3280 12.5623 10.0759 -0.0039 53.3636 16.6942
# 6 36.5569 16.9683 -0.1894 -15.6452 16.6942 73.2479
#
#
#
# Elastic Compliance Matrix: (Units=1/GPa)
#
#
# Indices 1 2 3 4 5 6 
#
# 1 0.010295 -0.002979 -0.002803 -0.003038 -0.000971 -0.004883
# 2 -0.002979 0.028560 -0.002478 0.040550 -0.006758 0.005066
# 3 -0.002803 -0.002478 0.009880 0.003494 -0.001212 0.003021
# 4 -0.003038 0.040550 0.003494 0.101396 -0.014441 0.017080
# 5 -0.000971 -0.006758 -0.001212 -0.014441 0.022865 -0.006249
# 6 -0.004883 0.005066 0.003021 0.017080 -0.006249 0.019996
#
#
# Mechanical properties :
#
#
# Convention : Reuss Voigt Hill
#
# Bulk Modulus (GPa) = 31.04037 72.18838 51.61438
# Shear Modulus (GPa) = 22.70156 47.43754 35.06955
#
# Velocity S-wave (km/s) = 3.19091 4.61263 3.96600
# Velocity P-wave (km/s) = 5.24384 7.79396 6.64243
#
# Compressibility (1/GPa) = 0.03221611
#
# Stress axis : x y z
#
# Youngs Moduli (GPa) = 97.13488 35.01362 101.21483
#
# Poissons Ratio (x) = 0.10430 0.28370
# Poissons Ratio (y) = 0.28934 0.25080
# Poissons Ratio (z) = 0.27227 0.08676
#
# Static dielectric constant tensor:
#      x y z
#    x 1.793510 0.075230 -0.070430 
#    y 0.075230 1.793550 0.048240 
#    z -0.070430 0.048240 1.788270 
# 
# From -- ./inp_files/262639.got.cif
#   From: 2010.05.17/outbox.cif.g08.bks.cpg/sg2_132_cif.got.tgz:262639.got - 2010.06.03 11:33:40.
