data_PCOD9055222
_publ_section_title
;
Structure prediction by ZEFSAII (Michael W. Deem and Ramdas Pophale) SiO2 
 PCOD9055222
Probable space group: P -1
;
_chemical_formula_sum "Si O2"
_cell_formula_units_Z 14
_cell_length_a 14.864541
_cell_length_b 15.229744
_cell_length_c 8.416485
_cell_angle_alpha 129.514969
_cell_angle_beta 111.258512
_cell_angle_gamma 28.432087
_cell_volume 590.721746
_symmetry_space_group_name_H-M "P -1"
_symmetry_group_IT_number 2
_symmetry_cell_setting 'triclinic'
loop_
_space_group_symop_operation_xyz
x,y,z
-x,-y,-z
loop_
_atom_site_type_symbol
_atom_site_label
_atom_site_fract_x
_atom_site_fract_y
_atom_site_fract_z
Si Si1 0.600891 0.507962 0.140946
Si Si2 0.008930 0.785162 0.047414
Si Si3 0.499843 0.629433 0.588432
Si Si4 0.863925 0.395647 0.726717
Si Si5 0.680735 0.828516 0.055978
Si Si6 0.098630 0.438743 0.655674
Si Si7 0.325884 0.005686 0.464299
O O1 0.530642 0.597292 0.381235
O O2 0.495776 0.723222 0.218438
O O3 0.500000 0.500000 0.000000
O O4 0.866975 0.240797 0.984526
O O5 0.050332 0.748249 0.220022
O O6 0.124510 0.545996 0.784877
O O7 0.744019 0.060898 0.167330
O O8 0.500000 0.500000 0.500000
O O9 0.698964 0.488728 0.633927
O O10 0.083740 0.201175 0.546713
O O11 0.730976 0.654810 0.971202
O O12 0.621306 0.989217 0.327869
O O13 0.912115 0.620170 0.881816
O O14 0.500000 0.000000 0.000000
O O15 0.298204 0.140337 0.482007
O O16 0.000000 0.500000 0.500000
#
# Coordination Sequence:
#
# PCOD9055222 Si02
#       7
#     2   2   2   2   2   2   2
#     4  12  29  48  76 110 145 193 250 310 364 436
#     4  12  26  50  75 107 151 188 252 303 368 444
#     4  12  29  51  77 106 143 203 251 304 374 439
#     4  11  22  46  76 101 147 197 241 304 369 435
#     4  11  21  40  73 105 145 197 241 291 369 448
#     4  11  24  40  67 110 148 188 237 301 365 436
#     4  11  23  46  73 106 152 197 242 296 375 443
#
# _framework density 23.699821
#
# number of rings (size 3 to 8) (size 9 to 14) (size 15 to 20)
#    0.000    0.571    4.286    3.429    8.000    5.714 
#    0.000    0.000    0.000    0.000    0.000    0.000 
#    0.000    0.000    0.000    0.000    0.000    0.000 
#
# Total GULP energy -78457.685569 kJ/mol
# GULP energy per Si atom -5604.120398 kJ/mol
# Density = 2.364588 g / cm^3
# Si number density = 23.699821 Si / 1000 Ang^3
#
#
#
# Elastic Constant Matrix: (Units=GPa)
#
#
# Indices 1 2 3 4 5 6 
#
# 1 127.9972 41.9127 28.3012 -0.9567 15.3380 -35.9810
# 2 41.9127 123.2272 24.2601 -3.8140 18.8124 -25.7219
# 3 28.3012 24.2601 54.7726 -1.6277 12.7594 -14.3697
# 4 -0.9567 -3.8140 -1.6277 34.3572 -10.1094 6.8067
# 5 15.3380 18.8124 12.7594 -10.1094 43.6426 -1.8302
# 6 -35.9810 -25.7219 -14.3697 6.8067 -1.8302 55.6185
#
#
#
# Elastic Compliance Matrix: (Units=1/GPa)
#
#
# Indices 1 2 3 4 5 6 
#
# 1 0.010859 -0.001622 -0.002884 -0.001865 -0.002468 0.005677
# 2 -0.001622 0.010203 -0.002144 -0.000567 -0.003204 0.003080
# 3 -0.002884 -0.002144 0.022562 -0.001257 -0.004825 0.002967
# 4 -0.001865 -0.000567 -0.001257 0.032543 0.008575 -0.005494
# 5 -0.002468 -0.003204 -0.004825 0.008575 0.028373 -0.004441
# 6 0.005677 0.003080 0.002967 -0.005494 -0.004441 0.024369
#
#
# Mechanical properties :
#
#
# Convention : Reuss Voigt Hill
#
# Bulk Modulus (GPa) = 32.97536 54.99389 43.98462
# Shear Modulus (GPa) = 32.82642 40.82520 36.82581
#
# Velocity S-wave (km/s) = 3.72572 4.15492 3.94616
# Velocity P-wave (km/s) = 5.69666 6.80239 6.27393
#
# Compressibility (1/GPa) = 0.03032568
#
# Stress axis : x y z
#
# Youngs Moduli (GPa) = 92.08994 98.00966 44.32212
#
# Poissons Ratio (x) = 0.15893 0.12781
# Poissons Ratio (y) = 0.14933 0.09502
# Poissons Ratio (z) = 0.26556 0.21013
#
# Static dielectric constant tensor:
#      x y z
#    x 1.910780 -0.000430 -0.026510 
#    y -0.000430 1.914300 0.043520 
#    z -0.026510 0.043520 1.910850 
# 
# From -- ./inp_files/315942.got.cif
#   From: 2010.05.17/outbox.cif.g08.bks.cpg/sg2_158_cif.got.tgz:315942.got - 2010.06.03 11:33:40.
