data_PCOD9055350
_publ_section_title
;
Structure prediction by ZEFSAII (Michael W. Deem and Ramdas Pophale) SiO2 
 PCOD9055350
Probable space group: P -1
;
_chemical_formula_sum "Si O2"
_cell_formula_units_Z 12
_cell_length_a 9.367791
_cell_length_b 8.627473
_cell_length_c 10.151056
_cell_angle_alpha 81.775696
_cell_angle_beta 106.495709
_cell_angle_gamma 55.600133
_cell_volume 599.424455
_symmetry_space_group_name_H-M "P -1"
_symmetry_group_IT_number 2
_symmetry_cell_setting 'triclinic'
loop_
_space_group_symop_operation_xyz
x,y,z
-x,-y,-z
loop_
_atom_site_type_symbol
_atom_site_label
_atom_site_fract_x
_atom_site_fract_y
_atom_site_fract_z
Si Si1 0.859710 0.014528 0.858473
Si Si2 0.494003 0.059944 0.838420
Si Si3 0.333949 0.868152 0.661689
Si Si4 0.352194 0.532046 0.353808
Si Si5 0.011136 0.862290 0.655435
Si Si6 0.814980 0.516111 0.438165
O O1 0.700500 0.001882 0.872388
O O2 0.764447 0.236508 0.746901
O O3 0.977338 0.840537 0.799110
O O4 0.000000 0.000000 0.000000
O O5 0.345024 0.292580 0.717918
O O6 0.425562 0.958408 0.743466
O O7 0.500000 0.000000 0.000000
O O8 0.517162 0.634827 0.704732
O O9 0.158030 0.911804 0.695488
O O10 0.206944 0.978170 0.481181
O O11 0.500000 0.500000 0.500000
O O12 0.240363 0.485092 0.424614
O O13 0.120963 0.679461 0.602590
O O14 0.000000 0.500000 0.500000
#
# Coordination Sequence:
#
# PCOD9055350 Si02
#       6
#     2   2   2   2   2   2
#     4  12  27  45  68  97 138 177 218 276 333 390
#     4  12  27  45  65 101 140 172 217 279 334 386
#     4  11  22  40  71  99 131 173 221 274 325 395
#     4  12  22  45  69  98 130 175 225 268 329 394
#     4  11  21  41  69 100 129 174 224 266 330 395
#     4  12  25  41  71 101 132 173 223 275 322 396
#
# _framework density 20.019202
#
# number of rings (size 3 to 8) (size 9 to 14) (size 15 to 20)
#    0.000    0.333    6.667    2.000    4.667    2.667 
#    0.000    5.000    0.000    0.000    0.000    0.000 
#    0.000    0.000    0.000    0.000    0.000    0.000 
#
# Total GULP energy -66834.945809 kJ/mol
# GULP energy per Si atom -5569.578817 kJ/mol
# Density = 1.997364 g / cm^3
# Si number density = 20.019202 Si / 1000 Ang^3
#
#
#
# Elastic Constant Matrix: (Units=GPa)
#
#
# Indices 1 2 3 4 5 6 
#
# 1 181.0151 10.7307 55.8957 16.3906 8.9711 -5.1214
# 2 10.7307 79.6005 18.8899 4.6067 0.7140 2.1471
# 3 55.8957 18.8899 98.4055 2.0353 0.8230 -5.5231
# 4 16.3906 4.6067 2.0353 24.2977 2.3697 -5.5849
# 5 8.9711 0.7140 0.8230 2.3697 39.4004 5.8069
# 6 -5.1214 2.1471 -5.5231 -5.5849 5.8069 24.3309
#
#
#
# Elastic Compliance Matrix: (Units=1/GPa)
#
#
# Indices 1 2 3 4 5 6 
#
# 1 0.007229 0.000265 -0.004062 -0.004497 -0.001273 -0.000152
# 2 0.000265 0.013441 -0.002813 -0.003111 0.000319 -0.002559
# 3 -0.004062 -0.002813 0.013118 0.002857 0.000087 0.003006
# 4 -0.004497 -0.003111 0.002857 0.047590 -0.003574 0.011753
# 5 -0.001273 0.000319 0.000087 -0.003574 0.026989 -0.007538
# 6 -0.000152 -0.002559 0.003006 0.011753 -0.007538 0.046473
#
#
# Mechanical properties :
#
#
# Convention : Reuss Voigt Hill
#
# Bulk Modulus (GPa) = 48.61700 58.89485 53.75592
# Shear Modulus (GPa) = 28.58533 35.83947 32.21240
#
# Velocity S-wave (km/s) = 3.78285 4.23573 4.01568
# Velocity P-wave (km/s) = 6.58922 7.30787 6.95783
#
# Compressibility (1/GPa) = 0.02056894
#
# Stress axis : x y z
#
# Youngs Moduli (GPa) = 138.33217 74.40116 76.23058
#
# Poissons Ratio (x) = -0.01973 0.30965
# Poissons Ratio (y) = -0.03669 0.21441
# Poissons Ratio (z) = 0.56190 0.20926
#
# Static dielectric constant tensor:
#      x y z
#    x 1.629400 0.161890 0.002100 
#    y 0.161890 1.562990 -0.042500 
#    z 0.002100 -0.042500 1.673770 
# 
# From -- ./inp_files/144372.got.cif
#   From: 2010.05.17/outbox.cif.g08.bks.cpg/sg2_73_cif.got.tgz:144372.got - 2010.06.03 11:33:40.
