data_PCOD9055435
_publ_section_title
;
Structure prediction by ZEFSAII (Michael W. Deem and Ramdas Pophale) SiO2 
 PCOD9055435
Probable space group: P -1
;
_chemical_formula_sum "Si O2"
_cell_formula_units_Z 16
_cell_length_a 13.453374
_cell_length_b 10.368567
_cell_length_c 13.350507
_cell_angle_alpha 35.464537
_cell_angle_beta 123.384383
_cell_angle_gamma 98.977664
_cell_volume 719.754321
_symmetry_space_group_name_H-M "P -1"
_symmetry_group_IT_number 2
_symmetry_cell_setting 'triclinic'
loop_
_space_group_symop_operation_xyz
x,y,z
-x,-y,-z
loop_
_atom_site_type_symbol
_atom_site_label
_atom_site_fract_x
_atom_site_fract_y
_atom_site_fract_z
Si Si1 0.870877 0.810426 0.771758
Si Si2 0.058087 0.147931 0.001425
Si Si3 0.345583 0.297363 0.323084
Si Si4 0.760725 0.695110 0.517559
Si Si5 0.652883 0.395349 0.208231
Si Si6 0.657404 0.882167 0.864854
Si Si7 0.584674 0.302845 0.955700
Si Si8 0.499230 0.275693 0.705985
O O1 0.923497 0.899224 0.838379
O O2 0.736462 0.791079 0.734828
O O3 0.787488 0.069747 0.485465
O O4 0.000000 0.500000 0.000000
O O5 0.214694 0.077905 0.099466
O O6 0.930833 0.481657 0.715046
O O7 0.000000 0.000000 0.000000
O O8 0.265085 0.362329 0.346396
O O9 0.340361 0.541125 0.113908
O O10 0.516931 0.064312 0.596667
O O11 0.667640 0.627454 0.440883
O O12 0.684762 0.018382 0.253670
O O13 0.580650 0.488455 0.220646
O O14 0.500000 0.500000 0.000000
O O15 0.707062 0.571676 0.087987
O O16 0.586582 0.001282 0.860346
O O17 0.568756 0.231321 0.879869
O O18 0.500000 0.500000 0.500000
#
# Coordination Sequence:
#
# PCOD9055435 Si02
#       8
#     2   2   2   2   2   2   2   2
#     4  12  27  48  76 108 156 201 246 315 396 447
#     4  12  29  47  72 105 162 203 246 314 391 453
#     4  11  23  47  75 108 142 195 256 306 374 453
#     4  11  23  45  68 108 153 192 253 311 371 460
#     4  12  26  46  76 115 149 189 265 323 368 456
#     4  11  24  46  71 109 151 191 253 319 360 453
#     4  12  24  41  81 107 142 202 249 315 384 437
#     4  11  21  41  73 105 149 191 255 308 370 453
#
# _framework density 22.229806
#
# number of rings (size 3 to 8) (size 9 to 14) (size 15 to 20)
#    0.000    0.500    7.500    1.875    3.500    2.000 
#    0.000    2.500    0.000    0.000    0.000    0.000 
#    0.000    0.000    0.000    0.000    0.000    0.000 
#
# Total GULP energy -89399.367873 kJ/mol
# GULP energy per Si atom -5587.460492 kJ/mol
# Density = 2.217921 g / cm^3
# Si number density = 22.229806 Si / 1000 Ang^3
#
#
#
# Elastic Constant Matrix: (Units=GPa)
#
#
# Indices 1 2 3 4 5 6 
#
# 1 82.6706 29.3256 42.9003 0.6718 1.4893 14.7620
# 2 29.3256 123.0439 45.1516 14.8587 -1.1827 13.7813
# 3 42.9003 45.1516 133.2061 -11.6356 2.9031 10.5679
# 4 0.6718 14.8587 -11.6356 33.5121 7.5684 -0.5600
# 5 1.4893 -1.1827 2.9031 7.5684 46.3137 -7.7524
# 6 14.7620 13.7813 10.5679 -0.5600 -7.7524 46.3526
#
#
#
# Elastic Compliance Matrix: (Units=1/GPa)
#
#
# Indices 1 2 3 4 5 6 
#
# 1 0.015541 -0.001638 -0.004229 -0.000950 -0.000729 -0.003632
# 2 -0.001638 0.010799 -0.003576 -0.006318 0.001295 -0.001734
# 3 -0.004229 -0.003576 0.010632 0.005718 -0.001591 -0.000211
# 4 -0.000950 -0.006318 0.005718 0.036082 -0.006343 0.000252
# 5 -0.000729 0.001295 -0.001591 -0.006343 0.023464 0.004058
# 6 -0.003632 -0.001734 -0.000211 0.000252 0.004058 0.023976
#
#
# Mechanical properties :
#
#
# Convention : Reuss Voigt Hill
#
# Bulk Modulus (GPa) = 55.28627 63.74173 59.51400
# Shear Modulus (GPa) = 34.38593 40.00520 37.19557
#
# Velocity S-wave (km/s) = 3.93725 4.24679 4.09495
# Velocity P-wave (km/s) = 6.75230 7.26521 7.01345
#
# Compressibility (1/GPa) = 0.01808767
#
# Stress axis : x y z
#
# Youngs Moduli (GPa) = 64.34573 92.59924 94.05545
#
# Poissons Ratio (x) = 0.15165 0.39776
# Poissons Ratio (y) = 0.10538 0.33631
# Poissons Ratio (z) = 0.27212 0.33110
#
# Static dielectric constant tensor:
#      x y z
#    x 1.835690 -0.045250 -0.006470 
#    y -0.045250 1.905190 -0.002520 
#    z -0.006470 -0.002520 1.837900 
# 
# From -- ./inp_files/519514.got.cif
#   From: 2010.05.17/outbox.cif.g08.bks.cpg/sg2_260_cif.got.tgz:519514.got - 2010.06.03 11:33:40.
