data_PCOD9055298
_publ_section_title
;
Structure prediction by ZEFSAII (Michael W. Deem and Ramdas Pophale) SiO2 
 PCOD9055298
Probable space group: P -1
;
_chemical_formula_sum "Si O2"
_cell_formula_units_Z 16
_cell_length_a 8.781034
_cell_length_b 12.379993
_cell_length_c 9.332573
_cell_angle_alpha 47.696126
_cell_angle_beta 88.630416
_cell_angle_gamma 82.995570
_cell_volume 742.393767
_symmetry_space_group_name_H-M "P -1"
_symmetry_group_IT_number 2
_symmetry_cell_setting 'triclinic'
loop_
_space_group_symop_operation_xyz
x,y,z
-x,-y,-z
loop_
_atom_site_type_symbol
_atom_site_label
_atom_site_fract_x
_atom_site_fract_y
_atom_site_fract_z
Si Si1 0.929300 0.609215 0.655197
Si Si2 0.726868 0.829858 0.673859
Si Si3 0.406702 0.863107 0.532081
Si Si4 0.268106 0.386905 0.613762
Si Si5 0.064125 0.296054 0.959170
Si Si6 0.247199 0.689675 0.462804
Si Si7 0.585736 0.924533 0.201518
Si Si8 0.855239 0.100559 0.984823
O O1 0.827276 0.734532 0.636599
O O2 0.831046 0.557967 0.571897
O O3 0.993449 0.458625 0.869868
O O4 0.073236 0.672276 0.526072
O O5 0.550641 0.797865 0.685906
O O6 0.708942 0.007967 0.505264
O O7 0.812861 0.783214 0.861305
O O8 0.323476 0.747801 0.549936
O O9 0.486569 0.945488 0.328272
O O10 0.156643 0.322681 0.788027
O O11 0.326075 0.527060 0.559532
O O12 0.384787 0.249396 0.678435
O O13 0.929074 0.201962 0.006616
O O14 0.233334 0.800466 0.228969
O O15 0.500000 0.000000 0.000000
O O16 0.742686 0.994538 0.147605
O O17 0.000000 0.000000 0.000000
#
# Coordination Sequence:
#
# PCOD9055298 Si02
#       8
#     2   2   2   2   2   2   2   2
#     4  11  21  42  71  98 130 170 220 273 331 380
#     4  11  25  45  65  88 139 183 215 262 328 393
#     4  11  25  45  62  91 139 181 216 260 328 400
#     4  11  21  41  70  99 133 164 217 281 330 379
#     4  11  21  41  67 101 130 166 222 279 322 382
#     4  11  22  42  69 102 127 168 220 276 331 385
#     4  12  23  40  66  98 132 171 214 271 331 383
#     4  12  21  37  68 102 128 161 220 277 324 378
#
# _framework density 21.551905999999999
#
# number of rings (size 3 to 8) (size 9 to 14) (size 15 to 20)
#    0.000    0.750    6.250    2.625    0.000    1.000 
#    6.750    2.500    0.000    0.000    0.000    0.000 
#    0.000    0.000    0.000    0.000    0.000    0.000 
#
# Total GULP energy -89456.753766 kJ/mol
# GULP energy per Si atom -5591.047110 kJ/mol
# Density = 2.150285 g / cm^3
# Si number density = 21.551906 Si / 1000 Ang^3
#
#
#
# Elastic Constant Matrix: (Units=GPa)
#
#
# Indices 1 2 3 4 5 6 
#
# 1 57.4784 36.2778 22.3199 -9.0172 16.2828 9.0240
# 2 36.2778 140.8045 27.8325 -7.7134 6.7157 6.6291
# 3 22.3199 27.8325 54.5747 -12.5162 26.9282 4.9395
# 4 -9.0172 -7.7134 -12.5162 25.6305 5.7355 2.0518
# 5 16.2828 6.7157 26.9282 5.7355 41.4464 6.3473
# 6 9.0240 6.6291 4.9395 2.0518 6.3473 44.9950
#
#
#
# Elastic Compliance Matrix: (Units=1/GPa)
#
#
# Indices 1 2 3 4 5 6 
#
# 1 0.025811 -0.005407 -0.000419 0.009717 -0.009817 -0.003392
# 2 -0.005407 0.009187 -0.005282 -0.002702 0.004472 -0.000197
# 3 -0.000419 -0.005282 0.041466 0.025123 -0.029289 -0.000704
# 4 0.009717 -0.002702 0.025123 0.060312 -0.027563 -0.003171
# 5 -0.009817 0.004472 -0.029289 -0.027563 0.050305 -0.001314
# 6 -0.003392 -0.000197 -0.000704 -0.003171 -0.001314 0.023341
#
#
# Mechanical properties :
#
#
# Convention : Reuss Voigt Hill
#
# Bulk Modulus (GPa) = 18.43391 47.30199 32.86795
# Shear Modulus (GPa) = 19.94241 33.50954 26.72598
#
# Velocity S-wave (km/s) = 3.04521 3.94741 3.52529
# Velocity P-wave (km/s) = 4.57561 6.54000 5.64393
#
# Compressibility (1/GPa) = 0.05424784
#
# Stress axis : x y z
#
# Youngs Moduli (GPa) = 38.74252 108.84619 24.11612
#
# Poissons Ratio (x) = 0.58854 0.01011
# Poissons Ratio (y) = 0.20949 0.12739
# Poissons Ratio (z) = 0.01624 0.57494
#
# Static dielectric constant tensor:
#      x y z
#    x 1.792580 0.001560 0.011300 
#    y 0.001560 1.800760 -0.002990 
#    z 0.011300 -0.002990 1.782520 
# 
# From -- ./inp_files/184203.got.cif
#   From: 2010.05.17/outbox.cif.g08.bks.cpg/sg2_93_cif.got.tgz:184203.got - 2010.06.03 11:33:40.
