data_PCOD9055277
_publ_section_title
;
Structure prediction by ZEFSAII (Michael W. Deem and Ramdas Pophale) SiO2 
 PCOD9055277
Probable space group: P -1
;
_chemical_formula_sum "Si O2"
_cell_formula_units_Z 16
_cell_length_a 14.577901
_cell_length_b 15.192403
_cell_length_c 8.999315
_cell_angle_alpha 91.937638
_cell_angle_beta 55.529357
_cell_angle_gamma 138.454955
_cell_volume 764.195649
_symmetry_space_group_name_H-M "P -1"
_symmetry_group_IT_number 2
_symmetry_cell_setting 'triclinic'
loop_
_space_group_symop_operation_xyz
x,y,z
-x,-y,-z
loop_
_atom_site_type_symbol
_atom_site_label
_atom_site_fract_x
_atom_site_fract_y
_atom_site_fract_z
Si Si1 0.905033 0.685544 0.485952
Si Si2 0.999303 0.829875 0.737979
Si Si3 0.623728 0.171171 0.463562
Si Si4 0.090906 0.416996 0.059551
Si Si5 0.208324 0.575778 0.277789
Si Si6 0.547415 0.590237 0.312291
Si Si7 0.569135 0.779084 0.473141
Si Si8 0.561692 0.961867 0.048402
O O1 0.962713 0.777758 0.594208
O O2 0.816691 0.525403 0.598951
O O3 0.697945 0.580538 0.567710
O O4 0.155672 0.848915 0.179753
O O5 0.032433 0.761620 0.794707
O O6 0.755136 0.697565 0.022619
O O7 0.220803 0.048615 0.592549
O O8 0.510396 0.184472 0.525180
O O9 0.587477 0.133203 0.670033
O O10 0.896104 0.348600 0.174122
O O11 0.500000 0.000000 0.500000
O O12 0.175376 0.516945 0.141416
O O13 0.325941 0.571123 0.756293
O O14 0.459970 0.800884 0.065436
O O15 0.000000 0.500000 0.500000
O O16 0.500000 0.500000 0.500000
O O17 0.632263 0.747262 0.295845
O O18 0.500000 0.000000 0.000000
#
# Coordination Sequence:
#
# PCOD9055277 Si02
#       8
#     2   2   2   2   2   2   2   2
#     4  11  26  45  74 100 141 191 232 293 355 416
#     4  11  24  51  70 101 138 185 241 289 352 419
#     4  12  26  40  68 106 145 181 230 283 354 433
#     4  11  23  43  69 101 142 181 229 287 354 422
#     4  11  21  41  66 101 137 181 230 276 346 425
#     4  12  27  49  74 101 141 189 243 304 347 405
#     4  12  26  44  75 102 141 188 229 298 361 413
#     4  12  24  42  68 102 144 184 227 282 352 429
#
# _framework density 20.937045999999999
#
# number of rings (size 3 to 8) (size 9 to 14) (size 15 to 20)
#    0.000    0.500    5.000    3.375    5.250    0.000 
#    2.250    0.625    0.000    0.000    0.000    0.000 
#    0.000    0.000    0.000    0.000    0.000    0.000 
#
# Total GULP energy -89402.052155 kJ/mol
# GULP energy per Si atom -5587.628260 kJ/mol
# Density = 2.088939 g / cm^3
# Si number density = 20.937046 Si / 1000 Ang^3
#
#
#
# Elastic Constant Matrix: (Units=GPa)
#
#
# Indices 1 2 3 4 5 6 
#
# 1 89.0084 37.0075 17.9377 -5.2292 -20.6553 10.3075
# 2 37.0075 105.2352 17.5199 -16.1754 -6.1806 -9.4247
# 3 17.9377 17.5199 77.2290 -4.4052 -22.9709 8.7185
# 4 -5.2292 -16.1754 -4.4052 39.5680 -2.2582 -9.9093
# 5 -20.6553 -6.1806 -22.9709 -2.2582 28.0796 -2.4259
# 6 10.3075 -9.4247 8.7185 -9.9093 -2.4259 29.5077
#
#
#
# Elastic Compliance Matrix: (Units=1/GPa)
#
#
# Indices 1 2 3 4 5 6 
#
# 1 0.017263 -0.006680 0.001898 -0.001633 0.011934 -0.008292
# 2 -0.006680 0.014154 -0.003306 0.006830 -0.003101 0.009870
# 3 0.001898 -0.003306 0.018492 0.000381 0.015326 -0.005795
# 4 -0.001633 0.006830 0.000381 0.031541 0.004324 0.013587
# 5 0.011934 -0.003101 0.015326 0.004324 0.056283 -0.003608
# 6 -0.008292 0.009870 -0.005795 0.013587 -0.003608 0.045917
#
#
# Mechanical properties :
#
#
# Convention : Reuss Voigt Hill
#
# Bulk Modulus (GPa) = 29.64442 46.26697 37.95570
# Shear Modulus (GPa) = 23.68884 32.69822 28.19353
#
# Velocity S-wave (km/s) = 3.36733 3.95617 3.67357
# Velocity P-wave (km/s) = 5.41369 6.55855 6.01343
#
# Compressibility (1/GPa) = 0.03373316
#
# Stress axis : x y z
#
# Youngs Moduli (GPa) = 57.92660 70.65361 54.07651
#
# Poissons Ratio (x) = 0.47195 -0.10264
# Poissons Ratio (y) = 0.38693 0.17880
# Poissons Ratio (z) = -0.10995 0.23361
#
# Static dielectric constant tensor:
#      x y z
#    x 1.790060 0.125080 -0.006320 
#    y 0.125080 1.896800 -0.114730 
#    z -0.006320 -0.114730 1.798220 
# 
# From -- ./inp_files/304594.got.cif
#   From: 2010.05.17/outbox.cif.g08.bks.cpg/sg2_153_cif.got.tgz:304594.got - 2010.06.03 11:33:40.
