data_PCOD9055946
_publ_section_title
;
Structure prediction by ZEFSAII (Michael W. Deem and Ramdas Pophale) SiO2 
 PCOD9055946
Probable space group: P -1
;
_chemical_formula_sum "Si O2"
_cell_formula_units_Z 16
_cell_length_a 9.229046
_cell_length_b 8.768755
_cell_length_c 11.672973
_cell_angle_alpha 57.428268
_cell_angle_beta 117.767810
_cell_angle_gamma 110.163301
_cell_volume 698.803338
_symmetry_space_group_name_H-M "P -1"
_symmetry_group_IT_number 2
_symmetry_cell_setting 'triclinic'
loop_
_space_group_symop_operation_xyz
x,y,z
-x,-y,-z
loop_
_atom_site_type_symbol
_atom_site_label
_atom_site_fract_x
_atom_site_fract_y
_atom_site_fract_z
Si Si1 0.373821 0.634142 0.437461
Si Si2 0.178746 0.847689 0.733911
Si Si3 0.527010 0.980553 0.795988
Si Si4 0.848402 0.002184 0.593788
Si Si5 0.446841 0.277678 0.311117
Si Si6 0.846580 0.847937 0.036940
Si Si7 0.041944 0.651476 0.358795
Si Si8 0.322399 0.487516 0.007263
O O1 0.500000 0.500000 0.500000
O O2 0.403259 0.663893 0.572457
O O3 0.181688 0.573779 0.365233
O O4 0.422266 0.823351 0.316080
O O5 0.346217 0.969647 0.787533
O O6 0.223334 0.648242 0.863568
O O7 0.010299 0.898910 0.703240
O O8 0.159413 0.897413 0.572211
O O9 0.511488 0.837393 0.739691
O O10 0.675473 0.933400 0.950338
O O11 0.687861 0.858596 0.614644
O O12 0.871193 0.158421 0.634096
O O13 0.377755 0.461678 0.168527
O O14 0.798867 0.700056 0.979898
O O15 0.891336 0.718435 0.208412
O O16 0.000000 0.000000 0.000000
O O17 0.000000 0.500000 0.500000
O O18 0.500000 0.500000 0.000000
#
# Coordination Sequence:
#
# PCOD9055946 Si02
#       8
#     2   2   2   2   2   2   2   2
#     4  12  26  42  68 103 137 175 226 285 342 401
#     4  11  23  41  68  98 134 168 236 285 329 390
#     4  11  21  44  72  92 130 187 228 272 332 423
#     4  11  24  43  68  96 133 183 222 280 338 407
#     4  11  22  43  73  97 129 181 236 260 342 412
#     4  11  22  42  67  95 133 179 217 269 348 396
#     4  12  26  41  65  99 138 172 221 281 344 403
#     4  11  23  41  71 101 129 175 230 284 328 399
#
# _framework density 22.896284999999999
#
# number of rings (size 3 to 8) (size 9 to 14) (size 15 to 20)
#    0.000    0.750    6.250    2.625    3.500    1.500 
#    2.250    0.625    0.000    0.000    0.000    0.000 
#    0.000    0.000    0.000    0.000    0.000    0.000 
#
# Total GULP energy -89355.400216 kJ/mol
# GULP energy per Si atom -5584.712513 kJ/mol
# Density = 2.284417 g / cm^3
# Si number density = 22.896285 Si / 1000 Ang^3
#
#
#
# Elastic Constant Matrix: (Units=GPa)
#
#
# Indices 1 2 3 4 5 6 
#
# 1 80.5766 16.5050 22.1502 -5.9011 33.6639 -2.2088
# 2 16.5050 31.0639 21.6901 -16.1957 7.9220 4.6451
# 3 22.1502 21.6901 161.0075 -27.1179 41.4487 -10.7453
# 4 -5.9011 -16.1957 -27.1179 40.7589 3.4365 4.9088
# 5 33.6639 7.9220 41.4487 3.4365 46.2709 -7.1513
# 6 -2.2088 4.6451 -10.7453 4.9088 -7.1513 29.2538
#
#
#
# Elastic Compliance Matrix: (Units=1/GPa)
#
#
# Indices 1 2 3 4 5 6 
#
# 1 0.020103 -0.006281 0.002956 0.003922 -0.016664 -0.001131
# 2 -0.006281 0.051225 -0.001976 0.020366 -0.006146 -0.014254
# 3 0.002956 -0.001976 0.010322 0.007457 -0.011574 0.000248
# 4 0.003922 0.020366 0.007457 0.041038 -0.017837 -0.011445
# 5 -0.016664 -0.006146 -0.011574 -0.017837 0.048058 0.010208
# 6 -0.001131 -0.014254 0.000248 -0.011445 0.010208 0.040868
#
#
# Mechanical properties :
#
#
# Convention : Reuss Voigt Hill
#
# Bulk Modulus (GPa) = 14.07489 43.70428 28.88959
# Shear Modulus (GPa) = 20.33343 37.41023 28.87183
#
# Velocity S-wave (km/s) = 2.98328 4.04654 3.55488
# Velocity P-wave (km/s) = 4.24584 6.40016 5.43089
#
# Compressibility (1/GPa) = 0.07104849
#
# Stress axis : x y z
#
# Youngs Moduli (GPa) = 49.74407 19.52163 96.87597
#
# Poissons Ratio (x) = 0.12262 -0.28632
# Poissons Ratio (y) = 0.31245 0.19138
# Poissons Ratio (z) = -0.14702 0.03857
#
# Static dielectric constant tensor:
#      x y z
#    x 2.078030 0.017120 0.086600 
#    y 0.017120 1.883300 0.033700 
#    z 0.086600 0.033700 1.931510 
# 
# From -- ./inp_files/381477.got.cif
#   From: 2010.05.17/outbox.cif.g08.bks.cpg/sg2_191_cif.got.tgz:381477.got - 2010.06.03 11:33:40.
