data_PCOD9055876
_publ_section_title
;
Structure prediction by ZEFSAII (Michael W. Deem and Ramdas Pophale) SiO2 
 PCOD9055876
Probable space group: P -1
;
_chemical_formula_sum "Si O2"
_cell_formula_units_Z 16
_cell_length_a 8.534758
_cell_length_b 14.554910
_cell_length_c 12.861203
_cell_angle_alpha 101.628709
_cell_angle_beta 89.201818
_cell_angle_gamma 148.843396
_cell_volume 768.972011
_symmetry_space_group_name_H-M "P -1"
_symmetry_group_IT_number 2
_symmetry_cell_setting 'triclinic'
loop_
_space_group_symop_operation_xyz
x,y,z
-x,-y,-z
loop_
_atom_site_type_symbol
_atom_site_label
_atom_site_fract_x
_atom_site_fract_y
_atom_site_fract_z
Si Si1 0.268401 0.796973 0.493654
Si Si2 0.710147 0.225214 0.269616
Si Si3 0.211588 0.886121 0.047224
Si Si4 0.325228 0.308304 0.126602
Si Si5 0.597032 0.383382 0.344897
Si Si6 0.631019 0.788050 0.467529
Si Si7 0.634253 0.461685 0.777951
Si Si8 0.214602 0.520789 0.006659
O O1 0.235531 0.784471 0.616591
O O2 0.431537 0.781162 0.464445
O O3 0.917909 0.613353 0.402540
O O4 0.500000 0.000000 0.500000
O O5 0.710958 0.337918 0.304465
O O6 0.995867 0.342584 0.217950
O O7 0.376293 0.018744 0.175995
O O8 0.993599 0.683549 0.034139
O O9 0.000178 0.846383 0.969812
O O10 0.500000 0.000000 0.000000
O O11 0.340452 0.279712 0.237375
O O12 0.466482 0.486997 0.176956
O O13 0.553634 0.364418 0.066915
O O14 0.448084 0.300078 0.441535
O O15 0.538251 0.671864 0.348436
O O16 0.000000 0.000000 0.500000
O O17 0.601044 0.382688 0.863436
O O18 0.000000 0.500000 0.000000
#
# Coordination Sequence:
#
# PCOD9055876 Si02
#       8
#     2   2   2   2   2   2   2   2
#     4  11  25  42  69 103 132 183 229 276 341 411
#     4  11  21  44  71  91 140 181 219 285 337 403
#     4  11  23  43  66 100 131 177 229 272 339 402
#     4  11  26  41  69 101 132 181 226 275 341 407
#     4  11  24  46  67  98 140 180 225 278 343 405
#     4  11  25  44  68 101 133 178 228 282 344 399
#     4  11  21  44  67  93 140 176 219 282 343 396
#     4  11  25  44  68  97 133 179 224 281 337 404
#
# _framework density 20.806999000000001
#
# number of rings (size 3 to 8) (size 9 to 14) (size 15 to 20)
#    0.000    1.000    5.000    3.000    3.500    5.000 
#    2.250    0.000    0.000    0.000    0.000    0.000 
#    0.000    0.000    0.000    0.000    0.000    0.000 
#
# Total GULP energy -89438.477673 kJ/mol
# GULP energy per Si atom -5589.904855 kJ/mol
# Density = 2.075964 g / cm^3
# Si number density = 20.806999 Si / 1000 Ang^3
#
#
#
# Elastic Constant Matrix: (Units=GPa)
#
#
# Indices 1 2 3 4 5 6 
#
# 1 68.6222 1.8576 40.1973 -1.1676 1.9377 4.6715
# 2 1.8576 68.4289 26.1932 18.9470 5.1196 5.9517
# 3 40.1973 26.1932 136.7886 8.0924 0.6604 6.1440
# 4 -1.1676 18.9470 8.0924 31.4275 3.7094 8.2969
# 5 1.9377 5.1196 0.6604 3.7094 34.7512 -7.0951
# 6 4.6715 5.9517 6.1440 8.2969 -7.0951 26.0580
#
#
#
# Elastic Compliance Matrix: (Units=1/GPa)
#
#
# Indices 1 2 3 4 5 6 
#
# 1 0.018151 0.001439 -0.005582 0.002451 -0.002120 -0.003624
# 2 0.001439 0.018863 -0.003387 -0.009910 -0.001971 -0.001149
# 3 -0.005582 -0.003387 0.009642 -0.000705 0.000684 -0.000088
# 4 0.002451 -0.009910 -0.000705 0.042195 -0.005828 -0.013031
# 5 -0.002120 -0.001971 0.000684 -0.005828 0.032093 0.011263
# 6 -0.003624 -0.001149 -0.000088 -0.013031 0.011263 0.046525
#
#
# Mechanical properties :
#
#
# Convention : Reuss Voigt Hill
#
# Bulk Modulus (GPa) = 31.64977 45.59287 38.62132
# Shear Modulus (GPa) = 25.89860 32.15345 29.02602
#
# Velocity S-wave (km/s) = 3.53187 3.93532 3.73904
# Velocity P-wave (km/s) = 5.64591 6.52754 6.10267
#
# Compressibility (1/GPa) = 0.03159580
#
# Stress axis : x y z
#
# Youngs Moduli (GPa) = 55.09205 53.01470 103.71505
#
# Poissons Ratio (x) = -0.07628 0.57889
# Poissons Ratio (y) = -0.07927 0.35132
# Poissons Ratio (z) = 0.30750 0.17958
#
# Static dielectric constant tensor:
#      x y z
#    x 1.771650 -0.014550 -0.025360 
#    y -0.014550 1.750040 0.050660 
#    z -0.025360 0.050660 1.852870 
# 
# From -- ./inp_files/274436.got.cif
#   From: 2010.05.17/outbox.cif.g08.bks.cpg/sg2_138_cif.got.tgz:274436.got - 2010.06.03 11:33:40.
