data_PCOD9055933
_publ_section_title
;
Structure prediction by ZEFSAII (Michael W. Deem and Ramdas Pophale) SiO2 
 PCOD9055933
Probable space group: P -1
;
_chemical_formula_sum "Si O2"
_cell_formula_units_Z 16
_cell_length_a 10.630754
_cell_length_b 16.541860
_cell_length_c 8.444475
_cell_angle_alpha 53.983932
_cell_angle_beta 57.695681
_cell_angle_gamma 32.350984
_cell_volume 640.290929
_symmetry_space_group_name_H-M "P -1"
_symmetry_group_IT_number 2
_symmetry_cell_setting 'triclinic'
loop_
_space_group_symop_operation_xyz
x,y,z
-x,-y,-z
loop_
_atom_site_type_symbol
_atom_site_label
_atom_site_fract_x
_atom_site_fract_y
_atom_site_fract_z
Si Si1 0.666365 0.488455 0.579400
Si Si2 0.371502 0.148418 0.806542
Si Si3 0.788694 0.956992 0.521419
Si Si4 0.895405 0.862017 0.225109
Si Si5 0.653931 0.597421 0.807720
Si Si6 0.074883 0.474480 0.798430
Si Si7 0.174547 0.674901 0.775701
Si Si8 0.891721 0.110109 0.180603
O O1 0.666113 0.550920 0.673729
O O2 0.775584 0.504181 0.357617
O O3 0.400703 0.590474 0.619967
O O4 0.844621 0.304448 0.699749
O O5 0.194847 0.177948 0.781643
O O6 0.237470 0.299797 0.825688
O O7 0.566516 0.095078 0.621748
O O8 0.500000 0.000000 0.000000
O O9 0.734693 0.955322 0.380017
O O10 0.941562 0.791059 0.692851
O O11 0.945464 0.975791 0.377250
O O12 0.926500 0.947583 0.007578
O O13 0.380309 0.758824 0.844480
O O14 0.833731 0.594620 0.719153
O O15 0.749400 0.459697 0.017185
O O16 0.000000 0.500000 0.000000
O O17 0.116879 0.794541 0.799287
#
# Coordination Sequence:
#
# PCOD9055933 Si02
#       8
#     2   2   2   2   2   2   2   2
#     4  11  23  43  75 100 141 183 243 293 349 413
#     4  12  27  50  71 101 149 190 231 293 365 426
#     4  12  28  42  72 105 147 188 233 290 363 430
#     4  12  25  45  73 103 141 190 237 289 357 430
#     4  11  21  44  72 100 137 186 235 290 355 421
#     4  12  28  44  72 107 138 184 244 300 348 421
#     4  11  22  45  72 104 139 188 234 289 361 419
#     4  11  22  44  69 104 136 184 236 294 353 422
#
# _framework density 24.988641000000001
#
# number of rings (size 3 to 8) (size 9 to 14) (size 15 to 20)
#    0.000    0.500    3.750    5.250    5.250    3.500 
#    0.000    0.000    0.000    0.000    0.000    0.000 
#    0.000    0.000    0.000    0.000    0.000    0.000 
#
# Total GULP energy -89750.335614 kJ/mol
# GULP energy per Si atom -5609.395976 kJ/mol
# Density = 2.493177 g / cm^3
# Si number density = 24.988641 Si / 1000 Ang^3
#
#
#
# Elastic Constant Matrix: (Units=GPa)
#
#
# Indices 1 2 3 4 5 6 
#
# 1 61.9936 30.4472 22.6531 16.0475 -4.9226 9.2624
# 2 30.4472 99.0607 52.5284 20.4609 17.6917 8.6108
# 3 22.6531 52.5284 158.1690 29.5354 -10.4355 -2.6674
# 4 16.0475 20.4609 29.5354 52.9691 0.7310 -0.5489
# 5 -4.9226 17.6917 -10.4355 0.7310 35.0759 5.1465
# 6 9.2624 8.6108 -2.6674 -0.5489 5.1465 36.8897
#
#
#
# Elastic Compliance Matrix: (Units=1/GPa)
#
#
# Indices 1 2 3 4 5 6 
#
# 1 0.021847 -0.006942 0.000393 -0.004311 0.007500 -0.004947
# 2 -0.006942 0.017426 -0.005256 -0.001556 -0.011122 -0.001176
# 3 0.000393 -0.005256 0.008966 -0.003151 0.005294 0.000991
# 4 -0.004311 -0.001556 -0.003151 0.022582 -0.001487 0.001761
# 5 0.007500 -0.011122 0.005294 -0.001487 0.037386 -0.004142
# 6 -0.004947 -0.001176 0.000991 0.001761 -0.004142 0.029300
#
#
# Mechanical properties :
#
#
# Convention : Reuss Voigt Hill
#
# Bulk Modulus (GPa) = 40.60363 58.94231 49.77297
# Shear Modulus (GPa) = 29.52866 39.22656 34.37761
#
# Velocity S-wave (km/s) = 3.44129 3.96634 3.71311
# Velocity P-wave (km/s) = 5.66340 6.67942 6.19228
#
# Compressibility (1/GPa) = 0.02462834
#
# Stress axis : x y z
#
# Youngs Moduli (GPa) = 45.77198 57.38668 111.53319
#
# Poissons Ratio (x) = 0.39841 -0.04384
# Poissons Ratio (y) = 0.31777 0.58621
# Poissons Ratio (z) = -0.01799 0.30162
#
# Static dielectric constant tensor:
#      x y z
#    x 1.982230 0.025190 0.012430 
#    y 0.025190 1.940650 0.011630 
#    z 0.012430 0.011630 1.976290 
# 
# From -- ./inp_files/278953.got.cif
#   From: 2010.05.17/outbox.cif.g08.bks.cpg/sg2_140_cif.got.tgz:278953.got - 2010.06.03 11:33:40.
