data_PCOD9055509
_publ_section_title
;
Structure prediction by ZEFSAII (Michael W. Deem and Ramdas Pophale) SiO2 
 PCOD9055509
Probable space group: P -1
;
_chemical_formula_sum "Si O2"
_cell_formula_units_Z 16
_cell_length_a 5.164792
_cell_length_b 24.435686
_cell_length_c 19.035355
_cell_angle_alpha 17.452461
_cell_angle_beta 80.364643
_cell_angle_gamma 75.694277
_cell_volume 678.580248
_symmetry_space_group_name_H-M "P -1"
_symmetry_group_IT_number 2
_symmetry_cell_setting 'triclinic'
loop_
_space_group_symop_operation_xyz
x,y,z
-x,-y,-z
loop_
_atom_site_type_symbol
_atom_site_label
_atom_site_fract_x
_atom_site_fract_y
_atom_site_fract_z
Si Si1 0.777080 0.286236 0.964037
Si Si2 0.224803 0.475972 0.078735
Si Si3 0.781088 0.238834 0.867820
Si Si4 0.499302 0.964165 0.372325
Si Si5 0.334492 0.028354 0.152074
Si Si6 0.065105 0.164498 0.249073
Si Si7 0.635076 0.684531 0.468220
Si Si8 0.147032 0.771359 0.278436
O O1 0.836485 0.337667 0.816923
O O2 0.581974 0.495656 0.734454
O O3 0.667007 0.109909 0.169218
O O4 0.946403 0.227436 0.099577
O O5 0.321077 0.255064 0.368615
O O6 0.500000 0.500000 0.000000
O O7 0.068334 0.640359 0.939959
O O8 0.000000 0.500000 0.000000
O O9 0.805959 0.317102 0.693666
O O10 0.490790 0.191009 0.939415
O O11 0.056423 0.059265 0.083014
O O12 0.293419 0.993174 0.279302
O O13 0.373971 0.044862 0.355281
O O14 0.547075 0.845566 0.333546
O O15 0.000000 0.000000 0.500000
O O16 0.436328 0.743068 0.338447
O O17 0.946803 0.676444 0.445465
O O18 0.000000 0.000000 0.000000
#
# Coordination Sequence:
#
# PCOD9055509 Si02
#       8
#     2   2   2   2   2   2   2   2
#     4  11  28  46  68 109 146 194 245 309 374 439
#     4  12  28  48  76 112 145 189 247 306 375 446
#     4  11  23  42  69  98 144 183 238 295 366 429
#     4  11  26  48  74 104 156 197 246 311 375 443
#     4  11  21  42  68 100 138 191 234 294 359 431
#     4  12  25  49  82 109 151 196 251 310 374 450
#     4  12  25  42  73 104 144 192 252 301 364 444
#     4  12  23  42  72 106 141 193 247 306 365 440
#
# _framework density 23.578638999999999
#
# number of rings (size 3 to 8) (size 9 to 14) (size 15 to 20)
#    0.000    0.500    5.000    2.625    3.500    2.000 
#    4.500    0.000    0.000    0.000    0.000    0.000 
#    0.000    0.000    0.000    0.000    0.000    0.000 
#
# Total GULP energy -89099.406205 kJ/mol
# GULP energy per Si atom -5568.712888 kJ/mol
# Density = 2.352497 g / cm^3
# Si number density = 23.578639 Si / 1000 Ang^3
#
#
#
# Elastic Constant Matrix: (Units=GPa)
#
#
# Indices 1 2 3 4 5 6 
#
# 1 82.1448 30.9956 9.4343 0.2728 3.9918 -1.5528
# 2 30.9956 184.4994 20.3823 -6.9100 3.9224 6.5109
# 3 9.4343 20.3823 96.2875 -13.3047 -8.6204 4.7815
# 4 0.2728 -6.9100 -13.3047 28.3316 11.3474 3.3863
# 5 3.9918 3.9224 -8.6204 11.3474 24.9987 3.0407
# 6 -1.5528 6.5109 4.7815 3.3863 3.0407 38.8099
#
#
#
# Elastic Compliance Matrix: (Units=1/GPa)
#
#
# Indices 1 2 3 4 5 6 
#
# 1 0.013232 -0.002111 -0.001168 -0.000493 -0.002111 0.001236
# 2 -0.002111 0.006014 -0.000908 0.001834 -0.001629 -0.001014
# 3 -0.001168 -0.000908 0.011632 0.004460 0.002549 -0.001916
# 4 -0.000493 0.001834 0.004460 0.045894 -0.019091 -0.003386
# 5 -0.002111 -0.001629 0.002549 -0.019091 0.050433 -0.002411
# 6 0.001236 -0.001014 -0.001916 -0.003386 -0.002411 0.026707
#
#
# Mechanical properties :
#
#
# Convention : Reuss Voigt Hill
#
# Bulk Modulus (GPa) = 44.43826 53.83956 49.13891
# Shear Modulus (GPa) = 29.44856 38.56933 34.00894
#
# Velocity S-wave (km/s) = 3.53788 4.04886 3.80196
# Velocity P-wave (km/s) = 5.96461 6.68889 6.33711
#
# Compressibility (1/GPa) = 0.02250313
#
# Stress axis : x y z
#
# Youngs Moduli (GPa) = 75.57470 166.27345 85.97016
#
# Poissons Ratio (x) = 0.35102 0.10042
# Poissons Ratio (y) = 0.15955 0.07809
# Poissons Ratio (z) = 0.08828 0.15102
#
# Static dielectric constant tensor:
#      x y z
#    x 2.029880 0.009980 0.141960 
#    y 0.009980 2.281970 0.029120 
#    z 0.141960 0.029120 2.066990 
# 
# From -- ./inp_files/551191.got.cif
#   From: 2010.05.17/outbox.cif.g08.bks.cpg/sg2_276_cif.got.tgz:551191.got - 2010.06.03 11:33:40.
