data_PCOD9055251
_publ_section_title
;
Structure prediction by ZEFSAII (Michael W. Deem and Ramdas Pophale) SiO2 
 PCOD9055251
Probable space group: P -1
;
_chemical_formula_sum "Si O2"
_cell_formula_units_Z 16
_cell_length_a 20.783569
_cell_length_b 8.546157
_cell_length_c 7.806010
_cell_angle_alpha 34.865523
_cell_angle_beta 126.940249
_cell_angle_gamma 125.096844
_cell_volume 623.242989
_symmetry_space_group_name_H-M "P -1"
_symmetry_group_IT_number 2
_symmetry_cell_setting 'triclinic'
loop_
_space_group_symop_operation_xyz
x,y,z
-x,-y,-z
loop_
_atom_site_type_symbol
_atom_site_label
_atom_site_fract_x
_atom_site_fract_y
_atom_site_fract_z
Si Si1 0.928964 0.394525 0.840076
Si Si2 0.988167 0.884018 0.275371
Si Si3 0.627123 0.644193 0.955229
Si Si4 0.298224 0.821200 0.622122
Si Si5 0.457793 0.271499 0.902553
Si Si6 0.826796 0.103093 0.390550
Si Si7 0.219335 0.478619 0.305466
Si Si8 0.383574 0.692741 0.229122
O O1 0.842477 0.457201 0.707550
O O2 0.952841 0.565605 0.549447
O O3 0.000000 0.500000 0.000000
O O4 0.932146 0.072294 0.111515
O O5 0.080818 0.937720 0.442572
O O6 0.000000 0.000000 0.000000
O O7 0.545954 0.446912 0.927917
O O8 0.654543 0.920751 0.640923
O O9 0.698452 0.460111 0.224334
O O10 0.599484 0.710784 0.040398
O O11 0.212622 0.895213 0.485658
O O12 0.342932 0.762214 0.925091
O O13 0.418746 0.410505 0.555877
O O14 0.454593 0.947892 0.157953
O O15 0.777768 0.843841 0.435893
O O16 0.820747 0.402112 0.034073
O O17 0.310438 0.655131 0.285130
#
# Coordination Sequence:
#
# PCOD9055251 Si02
#       8
#     2   2   2   2   2   2   2   2
#     4  12  22  42  70  92 120 174 216 250 302 384
#     4  12  25  42  63  97 133 161 208 267 314 358
#     4  11  24  43  64  92 126 171 204 246 318 390
#     4  11  23  40  66  93 124 166 214 247 314 379
#     4  11  24  43  65  90 132 162 202 264 313 361
#     4  11  21  41  64  90 130 167 199 264 315 367
#     4  11  22  39  68  93 123 163 217 257 307 365
#     4  11  23  41  64  96 126 160 208 270 304 355
#
# _framework density 25.672170000000001
#
# number of rings (size 3 to 8) (size 9 to 14) (size 15 to 20)
#    0.000    0.750    2.500    6.750    0.000    5.000 
#    6.750    0.000    0.000    0.000    0.000    0.000 
#    0.000    0.000    0.000    0.000    0.000    0.000 
#
# Total GULP energy -89629.235635 kJ/mol
# GULP energy per Si atom -5601.827227 kJ/mol
# Density = 2.561374 g / cm^3
# Si number density = 25.672170 Si / 1000 Ang^3
#
#
#
# Elastic Constant Matrix: (Units=GPa)
#
#
# Indices 1 2 3 4 5 6 
#
# 1 167.5797 9.2446 50.3020 -3.7737 -8.9027 -13.0321
# 2 9.2446 20.9992 11.7882 1.6934 1.5691 8.6397
# 3 50.3020 11.7882 115.3120 -12.0870 -11.1272 6.0225
# 4 -3.7737 1.6934 -12.0870 37.3430 -10.1744 1.8726
# 5 -8.9027 1.5691 -11.1272 -10.1744 48.5939 -7.0802
# 6 -13.0321 8.6397 6.0225 1.8726 -7.0802 30.2566
#
#
#
# Elastic Compliance Matrix: (Units=1/GPa)
#
#
# Indices 1 2 3 4 5 6 
#
# 1 0.007604 -0.004013 -0.003013 0.000154 0.001651 0.005398
# 2 -0.004013 0.061331 -0.004878 -0.005942 -0.007956 -0.019764
# 3 -0.003013 -0.004878 0.011321 0.004452 0.002873 -0.001762
# 4 0.000154 -0.005942 0.004452 0.030579 0.007759 0.000800
# 5 0.001651 -0.007956 0.002873 0.007759 0.024539 0.007673
# 6 0.005398 -0.019764 -0.001762 0.000800 0.007673 0.043116
#
#
# Mechanical properties :
#
#
# Convention : Reuss Voigt Hill
#
# Bulk Modulus (GPa) = 17.71520 49.61786 33.66653
# Shear Modulus (GPa) = 22.61290 38.74244 30.67767
#
# Velocity S-wave (km/s) = 2.97110 3.88896 3.46060
# Velocity P-wave (km/s) = 4.32267 6.28767 5.39538
#
# Compressibility (1/GPa) = 0.05644871
#
# Stress axis : x y z
#
# Youngs Moduli (GPa) = 131.50730 16.30506 88.32990
#
# Poissons Ratio (x) = 0.06543 0.26616
# Poissons Ratio (y) = 0.52770 0.43084
# Poissons Ratio (z) = 0.39627 0.07953
#
# Static dielectric constant tensor:
#      x y z
#    x 2.041830 -0.012500 0.003720 
#    y -0.012500 2.038600 0.064240 
#    z 0.003720 0.064240 1.954450 
# 
# From -- ./inp_files/223732.got.cif
#   From: 2010.05.17/outbox.cif.g08.bks.cpg/sg2_112_cif.got.tgz:223732.got - 2010.06.03 11:33:40.
