data_PCOD9055764
_publ_section_title
;
Structure prediction by ZEFSAII (Michael W. Deem and Ramdas Pophale) SiO2 
 PCOD9055764
Probable space group: P -1
;
_chemical_formula_sum "Si O2"
_cell_formula_units_Z 14
_cell_length_a 14.188299
_cell_length_b 10.979439
_cell_length_c 11.940476
_cell_angle_alpha 126.205127
_cell_angle_beta 148.291693
_cell_angle_gamma 41.573781
_cell_volume 643.145132
_symmetry_space_group_name_H-M "P -1"
_symmetry_group_IT_number 2
_symmetry_cell_setting 'triclinic'
loop_
_space_group_symop_operation_xyz
x,y,z
-x,-y,-z
loop_
_atom_site_type_symbol
_atom_site_label
_atom_site_fract_x
_atom_site_fract_y
_atom_site_fract_z
Si Si1 0.187823 0.325501 0.025113
Si Si2 0.726942 0.334812 0.089540
Si Si3 0.663641 0.612950 0.020474
Si Si4 0.207411 0.006641 0.734883
Si Si5 0.467767 0.108892 0.387944
Si Si6 0.224253 0.959301 0.153026
Si Si7 0.184420 0.197778 0.584530
O O1 0.236381 0.396340 0.002384
O O2 0.385379 0.232332 0.262294
O O3 0.162962 0.164134 0.865351
O O4 0.000000 0.500000 0.000000
O O5 0.937794 0.278180 0.343374
O O6 0.500000 0.500000 0.000000
O O7 0.713802 0.418007 0.998905
O O8 0.735064 0.153710 0.979715
O O9 0.414786 0.801036 0.867879
O O10 0.786778 0.646737 0.260240
O O11 0.252392 0.068257 0.694242
O O12 0.000000 0.000000 0.500000
O O13 0.583496 0.153845 0.622385
O O14 0.267680 0.111625 0.242496
O O15 0.660426 0.909122 0.423159
O O16 0.000000 0.000000 0.000000
#
# Coordination Sequence:
#
# PCOD9055764 Si02
#       7
#     2   2   2   2   2   2   2
#     4  11  25  43  70  99 136 180 230 285 354 401
#     4  12  26  42  68 105 140 173 236 292 341 407
#     4  11  23  44  66 103 135 179 233 280 344 427
#     4  11  23  42  70 100 135 183 237 281 342 430
#     4  11  23  45  72  95 137 187 228 283 351 410
#     4  11  26  43  69 100 136 182 234 280 345 422
#     4  11  21  43  70  96 134 188 228 278 350 412
#
# _framework density 21.768025999999999
#
# number of rings (size 3 to 8) (size 9 to 14) (size 15 to 20)
#    0.000    0.857    4.286    3.000    4.000    3.429 
#    0.000    1.429    0.000    0.000    0.000    0.000 
#    0.000    0.000    0.000    0.000    0.000    0.000 
#
# Total GULP energy -78161.215505 kJ/mol
# GULP energy per Si atom -5582.943965 kJ/mol
# Density = 2.171848 g / cm^3
# Si number density = 21.768026 Si / 1000 Ang^3
#
#
#
# Elastic Constant Matrix: (Units=GPa)
#
#
# Indices 1 2 3 4 5 6 
#
# 1 63.5811 8.9852 24.2084 -1.8416 -0.6405 -16.3369
# 2 8.9852 57.0938 30.1020 -8.1694 -3.0923 -12.7115
# 3 24.2084 30.1020 135.6861 -6.0580 -1.3748 -5.4921
# 4 -1.8416 -8.1694 -6.0580 24.8939 3.2404 1.2220
# 5 -0.6405 -3.0923 -1.3748 3.2404 39.1269 -4.0076
# 6 -16.3369 -12.7115 -5.4921 1.2220 -4.0076 43.2600
#
#
#
# Elastic Compliance Matrix: (Units=1/GPa)
#
#
# Indices 1 2 3 4 5 6 
#
# 1 0.018629 0.000303 -0.003094 0.000274 0.000895 0.006806
# 2 0.000303 0.022051 -0.004432 0.005658 0.001741 0.006033
# 3 -0.003094 -0.004432 0.008872 0.000580 -0.000279 -0.001387
# 4 0.000274 0.005658 0.000580 0.042564 -0.003016 0.000358
# 5 0.000895 0.001741 -0.000279 -0.003016 0.026292 0.003335
# 6 0.006806 0.006033 -0.001387 0.000358 0.003335 0.027582
#
#
# Mechanical properties :
#
#
# Convention : Reuss Voigt Hill
#
# Bulk Modulus (GPa) = 28.48521 42.55022 35.51772
# Shear Modulus (GPa) = 29.04659 34.32718 31.68689
#
# Velocity S-wave (km/s) = 3.65687 3.97540 3.81945
# Velocity P-wave (km/s) = 5.56277 6.37662 5.98355
#
# Compressibility (1/GPa) = 0.03510594
#
# Stress axis : x y z
#
# Youngs Moduli (GPa) = 53.67953 45.34980 112.71331
#
# Poissons Ratio (x) = -0.01372 0.34874
# Poissons Ratio (y) = -0.01624 0.49949
# Poissons Ratio (z) = 0.16609 0.20097
#
# Static dielectric constant tensor:
#      x y z
#    x 1.878170 0.008640 0.034640 
#    y 0.008640 1.930660 0.079890 
#    z 0.034640 0.079890 1.825740 
# 
# From -- ./inp_files/191152.got.cif
#   From: 2010.05.17/outbox.cif.g08.bks.cpg/sg2_96_cif.got.tgz:191152.got - 2010.06.03 11:33:40.
