data_PCOD9055330
_publ_section_title
;
Structure prediction by ZEFSAII (Michael W. Deem and Ramdas Pophale) SiO2 
 PCOD9055330
Probable space group: P -1
;
_chemical_formula_sum "Si O2"
_cell_formula_units_Z 15
_cell_length_a 14.167909
_cell_length_b 9.267711
_cell_length_c 9.368317
_cell_angle_alpha 134.645668
_cell_angle_beta 53.205368
_cell_angle_gamma 99.316605
_cell_volume 624.222579
_symmetry_space_group_name_H-M "P -1"
_symmetry_group_IT_number 2
_symmetry_cell_setting 'triclinic'
loop_
_space_group_symop_operation_xyz
x,y,z
-x,-y,-z
loop_
_atom_site_type_symbol
_atom_site_label
_atom_site_fract_x
_atom_site_fract_y
_atom_site_fract_z
Si Si1 0.802487 0.904775 0.143900
Si Si2 0.627267 0.271537 0.758689
Si Si3 0.633630 0.625141 0.382450
Si Si4 0.000000 0.000000 0.500000
Si Si5 0.813845 0.442640 0.810795
Si Si6 0.330975 0.828498 0.810207
Si Si7 0.719519 0.957620 0.699418
Si Si8 0.021553 0.250836 0.851245
O O1 0.921974 0.823122 0.094771
O O2 0.673706 0.050501 0.462726
O O3 0.773081 0.073205 0.155726
O O4 0.819851 0.664771 0.901597
O O5 0.747330 0.337703 0.690068
O O6 0.620941 0.184829 0.863355
O O7 0.500000 0.500000 0.000000
O O8 0.479187 0.782816 0.596615
O O9 0.645111 0.413534 0.318102
O O10 0.694851 0.758308 0.515916
O O11 0.714195 0.544803 0.106962
O O12 0.054669 0.762694 0.392032
O O13 0.082440 0.826476 0.164902
O O14 0.294695 0.006556 0.097055
O O15 0.865649 0.921381 0.487771
O O16 0.000000 0.500000 0.000000
#
# Coordination Sequence:
#
# PCOD9055330 Si02
#       8
#     2   2   2   1   2   2   2   2
#     4  11  24  40  61  98 124 162 218 268 315 372
#     4  11  23  37  63  96 129 161 217 261 313 381
#     4  11  22  41  62  89 128 179 207 251 326 381
#     4  12  20  38  68  94 118 158 222 266 320 368
#     4  12  22  40  69  93 124 172 213 271 315 375
#     4  11  25  39  61  92 135 167 209 259 322 390
#     4  11  22  42  61  92 126 174 209 253 328 384
#     4  11  21  41  68  91 120 163 217 271 315 377
#
# _framework density 24.029890999999999
#
# number of rings (size 3 to 8) (size 9 to 14) (size 15 to 20)
#    0.000    0.800    8.000    1.200    3.733    2.133 
#    0.000    0.667    0.000    4.000    0.000    0.000 
#    0.000    0.000    0.000    0.000    0.000    0.000 
#
# Total GULP energy -83651.369906 kJ/mol
# GULP energy per Si atom -5576.757994 kJ/mol
# Density = 2.397520 g / cm^3
# Si number density = 24.029891 Si / 1000 Ang^3
#
#
#
# Elastic Constant Matrix: (Units=GPa)
#
#
# Indices 1 2 3 4 5 6 
#
# 1 78.5575 24.3186 22.7044 14.5387 6.7676 -11.0591
# 2 24.3186 80.6509 18.1878 16.3431 7.3289 -32.7877
# 3 22.7044 18.1878 88.1005 23.5333 11.4393 -1.7664
# 4 14.5387 16.3431 23.5333 43.7531 1.3487 3.5260
# 5 6.7676 7.3289 11.4393 1.3487 48.5605 9.1075
# 6 -11.0591 -32.7877 -1.7664 3.5260 9.1075 43.7069
#
#
#
# Elastic Compliance Matrix: (Units=1/GPa)
#
#
# Indices 1 2 3 4 5 6 
#
# 1 0.015186 -0.002145 -0.002360 -0.003145 -0.001663 0.002738
# 2 -0.002145 0.023297 -0.000654 -0.008969 -0.006370 0.018958
# 3 -0.002360 -0.000654 0.014238 -0.006591 -0.002859 0.000615
# 4 -0.003145 -0.008969 -0.006591 0.031565 0.004586 -0.011293
# 5 -0.001663 -0.006370 -0.002859 0.004586 0.024350 -0.010759
# 6 0.002738 0.018958 0.000615 -0.011293 -0.010759 0.040972
#
#
# Mechanical properties :
#
#
# Convention : Reuss Voigt Hill
#
# Bulk Modulus (GPa) = 23.58292 41.97004 32.77648
# Shear Modulus (GPa) = 28.72559 39.34397 34.03478
#
# Velocity S-wave (km/s) = 3.46122 4.05074 3.76753
# Velocity P-wave (km/s) = 5.08023 6.27548 5.70922
#
# Compressibility (1/GPa) = 0.04240357
#
# Stress axis : x y z
#
# Youngs Moduli (GPa) = 65.84797 42.92382 70.23472
#
# Poissons Ratio (x) = 0.09209 0.16575
# Poissons Ratio (y) = 0.14127 0.04591
# Poissons Ratio (z) = 0.15539 0.02806
#
# Static dielectric constant tensor:
#      x y z
#    x 2.329760 0.062760 0.026150 
#    y 0.062760 1.943580 -0.014080 
#    z 0.026150 -0.014080 1.944730 
# 
# From -- ./inp_files/294147.got.cif
#   From: 2010.05.17/outbox.cif.g08.bks.cpg/sg2_148_cif.got.tgz:294147.got - 2010.06.03 11:33:40.
