data_PCOD9055132
_publ_section_title
;
Structure prediction by ZEFSAII (Michael W. Deem and Ramdas Pophale) SiO2 
 PCOD9055132
Probable space group: P -1
;
_chemical_formula_sum "Si O2"
_cell_formula_units_Z 14
_cell_length_a 14.449150
_cell_length_b 7.981019
_cell_length_c 11.764363
_cell_angle_alpha 37.034888
_cell_angle_beta 49.690587
_cell_angle_gamma 71.077522
_cell_volume 565.966501
_symmetry_space_group_name_H-M "P -1"
_symmetry_group_IT_number 2
_symmetry_cell_setting 'triclinic'
loop_
_space_group_symop_operation_xyz
x,y,z
-x,-y,-z
loop_
_atom_site_type_symbol
_atom_site_label
_atom_site_fract_x
_atom_site_fract_y
_atom_site_fract_z
Si Si1 0.147119 0.256634 0.247196
Si Si2 0.526375 0.799462 0.739471
Si Si3 0.487559 0.853134 0.244635
Si Si4 0.400373 0.306534 0.951144
Si Si5 0.081824 0.756674 0.093133
Si Si6 0.828557 0.568775 0.276847
Si Si7 0.822802 0.271661 0.211320
O O1 0.146962 0.516004 0.194289
O O2 0.262598 0.141621 0.219513
O O3 0.183846 0.433146 0.002317
O O4 0.000000 0.000000 0.500000
O O5 0.454579 0.656036 0.757412
O O6 0.476507 0.023921 0.723264
O O7 0.682411 0.991745 0.495037
O O8 0.500000 0.500000 0.000000
O O9 0.587711 0.738084 0.167081
O O10 0.332372 0.608511 0.490577
O O11 0.495060 0.156217 0.008305
O O12 0.920696 0.572410 0.310828
O O13 0.116123 0.837791 0.886172
O O14 0.133488 0.064329 0.958293
O O15 0.874430 0.411147 0.220136
#
# Coordination Sequence:
#
# PCOD9055132 Si02
#       7
#     2   2   2   2   2   2   2
#     4  10  22  39  55  79 115 152 183 222 280 326
#     4   9  18  35  56  84 109 137 187 227 274 327
#     4   9  19  33  59  81 104 143 184 231 276 317
#     4  10  19  36  56  79 112 145 178 233 272 326
#     4   9  20  33  57  80 110 147 181 225 274 325
#     4  10  17  36  56  83 108 139 188 231 268 328
#     4   9  20  35  56  83 110 146 184 227 276 323
#
# _framework density 24.736447999999999
#
# number of rings (size 3 to 8) (size 9 to 14) (size 15 to 20)
#    0.857    1.714    0.000    2.143    0.000    0.571 
#    2.571    2.143    0.000    0.000    0.000    0.000 
#    0.000    0.000    0.000    0.000    0.000    0.000 
#
# Total GULP energy -77941.519099 kJ/mol
# GULP energy per Si atom -5567.251364 kJ/mol
# Density = 2.468015 g / cm^3
# Si number density = 24.736448 Si / 1000 Ang^3
#
#
#
# Elastic Constant Matrix: (Units=GPa)
#
#
# Indices 1 2 3 4 5 6 
#
# 1 34.0042 17.9464 16.7929 -1.1194 -0.5227 5.3318
# 2 17.9464 202.4204 48.4890 -4.7286 -31.3427 10.4178
# 3 16.7929 48.4890 123.7438 -14.7631 -14.5482 12.2706
# 4 -1.1194 -4.7286 -14.7631 31.4968 2.1075 -10.4938
# 5 -0.5227 -31.3427 -14.5482 2.1075 33.6801 -8.0215
# 6 5.3318 10.4178 12.2706 -10.4938 -8.0215 35.5212
#
#
#
# Elastic Compliance Matrix: (Units=1/GPa)
#
#
# Indices 1 2 3 4 5 6 
#
# 1 0.033221 -0.002528 -0.003853 -0.002233 -0.004453 -0.004579
# 2 -0.002528 0.006336 -0.001562 -0.000155 0.005239 0.000198
# 3 -0.003853 -0.001562 0.010040 0.003931 0.002404 -0.000727
# 4 -0.002233 -0.000155 0.003931 0.036799 0.001662 0.010269
# 5 -0.004453 0.005239 0.002404 0.001662 0.037142 0.007180
# 6 -0.004579 0.000198 -0.000727 0.010269 0.007180 0.033688
#
#
# Mechanical properties :
#
#
# Convention : Reuss Voigt Hill
#
# Bulk Modulus (GPa) = 29.66456 58.51390 44.08923
# Shear Modulus (GPa) = 27.12222 38.60230 32.86226
#
# Velocity S-wave (km/s) = 3.31486 3.95466 3.64881
# Velocity P-wave (km/s) = 5.16423 6.67523 5.96775
#
# Compressibility (1/GPa) = 0.03371026
#
# Stress axis : x y z
#
# Youngs Moduli (GPa) = 30.10101 157.83045 99.60186
#
# Poissons Ratio (x) = 0.39903 0.38382
# Poissons Ratio (y) = 0.07610 0.15556
# Poissons Ratio (z) = 0.11599 0.24651
#
# Static dielectric constant tensor:
#      x y z
#    x 2.215540 -0.066280 -0.033870 
#    y -0.066280 2.080360 0.058330 
#    z -0.033870 0.058330 2.008560 
# 
# From -- ./inp_files/536891.got.cif
#   From: 2010.05.17/outbox.cif.g08.bks.cpg/sg2_269_cif.got.tgz:536891.got - 2010.06.03 11:33:40.
