data_PCOD9055710
_publ_section_title
;
Structure prediction by ZEFSAII (Michael W. Deem and Ramdas Pophale) SiO2 
 PCOD9055710
Probable space group: P -1
;
_chemical_formula_sum "Si O2"
_cell_formula_units_Z 16
_cell_length_a 7.640603
_cell_length_b 9.737746
_cell_length_c 13.891482
_cell_angle_alpha 86.756731
_cell_angle_beta 46.627229
_cell_angle_gamma 101.573905
_cell_volume 708.074526
_symmetry_space_group_name_H-M "P -1"
_symmetry_group_IT_number 2
_symmetry_cell_setting 'triclinic'
loop_
_space_group_symop_operation_xyz
x,y,z
-x,-y,-z
loop_
_atom_site_type_symbol
_atom_site_label
_atom_site_fract_x
_atom_site_fract_y
_atom_site_fract_z
Si Si1 0.943992 0.719821 0.312659
Si Si2 0.534919 0.230779 0.501263
Si Si3 0.644935 0.046628 0.292576
Si Si4 0.179243 0.006239 0.338628
Si Si5 0.010589 0.616729 0.093148
Si Si6 0.613237 0.685586 0.845347
Si Si7 0.948472 0.540935 0.625392
Si Si8 0.086937 0.327068 0.079884
O O1 0.969785 0.717143 0.188736
O O2 0.645377 0.673652 0.453042
O O3 0.068999 0.602068 0.303123
O O4 0.068742 0.867986 0.317589
O O5 0.558147 0.142407 0.401402
O O6 0.807950 0.325227 0.435356
O O7 0.385147 0.105372 0.638773
O O8 0.450643 0.014444 0.279166
O O9 0.916177 0.158061 0.155860
O O10 0.222661 0.150849 0.254184
O O11 0.000000 0.000000 0.500000
O O12 0.943853 0.445805 0.154821
O O13 0.314729 0.663856 0.955119
O O14 0.861835 0.635498 0.053261
O O15 0.696885 0.653238 0.922155
O O16 0.703653 0.587482 0.738914
O O17 0.000000 0.500000 0.500000
#
# Coordination Sequence:
#
# PCOD9055710 Si02
#       8
#     2   2   2   2   2   2   2   2
#     4  12  25  44  67 105 146 176 237 295 345 417
#     4  11  23  41  70  98 143 175 230 294 352 421
#     4  11  21  43  68 101 130 188 233 280 357 424
#     4  12  24  43  72 104 140 185 228 292 359 422
#     4  11  26  46  70 102 137 195 239 286 345 418
#     4  12  24  47  74 100 142 191 233 283 352 429
#     4  12  26  42  70 110 139 178 230 298 365 412
#     4  11  23  45  71  97 134 188 243 277 347 417
#
# _framework density 22.596492000000001
#
# number of rings (size 3 to 8) (size 9 to 14) (size 15 to 20)
#    0.000    0.500    5.000    3.750    0.000    2.500 
#    2.250    1.250    0.000    0.000    0.000    0.000 
#    0.000    0.000    0.000    0.000    0.000    0.000 
#
# Total GULP energy -89491.689413 kJ/mol
# GULP energy per Si atom -5593.230588 kJ/mol
# Density = 2.254506 g / cm^3
# Si number density = 22.596492 Si / 1000 Ang^3
#
#
#
# Elastic Constant Matrix: (Units=GPa)
#
#
# Indices 1 2 3 4 5 6 
#
# 1 91.2163 20.9750 23.5843 0.8614 25.3641 28.4708
# 2 20.9750 118.3305 33.6729 -0.3079 10.7896 14.4871
# 3 23.5843 33.6729 57.1870 10.3264 10.7049 17.9198
# 4 0.8614 -0.3079 10.3264 50.9048 4.9272 10.2788
# 5 25.3641 10.7896 10.7049 4.9272 45.1551 0.6854
# 6 28.4708 14.4871 17.9198 10.2788 0.6854 37.7005
#
#
#
# Elastic Compliance Matrix: (Units=1/GPa)
#
#
# Indices 1 2 3 4 5 6 
#
# 1 0.018675 -0.000068 -0.002083 0.003913 -0.010195 -0.013969
# 2 -0.000068 0.010391 -0.005621 0.001671 -0.001269 -0.001702
# 3 -0.002083 -0.005621 0.025075 -0.003341 -0.002957 -0.007221
# 4 0.003913 0.001671 -0.003341 0.022282 -0.004115 -0.008010
# 5 -0.010195 -0.001269 -0.002957 -0.004115 0.029171 0.010184
# 6 -0.013969 -0.001702 -0.007221 -0.008010 0.010184 0.043159
#
#
# Mechanical properties :
#
#
# Convention : Reuss Voigt Hill
#
# Bulk Modulus (GPa) = 25.90864 47.02202 36.46533
# Shear Modulus (GPa) = 28.22273 39.31883 33.77078
#
# Velocity S-wave (km/s) = 3.53794 4.17591 3.87009
# Velocity P-wave (km/s) = 5.30848 6.64120 6.01188
#
# Compressibility (1/GPa) = 0.03859716
#
# Stress axis : x y z
#
# Youngs Moduli (GPa) = 53.54778 96.23728 39.88031
#
# Poissons Ratio (x) = 0.00650 0.08307
# Poissons Ratio (y) = 0.00362 0.22418
# Poissons Ratio (z) = 0.11154 0.54098
#
# Static dielectric constant tensor:
#      x y z
#    x 1.851510 -0.017530 0.019840 
#    y -0.017530 1.832890 -0.025790 
#    z 0.019840 -0.025790 1.884350 
# 
# From -- ./inp_files/495033.got.cif
#   From: 2010.05.17/outbox.cif.g08.bks.cpg/sg2_248_cif.got.tgz:495033.got - 2010.06.03 11:33:40.
