data_PCOD9055448
_publ_section_title
;
Structure prediction by ZEFSAII (Michael W. Deem and Ramdas Pophale) SiO2 
 PCOD9055448
Probable space group: P -1
;
_chemical_formula_sum "Si O2"
_cell_formula_units_Z 16
_cell_length_a 8.654575
_cell_length_b 10.476055
_cell_length_c 11.031792
_cell_angle_alpha 52.658731
_cell_angle_beta 59.942452
_cell_angle_gamma 53.953672
_cell_volume 626.625532
_symmetry_space_group_name_H-M "P -1"
_symmetry_group_IT_number 2
_symmetry_cell_setting 'triclinic'
loop_
_space_group_symop_operation_xyz
x,y,z
-x,-y,-z
loop_
_atom_site_type_symbol
_atom_site_label
_atom_site_fract_x
_atom_site_fract_y
_atom_site_fract_z
Si Si1 0.847406 0.345512 0.944276
Si Si2 0.389633 0.732151 0.132900
Si Si3 0.712852 0.743095 0.866202
Si Si4 0.063542 0.783140 0.582186
Si Si5 0.877910 0.569526 0.384961
Si Si6 0.002003 0.990682 0.759331
Si Si7 0.584038 0.084683 0.317348
Si Si8 0.513211 0.348701 0.394732
O O1 0.692592 0.304236 0.944633
O O2 0.765278 0.542920 0.916563
O O3 0.020312 0.334575 0.792087
O O4 0.934514 0.205507 0.098512
O O5 0.209443 0.891073 0.172000
O O6 0.440176 0.557342 0.292102
O O7 0.590887 0.758347 0.027576
O O8 0.546453 0.881435 0.767510
O O9 0.900312 0.784967 0.743481
O O10 0.096888 0.607581 0.593178
O O11 0.999606 0.941961 0.417542
O O12 0.275666 0.741217 0.577268
O O13 0.653458 0.679750 0.447376
O O14 0.000000 0.500000 0.500000
O O15 0.185007 0.023766 0.723860
O O16 0.536914 0.272859 0.292854
O O17 0.500000 0.000000 0.500000
#
# Coordination Sequence:
#
# PCOD9055448 Si02
#       8
#     2   2   2   2   2   2   2   2
#     4  11  22  39  69 105 139 174 231 297 345 404
#     4  12  23  39  73 104 138 179 234 296 355 406
#     4  11  23  45  71 102 136 183 239 284 348 424
#     4  11  25  46  71 104 142 188 235 282 349 431
#     4  11  21  41  75 106 133 181 243 286 337 413
#     4  12  25  41  68 104 146 173 233 294 353 404
#     4  12  25  42  73 103 136 183 241 297 340 411
#     4  12  25  44  75  99 144 190 232 283 361 419
#
# _framework density 25.533591000000001
#
# number of rings (size 3 to 8) (size 9 to 14) (size 15 to 20)
#    0.000    0.500    6.250    2.625    1.750    1.000 
#    0.000    0.625    0.000    0.000    0.000    0.000 
#    0.000    0.000    0.000    0.000    0.000    0.000 
#
# Total GULP energy -89641.623853 kJ/mol
# GULP energy per Si atom -5602.601491 kJ/mol
# Density = 2.547548 g / cm^3
# Si number density = 25.533591 Si / 1000 Ang^3
#
#
#
# Elastic Constant Matrix: (Units=GPa)
#
#
# Indices 1 2 3 4 5 6 
#
# 1 119.4197 26.0313 54.0414 7.7537 -13.3887 -39.7667
# 2 26.0313 105.9311 56.6683 2.8907 -19.0145 -41.8548
# 3 54.0414 56.6683 157.0206 7.3714 -20.0492 -23.4343
# 4 7.7537 2.8907 7.3714 52.5355 -21.0634 -10.5384
# 5 -13.3887 -19.0145 -20.0492 -21.0634 53.4143 7.7343
# 6 -39.7667 -41.8548 -23.4343 -10.5384 7.7343 42.2628
#
#
#
# Elastic Compliance Matrix: (Units=1/GPa)
#
#
# Indices 1 2 3 4 5 6 
#
# 1 0.015324 0.006404 -0.004609 0.002869 0.002858 0.018398
# 2 0.006404 0.021616 -0.005862 0.005987 0.005899 0.024596
# 3 -0.004609 -0.005862 0.009408 -0.001140 0.000610 -0.005322
# 4 0.002869 0.005987 -0.001140 0.025147 0.010553 0.012336
# 5 0.002858 0.005899 0.000610 0.010553 0.024924 0.006940
# 6 0.018398 0.024596 -0.005322 0.012336 0.006940 0.064186
#
#
# Mechanical properties :
#
#
# Convention : Reuss Voigt Hill
#
# Bulk Modulus (GPa) = 26.16888 72.87259 49.52074
# Shear Modulus (GPa) = 27.55145 46.01789 36.78467
#
# Velocity S-wave (km/s) = 3.28842 4.24990 3.79969
# Velocity P-wave (km/s) = 4.96883 7.25837 6.21986
#
# Compressibility (1/GPa) = 0.03821333
#
# Stress axis : x y z
#
# Youngs Moduli (GPa) = 65.25507 46.26162 106.29510
#
# Poissons Ratio (x) = -0.29626 0.48995
# Poissons Ratio (y) = -0.41790 0.62313
# Poissons Ratio (z) = 0.30078 0.27120
#
# Static dielectric constant tensor:
#      x y z
#    x 2.041020 0.107950 -0.050830 
#    y 0.107950 2.075580 0.035340 
#    z -0.050830 0.035340 2.084150 
# 
# From -- ./inp_files/391998.got.cif
#   From: 2010.05.17/outbox.cif.g08.bks.cpg/sg2_196_cif.got.tgz:391998.got - 2010.06.03 11:33:40.
