data_PCOD9055719
_publ_section_title
;
Structure prediction by ZEFSAII (Michael W. Deem and Ramdas Pophale) SiO2 
 PCOD9055719
Probable space group: P -1
;
_chemical_formula_sum "Si O2"
_cell_formula_units_Z 14
_cell_length_a 8.985158
_cell_length_b 9.922263
_cell_length_c 7.212153
_cell_angle_alpha 115.208609
_cell_angle_beta 108.296430
_cell_angle_gamma 86.042483
_cell_volume 550.770959
_symmetry_space_group_name_H-M "P -1"
_symmetry_group_IT_number 2
_symmetry_cell_setting 'triclinic'
loop_
_space_group_symop_operation_xyz
x,y,z
-x,-y,-z
loop_
_atom_site_type_symbol
_atom_site_label
_atom_site_fract_x
_atom_site_fract_y
_atom_site_fract_z
Si Si1 0.152032 0.561866 0.472580
Si Si2 0.161890 0.631732 0.073283
Si Si3 0.349805 0.290372 0.451638
Si Si4 0.897703 0.129537 0.382263
Si Si5 0.214736 0.301366 0.778986
Si Si6 0.879866 0.833332 0.986893
Si Si7 0.381681 0.870203 0.458951
O O1 0.291118 0.452396 0.479339
O O2 0.176929 0.729557 0.657403
O O3 0.000000 0.500000 0.500000
O O4 0.134551 0.584964 0.254451
O O5 0.194156 0.478213 0.895746
O O6 0.304587 0.757185 0.209867
O O7 0.017233 0.720309 0.992299
O O8 0.343861 0.282139 0.665814
O O9 0.515134 0.232146 0.429422
O O10 0.209978 0.180308 0.248335
O O11 0.767971 0.076100 0.455122
O O12 0.056639 0.204226 0.585390
O O13 0.925773 0.998449 0.174646
O O14 0.246696 0.237627 0.954903
O O15 0.500000 0.000000 0.500000
#
# Coordination Sequence:
#
# PCOD9055719 Si02
#       7
#     2   2   2   2   2   2   2
#     4  11  21  43  68 109 140 184 245 303 347 439
#     4  11  25  45  81 102 155 198 237 311 374 424
#     4  12  27  44  77 107 150 191 251 297 369 448
#     4  11  25  43  77 103 152 192 240 310 370 420
#     4  12  23  47  75 110 142 193 252 309 353 436
#     4  12  24  45  76 110 142 198 248 304 363 432
#     4  11  27  50  71 110 154 194 239 308 377 445
#
# _framework density 25.418914000000001
#
# number of rings (size 3 to 8) (size 9 to 14) (size 15 to 20)
#    0.000    0.571    5.714    2.571    2.000    4.000 
#    2.571    0.000    0.000    0.000    0.000    0.000 
#    0.000    0.000    0.000    0.000    0.000    0.000 
#
# Total GULP energy -78282.814615 kJ/mol
# GULP energy per Si atom -5591.629615 kJ/mol
# Density = 2.536106 g / cm^3
# Si number density = 25.418914 Si / 1000 Ang^3
#
#
#
# Elastic Constant Matrix: (Units=GPa)
#
#
# Indices 1 2 3 4 5 6 
#
# 1 102.5456 41.8123 40.1134 8.3367 -3.3620 -0.3583
# 2 41.8123 87.1066 41.8846 42.0338 -4.8641 -24.9422
# 3 40.1134 41.8846 125.2688 32.6019 -16.1718 -8.1688
# 4 8.3367 42.0338 32.6019 60.0266 -0.0998 -0.2292
# 5 -3.3620 -4.8641 -16.1718 -0.0998 43.3537 2.8126
# 6 -0.3583 -24.9422 -8.1688 -0.2292 2.8126 54.2287
#
#
#
# Elastic Compliance Matrix: (Units=1/GPa)
#
#
# Indices 1 2 3 4 5 6 
#
# 1 0.014710 -0.010258 -0.003579 0.007063 -0.000999 -0.005079
# 2 -0.010258 0.029837 -0.000682 -0.019045 0.001384 0.013400
# 3 -0.003579 -0.000682 0.011250 -0.005125 0.003757 0.001141
# 4 0.007063 -0.019045 -0.005125 0.031758 -0.002830 -0.009204
# 5 -0.000999 0.001384 0.003757 -0.002830 0.024544 -0.000089
# 6 -0.005079 0.013400 0.001141 -0.009204 -0.000089 0.024708
#
#
# Mechanical properties :
#
#
# Convention : Reuss Voigt Hill
#
# Bulk Modulus (GPa) = 37.37225 62.50463 49.93844
# Shear Modulus (GPa) = 28.60979 44.26253 36.43616
#
# Velocity S-wave (km/s) = 3.35853 4.17744 3.79017
# Velocity P-wave (km/s) = 5.45657 6.92179 6.23239
#
# Compressibility (1/GPa) = 0.02675783
#
# Stress axis : x y z
#
# Youngs Moduli (GPa) = 67.98187 33.51550 88.88847
#
# Poissons Ratio (x) = 0.34382 0.31812
# Poissons Ratio (y) = 0.69739 0.06064
# Poissons Ratio (z) = 0.24329 0.02286
#
# Static dielectric constant tensor:
#      x y z
#    x 2.024350 0.051510 -0.010810 
#    y 0.051510 2.112120 -0.020590 
#    z -0.010810 -0.020590 2.029770 
# 
# From -- ./inp_files/191002.got.cif
#   From: 2010.05.17/outbox.cif.g08.bks.cpg/sg2_96_cif.got.tgz:191002.got - 2010.06.03 11:33:40.
