data_PCOD9055227
_publ_section_title
;
Structure prediction by ZEFSAII (Michael W. Deem and Ramdas Pophale) SiO2 
 PCOD9055227
Probable space group: P -1
;
_chemical_formula_sum "Si O2"
_cell_formula_units_Z 13
_cell_length_a 10.110881
_cell_length_b 5.321607
_cell_length_c 9.980346
_cell_angle_alpha 88.849079
_cell_angle_beta 68.517352
_cell_angle_gamma 101.443287
_cell_volume 487.225390
_symmetry_space_group_name_H-M "P -1"
_symmetry_group_IT_number 2
_symmetry_cell_setting 'triclinic'
loop_
_space_group_symop_operation_xyz
x,y,z
-x,-y,-z
loop_
_atom_site_type_symbol
_atom_site_label
_atom_site_fract_x
_atom_site_fract_y
_atom_site_fract_z
Si Si1 0.489108 0.049424 0.302622
Si Si2 0.949568 0.846564 0.685854
Si Si3 0.608256 0.324838 0.009577
Si Si4 0.500000 0.500000 0.500000
Si Si5 0.765563 0.862492 0.311088
Si Si6 0.210828 0.706533 0.322436
Si Si7 0.121887 0.337013 0.983934
O O1 0.521299 0.091565 0.132805
O O2 0.468869 0.302399 0.383150
O O3 0.622819 0.963469 0.323005
O O4 0.348550 0.813520 0.366771
O O5 0.884490 0.584270 0.631339
O O6 0.885982 0.081712 0.652454
O O7 0.894188 0.782430 0.860370
O O8 0.122799 0.950627 0.635694
O O9 0.720034 0.474934 0.075786
O O10 0.500000 0.500000 0.000000
O O11 0.712643 0.284102 0.852116
O O12 0.680795 0.583844 0.397016
O O13 0.862635 0.847207 0.142814
O O14 0.000000 0.500000 0.000000
#
# Coordination Sequence:
#
# PCOD9055227 Si02
#       7
#     2   2   2   1   2   2   2
#     4  12  25  47  75 106 151 202 260 303 371 454
#     4  11  25  44  74 112 151 188 239 315 395 450
#     4  11  21  40  74 112 151 189 241 314 392 449
#     4  12  30  48  76 104 152 204 272 298 360 442
#     4  12  25  47  75 106 151 202 260 303 371 454
#     4  11  25  44  74 112 151 188 239 315 395 450
#     4  11  21  40  74 112 151 189 241 314 392 449
#
# _framework density 26.681694
#
# number of rings (size 3 to 8) (size 9 to 14) (size 15 to 20)
#    0.000    0.615    1.538    7.846    4.308    0.000 
#    0.000    1.538    0.000    0.000    0.000    0.000 
#    0.000    0.000    0.000    0.000    0.000    0.000 
#
# Total GULP energy -72616.403256 kJ/mol
# GULP energy per Si atom -5585.877174 kJ/mol
# Density = 2.662097 g / cm^3
# Si number density = 26.681694 Si / 1000 Ang^3
#
#
#
# Elastic Constant Matrix: (Units=GPa)
#
#
# Indices 1 2 3 4 5 6 
#
# 1 215.6283 110.4792 24.2524 2.7805 -22.1692 14.6066
# 2 110.4792 171.5424 19.1417 -4.7997 -7.4162 45.0838
# 3 24.2524 19.1417 155.9313 5.9099 -1.5852 2.3602
# 4 2.7805 -4.7997 5.9099 51.1525 -4.8390 -3.5785
# 5 -22.1692 -7.4162 -1.5852 -4.8390 20.6803 -8.0821
# 6 14.6066 45.0838 2.3602 -3.5785 -8.0821 73.2156
#
#
#
# Elastic Compliance Matrix: (Units=1/GPa)
#
#
# Indices 1 2 3 4 5 6 
#
# 1 0.008168 -0.005566 -0.000549 0.000019 0.007768 0.002674
# 2 -0.005566 0.010874 -0.000443 0.000543 -0.004327 -0.006023
# 3 -0.000549 -0.000443 0.006578 -0.000803 -0.000397 0.000087
# 4 0.000019 0.000543 -0.000803 0.020292 0.005400 0.001275
# 5 0.007768 -0.004327 -0.000397 0.005400 0.059473 0.007957
# 6 0.002674 -0.006023 0.000087 0.001275 0.007957 0.017771
#
#
# Mechanical properties :
#
#
# Convention : Reuss Voigt Hill
#
# Bulk Modulus (GPa) = 79.96834 94.53871 87.25352
# Shear Modulus (GPa) = 35.60212 54.95825 45.28019
#
# Velocity S-wave (km/s) = 3.65681 4.54340 4.12400
# Velocity P-wave (km/s) = 6.91852 7.93928 7.44642
#
# Compressibility (1/GPa) = 0.01250495
#
# Stress axis : x y z
#
# Youngs Moduli (GPa) = 122.42450 91.96003 152.02279
#
# Poissons Ratio (x) = 0.51182 0.08353
# Poissons Ratio (y) = 0.68138 0.06730
# Poissons Ratio (z) = 0.06726 0.04071
#
# Static dielectric constant tensor:
#      x y z
#    x 2.069190 -0.126220 0.037270 
#    y -0.126220 2.331240 -0.106100 
#    z 0.037270 -0.106100 2.100190 
# 
# From -- ./inp_files/372545.got.cif
#   From: 2010.05.17/outbox.cif.g08.bks.cpg/sg2_187_cif.got.tgz:372545.got - 2010.06.03 11:33:40.
