data_PCOD9055392
_publ_section_title
;
Structure prediction by ZEFSAII (Michael W. Deem and Ramdas Pophale) SiO2 
 PCOD9055392
Probable space group: P -1
;
_chemical_formula_sum "Si O2"
_cell_formula_units_Z 16
_cell_length_a 8.293807
_cell_length_b 10.694152
_cell_length_c 16.305031
_cell_angle_alpha 126.989860
_cell_angle_beta 142.559522
_cell_angle_gamma 68.137925
_cell_volume 685.517092
_symmetry_space_group_name_H-M "P -1"
_symmetry_group_IT_number 2
_symmetry_cell_setting 'triclinic'
loop_
_space_group_symop_operation_xyz
x,y,z
-x,-y,-z
loop_
_atom_site_type_symbol
_atom_site_label
_atom_site_fract_x
_atom_site_fract_y
_atom_site_fract_z
Si Si1 0.022949 0.230221 0.292161
Si Si2 0.556095 0.486404 0.613940
Si Si3 0.500514 0.308906 0.843537
Si Si4 0.963407 0.872650 0.507707
Si Si5 0.915582 0.625170 0.157419
Si Si6 0.598991 0.217462 0.257234
Si Si7 0.182907 0.953402 0.327858
Si Si8 0.206859 0.899203 0.010484
O O1 0.780315 0.251567 0.262486
O O2 0.286333 0.356495 0.479046
O O3 0.928065 0.236954 0.162747
O O4 0.109894 0.057249 0.264210
O O5 0.500000 0.500000 0.500000
O O6 0.567825 0.649527 0.734186
O O7 0.825779 0.422411 0.714545
O O8 0.324362 0.245255 0.668381
O O9 0.277254 0.326487 0.830013
O O10 0.656041 0.180225 0.892710
O O11 0.716429 0.471455 0.977699
O O12 0.203396 0.781268 0.583081
O O13 0.962026 0.973108 0.628163
O O14 0.000000 0.000000 0.500000
O O15 0.041996 0.766648 0.200917
O O16 0.428915 0.036309 0.109719
O O17 0.500000 0.000000 0.500000
O O18 0.000000 0.000000 0.000000
#
# Coordination Sequence:
#
# PCOD9055392 Si02
#       8
#     2   2   2   2   2   2   2   2
#     4  11  25  45  69  96 141 180 223 283 347 412
#     4  12  24  42  69 102 134 177 234 284 334 408
#     4  11  23  41  69 100 134 173 225 288 334 391
#     4  11  21  41  70  96 128 180 230 268 324 410
#     4  11  23  42  65  98 137 174 226 279 336 395
#     4  11  24  43  67 101 139 183 222 279 353 399
#     4  11  23  42  68  95 131 177 220 274 338 395
#     4  12  25  43  70 103 133 177 232 283 340 407
#
# _framework density 23.340046000000001
#
# number of rings (size 3 to 8) (size 9 to 14) (size 15 to 20)
#    0.000    0.750    3.750    4.500    1.750    1.000 
#    0.000    3.125    0.000    0.000    0.000    0.000 
#    0.000    0.000    0.000    0.000    0.000    0.000 
#
# Total GULP energy -89519.748183 kJ/mol
# GULP energy per Si atom -5594.984261 kJ/mol
# Density = 2.328692 g / cm^3
# Si number density = 23.340046 Si / 1000 Ang^3
#
#
#
# Elastic Constant Matrix: (Units=GPa)
#
#
# Indices 1 2 3 4 5 6 
#
# 1 44.3952 -0.6586 -9.8467 1.5740 14.5234 -11.6447
# 2 -0.6586 72.0739 -1.7929 5.9523 11.5663 -13.1713
# 3 -9.8467 -1.7929 95.3933 19.8910 15.6778 -0.5239
# 4 1.5740 5.9523 19.8910 48.5492 7.0144 12.5385
# 5 14.5234 11.5663 15.6778 7.0144 40.8648 1.5805
# 6 -11.6447 -13.1713 -0.5239 12.5385 1.5805 32.2435
#
#
#
# Elastic Compliance Matrix: (Units=1/GPa)
#
#
# Indices 1 2 3 4 5 6 
#
# 1 0.035998 0.007811 0.008628 -0.008391 -0.017665 0.020460
# 2 0.007811 0.018437 0.004013 -0.006299 -0.008967 0.013306
# 3 0.008628 0.004013 0.014529 -0.007620 -0.008793 0.008385
# 4 -0.008391 -0.006299 -0.007620 0.028671 0.003426 -0.017044
# 5 -0.017665 -0.008967 -0.008793 0.003426 0.036587 -0.013312
# 6 0.020460 0.013306 0.008385 -0.017044 -0.013312 0.051256
#
#
# Mechanical properties :
#
#
# Convention : Reuss Voigt Hill
#
# Bulk Modulus (GPa) = 9.10199 20.80734 14.95467
# Shear Modulus (GPa) = 27.59445 39.27555 33.43500
#
# Velocity S-wave (km/s) = 3.44216 4.10659 3.78897
# Velocity P-wave (km/s) = 4.43916 5.60532 5.05598
#
# Compressibility (1/GPa) = 0.10986612
#
# Stress axis : x y z
#
# Youngs Moduli (GPa) = 27.77960 54.23953 68.82860
#
# Poissons Ratio (x) = -0.42364 -0.59385
# Poissons Ratio (y) = -0.21697 -0.27621
# Poissons Ratio (z) = -0.23968 -0.21766
#
# Static dielectric constant tensor:
#      x y z
#    x 1.636970 0.655950 0.261080 
#    y 0.655950 0.530160 -0.546870 
#    z 0.261080 -0.546870 1.689580 
# 
# From -- ./inp_files/274620.got.cif
#   From: 2010.05.17/outbox.cif.g08.bks.cpg/sg2_138_cif.got.tgz:274620.got - 2010.06.03 11:33:40.
