data_PCOD9055931
_publ_section_title
;
Structure prediction by ZEFSAII (Michael W. Deem and Ramdas Pophale) SiO2 
 PCOD9055931
Probable space group: P -1
;
_chemical_formula_sum "Si O2"
_cell_formula_units_Z 16
_cell_length_a 9.109626
_cell_length_b 14.097461
_cell_length_c 12.753999
_cell_angle_alpha 78.141707
_cell_angle_beta 30.259990
_cell_angle_gamma 67.736226
_cell_volume 737.353773
_symmetry_space_group_name_H-M "P -1"
_symmetry_group_IT_number 2
_symmetry_cell_setting 'triclinic'
loop_
_space_group_symop_operation_xyz
x,y,z
-x,-y,-z
loop_
_atom_site_type_symbol
_atom_site_label
_atom_site_fract_x
_atom_site_fract_y
_atom_site_fract_z
Si Si1 0.922122 0.426088 0.985632
Si Si2 0.151101 0.835625 0.018159
Si Si3 0.823107 0.958163 0.378368
Si Si4 0.860653 0.791990 0.576454
Si Si5 0.841370 0.906280 0.782247
Si Si6 0.119264 0.777386 0.835651
Si Si7 0.165578 0.316253 0.665771
Si Si8 0.791923 0.433635 0.670436
O O1 0.916441 0.324935 0.072954
O O2 0.575570 0.490007 0.133867
O O3 0.000000 0.500000 0.000000
O O4 0.173920 0.385120 0.745056
O O5 0.529584 0.777330 0.787526
O O6 0.032966 0.862600 0.965204
O O7 0.083652 0.919809 0.133124
O O8 0.973418 0.765364 0.187094
O O9 0.850928 0.866240 0.465271
O O10 0.500000 0.000000 0.500000
O O11 0.888794 0.047174 0.381310
O O12 0.873768 0.852632 0.660994
O O13 0.127522 0.673178 0.424141
O O14 0.910620 0.821262 0.851840
O O15 0.500000 0.000000 0.000000
O O16 0.487854 0.742135 0.584631
O O17 0.912955 0.388175 0.720949
O O18 0.000000 0.500000 0.500000
#
# Coordination Sequence:
#
# PCOD9055931 Si02
#       8
#     2   2   2   2   2   2   2   2
#     4  11  27  43  70 108 143 186 234 298 365 423
#     4  11  21  44  72 100 134 184 237 292 346 419
#     4  12  26  46  74 101 138 195 240 291 358 426
#     4  12  26  46  70 107 147 179 244 302 352 425
#     4  12  28  47  71 105 148 192 230 300 370 420
#     4  11  25  47  69 103 146 184 241 295 349 436
#     4  11  22  45  71 101 141 185 237 291 352 423
#     4  12  23  46  74 104 139 192 239 292 358 428
#
# _framework density 21.699217000000001
#
# number of rings (size 3 to 8) (size 9 to 14) (size 15 to 20)
#    0.000    0.500    5.000    3.000    3.500    4.500 
#    2.250    0.000    0.000    0.000    0.000    0.000 
#    0.000    0.000    0.000    0.000    0.000    0.000 
#
# Total GULP energy -89454.636089 kJ/mol
# GULP energy per Si atom -5590.914756 kJ/mol
# Density = 2.164983 g / cm^3
# Si number density = 21.699217 Si / 1000 Ang^3
#
#
#
# Elastic Constant Matrix: (Units=GPa)
#
#
# Indices 1 2 3 4 5 6 
#
# 1 149.4440 56.3648 47.0262 5.9073 35.5810 3.5254
# 2 56.3648 104.6784 32.7567 -0.1462 20.3925 -7.9555
# 3 47.0262 32.7567 85.7379 -2.8364 26.4835 -7.3447
# 4 5.9073 -0.1462 -2.8364 23.6892 5.4473 -0.4326
# 5 35.5810 20.3925 26.4835 5.4473 43.3331 6.7233
# 6 3.5254 -7.9555 -7.3447 -0.4326 6.7233 54.2371
#
#
#
# Elastic Compliance Matrix: (Units=1/GPa)
#
#
# Indices 1 2 3 4 5 6 
#
# 1 0.010195 -0.003802 -0.002948 -0.001934 -0.004368 -0.001094
# 2 -0.003802 0.012793 -0.001874 0.001362 -0.002259 0.002161
# 3 -0.002948 -0.001874 0.016948 0.004687 -0.008150 0.003260
# 4 -0.001934 0.001362 0.004687 0.045135 -0.007948 0.002305
# 5 -0.004368 -0.002259 -0.008150 -0.007948 0.034560 -0.005499
# 6 -0.001094 0.002161 0.003260 0.002305 -0.005499 0.019967
#
#
# Mechanical properties :
#
#
# Convention : Reuss Voigt Hill
#
# Bulk Modulus (GPa) = 44.07596 68.01730 56.04663
# Shear Modulus (GPa) = 30.41173 37.83271 34.12222
#
# Velocity S-wave (km/s) = 3.74774 4.18006 3.96979
# Velocity P-wave (km/s) = 6.25170 7.39667 6.84816
#
# Compressibility (1/GPa) = 0.02268810
#
# Stress axis : x y z
#
# Youngs Moduli (GPa) = 98.08444 78.16679 59.00318
#
# Poissons Ratio (x) = 0.29721 0.17394
# Poissons Ratio (y) = 0.37294 0.11058
# Poissons Ratio (z) = 0.28915 0.14650
#
# Static dielectric constant tensor:
#      x y z
#    x 1.802070 0.025650 0.006100 
#    y 0.025650 1.879200 0.080320 
#    z 0.006100 0.080320 1.840420 
# 
# From -- ./inp_files/52462.got.cif
#   From: 2010.05.17/outbox.cif.g08.bks.cpg/sg2_27_cif.got.tgz:52462.got - 2010.06.03 11:33:40.
