data_PCOD9055055
_publ_section_title
;
Structure prediction by ZEFSAII (Michael W. Deem and Ramdas Pophale) SiO2 
 PCOD9055055
Probable space group: P -1
;
_chemical_formula_sum "Si O2"
_cell_formula_units_Z 16
_cell_length_a 11.947265
_cell_length_b 11.731602
_cell_length_c 11.756841
_cell_angle_alpha 79.352282
_cell_angle_beta 42.001382
_cell_angle_gamma 109.954603
_cell_volume 743.233601
_symmetry_space_group_name_H-M "P -1"
_symmetry_group_IT_number 2
_symmetry_cell_setting 'triclinic'
loop_
_space_group_symop_operation_xyz
x,y,z
-x,-y,-z
loop_
_atom_site_type_symbol
_atom_site_label
_atom_site_fract_x
_atom_site_fract_y
_atom_site_fract_z
Si Si1 0.785458 0.043802 0.156300
Si Si2 0.041012 0.027847 0.777477
Si Si3 0.764851 0.452519 0.640491
Si Si4 0.733479 0.712220 0.612431
Si Si5 0.190067 0.407385 0.063425
Si Si6 0.236367 0.192961 0.187288
Si Si7 0.290256 0.688598 0.539615
Si Si8 0.251073 0.433182 0.746567
O O1 0.830496 0.019051 0.255239
O O2 0.495942 0.889854 0.377663
O O3 0.874753 0.991327 0.009888
O O4 0.981626 0.246146 0.947040
O O5 0.232078 0.217453 0.551902
O O6 0.878926 0.938807 0.803618
O O7 0.810571 0.615440 0.570285
O O8 0.689323 0.363888 0.589483
O O9 0.000000 0.500000 0.500000
O O10 0.526235 0.321254 0.924576
O O11 0.833385 0.834677 0.622527
O O12 0.449178 0.581047 0.876582
O O13 0.148867 0.274320 0.194234
O O14 0.970458 0.382910 0.247358
O O15 0.235596 0.402560 0.898032
O O16 0.283085 0.582591 0.657948
O O17 0.500000 0.500000 0.500000
#
# Coordination Sequence:
#
# PCOD9055055 Si02
#       8
#     2   2   2   2   2   2   2   2
#     4  11  23  41  67  96 133 170 217 270 325 381
#     4  11  21  40  64  94 127 168 216 267 324 385
#     4  11  22  42  67  92 125 169 217 267 329 387
#     4  11  23  39  68  94 125 170 219 266 324 391
#     4  11  23  42  62  97 129 169 218 262 328 385
#     4  11  21  42  63  94 126 169 216 265 325 392
#     4  12  24  41  66  97 133 171 217 269 325 390
#     4  12  23  42  68  97 131 173 221 269 323 390
#
# _framework density 21.527552
#
# number of rings (size 3 to 8) (size 9 to 14) (size 15 to 20)
#    0.000    0.750    2.500    9.000    0.000    0.500 
#    2.250    0.625    0.000    0.000    0.000    0.000 
#    0.000    0.000    0.000    0.000    0.000    0.000 
#
# Total GULP energy -89120.445485 kJ/mol
# GULP energy per Si atom -5570.027843 kJ/mol
# Density = 2.147855 g / cm^3
# Si number density = 21.527552 Si / 1000 Ang^3
#
#
#
# Elastic Constant Matrix: (Units=GPa)
#
#
# Indices 1 2 3 4 5 6 
#
# 1 103.5083 18.3036 73.9419 3.1630 -7.6580 12.2960
# 2 18.3036 60.9342 43.6618 -9.6044 -15.7811 23.6784
# 3 73.9419 43.6618 66.3628 6.8584 -11.7001 -21.8463
# 4 3.1630 -9.6044 6.8584 34.9443 5.8105 -1.5271
# 5 -7.6580 -15.7811 -11.7001 5.8105 37.8475 10.8864
# 6 12.2960 23.6784 -21.8463 -1.5271 10.8864 37.8021
#
#
#
# Elastic Compliance Matrix: (Units=1/GPa)
#
#
# Indices 1 2 3 4 5 6 
#
# 1 0.004913 -0.014119 0.007566 -0.004299 -0.005654 0.013073
# 2 -0.014119 0.004229 0.016935 -0.000539 0.000934 0.011440
# 3 0.007566 0.016935 -0.010077 0.003099 0.011339 -0.022033
# 4 -0.004299 -0.000539 0.003099 0.029635 -0.006591 0.006622
# 5 -0.005654 0.000934 0.011339 -0.006591 0.030546 -0.001256
# 6 0.013073 0.011440 -0.022033 0.006622 -0.001256 0.002932
#
#
# Mechanical properties :
#
#
# Convention : Reuss Voigt Hill
#
# Bulk Modulus (GPa) = 50.43172 55.84666 53.13919
# Shear Modulus (GPa) = 104.11567 28.44530 66.28049
#
# Velocity S-wave (km/s) = 6.96196 3.63897 5.55477
# Velocity P-wave (km/s) = 9.38630 6.60715 8.11656
#
# Compressibility (1/GPa) = 0.01982879
#
# Stress axis : x y z
#
# Youngs Moduli (GPa) = 203.53421 236.44428 -99.23099
#
# Poissons Ratio (x) = 3.33833 0.75076
# Poissons Ratio (y) = 2.87368 1.68048
# Poissons Ratio (z) = -1.53989 -4.00420
#
# Static dielectric constant tensor:
#      x y z
#    x 1.751270 0.043020 0.003840 
#    y 0.043020 1.894910 -0.070700 
#    z 0.003840 -0.070700 1.785630 
# 
# From -- ./inp_files/427416.got.cif
#   From: 2010.05.17/outbox.cif.g08.bks.cpg/sg2_214_cif.got.tgz:427416.got - 2010.06.03 11:33:40.
