data_PCOD9055893
_publ_section_title
;
Structure prediction by ZEFSAII (Michael W. Deem and Ramdas Pophale) SiO2 
 PCOD9055893
Probable space group: P -1
;
_chemical_formula_sum "Si O2"
_cell_formula_units_Z 16
_cell_length_a 5.806053
_cell_length_b 26.102855
_cell_length_c 8.895483
_cell_angle_alpha 140.735201
_cell_angle_beta 100.089030
_cell_angle_gamma 64.266337
_cell_volume 737.351664
_symmetry_space_group_name_H-M "P -1"
_symmetry_group_IT_number 2
_symmetry_cell_setting 'triclinic'
loop_
_space_group_symop_operation_xyz
x,y,z
-x,-y,-z
loop_
_atom_site_type_symbol
_atom_site_label
_atom_site_fract_x
_atom_site_fract_y
_atom_site_fract_z
Si Si1 0.550108 0.569734 0.760531
Si Si2 0.282640 0.147642 0.404159
Si Si3 0.195276 0.895812 0.833909
Si Si4 0.200558 0.869129 0.112559
Si Si5 0.370986 0.984842 0.598757
Si Si6 0.992375 0.331582 0.975345
Si Si7 0.330808 0.330017 0.260674
Si Si8 0.043422 0.491527 0.809602
O O1 0.500000 0.500000 0.500000
O O2 0.663151 0.611177 0.745620
O O3 0.762255 0.504656 0.753773
O O4 0.305568 0.651566 0.000981
O O5 0.523900 0.139445 0.304408
O O6 0.433432 0.063023 0.348045
O O7 0.180134 0.242680 0.699822
O O8 0.009864 0.147946 0.312582
O O9 0.270931 0.893013 0.011198
O O10 0.000000 0.000000 0.000000
O O11 0.262432 0.915647 0.369267
O O12 0.388734 0.760623 0.900775
O O13 0.881890 0.916533 0.172302
O O14 0.500000 0.000000 0.500000
O O15 0.099598 0.313046 0.120287
O O16 0.941223 0.424131 0.084610
O O17 0.257284 0.393439 0.543460
O O18 0.000000 0.500000 0.000000
#
# Coordination Sequence:
#
# PCOD9055893 Si02
#       8
#     2   2   2   2   2   2   2   2
#     4  11  21  44  69  93 131 184 230 279 352 423
#     4  12  28  46  76 105 146 194 240 293 366 430
#     4  12  27  51  72 104 149 195 235 299 369 429
#     4  11  26  43  70 101 141 182 243 294 357 427
#     4  11  25  44  70 105 137 188 239 301 348 428
#     4  11  24  44  69 101 135 187 233 288 351 432
#     4  11  23  43  69  98 136 185 232 291 353 424
#     4  11  25  43  68 100 141 173 231 296 358 422
#
# _framework density 21.699276999999999
#
# number of rings (size 3 to 8) (size 9 to 14) (size 15 to 20)
#    0.000    0.750    5.000    1.875   10.500    0.500 
#    2.250    0.000    0.000    0.000    0.000    0.000 
#    0.000    0.000    0.000    0.000    0.000    0.000 
#
# Total GULP energy -89118.114623 kJ/mol
# GULP energy per Si atom -5569.882164 kJ/mol
# Density = 2.164989 g / cm^3
# Si number density = 21.699277 Si / 1000 Ang^3
#
#
#
# Elastic Constant Matrix: (Units=GPa)
#
#
# Indices 1 2 3 4 5 6 
#
# 1 72.0049 0.0781 25.5422 -9.2175 -22.9615 -8.0394
# 2 0.0781 74.6233 32.0506 -14.4197 -0.6676 -9.2388
# 3 25.5422 32.0506 122.5747 7.7670 -33.9629 -11.3375
# 4 -9.2175 -14.4197 7.7670 42.2836 -3.3514 -10.2422
# 5 -22.9615 -0.6676 -33.9629 -3.3514 42.4395 -7.3008
# 6 -8.0394 -9.2388 -11.3375 -10.2422 -7.3008 22.9052
#
#
#
# Elastic Compliance Matrix: (Units=1/GPa)
#
#
# Indices 1 2 3 4 5 6 
#
# 1 0.024040 0.005860 -0.000429 0.014201 0.017765 0.022602
# 2 0.005860 0.019787 -0.005124 0.012582 0.002786 0.014016
# 3 -0.000429 -0.005124 0.013661 -0.001573 0.011804 0.007604
# 4 0.014201 0.012582 -0.001573 0.040345 0.015350 0.032214
# 5 0.017765 0.002786 0.011804 0.015350 0.050075 0.036027
# 6 0.022602 0.014016 0.007604 0.032214 0.036027 0.086896
#
#
# Mechanical properties :
#
#
# Convention : Reuss Voigt Hill
#
# Bulk Modulus (GPa) = 17.21076 42.72721 29.96899
# Shear Modulus (GPa) = 19.71951 35.62778 27.67364
#
# Velocity S-wave (km/s) = 3.01784 4.05642 3.57504
# Velocity P-wave (km/s) = 4.48239 6.45544 5.55718
#
# Compressibility (1/GPa) = 0.05810318
#
# Stress axis : x y z
#
# Youngs Moduli (GPa) = 41.59699 50.53905 73.20158
#
# Poissons Ratio (x) = -0.29617 0.03138
# Poissons Ratio (y) = -0.24377 0.37507
# Poissons Ratio (z) = 0.01783 0.25895
#
# Static dielectric constant tensor:
#      x y z
#    x 2.480650 -1.381340 -0.158660 
#    y -1.381340 4.785300 0.260020 
#    z -0.158660 0.260020 1.791180 
# 
# From -- ./inp_files/48416.got.cif
#   From: 2010.05.17/outbox.cif.g08.bks.cpg/sg2_25_cif.got.tgz:48416.got - 2010.06.03 11:33:40.
