data_PCOD9055233
_publ_section_title
;
Structure prediction by ZEFSAII (Michael W. Deem and Ramdas Pophale) SiO2 
 PCOD9055233
Probable space group: P -1
;
_chemical_formula_sum "Si O2"
_cell_formula_units_Z 14
_cell_length_a 10.062535
_cell_length_b 11.118628
_cell_length_c 9.064153
_cell_angle_alpha 112.078167
_cell_angle_beta 137.481257
_cell_angle_gamma 78.148146
_cell_volume 630.940895
_symmetry_space_group_name_H-M "P -1"
_symmetry_group_IT_number 2
_symmetry_cell_setting 'triclinic'
loop_
_space_group_symop_operation_xyz
x,y,z
-x,-y,-z
loop_
_atom_site_type_symbol
_atom_site_label
_atom_site_fract_x
_atom_site_fract_y
_atom_site_fract_z
Si Si1 0.065562 0.812333 0.379481
Si Si2 0.115296 0.952091 0.799279
Si Si3 0.678436 0.665205 0.988890
Si Si4 0.463304 0.617092 0.199864
Si Si5 0.504192 0.149953 0.856643
Si Si6 0.524357 0.259484 0.431624
Si Si7 0.238560 0.169557 0.395089
O O1 0.067129 0.866959 0.572265
O O2 0.288289 0.799476 0.508977
O O3 0.915438 0.680135 0.187388
O O4 0.962036 0.910690 0.234881
O O5 0.345628 0.946002 0.011459
O O6 0.987231 0.883079 0.797043
O O7 0.589658 0.534215 0.939119
O O8 0.615475 0.791292 0.082740
O O9 0.580734 0.668465 0.750169
O O10 0.394262 0.647314 0.323167
O O11 0.696082 0.679381 0.429092
O O12 0.381684 0.719665 0.068153
O O13 0.354412 0.094761 0.580247
O O14 0.351860 0.165167 0.331793
#
# Coordination Sequence:
#
# PCOD9055233 Si02
#       7
#     2   2   2   2   2   2   2
#     4  11  24  35  62  92 113 154 198 242 283 350
#     4  11  21  41  59  86 121 150 200 240 287 340
#     4  12  19  39  61  89 119 152 194 238 290 347
#     4   8  21  40  58  86 123 148 191 242 289 347
#     4   9  20  36  62  86 113 158 192 238 288 336
#     4   9  22  40  57  90 119 154 187 235 308 328
#     4   8  21  41  57  84 122 149 191 242 282 348
#
# _framework density 22.189081999999999
#
# number of rings (size 3 to 8) (size 9 to 14) (size 15 to 20)
#    1.714    0.286    2.857    0.857    0.000    5.143 
#    2.571    5.000    0.000    0.000    0.000    0.000 
#    0.000    0.000    0.000    0.000    0.000    0.000 
#
# Total GULP energy -78029.941195 kJ/mol
# GULP energy per Si atom -5573.567228 kJ/mol
# Density = 2.213858 g / cm^3
# Si number density = 22.189082 Si / 1000 Ang^3
#
#
#
# Elastic Constant Matrix: (Units=GPa)
#
#
# Indices 1 2 3 4 5 6 
#
# 1 101.9040 19.0566 13.4338 -0.3879 11.9474 15.4913
# 2 19.0566 44.8275 8.3209 5.3934 0.5280 12.2411
# 3 13.4338 8.3209 38.6519 -8.4112 4.0857 2.8541
# 4 -0.3879 5.3934 -8.4112 26.3631 5.4211 1.6949
# 5 11.9474 0.5280 4.0857 5.4211 24.4142 0.8866
# 6 15.4913 12.2411 2.8541 1.6949 0.8866 25.4166
#
#
#
# Elastic Compliance Matrix: (Units=1/GPa)
#
#
# Indices 1 2 3 4 5 6 
#
# 1 0.012255 -0.003462 -0.002120 0.001748 -0.005756 -0.005479
# 2 -0.003462 0.028827 -0.006467 -0.008225 0.004366 -0.010651
# 3 -0.002120 -0.006467 0.031488 0.012747 -0.006932 0.000263
# 4 0.001748 -0.008225 0.012747 0.046474 -0.013087 -0.001178
# 5 -0.005756 0.004366 -0.006932 -0.013087 0.047698 0.001393
# 6 -0.005479 -0.010651 0.000263 -0.001178 0.001393 0.047814
#
#
# Mechanical properties :
#
#
# Convention : Reuss Voigt Hill
#
# Bulk Modulus (GPa) = 20.63139 29.66734 25.14936
# Shear Modulus (GPa) = 19.62232 24.87693 22.24962
#
# Velocity S-wave (km/s) = 2.97698 3.35197 3.17002
# Velocity P-wave (km/s) = 4.59725 5.32730 4.97569
#
# Compressibility (1/GPa) = 0.04846983
#
# Stress axis : x y z
#
# Youngs Moduli (GPa) = 81.60172 34.69019 31.75774
#
# Poissons Ratio (x) = 0.12011 0.06734
# Poissons Ratio (y) = 0.28252 0.20539
# Poissons Ratio (z) = 0.17303 0.22435
#
# Static dielectric constant tensor:
#      x y z
#    x 1.823150 0.018390 -0.031950 
#    y 0.018390 1.837830 0.038190 
#    z -0.031950 0.038190 1.806680 
# 
# From -- ./inp_files/180908.got.cif
#   From: 2010.05.17/outbox.cif.g08.bks.cpg/sg2_91_cif.got.tgz:180908.got - 2010.06.03 11:33:40.
