data_PCOD9055285
_publ_section_title
;
Structure prediction by ZEFSAII (Michael W. Deem and Ramdas Pophale) SiO2 
 PCOD9055285
Probable space group: P -1
;
_chemical_formula_sum "Si O2"
_cell_formula_units_Z 16
_cell_length_a 11.933986
_cell_length_b 17.445201
_cell_length_c 11.209804
_cell_angle_alpha 136.496479
_cell_angle_beta 143.623633
_cell_angle_gamma 33.878944
_cell_volume 760.061260
_symmetry_space_group_name_H-M "P -1"
_symmetry_group_IT_number 2
_symmetry_cell_setting 'triclinic'
loop_
_space_group_symop_operation_xyz
x,y,z
-x,-y,-z
loop_
_atom_site_type_symbol
_atom_site_label
_atom_site_fract_x
_atom_site_fract_y
_atom_site_fract_z
Si Si1 0.518550 0.487937 0.680954
Si Si2 0.435383 0.336568 0.241004
Si Si3 0.145680 0.348564 0.207172
Si Si4 0.270612 0.872579 0.938271
Si Si5 0.001040 0.817952 0.978431
Si Si6 0.292954 0.336206 0.748694
Si Si7 0.523094 0.315255 0.677544
Si Si8 0.039542 0.746458 0.667967
O O1 0.538737 0.382657 0.482680
O O2 0.650683 0.545783 0.801715
O O3 0.574630 0.417857 0.778842
O O4 0.246567 0.621725 0.620716
O O5 0.240974 0.333066 0.137762
O O6 0.630801 0.192132 0.181242
O O7 0.085721 0.244703 0.075479
O O8 0.359002 0.310423 0.436165
O O9 0.924858 0.509813 0.220825
O O10 0.048217 0.872724 0.781110
O O11 0.480878 0.759914 0.080590
O O12 0.203497 0.024730 0.058861
O O13 0.092970 0.725626 0.831940
O O14 0.211857 0.816972 0.214090
O O15 0.379608 0.360161 0.727146
O O16 0.186673 0.250479 0.540313
#
# Coordination Sequence:
#
# PCOD9055285 Si02
#       8
#     2   2   2   2   2   2   2   2
#     4   9  19  39  66  96 125 163 212 276 318 365
#     4   9  20  43  64  88 135 164 218 263 310 386
#     4  11  24  42  67  98 128 165 220 271 316 379
#     4  11  27  43  62  97 135 177 210 254 324 395
#     4  12  26  41  64  98 136 172 207 262 330 389
#     4  12  23  40  69 100 126 168 216 272 325 369
#     4  11  22  40  65  98 130 162 213 268 330 368
#     4  11  21  41  66  93 131 163 216 265 319 377
#
# _framework density 21.050934000000002
#
# number of rings (size 3 to 8) (size 9 to 14) (size 15 to 20)
#    0.000    1.250    5.000    1.500    3.500    3.500 
#    0.000    2.500    0.000    0.000    0.000    0.000 
#    0.000    0.000    0.000    0.000    0.000    0.000 
#
# Total GULP energy -89243.261487 kJ/mol
# GULP energy per Si atom -5577.703843 kJ/mol
# Density = 2.100302 g / cm^3
# Si number density = 21.050934 Si / 1000 Ang^3
#
#
#
# Elastic Constant Matrix: (Units=GPa)
#
#
# Indices 1 2 3 4 5 6 
#
# 1 198.3294 43.2844 34.7440 6.0141 13.5378 7.5903
# 2 43.2844 62.6848 26.2715 1.2272 -0.4218 11.2254
# 3 34.7440 26.2715 90.2066 -0.9102 4.6020 -1.4984
# 4 6.0141 1.2272 -0.9102 19.3074 5.7458 1.0944
# 5 13.5378 -0.4218 4.6020 5.7458 15.7998 6.8565
# 6 7.5903 11.2254 -1.4984 1.0944 6.8565 25.3417
#
#
#
# Elastic Compliance Matrix: (Units=1/GPa)
#
#
# Indices 1 2 3 4 5 6 
#
# 1 0.006531 -0.004480 -0.000870 -0.000051 -0.006158 0.001645
# 2 -0.004480 0.024197 -0.006260 -0.003669 0.013374 -0.013207
# 3 -0.000870 -0.006260 0.013723 0.003071 -0.006965 0.005597
# 4 -0.000051 -0.003669 0.003071 0.059330 -0.025157 0.006067
# 5 -0.006158 0.013374 -0.006965 -0.025157 0.092433 -0.028414
# 6 0.001645 -0.013207 0.005597 0.006067 -0.028414 0.052575
#
#
# Mechanical properties :
#
#
# Convention : Reuss Voigt Hill
#
# Bulk Modulus (GPa) = 47.10123 62.20231 54.65177
# Shear Modulus (GPa) = 17.91557 28.55117 23.23337
#
# Velocity S-wave (km/s) = 2.92046 3.68678 3.32576
# Velocity P-wave (km/s) = 5.81339 6.90911 6.38480
#
# Compressibility (1/GPa) = 0.02123087
#
# Stress axis : x y z
#
# Youngs Moduli (GPa) = 153.11063 41.32741 72.86998
#
# Poissons Ratio (x) = 0.18516 0.06338
# Poissons Ratio (y) = 0.68600 0.45617
# Poissons Ratio (z) = 0.13317 0.25871
#
# Static dielectric constant tensor:
#      x y z
#    x 1.771670 0.020900 0.006980 
#    y 0.020900 1.738690 -0.000270 
#    z 0.006980 -0.000270 1.789400 
# 
# From -- ./inp_files/436917.got.cif
#   From: 2010.05.17/outbox.cif.g08.bks.cpg/sg2_219_cif.got.tgz:436917.got - 2010.06.03 11:33:40.
