data_PCOD9055709
_publ_section_title
;
Structure prediction by ZEFSAII (Michael W. Deem and Ramdas Pophale) SiO2 
 PCOD9055709
Probable space group: P -1
;
_chemical_formula_sum "Si O2"
_cell_formula_units_Z 14
_cell_length_a 8.531889
_cell_length_b 11.198000
_cell_length_c 13.536025
_cell_angle_alpha 140.077871
_cell_angle_beta 126.374188
_cell_angle_gamma 70.271429
_cell_volume 650.790520
_symmetry_space_group_name_H-M "P -1"
_symmetry_group_IT_number 2
_symmetry_cell_setting 'triclinic'
loop_
_space_group_symop_operation_xyz
x,y,z
-x,-y,-z
loop_
_atom_site_type_symbol
_atom_site_label
_atom_site_fract_x
_atom_site_fract_y
_atom_site_fract_z
Si Si1 0.525442 0.475700 0.780657
Si Si2 0.924973 0.120680 0.462378
Si Si3 0.142529 0.202249 0.154316
Si Si4 0.675926 0.218380 0.814519
Si Si5 0.843824 0.454603 0.221197
Si Si6 0.504308 0.189087 0.418436
Si Si7 0.900108 0.796647 0.095572
O O1 0.521492 0.311592 0.756910
O O2 0.325692 0.553946 0.765174
O O3 0.542346 0.374941 0.619332
O O4 0.723527 0.639415 0.978834
O O5 0.708802 0.151951 0.430015
O O6 0.070369 0.326720 0.636380
O O7 0.000000 0.000000 0.500000
O O8 0.911884 0.998357 0.279816
O O9 0.353461 0.213512 0.291127
O O10 0.150643 0.209191 0.043283
O O11 0.030845 0.361366 0.254283
O O12 0.000000 0.000000 0.000000
O O13 0.597196 0.997283 0.672656
O O14 0.735136 0.334245 0.011195
O O15 0.878676 0.244110 0.842084
#
# Coordination Sequence:
#
# PCOD9055709 Si02
#       7
#     2   2   2   2   2   2   2
#     4  12  24  40  68 104 130 173 228 270 347 395
#     4  12  25  44  69 106 138 171 223 276 335 401
#     4  11  25  49  68  91 138 176 232 274 325 396
#     4  11  21  43  67  98 137 175 217 284 334 394
#     4  11  24  42  68  97 135 177 220 276 331 392
#     4  12  24  43  70  95 137 181 219 277 330 392
#     4  11  24  42  68  98 136 179 218 277 333 390
#
# _framework density 21.512298999999999
#
# number of rings (size 3 to 8) (size 9 to 14) (size 15 to 20)
#    0.000    0.571    2.857    7.286    0.000    3.429 
#    0.000    0.000    0.000    0.000    0.000    0.000 
#    0.000    0.000    0.000    0.000    0.000    0.000 
#
# Total GULP energy -78392.935173 kJ/mol
# GULP energy per Si atom -5599.495370 kJ/mol
# Density = 2.146334 g / cm^3
# Si number density = 21.512299 Si / 1000 Ang^3
#
#
#
# Elastic Constant Matrix: (Units=GPa)
#
#
# Indices 1 2 3 4 5 6 
#
# 1 114.7372 35.1505 22.0336 11.5944 -2.7766 -39.9618
# 2 35.1505 73.1864 -1.0345 -0.1335 -2.6053 -21.7048
# 3 22.0336 -1.0345 93.9612 24.7723 -1.7206 -12.5282
# 4 11.5944 -0.1335 24.7723 38.4878 0.3472 9.6193
# 5 -2.7766 -2.6053 -1.7206 0.3472 36.4317 9.4066
# 6 -39.9618 -21.7048 -12.5282 9.6193 9.4066 35.9151
#
#
#
# Elastic Compliance Matrix: (Units=1/GPa)
#
#
# Indices 1 2 3 4 5 6 
#
# 1 0.019198 -0.001545 0.002616 -0.014041 -0.005224 0.026468
# 2 -0.001545 0.017930 0.003333 -0.004592 -0.001722 0.011960
# 3 0.002616 0.003333 0.015933 -0.014787 -0.002572 0.015118
# 4 -0.014041 -0.004592 -0.014787 0.049322 0.007428 -0.038711
# 5 -0.005224 -0.001722 -0.002572 0.007428 0.031371 -0.017957
# 6 0.026468 0.011960 0.015118 -0.038711 -0.017957 0.084867
#
#
# Mechanical properties :
#
#
# Convention : Reuss Voigt Hill
#
# Bulk Modulus (GPa) = 16.16290 43.79822 29.98056
# Shear Modulus (GPa) = 21.69809 37.21592 29.45701
#
# Velocity S-wave (km/s) = 3.17935 4.16382 3.70443
# Velocity P-wave (km/s) = 4.58337 6.59699 5.68013
#
# Compressibility (1/GPa) = 0.06187009
#
# Stress axis : x y z
#
# Youngs Moduli (GPa) = 52.08991 55.77118 62.76318
#
# Poissons Ratio (x) = 0.08618 -0.16421
# Poissons Ratio (y) = 0.08049 -0.20922
# Poissons Ratio (z) = -0.13629 -0.18591
#
# Static dielectric constant tensor:
#      x y z
#    x 1.784450 0.013970 0.007710 
#    y 0.013970 1.775620 0.003400 
#    z 0.007710 0.003400 1.740060 
# 
# From -- ./inp_files/177008.got.cif
#   From: 2010.05.17/outbox.cif.g08.bks.cpg/sg2_89_cif.got.tgz:177008.got - 2010.06.03 11:33:40.
