data_PCOD9055129
_publ_section_title
;
Structure prediction by ZEFSAII (Michael W. Deem and Ramdas Pophale) SiO2 
 PCOD9055129
Probable space group: P -1
;
_chemical_formula_sum "Si O2"
_cell_formula_units_Z 16
_cell_length_a 11.470018
_cell_length_b 9.596488
_cell_length_c 13.814728
_cell_angle_alpha 94.606475
_cell_angle_beta 106.894232
_cell_angle_gamma 27.100112
_cell_volume 604.765226
_symmetry_space_group_name_H-M "P -1"
_symmetry_group_IT_number 2
_symmetry_cell_setting 'triclinic'
loop_
_space_group_symop_operation_xyz
x,y,z
-x,-y,-z
loop_
_atom_site_type_symbol
_atom_site_label
_atom_site_fract_x
_atom_site_fract_y
_atom_site_fract_z
Si Si1 0.972276 0.818217 0.916339
Si Si2 0.780249 0.196472 0.120075
Si Si3 0.113708 0.590512 0.149855
Si Si4 0.582548 0.774093 0.606919
Si Si5 0.752188 0.719307 0.121696
Si Si6 0.309913 0.598509 0.526567
Si Si7 0.355194 0.450847 0.733167
Si Si8 0.893596 0.588362 0.355026
O O1 0.977552 0.972889 0.893669
O O2 0.150405 0.542596 0.866210
O O3 0.131559 0.618662 0.044590
O O4 0.642277 0.109655 0.845071
O O5 0.775404 0.284532 0.223496
O O6 0.500000 0.500000 0.000000
O O7 0.840990 0.971883 0.137934
O O8 0.334359 0.383895 0.279100
O O9 0.018051 0.530499 0.130680
O O10 0.673003 0.565762 0.537323
O O11 0.790624 0.688198 0.622177
O O12 0.260641 0.170924 0.578480
O O13 0.701606 0.823850 0.223826
O O14 0.500000 0.000000 0.000000
O O15 0.500000 0.500000 0.500000
O O16 0.457173 0.409698 0.653820
O O17 0.000000 0.000000 0.500000
O O18 0.153144 0.530218 0.657751
#
# Coordination Sequence:
#
# PCOD9055129 Si02
#       8
#     2   2   2   2   2   2   2   2
#     4  12  24  43  68 106 145 196 251 305 382 448
#     4  12  25  43  64 106 148 191 252 303 381 452
#     4  11  23  39  67 100 144 191 238 305 364 447
#     4  11  26  48  74 111 149 194 253 309 366 450
#     4  11  21  40  68 102 146 193 247 298 369 446
#     4  12  30  52  80 111 149 199 254 311 386 454
#     4  12  27  46  76 101 151 194 250 321 379 452
#     4  11  24  46  73 109 146 194 250 308 378 437
#
# _framework density 26.456547
#
# number of rings (size 3 to 8) (size 9 to 14) (size 15 to 20)
#    0.000    0.500    2.500    6.000    3.500    3.000 
#    0.000    0.000    0.000    0.000    0.000    0.000 
#    0.000    0.000    0.000    0.000    0.000    0.000 
#
# Total GULP energy -89482.374710 kJ/mol
# GULP energy per Si atom -5592.648419 kJ/mol
# Density = 2.639633 g / cm^3
# Si number density = 26.456547 Si / 1000 Ang^3
#
#
#
# Elastic Constant Matrix: (Units=GPa)
#
#
# Indices 1 2 3 4 5 6 
#
# 1 125.5983 21.7838 12.8406 11.1352 1.3645 -12.4432
# 2 21.7838 146.4394 29.1104 23.3260 12.4318 -9.8337
# 3 12.8406 29.1104 101.9874 35.0190 -16.4226 -2.4309
# 4 11.1352 23.3260 35.0190 54.5976 -1.7745 -1.3076
# 5 1.3645 12.4318 -16.4226 -1.7745 44.4692 1.3697
# 6 -12.4432 -9.8337 -2.4309 -1.3076 1.3697 40.7957
#
#
#
# Elastic Compliance Matrix: (Units=1/GPa)
#
#
# Indices 1 2 3 4 5 6 
#
# 1 0.008479 -0.000819 -0.000477 -0.001028 -0.000320 0.002338
# 2 -0.000819 0.008035 -0.001928 -0.002090 -0.003066 0.001608
# 3 -0.000477 -0.001928 0.013987 -0.007880 0.005411 -0.000211
# 4 -0.001028 -0.002090 -0.007880 0.024419 -0.001305 -0.000461
# 5 -0.000320 -0.003066 0.005411 -0.001305 0.025344 -0.001407
# 6 0.002338 0.001608 -0.000211 -0.000461 -0.001407 0.025633
#
#
# Mechanical properties :
#
#
# Convention : Reuss Voigt Hill
#
# Bulk Modulus (GPa) = 41.57150 55.72163 48.64656
# Shear Modulus (GPa) = 41.54106 48.65851 45.09978
#
# Velocity S-wave (km/s) = 3.96683 4.29323 4.13325
# Velocity P-wave (km/s) = 6.06038 6.75892 6.41916
#
# Compressibility (1/GPa) = 0.02405494
#
# Stress axis : x y z
#
# Youngs Moduli (GPa) = 117.94000 124.45459 71.49256
#
# Poissons Ratio (x) = 0.10187 0.03408
# Poissons Ratio (y) = 0.09654 0.13784
# Poissons Ratio (z) = 0.05622 0.23995
#
# Static dielectric constant tensor:
#      x y z
#    x 2.067650 -0.046300 0.012580 
#    y -0.046300 2.141760 0.004440 
#    z 0.012580 0.004440 2.141990 
# 
# From -- ./inp_files/515776.got.cif
#   From: 2010.05.17/outbox.cif.g08.bks.cpg/sg2_258_cif.got.tgz:515776.got - 2010.06.03 11:33:40.
