data_PCOD9055551
_publ_section_title
;
Structure prediction by ZEFSAII (Michael W. Deem and Ramdas Pophale) SiO2 
 PCOD9055551
Probable space group: P -1
;
_chemical_formula_sum "Si O2"
_cell_formula_units_Z 16
_cell_length_a 19.907846
_cell_length_b 23.519368
_cell_length_c 9.034521
_cell_angle_alpha 41.197868
_cell_angle_beta 150.480573
_cell_angle_gamma 157.464343
_cell_volume 768.769796
_symmetry_space_group_name_H-M "P -1"
_symmetry_group_IT_number 2
_symmetry_cell_setting 'triclinic'
loop_
_space_group_symop_operation_xyz
x,y,z
-x,-y,-z
loop_
_atom_site_type_symbol
_atom_site_label
_atom_site_fract_x
_atom_site_fract_y
_atom_site_fract_z
Si Si1 0.519356 0.827889 0.302784
Si Si2 0.027172 0.834926 0.640656
Si Si3 0.871722 0.866953 0.902224
Si Si4 0.215815 0.365322 0.694160
Si Si5 0.351055 0.726021 0.519290
Si Si6 0.230702 0.824807 0.290973
Si Si7 0.827381 0.908595 0.206285
Si Si8 0.032785 0.625492 0.592947
O O1 0.615234 0.780099 0.552340
O O2 0.470699 0.808063 0.425596
O O3 0.728645 0.001433 0.296101
O O4 0.274054 0.719469 0.956111
O O5 0.885069 0.688152 0.561235
O O6 0.856690 0.829032 0.347055
O O7 0.093516 0.831139 0.934573
O O8 0.880283 0.777029 0.156195
O O9 0.032150 0.950263 0.902487
O O10 0.000000 0.000000 0.000000
O O11 0.114230 0.390195 0.545830
O O12 0.500000 0.500000 0.000000
O O13 0.254167 0.761982 0.336742
O O14 0.139209 0.544911 0.444469
O O15 0.548523 0.790333 0.888564
O O16 0.108581 0.720455 0.407529
O O17 0.500000 0.000000 0.500000
O O18 0.000000 0.000000 0.500000
#
# Coordination Sequence:
#
# PCOD9055551 Si02
#       8
#     2   2   2   2   2   2   2   2
#     4  11  22  43  75  99 133 178 235 279 343 399
#     4  11  23  44  67 103 135 176 231 286 331 400
#     4  11  21  42  69  98 131 174 228 282 329 392
#     4  12  25  45  71 101 135 174 232 286 340 400
#     4  12  25  46  68  98 142 175 225 288 340 398
#     4  12  27  44  68 100 142 181 226 269 338 417
#     4  11  23  40  70  97 132 178 226 271 340 402
#     4  12  28  45  68 104 138 181 225 281 351 403
#
# _framework density 20.812474000000002
#
# number of rings (size 3 to 8) (size 9 to 14) (size 15 to 20)
#    0.000    0.500    5.000    3.750    7.000    2.000 
#    2.250    1.250    0.000    0.000    0.000    0.000 
#    0.000    0.000    0.000    0.000    0.000    0.000 
#
# Total GULP energy -89379.388981 kJ/mol
# GULP energy per Si atom -5586.211811 kJ/mol
# Density = 2.076510 g / cm^3
# Si number density = 20.812474 Si / 1000 Ang^3
#
#
#
# Elastic Constant Matrix: (Units=GPa)
#
#
# Indices 1 2 3 4 5 6 
#
# 1 29.8992 13.5652 -3.8925 9.0409 -0.5811 -10.0451
# 2 13.5652 48.7531 14.5000 1.3812 -9.0124 -9.4278
# 3 -3.8925 14.5000 131.7741 10.8022 -2.6609 3.5660
# 4 9.0409 1.3812 10.8022 32.8004 1.1280 -1.8218
# 5 -0.5811 -9.0124 -2.6609 1.1280 45.3144 -7.2679
# 6 -10.0451 -9.4278 3.5660 -1.8218 -7.2679 32.2904
#
#
#
# Elastic Compliance Matrix: (Units=1/GPa)
#
#
# Indices 1 2 3 4 5 6 
#
# 1 0.046419 -0.011546 0.003435 -0.012896 0.000435 0.010060
# 2 -0.011546 0.027008 -0.003639 0.003386 0.005923 0.006220
# 3 0.003435 -0.003639 0.008414 -0.003621 -0.000287 -0.001192
# 4 -0.012896 0.003386 -0.003621 0.035072 -0.000707 -0.000804
# 5 0.000435 0.005923 -0.000287 -0.000707 0.024432 0.007356
# 6 0.010060 0.006220 -0.001192 -0.000804 0.007356 0.037656
#
#
# Mechanical properties :
#
#
# Convention : Reuss Voigt Hill
#
# Bulk Modulus (GPa) = 17.14045 28.75241 22.94643
# Shear Modulus (GPa) = 22.52764 34.49796 28.51280
#
# Velocity S-wave (km/s) = 3.29357 4.07573 3.70535
# Velocity P-wave (km/s) = 4.76624 5.99948 5.41806
#
# Compressibility (1/GPa) = 0.05834152
#
# Stress axis : x y z
#
# Youngs Moduli (GPa) = 21.54269 37.02558 118.84988
#
# Poissons Ratio (x) = 0.42751 -0.40830
# Poissons Ratio (y) = 0.24874 0.43252
# Poissons Ratio (z) = -0.07401 0.13474
#
# Static dielectric constant tensor:
#      x y z
#    x 1.798380 -0.034480 -0.065420 
#    y -0.034480 1.764550 0.063330 
#    z -0.065420 0.063330 1.819720 
# 
# From -- ./inp_files/184127.got.cif
#   From: 2010.05.17/outbox.cif.g08.bks.cpg/sg2_93_cif.got.tgz:184127.got - 2010.06.03 11:33:40.
