data_PCOD9055389
_publ_section_title
;
Structure prediction by ZEFSAII (Michael W. Deem and Ramdas Pophale) SiO2 
 PCOD9055389
Probable space group: P -1
;
_chemical_formula_sum "Si O2"
_cell_formula_units_Z 12
_cell_length_a 10.136528
_cell_length_b 15.681995
_cell_length_c 9.262238
_cell_angle_alpha 60.951309
_cell_angle_beta 29.864208
_cell_angle_gamma 60.535190
_cell_volume 632.381978
_symmetry_space_group_name_H-M "P -1"
_symmetry_group_IT_number 2
_symmetry_cell_setting 'triclinic'
loop_
_space_group_symop_operation_xyz
x,y,z
-x,-y,-z
loop_
_atom_site_type_symbol
_atom_site_label
_atom_site_fract_x
_atom_site_fract_y
_atom_site_fract_z
Si Si1 0.245509 0.044390 0.298624
Si Si2 0.902104 0.258867 0.731490
Si Si3 0.658265 0.737654 0.907647
Si Si4 0.780958 0.455038 0.840168
Si Si5 0.215830 0.043117 0.664890
Si Si6 0.279437 0.466502 0.841066
O O1 0.255104 0.162196 0.194597
O O2 0.244763 0.015318 0.491635
O O3 0.000000 0.000000 0.500000
O O4 0.500000 0.000000 0.000000
O O5 0.828464 0.337556 0.863080
O O6 0.093762 0.303392 0.399543
O O7 0.095241 0.159880 0.680819
O O8 0.626772 0.240056 0.927755
O O9 0.644053 0.651157 0.106108
O O10 0.000000 0.500000 0.500000
O O11 0.500000 0.500000 0.000000
O O12 0.755225 0.483524 0.008775
O O13 0.500000 0.000000 0.500000
O O14 0.000000 0.000000 0.000000
O O15 0.500000 0.500000 0.500000
O O16 0.000000 0.500000 0.000000
#
# Coordination Sequence:
#
# PCOD9055389 Si02
#       6
#     2   2   2   2   2   2
#     4  11  23  43  68  93 124 173 222 259 317 402
#     4  11  21  41  70  95 122 178 226 257 317 397
#     4  11  22  42  69  92 130 179 218 260 325 396
#     4  12  22  42  70  94 126 172 229 261 303 410
#     4  11  23  42  66  95 131 161 209 282 330 364
#     4  12  25  42  63  99 141 166 208 278 335 366
#
# _framework density 18.975871999999999
#
# number of rings (size 3 to 8) (size 9 to 14) (size 15 to 20)
#    0.000    0.667    3.333    7.000    0.000    0.000 
#    9.000    0.000    0.000    0.000    0.000    0.000 
#    0.000    0.000    0.000    0.000    0.000    0.000 
#
# Total GULP energy -66957.173905 kJ/mol
# GULP energy per Si atom -5579.764492 kJ/mol
# Density = 1.893268 g / cm^3
# Si number density = 18.975872 Si / 1000 Ang^3
#
#
#
# Elastic Constant Matrix: (Units=GPa)
#
#
# Indices 1 2 3 4 5 6 
#
# 1 184.5617 86.1779 88.2941 6.9613 -5.2697 1.9443
# 2 86.1779 129.2760 57.4836 -0.1418 -1.6066 6.9318
# 3 88.2941 57.4836 195.8600 1.4187 -2.0404 -0.1325
# 4 6.9613 -0.1418 1.4187 41.1751 -5.9524 5.9245
# 5 -5.2697 -1.6066 -2.0404 -5.9524 50.9703 8.4853
# 6 1.9443 6.9318 -0.1325 5.9245 8.4853 32.9567
#
#
#
# Elastic Compliance Matrix: (Units=1/GPa)
#
#
# Indices 1 2 3 4 5 6 
#
# 1 0.009004 -0.004871 -0.002614 -0.001486 0.000391 0.000649
# 2 -0.004871 0.011674 -0.001237 0.001324 0.000387 -0.002511
# 3 -0.002614 -0.001237 0.006646 0.000130 -0.000102 0.000444
# 4 -0.001486 0.001324 0.000130 0.025944 0.003898 -0.005858
# 5 0.000391 0.000387 -0.000102 0.003898 0.021164 -0.006255
# 6 0.000649 -0.002511 0.000444 -0.005858 -0.006255 0.033498
#
#
# Mechanical properties :
#
#
# Convention : Reuss Voigt Hill
#
# Bulk Modulus (GPa) = 101.23814 108.17875 104.70845
# Shear Modulus (GPa) = 38.85992 43.53657 41.19824
#
# Velocity S-wave (km/s) = 4.53024 4.79509 4.66455
# Velocity P-wave (km/s) = 8.99060 9.36961 9.18206
#
# Compressibility (1/GPa) = 0.00987770
#
# Stress axis : x y z
#
# Youngs Moduli (GPa) = 111.06576 85.66170 150.47747
#
# Poissons Ratio (x) = 0.41729 0.39333
# Poissons Ratio (y) = 0.54104 0.18621
# Poissons Ratio (z) = 0.29031 0.10600
#
# Static dielectric constant tensor:
#      x y z
#    x 1.609620 0.021100 -0.030460 
#    y 0.021100 1.696950 -0.029120 
#    z -0.030460 -0.029120 1.628480 
# 
# From -- ./inp_files/205785.got.cif
#   From: 2010.05.17/outbox.cif.g08.bks.cpg/sg2_103_cif.got.tgz:205785.got - 2010.06.03 11:33:40.
