data_PCOD9055726
_publ_section_title
;
Structure prediction by ZEFSAII (Michael W. Deem and Ramdas Pophale) SiO2 
 PCOD9055726
Probable space group: P -1
;
_chemical_formula_sum "Si O2"
_cell_formula_units_Z 14
_cell_length_a 5.821507
_cell_length_b 12.466554
_cell_length_c 9.668953
_cell_angle_alpha 89.308927
_cell_angle_beta 106.230004
_cell_angle_gamma 97.434208
_cell_volume 667.873107
_symmetry_space_group_name_H-M "P -1"
_symmetry_group_IT_number 2
_symmetry_cell_setting 'triclinic'
loop_
_space_group_symop_operation_xyz
x,y,z
-x,-y,-z
loop_
_atom_site_type_symbol
_atom_site_label
_atom_site_fract_x
_atom_site_fract_y
_atom_site_fract_z
Si Si1 0.489667 0.831873 0.021111
Si Si2 0.018512 0.142096 0.750144
Si Si3 0.648251 0.761509 0.755925
Si Si4 0.341885 0.456279 0.107985
Si Si5 0.674934 0.093030 0.447289
Si Si6 0.854888 0.339270 0.890390
Si Si7 0.095257 0.922039 0.806950
O O1 0.693690 0.845033 0.172870
O O2 0.324979 0.719984 0.026517
O O3 0.618857 0.819212 0.897862
O O4 0.294431 0.913299 0.958283
O O5 0.907046 0.132008 0.579562
O O6 0.914149 0.242946 0.802192
O O7 0.945369 0.021920 0.804287
O O8 0.575792 0.634878 0.776302
O O9 0.477715 0.809992 0.616613
O O10 0.923408 0.808360 0.764527
O O11 0.273531 0.558948 0.181224
O O12 0.500000 0.500000 0.000000
O O13 0.100938 0.391768 0.001158
O O14 0.770089 0.055662 0.317196
O O15 0.500000 0.000000 0.500000
#
# Coordination Sequence:
#
# PCOD9055726 Si02
#       7
#     2   2   2   2   2   2   2
#     4  11  22  39  62 102 127 168 216 275 326 380
#     4  12  24  40  62  98 136 170 219 264 329 390
#     4  11  22  43  66  99 129 170 223 266 328 392
#     4  11  21  43  68  97 131 166 220 274 337 379
#     4  11  26  43  64  93 134 187 214 258 326 398
#     4  11  23  37  69  97 129 167 215 278 331 373
#     4  11  24  41  65  93 136 173 219 267 328 388
#
# _framework density 20.962064000000002
#
# number of rings (size 3 to 8) (size 9 to 14) (size 15 to 20)
#    0.000    0.857    5.714    0.857    2.000    2.286 
#    0.000    0.714    0.000    4.286    0.000    0.000 
#    0.000    0.000    0.000    0.000    0.000    0.000 
#
# Total GULP energy -78099.697139 kJ/mol
# GULP energy per Si atom -5578.549796 kJ/mol
# Density = 2.091435 g / cm^3
# Si number density = 20.962064 Si / 1000 Ang^3
#
#
#
# Elastic Constant Matrix: (Units=GPa)
#
#
# Indices 1 2 3 4 5 6 
#
# 1 85.3870 43.0858 62.1606 -15.8062 11.4508 7.2995
# 2 43.0858 156.6421 57.6699 -27.8059 3.3135 -24.1154
# 3 62.1606 57.6699 91.1748 -15.9862 23.1692 -3.3169
# 4 -15.8062 -27.8059 -15.9862 34.4877 -7.2442 -1.1822
# 5 11.4508 3.3135 23.1692 -7.2442 45.5056 -8.4228
# 6 7.2995 -24.1154 -3.3169 -1.1822 -8.4228 54.0934
#
#
#
# Elastic Compliance Matrix: (Units=1/GPa)
#
#
# Indices 1 2 3 4 5 6 
#
# 1 0.024879 -0.000929 -0.016438 0.003278 0.001881 -0.004415
# 2 -0.000929 0.010742 -0.005959 0.006611 0.004537 0.005400
# 3 -0.016438 -0.005959 0.028257 -0.001370 -0.010092 -0.000307
# 4 0.003278 0.006611 -0.001370 0.036593 0.005986 0.004153
# 5 0.001881 0.004537 -0.010092 0.005986 0.028316 0.005690
# 6 -0.004415 0.005400 -0.000307 0.004153 0.005690 0.022448
#
#
# Mechanical properties :
#
#
# Convention : Reuss Voigt Hill
#
# Bulk Modulus (GPa) = 58.05005 73.22626 65.63815
# Shear Modulus (GPa) = 24.55458 38.16984 31.36221
#
# Velocity S-wave (km/s) = 3.42626 4.27183 3.87220
# Velocity P-wave (km/s) = 6.58827 7.70324 7.16747
#
# Compressibility (1/GPa) = 0.01722652
#
# Stress axis : x y z
#
# Youngs Moduli (GPa) = 40.19524 93.09053 35.38918
#
# Poissons Ratio (x) = 0.08646 0.58173
# Poissons Ratio (y) = 0.03733 0.21088
# Poissons Ratio (z) = 0.66073 0.55471
#
# Static dielectric constant tensor:
#      x y z
#    x 1.824480 -0.037520 -0.002210 
#    y -0.037520 1.830940 -0.012990 
#    z -0.002210 -0.012990 1.729210 
# 
# From -- ./inp_files/90956.got.cif
#   From: 2010.05.17/outbox.cif.g08.bks.cpg/sg2_46_cif.got.tgz:90956.got - 2010.06.03 11:33:40.
