data_PCOD9055823
_publ_section_title
;
Structure prediction by ZEFSAII (Michael W. Deem and Ramdas Pophale) SiO2 
 PCOD9055823
Probable space group: P -1
;
_chemical_formula_sum "Si O2"
_cell_formula_units_Z 14
_cell_length_a 10.511840
_cell_length_b 6.978468
_cell_length_c 12.391526
_cell_angle_alpha 77.392210
_cell_angle_beta 140.712721
_cell_angle_gamma 94.703092
_cell_volume 556.119275
_symmetry_space_group_name_H-M "P -1"
_symmetry_group_IT_number 2
_symmetry_cell_setting 'triclinic'
loop_
_space_group_symop_operation_xyz
x,y,z
-x,-y,-z
loop_
_atom_site_type_symbol
_atom_site_label
_atom_site_fract_x
_atom_site_fract_y
_atom_site_fract_z
Si Si1 0.220911 0.267241 0.969491
Si Si2 0.479658 0.839720 0.651097
Si Si3 0.595428 0.247190 0.608243
Si Si4 0.163788 0.124782 0.548450
Si Si5 0.790792 0.207915 0.970120
Si Si6 0.439695 0.230048 0.899608
Si Si7 0.116406 0.382660 0.281845
O O1 0.342874 0.319829 0.936074
O O2 0.004262 0.398640 0.818140
O O3 0.356168 0.303540 0.157511
O O4 0.195781 0.032913 0.985668
O O5 0.355229 0.746493 0.488039
O O6 0.592704 0.011010 0.652701
O O7 0.336117 0.963675 0.628845
O O8 0.704787 0.288147 0.787432
O O9 0.360261 0.355846 0.439516
O O10 0.263937 0.239908 0.693411
O O11 0.075720 0.270030 0.378758
O O12 0.000000 0.000000 0.500000
O O13 0.635142 0.282039 0.956701
O O14 0.007139 0.274081 0.129452
O O15 0.500000 0.000000 0.000000
#
# Coordination Sequence:
#
# PCOD9055823 Si02
#       7
#     2   2   2   2   2   2   2
#     4  10  21  37  61  94 126 166 204 259 317 364
#     4   9  18  38  64  84 127 174 194 260 322 352
#     4   9  19  41  63  87 127 166 212 256 305 372
#     4  11  20  37  61  94 127 163 210 254 311 382
#     4  10  20  42  63  86 131 168 203 261 310 366
#     4  10  17  36  59  82 125 162 195 253 309 359
#     4  11  23  38  63  99 120 164 216 251 312 375
#
# _framework density 25.174453
#
# number of rings (size 3 to 8) (size 9 to 14) (size 15 to 20)
#    0.000    2.000    5.714    1.714    0.000    1.714 
#    0.000   17.857    0.000    0.000    0.000    1.000 
#    0.000    0.000    0.000    0.000    0.000    0.000 
#
# Total GULP energy -78315.250378 kJ/mol
# GULP energy per Si atom -5593.946456 kJ/mol
# Density = 2.511715 g / cm^3
# Si number density = 25.174453 Si / 1000 Ang^3
#
#
#
# Elastic Constant Matrix: (Units=GPa)
#
#
# Indices 1 2 3 4 5 6 
#
# 1 107.3437 24.0463 53.6562 8.5940 -13.3752 -6.6857
# 2 24.0463 89.9012 58.1498 -2.3913 0.4382 -5.0927
# 3 53.6562 58.1498 226.6680 16.4060 -15.4757 -10.9533
# 4 8.5940 -2.3913 16.4060 49.5953 -7.2685 1.2685
# 5 -13.3752 0.4382 -15.4757 -7.2685 34.0970 8.5452
# 6 -6.6857 -5.0927 -10.9533 1.2685 8.5452 25.3869
#
#
#
# Elastic Compliance Matrix: (Units=1/GPa)
#
#
# Indices 1 2 3 4 5 6 
#
# 1 0.011164 -0.001778 -0.001865 -0.000960 0.003160 0.000763
# 2 -0.001778 0.013922 -0.003362 0.001692 -0.002446 0.001613
# 3 -0.001865 -0.003362 0.005980 -0.001635 0.001423 0.001018
# 4 -0.000960 0.001692 -0.001635 0.021657 0.004262 -0.003136
# 5 0.003160 -0.002446 0.001423 0.004262 0.034912 -0.011009
# 6 0.000763 0.001613 0.001018 -0.003136 -0.011009 0.044216
#
#
# Mechanical properties :
#
#
# Convention : Reuss Voigt Hill
#
# Bulk Modulus (GPa) = 58.62619 77.29083 67.95851
# Shear Modulus (GPa) = 32.99311 41.01988 37.00650
#
# Velocity S-wave (km/s) = 3.62412 4.04099 3.83822
# Velocity P-wave (km/s) = 6.39147 7.24856 6.83346
#
# Compressibility (1/GPa) = 0.01705722
#
# Stress axis : x y z
#
# Youngs Moduli (GPa) = 89.57132 71.82945 167.21604
#
# Poissons Ratio (x) = 0.12770 0.31179
# Poissons Ratio (y) = 0.15924 0.56222
# Poissons Ratio (z) = 0.16701 0.24151
#
# Static dielectric constant tensor:
#      x y z
#    x 2.016000 0.078650 0.027770 
#    y 0.078650 2.031460 -0.016140 
#    z 0.027770 -0.016140 1.951820 
# 
# From -- ./inp_files/417231.got.cif
#   From: 2010.05.17/outbox.cif.g08.bks.cpg/sg2_209_cif.got.tgz:417231.got - 2010.06.03 11:33:40.
