data_PCOD9055383
_publ_section_title
;
Structure prediction by ZEFSAII (Michael W. Deem and Ramdas Pophale) SiO2 
 PCOD9055383
Probable space group: P -1
;
_chemical_formula_sum "Si O2"
_cell_formula_units_Z 16
_cell_length_a 11.881578
_cell_length_b 10.078139
_cell_length_c 19.278412
_cell_angle_alpha 150.515827
_cell_angle_beta 142.588741
_cell_angle_gamma 50.510176
_cell_volume 678.285737
_symmetry_space_group_name_H-M "P -1"
_symmetry_group_IT_number 2
_symmetry_cell_setting 'triclinic'
loop_
_space_group_symop_operation_xyz
x,y,z
-x,-y,-z
loop_
_atom_site_type_symbol
_atom_site_label
_atom_site_fract_x
_atom_site_fract_y
_atom_site_fract_z
Si Si1 0.643376 0.258723 0.040671
Si Si2 0.453074 0.298435 0.451897
Si Si3 0.728833 0.879829 0.377207
Si Si4 0.632225 0.827018 0.024371
Si Si5 0.008573 0.801490 0.232825
Si Si6 0.609785 0.312767 0.683309
Si Si7 0.024254 0.195261 0.167261
Si Si8 0.835909 0.580932 0.174756
O O1 0.683850 0.561326 0.231827
O O2 0.441300 0.143024 0.919187
O O3 0.827572 0.122478 0.081144
O O4 0.334646 0.661277 0.993495
O O5 0.500000 0.500000 0.500000
O O6 0.536145 0.413677 0.619581
O O7 0.226907 0.207956 0.305595
O O8 0.562488 0.048201 0.379435
O O9 0.794983 0.847923 0.315949
O O10 0.887021 0.019420 0.571795
O O11 0.593307 0.529047 0.833400
O O12 0.855768 0.934770 0.178353
O O13 0.500000 0.000000 0.000000
O O14 0.875139 0.570235 0.108459
O O15 0.169886 0.702883 0.223873
O O16 0.500000 0.000000 0.500000
O O17 0.009816 0.491691 0.261564
O O18 0.000000 0.000000 0.000000
#
# Coordination Sequence:
#
# PCOD9055383 Si02
#       8
#     2   2   2   2   2   2   2   2
#     4   8  22  42  59  91 135 171 216 256 341 404
#     4  11  22  39  68  96 125 166 222 281 321 377
#     4   8  19  38  63  96 128 169 220 268 332 396
#     4  12  27  43  64  98 136 177 221 283 331 392
#     4  11  21  41  70  92 127 176 228 273 326 394
#     4  11  27  49  67  94 135 188 227 258 335 426
#     4   9  20  36  59  95 129 157 204 277 332 372
#     4   8  20  37  65  92 128 163 222 265 332 392
#
# _framework density 23.588877
#
# number of rings (size 3 to 8) (size 9 to 14) (size 15 to 20)
#    1.500    0.500    0.000    3.750    0.000    9.500 
#    0.000    1.875    0.000    0.000    0.000    0.000 
#    0.000    0.000    0.000    0.000    0.000    0.000 
#
# Total GULP energy -89136.466917 kJ/mol
# GULP energy per Si atom -5571.029182 kJ/mol
# Density = 2.353519 g / cm^3
# Si number density = 23.588877 Si / 1000 Ang^3
#
#
#
# Elastic Constant Matrix: (Units=GPa)
#
#
# Indices 1 2 3 4 5 6 
#
# 1 127.5496 46.9260 28.6195 -13.8756 0.5837 -33.1339
# 2 46.9260 118.2902 59.6122 -32.6533 -4.2490 -47.4534
# 3 28.6195 59.6122 100.0972 -29.9318 -10.8233 -18.4735
# 4 -13.8756 -32.6533 -29.9318 38.8396 -11.1262 5.8144
# 5 0.5837 -4.2490 -10.8233 -11.1262 26.8733 -10.5880
# 6 -33.1339 -47.4534 -18.4735 5.8144 -10.5880 48.4132
#
#
#
# Elastic Compliance Matrix: (Units=1/GPa)
#
#
# Indices 1 2 3 4 5 6 
#
# 1 0.010167 0.000511 0.000085 0.004312 0.004844 0.008033
# 2 0.000511 0.031723 -0.000193 0.030456 0.031138 0.034523
# 3 0.000085 -0.000193 0.019658 0.019210 0.019514 0.009330
# 4 0.004312 0.030456 0.019210 0.079002 0.062640 0.044345
# 5 0.004844 0.031138 0.019514 0.062640 0.097529 0.055089
# 6 0.008033 0.034523 0.009330 0.044345 0.055089 0.070274
#
#
# Mechanical properties :
#
#
# Convention : Reuss Voigt Hill
#
# Bulk Modulus (GPa) = 16.03798 68.47249 42.25524
# Shear Modulus (GPa) = 15.22850 36.87717 26.05284
#
# Velocity S-wave (km/s) = 2.54358 3.95818 3.32694
# Velocity P-wave (km/s) = 3.92939 7.06966 5.71928
#
# Compressibility (1/GPa) = 0.06235199
#
# Stress axis : x y z
#
# Youngs Moduli (GPa) = 98.35992 31.52263 50.87104
#
# Poissons Ratio (x) = -0.01611 -0.00430
# Poissons Ratio (y) = -0.05026 0.00983
# Poissons Ratio (z) = -0.00831 0.00609
#
# Static dielectric constant tensor:
#      x y z
#    x 2.084610 0.103700 0.066740 
#    y 0.103700 2.011660 -0.040240 
#    z 0.066740 -0.040240 1.926240 
# 
# From -- ./inp_files/595170.got.cif
#   From: 2010.05.17/outbox.cif.g08.bks.cpg/sg2_298_cif.got.tgz:595170.got - 2010.06.03 11:33:40.
