data_PCOD9055432
_publ_section_title
;
Structure prediction by ZEFSAII (Michael W. Deem and Ramdas Pophale) SiO2 
 PCOD9055432
Probable space group: P -1
;
_chemical_formula_sum "Si O2"
_cell_formula_units_Z 16
_cell_length_a 14.224376
_cell_length_b 7.917791
_cell_length_c 12.330933
_cell_angle_alpha 108.025821
_cell_angle_beta 54.873068
_cell_angle_gamma 63.680974
_cell_volume 649.480901
_symmetry_space_group_name_H-M "P -1"
_symmetry_group_IT_number 2
_symmetry_cell_setting 'triclinic'
loop_
_space_group_symop_operation_xyz
x,y,z
-x,-y,-z
loop_
_atom_site_type_symbol
_atom_site_label
_atom_site_fract_x
_atom_site_fract_y
_atom_site_fract_z
Si Si1 0.928664 0.866738 0.614020
Si Si2 0.551809 0.361449 0.055593
Si Si3 0.446673 0.713253 0.387713
Si Si4 0.847642 0.583689 0.044215
Si Si5 0.942510 0.896054 0.360979
Si Si6 0.793595 0.342623 0.203021
Si Si7 0.426303 0.131208 0.405456
Si Si8 0.355033 0.258844 0.233496
O O1 0.129316 0.520499 0.421021
O O2 0.877243 0.923996 0.531654
O O3 0.960789 0.031872 0.666975
O O4 0.755862 0.016088 0.833341
O O5 0.500000 0.500000 0.000000
O O6 0.552686 0.521758 0.169627
O O7 0.401492 0.409845 0.214879
O O8 0.599842 0.474411 0.330319
O O9 0.238582 0.879234 0.556143
O O10 0.405521 0.974867 0.456336
O O11 0.922340 0.420344 0.846018
O O12 0.806639 0.458607 0.115530
O O13 0.000000 0.500000 0.000000
O O14 0.643190 0.932736 0.238886
O O15 0.736368 0.532344 0.381485
O O16 0.000000 0.000000 0.000000
O O17 0.405050 0.125458 0.291685
O O18 0.500000 0.000000 0.000000
#
# Coordination Sequence:
#
# PCOD9055432 Si02
#       8
#     2   2   2   2   2   2   2   2
#     4  11  23  42  68 105 141 180 243 285 354 423
#     4  12  23  44  72 103 137 190 236 290 354 421
#     4  11  22  45  74  97 141 190 237 288 358 420
#     4  11  23  45  71  98 136 185 239 287 361 424
#     4  11  21  41  73 102 132 185 237 293 347 425
#     4  11  26  44  69 103 138 186 238 294 352 420
#     4  11  25  46  66 101 146 182 233 295 354 420
#     4  12  27  45  67 105 148 182 233 296 355 423
#
# _framework density 24.635058000000001
#
# number of rings (size 3 to 8) (size 9 to 14) (size 15 to 20)
#    0.000    0.750    2.500    6.750    3.500    1.500 
#    2.250    1.875    0.000    0.000    0.000    0.000 
#    0.000    0.000    0.000    0.000    0.000    0.000 
#
# Total GULP energy -89509.989788 kJ/mol
# GULP energy per Si atom -5594.374362 kJ/mol
# Density = 2.457899 g / cm^3
# Si number density = 24.635058 Si / 1000 Ang^3
#
#
#
# Elastic Constant Matrix: (Units=GPa)
#
#
# Indices 1 2 3 4 5 6 
#
# 1 102.0128 17.0603 37.9968 8.5120 2.2763 -3.6035
# 2 17.0603 55.1145 22.8217 20.4252 -8.0203 -9.8015
# 3 37.9968 22.8217 179.4766 31.4938 11.9603 -4.6885
# 4 8.5120 20.4252 31.4938 46.0315 -1.7960 -3.8659
# 5 2.2763 -8.0203 11.9603 -1.7960 54.6621 2.2065
# 6 -3.6035 -9.8015 -4.6885 -3.8659 2.2065 27.1786
#
#
#
# Elastic Compliance Matrix: (Units=1/GPa)
#
#
# Indices 1 2 3 4 5 6 
#
# 1 0.011000 -0.002807 -0.002047 0.000613 -0.000411 0.000214
# 2 -0.002807 0.024420 -0.000989 -0.008945 0.003351 0.006720
# 3 -0.002047 -0.000989 0.006950 -0.003992 -0.001717 0.000142
# 4 0.000613 -0.008945 -0.003992 0.028343 0.000460 0.000161
# 5 -0.000411 0.003351 -0.001717 0.000460 0.019220 -0.000637
# 6 0.000214 0.006720 0.000142 0.000161 -0.000637 0.039345
#
#
# Mechanical properties :
#
#
# Convention : Reuss Voigt Hill
#
# Bulk Modulus (GPa) = 32.58948 54.70684 43.64816
# Shear Modulus (GPa) = 33.07113 42.82278 37.94695
#
# Velocity S-wave (km/s) = 3.66791 4.17380 3.92900
# Velocity P-wave (km/s) = 5.58531 6.74408 6.19186
#
# Compressibility (1/GPa) = 0.03068475
#
# Stress axis : x y z
#
# Youngs Moduli (GPa) = 90.91016 40.95008 143.89389
#
# Poissons Ratio (x) = 0.11493 0.29449
# Poissons Ratio (y) = 0.25514 0.14234
# Poissons Ratio (z) = 0.18606 0.04051
#
# Static dielectric constant tensor:
#      x y z
#    x 2.245820 0.143000 -0.012410 
#    y 0.143000 2.026800 0.080170 
#    z -0.012410 0.080170 1.979730 
# 
# From -- ./inp_files/447810.got.cif
#   From: 2010.05.17/outbox.cif.g08.bks.cpg/sg2_224_cif.got.tgz:447810.got - 2010.06.03 11:33:40.
