data_PCOD9055829
_publ_section_title
;
Structure prediction by ZEFSAII (Michael W. Deem and Ramdas Pophale) SiO2 
 PCOD9055829
Probable space group: P -1
;
_chemical_formula_sum "Si O2"
_cell_formula_units_Z 16
_cell_length_a 19.380129
_cell_length_b 9.323951
_cell_length_c 6.708305
_cell_angle_alpha 46.503757
_cell_angle_beta 121.493563
_cell_angle_gamma 115.944598
_cell_volume 743.841210
_symmetry_space_group_name_H-M "P -1"
_symmetry_group_IT_number 2
_symmetry_cell_setting 'triclinic'
loop_
_space_group_symop_operation_xyz
x,y,z
-x,-y,-z
loop_
_atom_site_type_symbol
_atom_site_label
_atom_site_fract_x
_atom_site_fract_y
_atom_site_fract_z
Si Si1 0.027794 0.632829 0.225057
Si Si2 0.079745 0.130815 0.400514
Si Si3 0.859835 0.009201 0.772688
Si Si4 0.546598 0.606572 0.160218
Si Si5 0.166681 0.366369 0.638220
Si Si6 0.413329 0.981773 0.272249
Si Si7 0.714622 0.269424 0.393268
Si Si8 0.592206 0.294722 0.836771
O O1 0.097735 0.513137 0.360069
O O2 0.000000 0.500000 0.500000
O O3 0.066833 0.852612 0.141554
O O4 0.954766 0.677382 0.932001
O O5 0.116895 0.001895 0.411592
O O6 0.151809 0.211622 0.582535
O O7 0.000000 0.000000 0.500000
O O8 0.782400 0.123671 0.590101
O O9 0.848868 0.784449 0.054315
O O10 0.591010 0.465641 0.504923
O O11 0.479915 0.685188 0.132798
O O12 0.500000 0.500000 0.000000
O O13 0.606164 0.793128 0.990201
O O14 0.246217 0.521030 0.653783
O O15 0.349550 0.842296 0.441649
O O16 0.419273 0.897964 0.138080
O O17 0.500000 0.000000 0.500000
O O18 0.671064 0.305312 0.084260
#
# Coordination Sequence:
#
# PCOD9055829 Si02
#       8
#     2   2   2   2   2   2   2   2
#     4  11  21  43  74 101 134 178 231 290 336 407
#     4  12  23  43  80 103 132 186 240 285 344 412
#     4  11  25  45  66 102 147 180 227 290 354 414
#     4  11  23  42  75 109 133 170 242 296 343 413
#     4  11  25  45  66 103 144 182 231 285 353 421
#     4  12  24  46  74 102 135 181 243 294 341 420
#     4  11  28  46  68  98 148 188 229 290 359 421
#     4  11  24  44  72 101 136 184 228 289 361 411
#
# _framework density 21.509969000000002
#
# number of rings (size 3 to 8) (size 9 to 14) (size 15 to 20)
#    0.000    0.750    5.000    1.875    0.000    5.000 
#    0.000    0.000    0.000    0.000    0.000    0.000 
#    0.000    0.000    0.000    0.000    0.000    0.000 
#
# Total GULP energy -89398.608584 kJ/mol
# GULP energy per Si atom -5587.413037 kJ/mol
# Density = 2.146101 g / cm^3
# Si number density = 21.509969 Si / 1000 Ang^3
#
#
#
# Elastic Constant Matrix: (Units=GPa)
#
#
# Indices 1 2 3 4 5 6 
#
# 1 87.4144 60.2479 30.3256 10.1054 -15.6931 -2.0099
# 2 60.2479 171.1988 59.3651 12.4365 -22.1549 5.8662
# 3 30.3256 59.3651 126.2750 2.1756 -13.7290 14.9326
# 4 10.1054 12.4365 2.1756 52.2906 1.7886 -8.8034
# 5 -15.6931 -22.1549 -13.7290 1.7886 33.6594 -2.5830
# 6 -2.0099 5.8662 14.9326 -8.8034 -2.5830 37.0959
#
#
#
# Elastic Compliance Matrix: (Units=1/GPa)
#
#
# Indices 1 2 3 4 5 6 
#
# 1 0.016089 -0.004552 -0.001486 -0.001760 0.004150 0.002061
# 2 -0.004552 0.008826 -0.002666 -0.001316 0.002615 -0.000699
# 3 -0.001486 -0.002666 0.010120 -0.000166 0.001407 -0.003674
# 4 -0.001760 -0.001316 -0.000166 0.020697 -0.002477 0.004919
# 5 0.004150 0.002615 0.001407 -0.002477 0.034151 0.001035
# 6 0.002061 -0.000699 -0.003674 0.004919 0.001035 0.029898
#
#
# Mechanical properties :
#
#
# Convention : Reuss Voigt Hill
#
# Bulk Modulus (GPa) = 56.73602 76.08506 66.41054
# Shear Modulus (GPa) = 34.94955 40.27249 37.61102
#
# Velocity S-wave (km/s) = 4.03526 4.33167 4.18609
# Velocity P-wave (km/s) = 6.93866 7.77603 7.36925
#
# Compressibility (1/GPa) = 0.01762549
#
# Stress axis : x y z
#
# Youngs Moduli (GPa) = 62.15540 113.30455 98.81614
#
# Poissons Ratio (x) = 0.51581 0.14682
# Poissons Ratio (y) = 0.28296 0.26347
# Poissons Ratio (z) = 0.09235 0.30210
#
# Static dielectric constant tensor:
#      x y z
#    x 1.804880 -0.014530 0.008080 
#    y -0.014530 1.831010 -0.011450 
#    z 0.008080 -0.011450 1.796790 
# 
# From -- ./inp_files/116563.got.cif
#   From: 2010.05.17/outbox.cif.g08.bks.cpg/sg2_59_cif.got.tgz:116563.got - 2010.06.03 11:33:40.
