data_PCOD9055919
_publ_section_title
;
Structure prediction by ZEFSAII (Michael W. Deem and Ramdas Pophale) SiO2 
 PCOD9055919
Probable space group: P -1
;
_chemical_formula_sum "Si O2"
_cell_formula_units_Z 16
_cell_length_a 22.020015
_cell_length_b 9.084269
_cell_length_c 6.654460
_cell_angle_alpha 56.966507
_cell_angle_beta 133.161413
_cell_angle_gamma 134.700790
_cell_volume 684.880427
_symmetry_space_group_name_H-M "P -1"
_symmetry_group_IT_number 2
_symmetry_cell_setting 'triclinic'
loop_
_space_group_symop_operation_xyz
x,y,z
-x,-y,-z
loop_
_atom_site_type_symbol
_atom_site_label
_atom_site_fract_x
_atom_site_fract_y
_atom_site_fract_z
Si Si1 0.520240 0.704847 0.284316
Si Si2 0.902317 0.808630 0.311929
Si Si3 0.044368 0.380228 0.798073
Si Si4 0.302149 0.124871 0.752592
Si Si5 0.448221 0.116842 0.365750
Si Si6 0.153772 0.914585 0.223331
Si Si7 0.625520 0.428989 0.291780
Si Si8 0.197209 0.603315 0.320762
O O1 0.500000 0.500000 0.500000
O O2 0.612746 0.799192 0.277837
O O3 0.547256 0.870203 0.396274
O O4 0.423484 0.634804 0.989566
O O5 0.932266 0.738852 0.227997
O O6 0.849227 0.603391 0.486716
O O7 0.000000 0.000000 0.500000
O O8 0.832925 0.893438 0.021575
O O9 0.000000 0.500000 0.500000
O O10 0.962371 0.224197 0.887409
O O11 0.137866 0.538794 0.025886
O O12 0.305391 0.325154 0.695566
O O13 0.204801 0.979087 0.510992
O O14 0.343938 0.050801 0.081049
O O15 0.532457 0.345139 0.295103
O O16 0.500000 0.000000 0.500000
O O17 0.186109 0.775471 0.283400
O O18 0.692782 0.334604 0.530615
#
# Coordination Sequence:
#
# PCOD9055919 Si02
#       8
#     2   2   2   2   2   2   2   2
#     4  11  21  44  71  93 134 184 225 283 343 403
#     4  12  26  47  77 100 138 192 233 288 353 411
#     4  12  25  50  75 101 147 186 229 296 349 414
#     4  11  25  44  66 105 133 179 236 282 342 416
#     4  11  25  43  70  98 139 182 227 284 350 409
#     4  12  27  47  72 106 144 183 238 288 351 419
#     4  11  25  44  69 100 138 177 234 284 340 418
#     4  12  28  48  70 108 143 184 237 290 348 421
#
# _framework density 23.361743000000001
#
# number of rings (size 3 to 8) (size 9 to 14) (size 15 to 20)
#    0.000    0.500    5.000    3.000    7.000    3.000 
#    0.000    0.000    0.000    0.000    0.000    0.000 
#    0.000    0.000    0.000    0.000    0.000    0.000 
#
# Total GULP energy -89567.931483 kJ/mol
# GULP energy per Si atom -5597.995718 kJ/mol
# Density = 2.330857 g / cm^3
# Si number density = 23.361743 Si / 1000 Ang^3
#
#
#
# Elastic Constant Matrix: (Units=GPa)
#
#
# Indices 1 2 3 4 5 6 
#
# 1 94.2459 26.1820 45.1410 2.1901 -2.9215 -26.5901
# 2 26.1820 95.0305 51.7115 -4.4552 3.2067 -34.9961
# 3 45.1410 51.7115 173.7944 22.1997 9.1888 -27.0389
# 4 2.1901 -4.4552 22.1997 50.8796 0.8076 -1.9869
# 5 -2.9215 3.2067 9.1888 0.8076 40.7079 2.7925
# 6 -26.5901 -34.9961 -27.0389 -1.9869 2.7925 50.8625
#
#
#
# Elastic Compliance Matrix: (Units=1/GPa)
#
#
# Indices 1 2 3 4 5 6 
#
# 1 0.013551 -0.000235 -0.002775 0.000799 0.001230 0.005411
# 2 -0.000235 0.016210 -0.003697 0.003423 -0.001163 0.009263
# 3 -0.002775 -0.003697 0.008190 -0.003739 -0.001704 0.000307
# 4 0.000799 0.003423 -0.003739 0.021613 0.000091 0.001624
# 5 0.001230 -0.001163 -0.001704 0.000091 0.025296 -0.002448
# 6 0.005411 0.009263 0.000307 0.001624 -0.002448 0.029224
#
#
# Mechanical properties :
#
#
# Convention : Reuss Voigt Hill
#
# Bulk Modulus (GPa) = 40.75309 67.68218 54.21763
# Shear Modulus (GPa) = 36.85221 44.49243 40.67232
#
# Velocity S-wave (km/s) = 3.97603 4.36879 4.17703
# Velocity P-wave (km/s) = 6.20973 7.38124 6.82068
#
# Compressibility (1/GPa) = 0.02453802
#
# Stress axis : x y z
#
# Youngs Moduli (GPa) = 73.79410 61.68964 122.09847
#
# Poissons Ratio (x) = 0.01448 0.33884
# Poissons Ratio (y) = 0.01732 0.45138
# Poissons Ratio (z) = 0.20479 0.22806
#
# Static dielectric constant tensor:
#      x y z
#    x 1.986850 -0.248920 -0.135180 
#    y -0.248920 2.962370 0.315940 
#    z -0.135180 0.315940 2.018560 
# 
# From -- ./inp_files/122874.got.cif
#   From: 2010.05.17/outbox.cif.g08.bks.cpg/sg2_62_cif.got.tgz:122874.got - 2010.06.03 11:33:40.
