data_PCOD9055972
_publ_section_title
;
Structure prediction by ZEFSAII (Michael W. Deem and Ramdas Pophale) SiO2 
 PCOD9055972
Probable space group: P -1
;
_chemical_formula_sum "Si O2"
_cell_formula_units_Z 16
_cell_length_a 8.580294
_cell_length_b 10.864911
_cell_length_c 10.500745
_cell_angle_alpha 112.618536
_cell_angle_beta 46.484121
_cell_angle_gamma 114.244959
_cell_volume 639.560022
_symmetry_space_group_name_H-M "P -1"
_symmetry_group_IT_number 2
_symmetry_cell_setting 'triclinic'
loop_
_space_group_symop_operation_xyz
x,y,z
-x,-y,-z
loop_
_atom_site_type_symbol
_atom_site_label
_atom_site_fract_x
_atom_site_fract_y
_atom_site_fract_z
Si Si1 0.186616 0.898054 0.096768
Si Si2 0.223327 0.643290 0.568286
Si Si3 0.233450 0.091594 0.374236
Si Si4 0.172821 0.341500 0.364749
Si Si5 0.291840 0.216321 0.721868
Si Si6 0.920711 0.560745 0.937931
Si Si7 0.413103 0.702063 0.032372
Si Si8 0.411078 0.038878 0.790306
O O1 0.313487 0.778072 0.003941
O O2 0.933829 0.833686 0.247891
O O3 0.283078 0.024437 0.184598
O O4 0.223661 0.959126 0.959165
O O5 0.198093 0.491223 0.466321
O O6 0.478036 0.714643 0.443407
O O7 0.061894 0.707993 0.593307
O O8 0.121641 0.630391 0.761857
O O9 0.212808 0.243003 0.416554
O O10 0.414059 0.056530 0.352690
O O11 0.000000 0.000000 0.500000
O O12 0.363802 0.337922 0.153625
O O13 0.321456 0.083063 0.728386
O O14 0.223759 0.330398 0.898739
O O15 0.769940 0.435022 0.894684
O O16 0.000000 0.500000 0.000000
O O17 0.465010 0.816133 0.158248
#
# Coordination Sequence:
#
# PCOD9055972 Si02
#       8
#     2   2   2   2   2   2   2   2
#     4  11  23  45  68 103 137 186 234 284 351 424
#     4  11  28  44  71 108 139 181 239 293 347 419
#     4  11  23  41  69 102 138 183 232 289 345 415
#     4  11  22  45  72 103 141 175 238 299 342 404
#     4  12  26  47  70 104 147 183 229 294 358 414
#     4  12  27  47  71 103 143 190 228 289 363 418
#     4  11  21  44  74 100 133 186 240 285 347 414
#     4  11  23  43  72 102 138 182 242 282 349 424
#
# _framework density 25.017198
#
# number of rings (size 3 to 8) (size 9 to 14) (size 15 to 20)
#    0.000    0.750    5.000    2.625    7.000    1.500 
#    4.500    1.250    0.000    0.000    0.000    0.000 
#    0.000    0.000    0.000    0.000    0.000    0.000 
#
# Total GULP energy -89682.691983 kJ/mol
# GULP energy per Si atom -5605.168249 kJ/mol
# Density = 2.496026 g / cm^3
# Si number density = 25.017198 Si / 1000 Ang^3
#
#
#
# Elastic Constant Matrix: (Units=GPa)
#
#
# Indices 1 2 3 4 5 6 
#
# 1 87.0318 44.1904 50.5391 8.5635 -19.0336 -2.8736
# 2 44.1904 100.4978 41.7290 6.5443 -12.7546 -8.9555
# 3 50.5391 41.7290 157.8364 -18.4560 -31.2358 -6.8106
# 4 8.5635 6.5443 -18.4560 39.9363 3.3370 -3.4958
# 5 -19.0336 -12.7546 -31.2358 3.3370 43.8920 2.4109
# 6 -2.8736 -8.9555 -6.8106 -3.4958 2.4109 52.2960
#
#
#
# Elastic Compliance Matrix: (Units=1/GPa)
#
#
# Indices 1 2 3 4 5 6 
#
# 1 0.018024 -0.005426 -0.004283 -0.005350 0.003654 -0.001023
# 2 -0.005426 0.013418 -0.001902 -0.001793 0.000240 0.001621
# 3 -0.004283 -0.001902 0.009679 0.005445 0.004016 0.000878
# 4 -0.005350 -0.001793 0.005445 0.029293 -0.001310 0.002127
# 5 0.003654 0.000240 0.004016 -0.001310 0.027427 -0.000587
# 6 -0.001023 0.001621 0.000878 0.002127 -0.000587 0.019627
#
#
# Mechanical properties :
#
#
# Convention : Reuss Voigt Hill
#
# Bulk Modulus (GPa) = 55.87148 68.69812 62.28480
# Shear Modulus (GPa) = 34.09302 41.15203 37.62253
#
# Velocity S-wave (km/s) = 3.69559 4.06020 3.88218
# Velocity P-wave (km/s) = 6.37115 7.03564 6.71163
#
# Compressibility (1/GPa) = 0.01789822
#
# Stress axis : x y z
#
# Youngs Moduli (GPa) = 55.48082 74.52799 103.31154
#
# Poissons Ratio (x) = 0.40438 0.44253
# Poissons Ratio (y) = 0.30104 0.19653
# Poissons Ratio (z) = 0.23765 0.14177
#
# Static dielectric constant tensor:
#      x y z
#    x 2.007140 -0.006680 0.046210 
#    y -0.006680 1.924130 0.015680 
#    z 0.046210 0.015680 2.031000 
# 
# From -- ./inp_files/390328.got.cif
#   From: 2010.05.17/outbox.cif.g08.bks.cpg/sg2_196_cif.got.tgz:390328.got - 2010.06.03 11:33:40.
