data_PCOD9055567
_publ_section_title
;
Structure prediction by ZEFSAII (Michael W. Deem and Ramdas Pophale) SiO2 
 PCOD9055567
Probable space group: P -1
;
_chemical_formula_sum "Si O2"
_cell_formula_units_Z 15
_cell_length_a 9.943580
_cell_length_b 14.672581
_cell_length_c 13.900838
_cell_angle_alpha 144.596499
_cell_angle_beta 91.183504
_cell_angle_gamma 114.735051
_cell_volume 775.021213
_symmetry_space_group_name_H-M "P -1"
_symmetry_group_IT_number 2
_symmetry_cell_setting 'triclinic'
loop_
_space_group_symop_operation_xyz
x,y,z
-x,-y,-z
loop_
_atom_site_type_symbol
_atom_site_label
_atom_site_fract_x
_atom_site_fract_y
_atom_site_fract_z
Si Si1 0.343256 0.786153 0.739788
Si Si2 0.678782 0.796053 0.477591
Si Si3 0.982302 0.269822 0.386694
Si Si4 0.966365 0.285618 0.811623
Si Si5 0.381175 0.255356 0.344098
Si Si6 0.000000 0.000000 0.000000
Si Si7 0.662419 0.593814 0.002702
Si Si8 0.026144 0.860665 0.518332
O O1 0.228832 0.820815 0.708257
O O2 0.471987 0.767066 0.669572
O O3 0.164785 0.535641 0.576206
O O4 0.500000 0.000000 0.000000
O O5 0.665867 0.749468 0.550135
O O6 0.834439 0.804366 0.442943
O O7 0.784300 0.055151 0.676554
O O8 0.461622 0.584197 0.241964
O O9 0.020740 0.278453 0.507246
O O10 0.985987 0.112011 0.189207
O O11 0.923769 0.192820 0.622006
O O12 0.173243 0.384373 0.935971
O O13 0.000000 0.500000 0.000000
O O14 0.500000 0.500000 0.500000
O O15 0.175519 0.051739 0.105175
O O16 0.790039 0.861957 0.211443
O O17 0.500000 0.500000 0.000000
#
# Coordination Sequence:
#
# PCOD9055567 Si02
#       8
#     2   2   2   2   2   1   2   2
#     4  11  24  43  61  92 135 171 210 265 318 379
#     4  11  23  42  66  96 124 171 215 263 315 385
#     4  11  25  41  67  95 132 171 214 266 322 382
#     4  11  25  43  63  95 134 162 210 272 325 372
#     4  12  25  41  66  98 129 168 221 262 318 390
#     4  12  22  42  66  94 128 168 214 264 316 380
#     4  11  21  42  70  88 120 168 213 259 310 387
#     4  11  22  42  67  95 126 169 215 262 322 378
#
# _framework density 19.354312
#
# number of rings (size 3 to 8) (size 9 to 14) (size 15 to 20)
#    0.000    0.800    6.667    0.800    1.867    3.733 
#    2.400    0.000    0.000    0.000    0.000    0.000 
#    0.000    0.000    0.000    0.000    0.000    0.000 
#
# Total GULP energy -83518.109241 kJ/mol
# GULP energy per Si atom -5567.873949 kJ/mol
# Density = 1.931026 g / cm^3
# Si number density = 19.354312 Si / 1000 Ang^3
#
#
#
# Elastic Constant Matrix: (Units=GPa)
#
#
# Indices 1 2 3 4 5 6 
#
# 1 89.2970 6.3901 30.6617 5.2436 0.6395 -5.5503
# 2 6.3901 96.7353 38.1362 -11.6739 -4.6851 -4.5862
# 3 30.6617 38.1362 91.7167 -13.0013 9.0794 -6.3714
# 4 5.2436 -11.6739 -13.0013 22.6446 -9.9411 3.9567
# 5 0.6395 -4.6851 9.0794 -9.9411 38.9819 -4.1614
# 6 -5.5503 -4.5862 -6.3714 3.9567 -4.1614 25.6514
#
#
#
# Elastic Compliance Matrix: (Units=1/GPa)
#
#
# Indices 1 2 3 4 5 6 
#
# 1 0.013605 0.000595 -0.005520 -0.006593 -0.000264 0.002653
# 2 0.000595 0.013304 -0.005322 0.005373 0.004312 0.001056
# 3 -0.005520 -0.005322 0.016186 0.006616 -0.002585 0.000434
# 4 -0.006593 0.005373 0.006616 0.059282 0.013718 -0.005741
# 5 -0.000264 0.004312 -0.002585 0.013718 0.030587 0.002918
# 6 0.002653 0.001056 0.000434 -0.005741 0.002918 0.041214
#
#
# Mechanical properties :
#
#
# Convention : Reuss Voigt Hill
#
# Bulk Modulus (GPa) = 44.24818 47.56944 45.90881
# Shear Modulus (GPa) = 24.72733 30.95964 27.84349
#
# Velocity S-wave (km/s) = 3.57825 4.00387 3.79703
# Velocity P-wave (km/s) = 6.32326 6.78279 6.55705
#
# Compressibility (1/GPa) = 0.02259980
#
# Stress axis : x y z
#
# Youngs Moduli (GPa) = 73.50109 75.16648 61.78366
#
# Poissons Ratio (x) = -0.04471 0.34103
# Poissons Ratio (y) = -0.04371 0.32884
# Poissons Ratio (z) = 0.40571 0.40007
#
# Static dielectric constant tensor:
#      x y z
#    x 1.694030 0.034500 -0.011090 
#    y 0.034500 1.608500 0.047370 
#    z -0.011090 0.047370 1.682000 
# 
# From -- ./inp_files/105362.got.cif
#   From: 2010.05.17/outbox.cif.g08.bks.cpg/sg2_53_cif.got.tgz:105362.got - 2010.06.03 11:33:40.
