data_PCOD9055047
_publ_section_title
;
Structure prediction by ZEFSAII (Michael W. Deem and Ramdas Pophale) SiO2 
 PCOD9055047
Probable space group: P -1
;
_chemical_formula_sum "Si O2"
_cell_formula_units_Z 16
_cell_length_a 12.467648
_cell_length_b 8.719661
_cell_length_c 13.690392
_cell_angle_alpha 34.226921
_cell_angle_beta 80.322442
_cell_angle_gamma 68.837369
_cell_volume 756.182624
_symmetry_space_group_name_H-M "P -1"
_symmetry_group_IT_number 2
_symmetry_cell_setting 'triclinic'
loop_
_space_group_symop_operation_xyz
x,y,z
-x,-y,-z
loop_
_atom_site_type_symbol
_atom_site_label
_atom_site_fract_x
_atom_site_fract_y
_atom_site_fract_z
Si Si1 0.131973 0.307188 0.610373
Si Si2 0.481496 0.013403 0.750484
Si Si3 0.675008 0.003965 0.399069
Si Si4 0.716763 0.822941 0.698111
Si Si5 0.709167 0.357323 0.530852
Si Si6 0.135343 0.849028 0.016501
Si Si7 0.437576 0.345988 0.889106
Si Si8 0.664572 0.152993 0.858470
O O1 0.194934 0.500208 0.550213
O O2 0.000000 0.500000 0.500000
O O3 0.197415 0.196043 0.556352
O O4 0.143291 0.041442 0.821142
O O5 0.416428 0.356220 0.615465
O O6 0.409984 0.001119 0.672475
O O7 0.617297 0.867572 0.771618
O O8 0.480124 0.809836 0.948267
O O9 0.660210 0.338620 0.236247
O O10 0.656225 0.884983 0.568385
O O11 0.820472 0.494948 0.845414
O O12 0.746703 0.104152 0.575672
O O13 0.699979 0.216343 0.711749
O O14 0.232094 0.857065 0.078048
O O15 0.000000 0.000000 0.000000
O O16 0.532617 0.395941 0.776898
O O17 0.370667 0.134534 0.980466
#
# Coordination Sequence:
#
# PCOD9055047 Si02
#       8
#     2   2   2   2   2   2   2   2
#     4  11  25  48  70  94 130 174 218 276 333 390
#     4  11  21  40  63  97 139 179 212 271 328 395
#     4  11  23  38  65  97 136 173 222 266 330 391
#     4  12  24  41  67 102 132 174 223 269 328 393
#     4  11  24  42  67 101 139 173 219 272 329 393
#     4  12  26  49  72  94 129 176 226 275 332 392
#     4  11  23  37  67 104 136 175 224 270 330 394
#     4  11  23  41  66  96 140 173 219 269 335 384
#
# _framework density 21.158911
#
# number of rings (size 3 to 8) (size 9 to 14) (size 15 to 20)
#    0.000    0.750    1.250    7.875    5.250    0.000 
#    2.250    2.500    0.000    0.000    0.000    0.000 
#    0.000    0.000    0.000    0.000    0.000    0.000 
#
# Total GULP energy -89362.064205 kJ/mol
# GULP energy per Si atom -5585.129013 kJ/mol
# Density = 2.111075 g / cm^3
# Si number density = 21.158911 Si / 1000 Ang^3
#
#
#
# Elastic Constant Matrix: (Units=GPa)
#
#
# Indices 1 2 3 4 5 6 
#
# 1 81.7489 44.6473 16.5595 -20.0532 -0.2867 -16.2872
# 2 44.6473 112.4707 44.4588 -19.3484 5.5285 5.6467
# 3 16.5595 44.4588 81.1705 -11.2416 0.5085 6.6891
# 4 -20.0532 -19.3484 -11.2416 54.2289 0.9980 9.9855
# 5 -0.2867 5.5285 0.5085 0.9980 29.0213 -2.0681
# 6 -16.2872 5.6467 6.6891 9.9855 -2.0681 22.4891
#
#
#
# Elastic Compliance Matrix: (Units=1/GPa)
#
#
# Indices 1 2 3 4 5 6 
#
# 1 0.020993 -0.008875 -0.000711 0.001187 0.003110 0.017402
# 2 -0.008875 0.015888 -0.005545 0.003255 -0.003882 -0.010569
# 3 -0.000711 -0.005545 0.016168 0.001984 0.000357 -0.004780
# 4 0.001187 0.003255 0.001984 0.022467 -0.002180 -0.010723
# 5 0.003110 -0.003882 0.000357 -0.002180 0.035823 0.007383
# 6 0.017402 -0.010569 -0.004780 -0.010723 0.007383 0.066585
#
#
# Mechanical properties :
#
#
# Convention : Reuss Voigt Hill
#
# Bulk Modulus (GPa) = 43.88489 54.08017 48.98253
# Shear Modulus (GPa) = 23.17166 32.46282 27.81724
#
# Velocity S-wave (km/s) = 3.31286 3.92119 3.62979
# Velocity P-wave (km/s) = 5.95139 6.79084 6.38492
#
# Compressibility (1/GPa) = 0.02278689
#
# Stress axis : x y z
#
# Youngs Moduli (GPa) = 47.63532 62.94190 61.84867
#
# Poissons Ratio (x) = 0.55859 0.04397
# Poissons Ratio (y) = 0.42275 0.34297
# Poissons Ratio (z) = 0.03387 0.34904
#
# Static dielectric constant tensor:
#      x y z
#    x 1.770700 0.022540 -0.029510 
#    y 0.022540 1.795720 -0.014890 
#    z -0.029510 -0.014890 1.779780 
# 
# From -- ./inp_files/338666.got.cif
#   From: 2010.05.17/outbox.cif.g08.bks.cpg/sg2_170_cif.got.tgz:338666.got - 2010.06.03 11:33:40.
