data_PCOD9055988
_publ_section_title
;
Structure prediction by ZEFSAII (Michael W. Deem and Ramdas Pophale) SiO2 
 PCOD9055988
Probable space group: P -1
;
_chemical_formula_sum "Si O2"
_cell_formula_units_Z 12
_cell_length_a 9.214816
_cell_length_b 15.254158
_cell_length_c 15.912372
_cell_angle_alpha 152.042412
_cell_angle_beta 29.761937
_cell_angle_gamma 143.463458
_cell_volume 514.016338
_symmetry_space_group_name_H-M "P -1"
_symmetry_group_IT_number 2
_symmetry_cell_setting 'triclinic'
loop_
_space_group_symop_operation_xyz
x,y,z
-x,-y,-z
loop_
_atom_site_type_symbol
_atom_site_label
_atom_site_fract_x
_atom_site_fract_y
_atom_site_fract_z
Si Si1 0.048425 0.424504 0.664488
Si Si2 0.226621 0.484749 0.294845
Si Si3 0.330725 0.055968 0.214326
Si Si4 0.519137 0.885177 0.308509
Si Si5 0.343020 0.064882 0.892088
Si Si6 0.138955 0.281198 0.884975
O O1 0.986515 0.505275 0.671431
O O2 0.739664 0.286823 0.717995
O O3 0.066681 0.563443 0.853684
O O4 0.275341 0.273122 0.420541
O O5 0.538088 0.630043 0.241113
O O6 0.000000 0.500000 0.500000
O O7 0.360652 0.291256 0.077026
O O8 0.511435 0.020357 0.175427
O O9 0.032563 0.897830 0.230548
O O10 0.500000 0.000000 0.000000
O O11 0.534177 0.997138 0.310331
O O12 0.805972 0.794919 0.112687
O O13 0.500000 0.000000 0.500000
O O14 0.000000 0.000000 0.000000
#
# Coordination Sequence:
#
# PCOD9055988 Si02
#       6
#     2   2   2   2   2   2
#     4  11  23  47  74 103 148 194 248 305 373 434
#     4  11  24  44  75 110 145 196 247 299 370 448
#     4  12  28  47  75 111 150 197 248 314 378 434
#     4  11  21  44  75 103 139 199 240 297 370 442
#     4  12  27  47  71 108 147 190 257 307 367 454
#     4  11  23  48  76 104 151 195 249 303 372 442
#
# _framework density 23.345562000000001
#
# number of rings (size 3 to 8) (size 9 to 14) (size 15 to 20)
#    0.000    0.667    5.000    3.000    4.667    2.000 
#    3.000    0.000    0.000    0.000    0.000    0.000 
#    0.000    0.000    0.000    0.000    0.000    0.000 
#
# Total GULP energy -66926.006192 kJ/mol
# GULP energy per Si atom -5577.167183 kJ/mol
# Density = 2.329243 g / cm^3
# Si number density = 23.345562 Si / 1000 Ang^3
#
#
#
# Elastic Constant Matrix: (Units=GPa)
#
#
# Indices 1 2 3 4 5 6 
#
# 1 147.7461 29.7668 53.0249 -18.0754 -5.6611 -35.8537
# 2 29.7668 76.4889 34.7247 -12.5435 9.9157 -4.7260
# 3 53.0249 34.7247 172.8407 6.0898 12.7107 -25.7739
# 4 -18.0754 -12.5435 6.0898 43.6505 -10.8932 -2.7003
# 5 -5.6611 9.9157 12.7107 -10.8932 42.9282 -3.6804
# 6 -35.8537 -4.7260 -25.7739 -2.7003 -3.6804 29.9718
#
#
#
# Elastic Compliance Matrix: (Units=1/GPa)
#
#
# Indices 1 2 3 4 5 6 
#
# 1 0.012545 -0.002776 -0.001828 0.006997 0.005842 0.014345
# 2 -0.002776 0.016050 -0.002754 0.002952 -0.002786 -0.003234
# 3 -0.001828 -0.002754 0.007690 -0.002995 -0.002347 0.003434
# 4 0.006997 0.002952 -0.002995 0.030106 0.009638 0.010157
# 5 0.005842 -0.002786 -0.002347 0.009638 0.028613 0.008913
# 6 0.014345 -0.003234 0.003434 0.010157 0.008913 0.054977
#
#
# Mechanical properties :
#
#
# Convention : Reuss Voigt Hill
#
# Bulk Modulus (GPa) = 46.36398 70.23430 58.29914
# Shear Modulus (GPa) = 29.08900 41.94740 35.51820
#
# Velocity S-wave (km/s) = 3.53373 4.24347 3.90476
# Velocity P-wave (km/s) = 6.04588 7.35930 6.73469
#
# Compressibility (1/GPa) = 0.02156847
#
# Stress axis : x y z
#
# Youngs Moduli (GPa) = 79.71598 62.30615 130.03849
#
# Poissons Ratio (x) = 0.17294 0.23770
# Poissons Ratio (y) = 0.22126 0.35818
# Poissons Ratio (z) = 0.14572 0.17162
#
# Static dielectric constant tensor:
#      x y z
#    x 1.839270 -0.033060 -0.041510 
#    y -0.033060 2.057790 0.012600 
#    z -0.041510 0.012600 2.033790 
# 
# From -- ./inp_files/187008.got.cif
#   From: 2010.05.17/outbox.cif.g08.bks.cpg/sg2_94_cif.got.tgz:187008.got - 2010.06.03 11:33:40.
