data_PCOD9055146
_publ_section_title
;
Structure prediction by ZEFSAII (Michael W. Deem and Ramdas Pophale) SiO2 
 PCOD9055146
Probable space group: P -1
;
_chemical_formula_sum "Si O2"
_cell_formula_units_Z 14
_cell_length_a 8.471336
_cell_length_b 7.729181
_cell_length_c 11.502705
_cell_angle_alpha 115.537328
_cell_angle_beta 126.906007
_cell_angle_gamma 70.013105
_cell_volume 539.803002
_symmetry_space_group_name_H-M "P -1"
_symmetry_group_IT_number 2
_symmetry_cell_setting 'triclinic'
loop_
_space_group_symop_operation_xyz
x,y,z
-x,-y,-z
loop_
_atom_site_type_symbol
_atom_site_label
_atom_site_fract_x
_atom_site_fract_y
_atom_site_fract_z
Si Si1 0.862255 0.305610 0.970191
Si Si2 0.396342 0.927812 0.637072
Si Si3 0.025788 0.600279 0.291264
Si Si4 0.204759 0.315729 0.559117
Si Si5 0.257619 0.044260 0.030510
Si Si6 0.588400 0.374139 0.642651
Si Si7 0.902037 0.043543 0.297804
O O1 0.795986 0.137387 0.971926
O O2 0.717700 0.342601 0.807942
O O3 0.888605 0.487602 0.114062
O O4 0.079945 0.216630 0.999510
O O5 0.438218 0.812064 0.503400
O O6 0.203554 0.879436 0.608477
O O7 0.346209 0.152529 0.647650
O O8 0.565818 0.889115 0.796936
O O9 0.942172 0.578285 0.378360
O O10 0.257298 0.525644 0.342940
O O11 0.992095 0.824245 0.301109
O O12 0.363773 0.438873 0.605346
O O13 0.074554 0.178219 0.385280
O O14 0.260788 0.968171 0.877975
#
# Coordination Sequence:
#
# PCOD9055146 Si02
#       7
#     2   2   2   2   2   2   2
#     4  11  25  42  65  95 137 171 216 272 324 388
#     4  11  21  40  68  99 126 168 227 267 317 389
#     4  11  23  44  67  99 131 167 229 267 316 382
#     4  11  22  40  71  98 128 172 222 268 314 392
#     4  11  24  41  65  96 131 177 214 262 337 394
#     4  12  22  41  71  98 126 174 223 264 318 385
#     4  11  22  43  70  96 131 170 220 272 320 386
#
# _framework density 25.935389000000001
#
# number of rings (size 3 to 8) (size 9 to 14) (size 15 to 20)
#    0.000    0.857    5.714    2.143    4.000    0.571 
#    0.000    2.857    0.000    0.000    0.000    0.000 
#    0.000    0.000    0.000    0.000    0.000    0.000 
#
# Total GULP energy -78317.448535 kJ/mol
# GULP energy per Si atom -5594.103467 kJ/mol
# Density = 2.587636 g / cm^3
# Si number density = 25.935389 Si / 1000 Ang^3
#
#
#
# Elastic Constant Matrix: (Units=GPa)
#
#
# Indices 1 2 3 4 5 6 
#
# 1 139.4851 7.9280 64.3905 8.0334 7.0944 -16.6381
# 2 7.9280 67.2849 41.9870 -4.5004 3.7618 -25.3208
# 3 64.3905 41.9870 215.2815 -5.5080 6.3490 3.5186
# 4 8.0334 -4.5004 -5.5080 37.5968 -4.2670 -12.9484
# 5 7.0944 3.7618 6.3490 -4.2670 50.5586 -8.6118
# 6 -16.6381 -25.3208 3.5186 -12.9484 -8.6118 -6.9000
#
#
#
# Elastic Compliance Matrix: (Units=1/GPa)
#
#
# Indices 1 2 3 4 5 6 
#
# 1 0.007977 -0.001573 -0.002050 -0.004007 -0.001875 -0.004649
# 2 -0.001573 0.009240 -0.001075 -0.004938 -0.003623 -0.016875
# 3 -0.002050 -0.001075 0.005436 0.002957 0.000805 0.005109
# 4 -0.004007 -0.004938 0.002957 0.022674 0.000176 -0.013478
# 5 -0.001875 -0.003623 0.000805 0.000176 0.019193 -0.006060
# 6 -0.004649 -0.016875 0.005109 -0.013478 -0.006060 -0.036330
#
#
# Mechanical properties :
#
#
# Convention : Reuss Voigt Hill
#
# Bulk Modulus (GPa) = 75.43663 72.29585 73.86624
# Shear Modulus (GPa) = 119.02881 36.76747 77.89814
#
# Velocity S-wave (km/s) = 6.78189 3.76926 5.48641
# Velocity P-wave (km/s) = 9.51183 6.84682 8.28715
#
# Compressibility (1/GPa) = 0.01325616
#
# Stress axis : x y z
#
# Youngs Moduli (GPa) = 125.36455 108.22175 183.94326
#
# Poissons Ratio (x) = 0.17023 0.37714
# Poissons Ratio (y) = 0.19720 0.19781
# Poissons Ratio (z) = 0.25703 0.11638
#
# Static dielectric constant tensor:
#      x y z
#    x 2.073150 -0.014490 0.025740 
#    y -0.014490 2.015100 0.004510 
#    z 0.025740 0.004510 2.024970 
# 
# From -- ./inp_files/380448.got.cif
#   From: 2010.05.17/outbox.cif.g08.bks.cpg/sg2_191_cif.got.tgz:380448.got - 2010.06.03 11:33:40.
