data_PCOD9055205
_publ_section_title
;
Structure prediction by ZEFSAII (Michael W. Deem and Ramdas Pophale) SiO2 
 PCOD9055205
Probable space group: P -1
;
_chemical_formula_sum "Si O2"
_cell_formula_units_Z 16
_cell_length_a 15.332182
_cell_length_b 25.924531
_cell_length_c 19.057377
_cell_angle_alpha 18.049747
_cell_angle_beta 162.126952
_cell_angle_gamma 152.630444
_cell_volume 708.937856
_symmetry_space_group_name_H-M "P -1"
_symmetry_group_IT_number 2
_symmetry_cell_setting 'triclinic'
loop_
_space_group_symop_operation_xyz
x,y,z
-x,-y,-z
loop_
_atom_site_type_symbol
_atom_site_label
_atom_site_fract_x
_atom_site_fract_y
_atom_site_fract_z
Si Si1 0.767206 0.903438 0.481206
Si Si2 0.171383 0.566028 0.686299
Si Si3 0.043379 0.251146 0.573201
Si Si4 0.853027 0.099229 0.825527
Si Si5 0.169279 0.086387 0.756929
Si Si6 0.431607 0.563987 0.285476
Si Si7 0.759811 0.724525 0.568888
Si Si8 0.840569 0.800555 0.826896
O O1 0.690712 0.775144 0.530081
O O2 0.875055 0.818526 0.746349
O O3 0.472777 0.034532 0.096402
O O4 0.000000 0.000000 0.500000
O O5 0.049227 0.717631 0.342420
O O6 0.147902 0.646827 0.643031
O O7 0.500000 0.500000 0.000000
O O8 0.046282 0.392972 0.814327
O O9 0.341427 0.323678 0.713185
O O10 0.988964 0.249615 0.448927
O O11 0.058145 0.049449 0.857920
O O12 0.505255 0.144175 0.496935
O O13 0.000000 0.000000 0.000000
O O14 0.996890 0.934243 0.812811
O O15 0.267755 0.128550 0.699948
O O16 0.500000 0.500000 0.500000
O O17 0.426295 0.407121 0.432881
O O18 0.102530 0.657188 0.915491
#
# Coordination Sequence:
#
# PCOD9055205 Si02
#       8
#     2   2   2   2   2   2   2   2
#     4  12  25  39  65  96 141 182 218 270 327 395
#     4   9  22  41  69  95 126 170 217 285 342 388
#     4  11  21  40  71  91 134 178 215 273 334 398
#     4   9  19  44  69  92 122 173 221 278 344 393
#     4  12  24  40  66 102 132 181 235 257 331 412
#     4  11  24  40  63  96 137 175 220 271 329 392
#     4  11  25  39  60  97 140 179 226 265 316 401
#     4  11  23  41  69  98 136 171 224 277 340 393
#
# _framework density 22.568974000000001
#
# number of rings (size 3 to 8) (size 9 to 14) (size 15 to 20)
#    0.000    1.250    3.750    1.875    3.500    0.000 
#    0.000    6.250    0.000    0.000    0.000    0.000 
#    0.000    0.000    0.000    0.000    0.000    0.000 
#
# Total GULP energy -89264.189940 kJ/mol
# GULP energy per Si atom -5579.011871 kJ/mol
# Density = 2.251761 g / cm^3
# Si number density = 22.568974 Si / 1000 Ang^3
#
#
#
# Elastic Constant Matrix: (Units=GPa)
#
#
# Indices 1 2 3 4 5 6 
#
# 1 130.2919 51.4015 20.6317 -5.5987 24.2243 -7.0523
# 2 51.4015 132.2722 21.9282 -28.2075 -2.5768 -16.2857
# 3 20.6317 21.9282 54.8725 -15.7992 2.4597 2.7780
# 4 -5.5987 -28.2075 -15.7992 29.3538 -2.7523 -1.1110
# 5 24.2243 -2.5768 2.4597 -2.7523 35.1798 -13.6609
# 6 -7.0523 -16.2857 2.7780 -1.1110 -13.6609 33.8538
#
#
#
# Elastic Compliance Matrix: (Units=1/GPa)
#
#
# Indices 1 2 3 4 5 6 
#
# 1 0.012298 -0.006574 -0.003239 -0.006963 -0.011250 -0.005103
# 2 -0.006574 0.014689 -0.000364 0.014081 0.010830 0.010559
# 3 -0.003239 -0.000364 0.022934 0.011361 0.000679 -0.002085
# 4 -0.006963 0.014081 0.011361 0.054126 0.013828 0.011747
# 5 -0.011250 0.010830 0.000679 0.013828 0.046563 0.022054
# 6 -0.005103 0.010559 -0.002085 0.011747 0.022054 0.043011
#
#
# Mechanical properties :
#
#
# Convention : Reuss Voigt Hill
#
# Bulk Modulus (GPa) = 33.82277 56.15104 44.98690
# Shear Modulus (GPa) = 22.33824 34.57583 28.45703
#
# Velocity S-wave (km/s) = 3.14948 3.91833 3.55476
# Velocity P-wave (km/s) = 5.31457 6.73831 6.06834
#
# Compressibility (1/GPa) = 0.02956588
#
# Stress axis : x y z
#
# Youngs Moduli (GPa) = 81.31545 68.07709 43.60429
#
# Poissons Ratio (x) = 0.44757 0.14123
# Poissons Ratio (y) = 0.53461 0.01587
# Poissons Ratio (z) = 0.26338 0.02478
#
# Static dielectric constant tensor:
#      x y z
#    x 1.986900 0.007900 -0.047360 
#    y 0.007900 1.826330 -0.050680 
#    z -0.047360 -0.050680 1.937970 
# 
# From -- ./inp_files/574412.got.cif
#   From: 2010.05.17/outbox.cif.g08.bks.cpg/sg2_288_cif.got.tgz:574412.got - 2010.06.03 11:33:40.
