data_PCOD9055875
_publ_section_title
;
Structure prediction by ZEFSAII (Michael W. Deem and Ramdas Pophale) SiO2 
 PCOD9055875
Probable space group: P -1
;
_chemical_formula_sum "Si O2"
_cell_formula_units_Z 16
_cell_length_a 16.598891
_cell_length_b 10.615549
_cell_length_c 8.009375
_cell_angle_alpha 123.012537
_cell_angle_beta 145.326631
_cell_angle_gamma 50.835519
_cell_volume 621.471240
_symmetry_space_group_name_H-M "P -1"
_symmetry_group_IT_number 2
_symmetry_cell_setting 'triclinic'
loop_
_space_group_symop_operation_xyz
x,y,z
-x,-y,-z
loop_
_atom_site_type_symbol
_atom_site_label
_atom_site_fract_x
_atom_site_fract_y
_atom_site_fract_z
Si Si1 0.325580 0.604517 0.250268
Si Si2 0.041295 0.676064 0.964439
Si Si3 0.440145 0.352806 0.788566
Si Si4 0.433253 0.865469 0.484736
Si Si5 0.957436 0.887911 0.649687
Si Si6 0.844573 0.917971 0.012954
Si Si7 0.863606 0.462196 0.418817
Si Si8 0.354053 0.969626 0.915872
O O1 0.500000 0.500000 0.500000
O O2 0.335445 0.771960 0.330448
O O3 0.223328 0.610956 0.241909
O O4 0.249378 0.533167 0.925352
O O5 0.007838 0.820730 0.874216
O O6 0.953462 0.734049 0.028808
O O7 0.973707 0.559641 0.674440
O O8 0.482705 0.248306 0.613207
O O9 0.260360 0.446872 0.585087
O O10 0.500000 0.500000 0.000000
O O11 0.529961 0.215553 0.984242
O O12 0.306574 0.034220 0.325253
O O13 0.551920 0.912322 0.831082
O O14 0.773315 0.981468 0.409566
O O15 0.021274 0.725725 0.525448
O O16 0.046953 0.990473 0.795187
O O17 0.766294 0.981450 0.099767
#
# Coordination Sequence:
#
# PCOD9055875 Si02
#       8
#     2   2   2   2   2   2   2   2
#     4  11  24  40  63  94 129 171 214 264 319 380
#     4  11  24  42  68  91 130 171 215 263 324 384
#     4  11  21  44  67  93 128 172 212 261 327 383
#     4  11  22  42  65  90 132 167 210 264 322 380
#     4  11  23  42  64  96 130 165 213 267 322 375
#     4  11  21  45  63  90 125 171 209 261 327 383
#     4  11  22  44  66  93 128 173 212 264 323 382
#     4  11  25  40  67 100 126 166 218 271 314 381
#
# _framework density 25.745358
#
# number of rings (size 3 to 8) (size 9 to 14) (size 15 to 20)
#    0.000    1.000    3.750    6.000    3.500    1.000 
#    2.250    2.500    0.000    0.000    0.000    0.000 
#    0.000    0.000    0.000    0.000    0.000    0.000 
#
# Total GULP energy -89491.047070 kJ/mol
# GULP energy per Si atom -5593.190442 kJ/mol
# Density = 2.568676 g / cm^3
# Si number density = 25.745358 Si / 1000 Ang^3
#
#
#
# Elastic Constant Matrix: (Units=GPa)
#
#
# Indices 1 2 3 4 5 6 
#
# 1 87.3693 26.6758 32.5199 13.1159 17.8187 -33.1714
# 2 26.6758 102.4394 37.9395 3.8019 11.9662 -28.7591
# 3 32.5199 37.9395 115.7828 2.6919 38.4360 8.1046
# 4 13.1159 3.8019 2.6919 48.0246 5.0217 5.2618
# 5 17.8187 11.9662 38.4360 5.0217 45.1655 2.5232
# 6 -33.1714 -28.7591 8.1046 5.2618 2.5232 37.0627
#
#
#
# Elastic Compliance Matrix: (Units=1/GPa)
#
#
# Indices 1 2 3 4 5 6 
#
# 1 0.031294 0.008572 -0.012468 -0.012345 -0.004840 0.039469
# 2 0.008572 0.018535 -0.009897 -0.005940 -0.000612 0.025104
# 3 -0.012468 -0.009897 0.019759 0.006565 -0.008691 -0.023500
# 4 -0.012345 -0.005940 0.006565 0.026676 -0.000945 -0.020816
# 5 -0.004840 -0.000612 -0.008691 -0.000945 0.031990 -0.004950
# 6 0.039469 0.025104 -0.023500 -0.020816 -0.004950 0.090217
#
#
# Mechanical properties :
#
#
# Convention : Reuss Voigt Hill
#
# Bulk Modulus (GPa) = 23.80753 55.54023 39.67388
# Shear Modulus (GPa) = 19.22654 39.94763 29.58709
#
# Velocity S-wave (km/s) = 2.73572 3.94336 3.39369
# Velocity P-wave (km/s) = 4.38706 6.50794 5.54975
#
# Compressibility (1/GPa) = 0.04200352
#
# Stress axis : x y z
#
# Youngs Moduli (GPa) = 31.95472 53.95282 50.60909
#
# Poissons Ratio (x) = -0.46251 0.63098
# Poissons Ratio (y) = -0.27393 0.50088
# Poissons Ratio (z) = 0.39840 0.53398
#
# Static dielectric constant tensor:
#      x y z
#    x 2.163450 0.086720 -0.118580 
#    y 0.086720 2.458090 -0.049020 
#    z -0.118580 -0.049020 2.040280 
# 
# From -- ./inp_files/189537.got.cif
#   From: 2010.05.17/outbox.cif.g08.bks.cpg/sg2_95_cif.got.tgz:189537.got - 2010.06.03 11:33:40.
