data_PCOD9055367
_publ_section_title
;
Structure prediction by ZEFSAII (Michael W. Deem and Ramdas Pophale) SiO2 
 PCOD9055367
Probable space group: P -1
;
_chemical_formula_sum "Si O2"
_cell_formula_units_Z 16
_cell_length_a 7.051627
_cell_length_b 13.880197
_cell_length_c 7.730368
_cell_angle_alpha 114.297752
_cell_angle_beta 109.400495
_cell_angle_gamma 74.609468
_cell_volume 643.121199
_symmetry_space_group_name_H-M "P -1"
_symmetry_group_IT_number 2
_symmetry_cell_setting 'triclinic'
loop_
_space_group_symop_operation_xyz
x,y,z
-x,-y,-z
loop_
_atom_site_type_symbol
_atom_site_label
_atom_site_fract_x
_atom_site_fract_y
_atom_site_fract_z
Si Si1 0.773969 0.375840 0.446844
Si Si2 0.699088 0.034412 0.503828
Si Si3 0.987695 0.378168 0.863630
Si Si4 0.901495 0.971152 0.166534
Si Si5 0.224551 0.239701 0.105553
Si Si6 0.386090 0.736113 0.244080
Si Si7 0.662780 0.606430 0.471297
Si Si8 0.668527 0.174405 0.083933
O O1 0.946507 0.368301 0.639925
O O2 0.761920 0.483144 0.408708
O O3 0.556014 0.389309 0.492615
O O4 0.780699 0.268132 0.263345
O O5 0.888397 0.005570 0.670049
O O6 0.500000 0.000000 0.500000
O O7 0.756076 0.978130 0.297317
O O8 0.670240 0.163355 0.568062
O O9 0.790005 0.337670 0.859545
O O10 0.000000 0.500000 0.000000
O O11 0.172631 0.306506 0.963204
O O12 0.798852 0.060011 0.070220
O O13 0.913495 0.853233 0.005616
O O14 0.208962 0.322911 0.320002
O O15 0.455699 0.181290 0.126650
O O16 0.592626 0.663931 0.313531
O O17 0.389669 0.793724 0.105413
#
# Coordination Sequence:
#
# PCOD9055367 Si02
#       8
#     2   2   2   2   2   2   2   2
#     4   9  19  38  62  92 128 171 226 276 345 409
#     4  11  24  45  72 106 139 188 232 288 349 416
#     4  11  21  41  69  97 133 179 231 283 354 415
#     4  11  24  45  71 101 147 181 232 290 346 417
#     4  11  21  41  70  99 130 183 230 281 354 419
#     4  11  24  44  63  98 138 176 235 288 342 416
#     4   9  19  37  65  90 124 178 223 280 340 410
#     4  11  25  42  65 100 137 186 230 286 345 412
#
# _framework density 24.878668000000001
#
# number of rings (size 3 to 8) (size 9 to 14) (size 15 to 20)
#    0.000    1.500    2.500    3.375    3.500    2.000 
#    4.500    0.625    0.000    0.000    0.000    0.000 
#    0.000    0.000    0.000    0.000    0.000    0.000 
#
# Total GULP energy -89711.652451 kJ/mol
# GULP energy per Si atom -5606.978278 kJ/mol
# Density = 2.482204 g / cm^3
# Si number density = 24.878668 Si / 1000 Ang^3
#
#
#
# Elastic Constant Matrix: (Units=GPa)
#
#
# Indices 1 2 3 4 5 6 
#
# 1 97.6238 16.8501 13.1367 0.0957 16.6304 4.8527
# 2 16.8501 193.6988 68.0287 -16.0189 11.1907 -11.6271
# 3 13.1367 68.0287 141.0860 -2.6072 10.8659 2.7983
# 4 0.0957 -16.0189 -2.6072 58.7324 2.0162 6.2185
# 5 16.6304 11.1907 10.8659 2.0162 32.2429 -3.5657
# 6 4.8527 -11.6271 2.7983 6.2185 -3.5657 29.3479
#
#
#
# Elastic Compliance Matrix: (Units=1/GPa)
#
#
# Indices 1 2 3 4 5 6 
#
# 1 0.011566 -0.000748 -0.000190 0.000290 -0.005990 -0.002980
# 2 -0.000748 0.006633 -0.003105 0.001413 -0.000664 0.002668
# 3 -0.000190 -0.003105 0.008801 -0.000148 -0.002030 -0.002253
# 4 0.000290 0.001413 -0.000148 0.017848 -0.002094 -0.003510
# 5 -0.005990 -0.000664 -0.002030 -0.002094 0.035781 0.005712
# 6 -0.002980 0.002668 -0.002253 -0.003510 0.005712 0.037276
#
#
# Mechanical properties :
#
#
# Convention : Reuss Voigt Hill
#
# Bulk Modulus (GPa) = 52.87001 69.82660 61.34831
# Shear Modulus (GPa) = 37.79372 46.35753 42.07563
#
# Velocity S-wave (km/s) = 3.90182 4.32133 4.11692
# Velocity P-wave (km/s) = 6.44951 7.28192 6.87832
#
# Compressibility (1/GPa) = 0.01891431
#
# Stress axis : x y z
#
# Youngs Moduli (GPa) = 86.45786 150.75243 113.62527
#
# Poissons Ratio (x) = 0.11279 0.02164
# Poissons Ratio (y) = 0.06468 0.35275
# Poissons Ratio (z) = 0.01647 0.46801
#
# Static dielectric constant tensor:
#      x y z
#    x 2.044900 0.010370 -0.044920 
#    y 0.010370 1.899790 -0.020850 
#    z -0.044920 -0.020850 1.943230 
# 
# From -- ./inp_files/190358.got.cif
#   From: 2010.05.17/outbox.cif.g08.bks.cpg/sg2_96_cif.got.tgz:190358.got - 2010.06.03 11:33:40.
