data_PCOD9055794
_publ_section_title
;
Structure prediction by ZEFSAII (Michael W. Deem and Ramdas Pophale) SiO2 
 PCOD9055794
Probable space group: P -1
;
_chemical_formula_sum "Si O2"
_cell_formula_units_Z 14
_cell_length_a 8.854508
_cell_length_b 9.302606
_cell_length_c 8.887813
_cell_angle_alpha 68.030570
_cell_angle_beta 91.308902
_cell_angle_gamma 62.454916
_cell_volume 584.644569
_symmetry_space_group_name_H-M "P -1"
_symmetry_group_IT_number 2
_symmetry_cell_setting 'triclinic'
loop_
_space_group_symop_operation_xyz
x,y,z
-x,-y,-z
loop_
_atom_site_type_symbol
_atom_site_label
_atom_site_fract_x
_atom_site_fract_y
_atom_site_fract_z
Si Si1 0.375221 0.417587 0.450993
Si Si2 0.224635 0.083760 0.876875
Si Si3 0.419183 0.942992 0.227710
Si Si4 0.159478 0.950132 0.638259
Si Si5 0.353972 0.543817 0.718520
Si Si6 0.789385 0.780705 0.639503
Si Si7 0.891421 0.544320 0.134115
O O1 0.531283 0.229302 0.600364
O O2 0.284661 0.535447 0.551114
O O3 0.450326 0.507444 0.305305
O O4 0.267518 0.350039 0.382258
O O5 0.398972 0.073377 0.813490
O O6 0.128772 0.021501 0.780803
O O7 0.109464 0.290933 0.846617
O O8 0.300524 0.961451 0.074869
O O9 0.307242 0.128166 0.244211
O O10 0.253694 0.051710 0.531116
O O11 0.278412 0.736936 0.717185
O O12 0.000000 0.000000 0.500000
O O13 0.305143 0.423951 0.870658
O O14 0.996802 0.651214 0.709175
O O15 0.000000 0.500000 0.000000
#
# Coordination Sequence:
#
# PCOD9055794 Si02
#       7
#     2   2   2   2   2   2   2
#     4  11  23  42  74 103 136 181 235 288 341 413
#     4  11  25  43  71  99 142 187 225 278 356 413
#     4  11  21  43  72 101 133 183 234 278 339 425
#     4  12  24  41  68 101 138 180 230 286 340 413
#     4  11  24  42  65 105 137 174 235 289 338 407
#     4  12  23  42  74 101 136 186 231 283 351 413
#     4  12  25  46  67 102 141 184 227 288 356 413
#
# _framework density 23.946175
#
# number of rings (size 3 to 8) (size 9 to 14) (size 15 to 20)
#    0.000    0.571    7.143    1.286    2.000    1.143 
#    0.000    7.143    0.000    0.000    0.000    0.000 
#    0.000    0.000    0.000    0.000    0.000    0.000 
#
# Total GULP energy -78164.773468 kJ/mol
# GULP energy per Si atom -5583.198105 kJ/mol
# Density = 2.389167 g / cm^3
# Si number density = 23.946175 Si / 1000 Ang^3
#
#
#
# Elastic Constant Matrix: (Units=GPa)
#
#
# Indices 1 2 3 4 5 6 
#
# 1 79.2026 24.3015 33.0801 21.5765 -16.5039 15.6321
# 2 24.3015 148.6751 24.8077 27.0289 1.6980 -1.9714
# 3 33.0801 24.8077 79.0557 21.0160 0.5225 2.9605
# 4 21.5765 27.0289 21.0160 44.9009 1.7912 1.8506
# 5 -16.5039 1.6980 0.5225 1.7912 36.6833 3.3843
# 6 15.6321 -1.9714 2.9605 1.8506 3.3843 35.5804
#
#
#
# Elastic Compliance Matrix: (Units=1/GPa)
#
#
# Indices 1 2 3 4 5 6 
#
# 1 0.021985 -0.001550 -0.006675 -0.006549 0.011293 -0.009923
# 2 -0.001550 0.007807 -0.000906 -0.003551 -0.001008 0.001469
# 3 -0.006675 -0.000906 0.016747 -0.004041 -0.003187 0.002002
# 4 -0.006549 -0.003551 -0.004041 0.029543 -0.004342 0.001893
# 5 0.011293 -0.001008 -0.003187 -0.004342 0.033355 -0.007699
# 6 -0.009923 0.001469 0.002002 0.001893 -0.007699 0.033014
#
#
# Mechanical properties :
#
#
# Convention : Reuss Voigt Hill
#
# Bulk Modulus (GPa) = 35.36313 52.36798 43.86555
# Shear Modulus (GPa) = 29.38781 38.41586 33.90183
#
# Velocity S-wave (km/s) = 3.50701 4.00967 3.76673
# Velocity P-wave (km/s) = 5.58557 6.58430 6.10539
#
# Compressibility (1/GPa) = 0.02827804
#
# Stress axis : x y z
#
# Youngs Moduli (GPa) = 45.48521 128.08790 59.71199
#
# Poissons Ratio (x) = 0.19850 0.39859
# Poissons Ratio (y) = 0.07049 0.05408
# Poissons Ratio (z) = 0.30363 0.11601
#
# Static dielectric constant tensor:
#      x y z
#    x 1.953770 -0.016880 -0.004960 
#    y -0.016880 1.885730 0.009650 
#    z -0.004960 0.009650 2.003120 
# 
# From -- ./inp_files/158075.got.cif
#   From: 2010.05.17/outbox.cif.g08.bks.cpg/sg2_80_cif.got.tgz:158075.got - 2010.06.03 11:33:40.
