data_PCOD9055918
_publ_section_title
;
Structure prediction by ZEFSAII (Michael W. Deem and Ramdas Pophale) SiO2 
 PCOD9055918
Probable space group: P -1
;
_chemical_formula_sum "Si O2"
_cell_formula_units_Z 14
_cell_length_a 13.594374
_cell_length_b 16.205787
_cell_length_c 9.221156
_cell_angle_alpha 48.012201
_cell_angle_beta 144.956777
_cell_angle_gamma 152.773426
_cell_volume 520.021494
_symmetry_space_group_name_H-M "P -1"
_symmetry_group_IT_number 2
_symmetry_cell_setting 'triclinic'
loop_
_space_group_symop_operation_xyz
x,y,z
-x,-y,-z
loop_
_atom_site_type_symbol
_atom_site_label
_atom_site_fract_x
_atom_site_fract_y
_atom_site_fract_z
Si Si1 0.215441 0.121171 0.982177
Si Si2 0.141892 0.664108 0.207813
Si Si3 0.732259 0.993352 0.384118
Si Si4 0.142272 0.927182 0.877138
Si Si5 0.033198 0.658409 0.666078
Si Si6 0.804358 0.544638 0.208063
Si Si7 0.553963 0.584177 0.620770
O O1 0.041969 0.114313 0.674752
O O2 0.279242 0.043667 0.053973
O O3 0.518834 0.327039 0.151771
O O4 0.000000 0.000000 0.000000
O O5 0.928761 0.455398 0.142387
O O6 0.051377 0.618862 0.320020
O O7 0.464496 0.809992 0.370484
O O8 0.106856 0.775862 0.996427
O O9 0.720413 0.963388 0.234397
O O10 0.744820 0.134273 0.257820
O O11 0.817653 0.801499 0.652948
O O12 0.952186 0.649123 0.414549
O O13 0.746731 0.525957 0.566653
O O14 0.673313 0.573811 0.913258
O O15 0.500000 0.500000 0.500000
#
# Coordination Sequence:
#
# PCOD9055918 Si02
#       7
#     2   2   2   2   2   2   2
#     4  12  26  46  78 106 142 187 244 301 355 425
#     4  11  28  46  72 106 149 190 239 295 362 429
#     4  12  26  48  74 107 142 193 238 301 357 425
#     4  11  25  47  73 106 147 186 245 294 361 428
#     4  12  25  46  75 104 150 182 246 291 366 429
#     4  11  25  46  69 109 138 192 236 295 361 419
#     4  11  21  44  71 105 137 184 239 297 350 418
#
# _framework density 26.921966000000001
#
# number of rings (size 3 to 8) (size 9 to 14) (size 15 to 20)
#    0.000    0.571    2.857    4.286    6.000    2.286 
#    0.000    0.000    0.000    0.000    0.000    0.000 
#    0.000    0.000    0.000    0.000    0.000    0.000 
#
# Total GULP energy -78330.533274 kJ/mol
# GULP energy per Si atom -5595.038091 kJ/mol
# Density = 2.686069 g / cm^3
# Si number density = 26.921966 Si / 1000 Ang^3
#
#
#
# Elastic Constant Matrix: (Units=GPa)
#
#
# Indices 1 2 3 4 5 6 
#
# 1 162.8580 56.9794 38.9054 -7.0580 -45.2913 28.4983
# 2 56.9794 165.4567 30.2545 1.5826 -8.3103 3.6541
# 3 38.9054 30.2545 90.3584 -19.2066 -2.5274 7.7686
# 4 -7.0580 1.5826 -19.2066 50.7061 -2.1364 13.4761
# 5 -45.2913 -8.3103 -2.5274 -2.1364 46.0728 0.2367
# 6 28.4983 3.6541 7.7686 13.4761 0.2367 56.8457
#
#
#
# Elastic Compliance Matrix: (Units=1/GPa)
#
#
# Indices 1 2 3 4 5 6 
#
# 1 0.012335 -0.003041 -0.002801 0.002926 0.011591 -0.006347
# 2 -0.003041 0.007292 -0.001726 -0.001845 -0.001863 0.001737
# 3 -0.002801 -0.001726 0.014075 0.005353 -0.002035 -0.001669
# 4 0.002926 -0.001845 0.005353 0.024483 0.004013 -0.007901
# 5 0.011591 -0.001863 -0.002035 0.004013 0.032871 -0.006501
# 6 -0.006347 0.001737 -0.001669 -0.007901 -0.006501 0.022790
#
#
# Mechanical properties :
#
#
# Convention : Reuss Voigt Hill
#
# Bulk Modulus (GPa) = 53.85919 74.55017 64.20468
# Shear Modulus (GPa) = 36.99012 50.22717 43.60865
#
# Velocity S-wave (km/s) = 3.71074 4.32401 4.02906
# Velocity P-wave (km/s) = 6.19746 7.25815 6.74868
#
# Compressibility (1/GPa) = 0.01856693
#
# Stress axis : x y z
#
# Youngs Moduli (GPa) = 81.07291 137.12748 71.04674
#
# Poissons Ratio (x) = 0.41704 0.19897
# Poissons Ratio (y) = 0.24656 0.12262
# Poissons Ratio (z) = 0.22705 0.23666
#
# Static dielectric constant tensor:
#      x y z
#    x 2.163250 -0.113770 0.052960 
#    y -0.113770 2.136680 -0.054170 
#    z 0.052960 -0.054170 2.159830 
# 
# From -- ./inp_files/272239.got.cif
#   From: 2010.05.17/outbox.cif.g08.bks.cpg/sg2_137_cif.got.tgz:272239.got - 2010.06.03 11:33:40.
