data_PCOD9055983
_publ_section_title
;
Structure prediction by ZEFSAII (Michael W. Deem and Ramdas Pophale) SiO2 
 PCOD9055983
Probable space group: P -1
;
_chemical_formula_sum "Si O2"
_cell_formula_units_Z 14
_cell_length_a 13.408525
_cell_length_b 13.190318
_cell_length_c 8.614163
_cell_angle_alpha 77.152408
_cell_angle_beta 53.535349
_cell_angle_gamma 36.430632
_cell_volume 614.425268
_symmetry_space_group_name_H-M "P -1"
_symmetry_group_IT_number 2
_symmetry_cell_setting 'triclinic'
loop_
_space_group_symop_operation_xyz
x,y,z
-x,-y,-z
loop_
_atom_site_type_symbol
_atom_site_label
_atom_site_fract_x
_atom_site_fract_y
_atom_site_fract_z
Si Si1 0.669693 0.340155 0.536554
Si Si2 0.988111 0.061442 0.824405
Si Si3 0.111248 0.494046 0.271229
Si Si4 0.756109 0.910356 0.480029
Si Si5 0.773568 0.718325 0.056129
Si Si6 0.563499 0.291543 0.949284
Si Si7 0.123009 0.143085 0.255191
O O1 0.500000 0.500000 0.500000
O O2 0.539010 0.377585 0.787169
O O3 0.845742 0.305888 0.440629
O O4 0.845273 0.124745 0.381622
O O5 0.109965 0.085430 0.710499
O O6 0.718837 0.246838 0.942243
O O7 0.000000 0.000000 0.000000
O O8 0.247465 0.330784 0.069316
O O9 0.000000 0.500000 0.500000
O O10 0.882868 0.722827 0.342620
O O11 0.302080 0.437643 0.185970
O O12 0.819103 0.861340 0.622774
O O13 0.468336 0.119355 0.674739
O O14 0.818345 0.805723 0.935239
O O15 0.000000 0.500000 0.000000
O O16 0.720814 0.073258 0.848889
#
# Coordination Sequence:
#
# PCOD9055983 Si02
#       7
#     2   2   2   2   2   2   2
#     4  11  24  41  73 103 136 184 237 282 353 429
#     4  11  25  43  68 104 142 179 231 299 347 411
#     4  12  26  42  73 103 132 185 240 280 343 425
#     4  12  24  47  72  99 142 184 235 287 353 419
#     4  12  28  46  71 103 141 185 235 293 352 411
#     4  11  23  46  71 100 141 187 235 280 359 423
#     4  11  21  44  74  96 135 192 228 283 352 415
#
# _framework density 22.785522
#
# number of rings (size 3 to 8) (size 9 to 14) (size 15 to 20)
#    0.000    0.571    5.714    2.143    6.000    4.571 
#    0.000    0.000    0.000    0.000    0.000    0.000 
#    0.000    0.000    0.000    0.000    0.000    0.000 
#
# Total GULP energy -78377.634627 kJ/mol
# GULP energy per Si atom -5598.402473 kJ/mol
# Density = 2.273366 g / cm^3
# Si number density = 22.785522 Si / 1000 Ang^3
#
#
#
# Elastic Constant Matrix: (Units=GPa)
#
#
# Indices 1 2 3 4 5 6 
#
# 1 70.8791 43.1618 44.7658 -3.0092 -28.2056 9.6733
# 2 43.1618 136.4348 59.8551 -12.7205 -31.3432 0.9116
# 3 44.7658 59.8551 140.2907 -5.2688 -42.9395 6.6641
# 4 -3.0092 -12.7205 -5.2688 53.7248 7.2423 0.2840
# 5 -28.2056 -31.3432 -42.9395 7.2423 46.9054 8.1386
# 6 9.6733 0.9116 6.6641 0.2840 8.1386 47.5496
#
#
#
# Elastic Compliance Matrix: (Units=1/GPa)
#
#
# Indices 1 2 3 4 5 6 
#
# 1 0.022750 -0.003952 -0.002194 -0.001228 0.010260 -0.005994
# 2 -0.003952 0.010257 -0.002538 0.001715 0.001777 0.000648
# 3 -0.002194 -0.002538 0.011452 -0.000666 0.008001 -0.002476
# 4 -0.001228 0.001715 -0.000666 0.019329 -0.003319 0.000763
# 5 0.010260 0.001777 0.008001 -0.003319 0.038208 -0.009763
# 6 -0.005994 0.000648 -0.002476 0.000763 -0.009763 0.024251
#
#
# Mechanical properties :
#
#
# Convention : Reuss Voigt Hill
#
# Bulk Modulus (GPa) = 36.91140 71.46334 54.18737
# Shear Modulus (GPa) = 32.75595 42.95742 37.85669
#
# Velocity S-wave (km/s) = 3.79565 4.34671 4.08049
# Velocity P-wave (km/s) = 5.95348 7.52485 6.78481
#
# Compressibility (1/GPa) = 0.02709190
#
# Stress axis : x y z
#
# Youngs Moduli (GPa) = 43.95695 97.49691 87.31731
#
# Poissons Ratio (x) = 0.38527 0.19160
# Poissons Ratio (y) = 0.17370 0.22157
# Poissons Ratio (z) = 0.09645 0.24740
#
# Static dielectric constant tensor:
#      x y z
#    x 1.863660 -0.004200 0.011130 
#    y -0.004200 1.887650 0.009150 
#    z 0.011130 0.009150 1.836240 
# 
# From -- ./inp_files/223292.got.cif
#   From: 2010.05.17/outbox.cif.g08.bks.cpg/sg2_112_cif.got.tgz:223292.got - 2010.06.03 11:33:40.
