data_PCOD9055158
_publ_section_title
;
Structure prediction by ZEFSAII (Michael W. Deem and Ramdas Pophale) SiO2 
 PCOD9055158
Probable space group: P -1
;
_chemical_formula_sum "Si O2"
_cell_formula_units_Z 14
_cell_length_a 6.420384
_cell_length_b 10.115728
_cell_length_c 11.235480
_cell_angle_alpha 114.478272
_cell_angle_beta 109.098910
_cell_angle_gamma 60.602202
_cell_volume 571.507782
_symmetry_space_group_name_H-M "P -1"
_symmetry_group_IT_number 2
_symmetry_cell_setting 'triclinic'
loop_
_space_group_symop_operation_xyz
x,y,z
-x,-y,-z
loop_
_atom_site_type_symbol
_atom_site_label
_atom_site_fract_x
_atom_site_fract_y
_atom_site_fract_z
Si Si1 0.707319 0.390005 0.406690
Si Si2 0.029811 0.790554 0.379086
Si Si3 0.549457 0.773349 0.864966
Si Si4 0.139043 0.242974 0.295794
Si Si5 0.898721 0.680390 0.090070
Si Si6 0.965182 0.973045 0.121876
Si Si7 0.600112 0.102727 0.480710
O O1 0.500000 0.500000 0.500000
O O2 0.896223 0.269443 0.494763
O O3 0.552591 0.341820 0.262008
O O4 0.912637 0.398321 0.358421
O O5 0.276966 0.801656 0.387654
O O6 0.937717 0.686806 0.240744
O O7 0.817325 0.968323 0.397958
O O8 0.783539 0.754824 0.825178
O O9 0.321701 0.940904 0.872383
O O10 0.630596 0.747403 0.007339
O O11 0.381796 0.216858 0.402423
O O12 0.083414 0.085511 0.244690
O O13 0.028825 0.792723 0.106660
O O14 0.000000 0.500000 0.000000
O O15 0.000000 0.000000 0.000000
O O16 0.500000 0.000000 0.500000
#
# Coordination Sequence:
#
# PCOD9055158 Si02
#       7
#     2   2   2   2   2   2   2
#     4  11  24  44  69 103 142 187 242 294 356 441
#     4  11  24  41  68 103 144 181 235 300 355 428
#     4  11  24  46  74 102 144 193 249 291 351 443
#     4  11  22  42  74 108 134 189 248 298 354 426
#     4  12  26  46  70 105 152 190 228 302 373 418
#     4  11  24  43  76 107 138 194 252 291 347 442
#     4  11  21  40  69 104 134 174 241 301 358 407
#
# _framework density 24.496604000000001
#
# number of rings (size 3 to 8) (size 9 to 14) (size 15 to 20)
#    0.000    0.857    4.286    3.000    6.000    0.571 
#    0.000    0.714    0.000    0.000    0.000    0.000 
#    0.000    0.000    0.000    0.000    0.000    0.000 
#
# Total GULP energy -78066.370919 kJ/mol
# GULP energy per Si atom -5576.169351 kJ/mol
# Density = 2.444085 g / cm^3
# Si number density = 24.496604 Si / 1000 Ang^3
#
#
#
# Elastic Constant Matrix: (Units=GPa)
#
#
# Indices 1 2 3 4 5 6 
#
# 1 98.5340 23.7926 35.2256 2.1646 4.8560 -21.5215
# 2 23.7926 60.8819 24.9372 9.8679 9.3686 -11.1911
# 3 35.2256 24.9372 172.3232 -3.4169 38.4766 -14.5303
# 4 2.1646 9.8679 -3.4169 45.6659 -4.5641 -1.2069
# 5 4.8560 9.3686 38.4766 -4.5641 51.9001 0.2647
# 6 -21.5215 -11.1911 -14.5303 -1.2069 0.2647 40.0494
#
#
#
# Elastic Compliance Matrix: (Units=1/GPa)
#
#
# Indices 1 2 3 4 5 6 
#
# 1 0.012727 -0.003417 -0.001837 0.000213 0.000780 0.005219
# 2 -0.003417 0.020054 -0.001438 -0.004461 -0.002642 0.003129
# 3 -0.001837 -0.001438 0.007687 0.000488 -0.005232 0.001449
# 4 0.000213 -0.004461 0.000488 0.023127 0.002458 -0.000274
# 5 0.000780 -0.002642 -0.005232 0.002458 0.023778 -0.002300
# 6 0.005219 0.003129 0.001449 -0.000274 -0.002300 0.029181
#
#
# Mechanical properties :
#
#
# Convention : Reuss Voigt Hill
#
# Bulk Modulus (GPa) = 36.92158 55.51664 46.21911
# Shear Modulus (GPa) = 35.97986 44.04198 40.01092
#
# Velocity S-wave (km/s) = 3.83661 4.24474 4.04583
# Velocity P-wave (km/s) = 5.89330 6.83637 6.38228
#
# Compressibility (1/GPa) = 0.02708443
#
# Stress axis : x y z
#
# Youngs Moduli (GPa) = 78.57059 49.86454 130.09506
#
# Poissons Ratio (x) = 0.17037 0.23900
# Poissons Ratio (y) = 0.26844 0.18712
# Poissons Ratio (z) = 0.14434 0.07172
#
# Static dielectric constant tensor:
#      x y z
#    x 2.034870 -0.068330 -0.081710 
#    y -0.068330 2.187040 0.133040 
#    z -0.081710 0.133040 2.109090 
# 
# From -- ./inp_files/365310.got.cif
#   From: 2010.05.17/outbox.cif.g08.bks.cpg/sg2_183_cif.got.tgz:365310.got - 2010.06.03 11:33:40.
