data_PCOD9055181
_publ_section_title
;
Structure prediction by ZEFSAII (Michael W. Deem and Ramdas Pophale) SiO2 
 PCOD9055181
Probable space group: P -1
;
_chemical_formula_sum "Si O2"
_cell_formula_units_Z 12
_cell_length_a 5.645153
_cell_length_b 11.599654
_cell_length_c 9.154078
_cell_angle_alpha 86.022679
_cell_angle_beta 68.490551
_cell_angle_gamma 58.957189
_cell_volume 472.390936
_symmetry_space_group_name_H-M "P -1"
_symmetry_group_IT_number 2
_symmetry_cell_setting 'triclinic'
loop_
_space_group_symop_operation_xyz
x,y,z
-x,-y,-z
loop_
_atom_site_type_symbol
_atom_site_label
_atom_site_fract_x
_atom_site_fract_y
_atom_site_fract_z
Si Si1 0.865646 0.724569 0.936821
Si Si2 0.970762 0.110446 0.295611
Si Si3 0.004962 0.151961 0.628000
Si Si4 0.678188 0.722691 0.522381
Si Si5 0.655407 0.343335 0.926568
Si Si6 0.795004 0.478014 0.361391
O O1 0.816060 0.851308 0.838085
O O2 0.120967 0.586507 0.809901
O O3 0.580274 0.707266 0.002041
O O4 0.032416 0.731825 0.043672
O O5 0.962415 0.134256 0.469157
O O6 0.628141 0.224660 0.326700
O O7 0.018156 0.963485 0.272804
O O8 0.769609 0.298419 0.738260
O O9 0.312488 0.150776 0.554577
O O10 0.751289 0.623690 0.378179
O O11 0.933901 0.631688 0.588893
O O12 0.500000 0.500000 0.000000
O O13 0.500000 0.500000 0.500000
#
# Coordination Sequence:
#
# PCOD9055181 Si02
#       6
#     2   2   2   2   2   2
#     4  12  26  48  73 109 144 195 243 299 372 445
#     4  11  25  45  76 102 143 193 256 301 348 434
#     4  11  26  46  69 107 145 197 244 303 362 427
#     4  11  21  40  70 105 140 183 243 311 354 416
#     4  12  30  49  73 107 155 190 237 306 382 440
#     4  11  22  37  71 107 136 180 247 305 354 419
#
# _framework density 25.402688999999999
#
# number of rings (size 3 to 8) (size 9 to 14) (size 15 to 20)
#    0.000    0.667    3.333    3.000    9.333    1.333 
#    0.000    0.000    0.000    0.000    0.000    0.000 
#    0.000    0.000    0.000    0.000    0.000    0.000 
#
# Total GULP energy -67092.670094 kJ/mol
# GULP energy per Si atom -5591.055841 kJ/mol
# Density = 2.534487 g / cm^3
# Si number density = 25.402689 Si / 1000 Ang^3
#
#
#
# Elastic Constant Matrix: (Units=GPa)
#
#
# Indices 1 2 3 4 5 6 
#
# 1 149.4107 41.6375 36.4830 -22.6980 -11.1056 35.6501
# 2 41.6375 118.8752 15.5331 -0.7818 -3.5794 41.1058
# 3 36.4830 15.5331 86.5980 -1.1612 4.5526 13.1784
# 4 -22.6980 -0.7818 -1.1612 37.5355 7.5237 -2.3857
# 5 -11.1056 -3.5794 4.5526 7.5237 51.0117 -11.6432
# 6 35.6501 41.1058 13.1784 -2.3857 -11.6432 42.9632
#
#
#
# Elastic Compliance Matrix: (Units=1/GPa)
#
#
# Indices 1 2 3 4 5 6 
#
# 1 0.010012 -0.000956 -0.003053 0.005516 0.000179 -0.006101
# 2 -0.000956 0.012861 0.000030 -0.000684 -0.001968 -0.012091
# 3 -0.003053 0.000030 0.013266 -0.001138 -0.002185 -0.002220
# 4 0.005516 -0.000684 -0.001138 0.030526 -0.003919 -0.002941
# 5 0.000179 -0.001968 -0.002185 -0.003919 0.022146 0.008188
# 6 -0.006101 -0.012091 -0.002220 -0.002941 0.008188 0.042644
#
#
# Mechanical properties :
#
#
# Convention : Reuss Voigt Hill
#
# Bulk Modulus (GPa) = 35.48614 60.24346 47.86480
# Shear Modulus (GPa) = 33.60039 43.71744 38.65892
#
# Velocity S-wave (km/s) = 3.64085 4.15297 3.90531
# Velocity P-wave (km/s) = 5.62798 6.83835 6.26248
#
# Compressibility (1/GPa) = 0.02818002
#
# Stress axis : x y z
#
# Youngs Moduli (GPa) = 99.87746 77.75715 75.38060
#
# Poissons Ratio (x) = 0.07437 0.23017
# Poissons Ratio (y) = 0.09553 -0.00230
# Poissons Ratio (z) = 0.30497 -0.00237
#
# Static dielectric constant tensor:
#      x y z
#    x 2.166930 0.004580 0.016050 
#    y 0.004580 2.042980 -0.055280 
#    z 0.016050 -0.055280 2.003240 
# 
# From -- ./inp_files/61225.got.cif
#   From: 2010.05.17/outbox.cif.g08.bks.cpg/sg2_31_cif.got.tgz:61225.got - 2010.06.03 11:33:40.
