data_PCOD9055615
_publ_section_title
;
Structure prediction by ZEFSAII (Michael W. Deem and Ramdas Pophale) SiO2 
 PCOD9055615
Probable space group: P -1
;
_chemical_formula_sum "Si O2"
_cell_formula_units_Z 12
_cell_length_a 11.541769
_cell_length_b 7.961041
_cell_length_c 7.215052
_cell_angle_alpha 121.562896
_cell_angle_beta 111.264436
_cell_angle_gamma 60.648854
_cell_volume 487.315370
_symmetry_space_group_name_H-M "P -1"
_symmetry_group_IT_number 2
_symmetry_cell_setting 'triclinic'
loop_
_space_group_symop_operation_xyz
x,y,z
-x,-y,-z
loop_
_atom_site_type_symbol
_atom_site_label
_atom_site_fract_x
_atom_site_fract_y
_atom_site_fract_z
Si Si1 0.668626 0.340839 0.851809
Si Si2 0.580237 0.752882 0.424759
Si Si3 0.769676 0.209921 0.434180
Si Si4 0.859417 0.581761 0.571046
Si Si5 0.474393 0.241165 0.177782
Si Si6 0.868015 0.991970 0.015124
O O1 0.519823 0.339733 0.777467
O O2 0.745674 0.202653 0.635785
O O3 0.633261 0.585476 0.915281
O O4 0.753343 0.209751 0.996202
O O5 0.733604 0.674008 0.409498
O O6 0.584573 0.713396 0.624188
O O7 0.500000 0.000000 0.500000
O O8 0.836145 0.383664 0.538082
O O9 0.618310 0.263747 0.296961
O O10 0.860112 0.011396 0.244709
O O11 0.000000 0.500000 0.500000
O O12 0.850142 0.779359 0.811656
O O13 0.500000 0.000000 0.000000
O O14 0.000000 0.000000 0.000000
#
# Coordination Sequence:
#
# PCOD9055615 Si02
#       6
#     2   2   2   2   2   2
#     4  11  24  45  73 102 142 185 238 303 355 413
#     4  11  21  42  72 100 137 184 234 295 356 418
#     4  11  24  46  70 102 142 182 243 295 351 425
#     4  12  23  45  72 101 150 189 233 299 354 425
#     4  11  23  42  71 108 139 180 238 303 359 416
#     4  12  27  46  69 105 143 192 240 286 361 435
#
# _framework density 24.624714000000001
#
# number of rings (size 3 to 8) (size 9 to 14) (size 15 to 20)
#    0.000    0.667    6.667    2.000    0.000    2.667 
#    0.000    0.833    0.000    0.000    0.000    0.000 
#    0.000    0.000    0.000    0.000    0.000    0.000 
#
# Total GULP energy -67129.759515 kJ/mol
# GULP energy per Si atom -5594.146626 kJ/mol
# Density = 2.456867 g / cm^3
# Si number density = 24.624714 Si / 1000 Ang^3
#
#
#
# Elastic Constant Matrix: (Units=GPa)
#
#
# Indices 1 2 3 4 5 6 
#
# 1 160.4879 23.5142 48.2552 -0.4381 1.7549 -20.0700
# 2 23.5142 87.0945 32.4337 18.2687 3.3336 -0.9342
# 3 48.2552 32.4337 133.8581 29.9832 -7.1318 14.4924
# 4 -0.4381 18.2687 29.9832 44.2063 11.1001 5.3092
# 5 1.7549 3.3336 -7.1318 11.1001 54.7996 4.3105
# 6 -20.0700 -0.9342 14.4924 5.3092 4.3105 38.8924
#
#
#
# Elastic Compliance Matrix: (Units=1/GPa)
#
#
# Indices 1 2 3 4 5 6 
#
# 1 0.008390 -0.001265 -0.004138 0.003196 -0.001819 0.005606
# 2 -0.001265 0.013481 -0.001968 -0.004310 -0.000243 0.001020
# 3 -0.004138 -0.001968 0.012000 -0.007603 0.003829 -0.006041
# 4 0.003196 -0.004310 -0.007603 0.031300 -0.007241 0.000908
# 5 -0.001819 -0.000243 0.003829 -0.007241 0.020575 -0.003663
# 6 0.005606 0.001020 -0.006041 0.000908 -0.003663 0.031162
#
#
# Mechanical properties :
#
#
# Convention : Reuss Voigt Hill
#
# Bulk Modulus (GPa) = 52.27689 65.53852 58.90770
# Shear Modulus (GPa) = 36.22505 46.06218 41.14361
#
# Velocity S-wave (km/s) = 3.83963 4.32970 4.09201
# Velocity P-wave (km/s) = 6.39786 7.18803 6.80442
#
# Compressibility (1/GPa) = 0.01912891
#
# Stress axis : x y z
#
# Youngs Moduli (GPa) = 119.18643 74.18093 83.33218
#
# Poissons Ratio (x) = 0.09383 0.34482
# Poissons Ratio (y) = 0.15076 0.16402
# Poissons Ratio (z) = 0.49318 0.14601
#
# Static dielectric constant tensor:
#      x y z
#    x 1.994280 -0.028860 -0.023730 
#    y -0.028860 2.087210 0.085760 
#    z -0.023730 0.085760 2.032480 
# 
# From -- ./inp_files/236464.got.cif
#   From: 2010.05.17/outbox.cif.g08.bks.cpg/sg2_119_cif.got.tgz:236464.got - 2010.06.03 11:33:40.
