data_PCOD9055854
_publ_section_title
;
Structure prediction by ZEFSAII (Michael W. Deem and Ramdas Pophale) SiO2 
 PCOD9055854
Probable space group: P -1
;
_chemical_formula_sum "Si O2"
_cell_formula_units_Z 14
_cell_length_a 14.266453
_cell_length_b 8.181881
_cell_length_c 15.179247
_cell_angle_alpha 42.550082
_cell_angle_beta 147.039278
_cell_angle_gamma 137.252535
_cell_volume 618.487910
_symmetry_space_group_name_H-M "P -1"
_symmetry_group_IT_number 2
_symmetry_cell_setting 'triclinic'
loop_
_space_group_symop_operation_xyz
x,y,z
-x,-y,-z
loop_
_atom_site_type_symbol
_atom_site_label
_atom_site_fract_x
_atom_site_fract_y
_atom_site_fract_z
Si Si1 0.602513 0.760540 0.429331
Si Si2 0.405252 0.440976 0.806091
Si Si3 0.303924 0.990770 0.030198
Si Si4 0.969077 0.826915 0.131967
Si Si5 0.162662 0.748711 0.489724
Si Si6 0.742835 0.326367 0.057880
Si Si7 0.206896 0.128314 0.632392
O O1 0.500000 0.500000 0.500000
O O2 0.687374 0.698709 0.430552
O O3 0.778305 0.972941 0.526945
O O4 0.443322 0.877495 0.233136
O O5 0.353856 0.692209 0.677076
O O6 0.226731 0.282574 0.675160
O O7 0.406393 0.268151 0.959098
O O8 0.575780 0.440466 0.881718
O O9 0.226762 0.790635 0.966400
O O10 0.162472 0.060150 0.956440
O O11 0.894993 0.546571 0.140700
O O12 0.114001 0.799952 0.330414
O O13 0.000000 0.000000 0.000000
O O14 0.000000 0.500000 0.500000
O O15 0.699725 0.085592 0.185357
O O16 0.000000 0.000000 0.500000
#
# Coordination Sequence:
#
# PCOD9055854 Si02
#       7
#     2   2   2   2   2   2   2
#     4  12  27  45  72 109 156 198 249 308 395 460
#     4  11  21  43  78 104 139 187 263 312 358 447
#     4  11  24  47  74 108 146 199 249 313 375 456
#     4  12  29  47  70 110 153 198 246 315 392 453
#     4  12  26  47  76 113 146 199 262 317 370 454
#     4  11  23  45  75 104 145 194 255 308 376 451
#     4  11  22  40  70 110 142 193 252 314 369 446
#
# _framework density 22.635852
#
# number of rings (size 3 to 8) (size 9 to 14) (size 15 to 20)
#    0.000    0.571    4.286    4.286    4.000    4.000 
#    0.000    2.143    0.000    0.000    0.000    0.000 
#    0.000    0.000    0.000    0.000    0.000    0.000 
#
# Total GULP energy -77995.028951 kJ/mol
# GULP energy per Si atom -5571.073497 kJ/mol
# Density = 2.258433 g / cm^3
# Si number density = 22.635852 Si / 1000 Ang^3
#
#
#
# Elastic Constant Matrix: (Units=GPa)
#
#
# Indices 1 2 3 4 5 6 
#
# 1 125.4821 42.4153 46.5494 -20.8195 -3.2584 -6.2182
# 2 42.4153 91.0283 34.2847 -0.9007 -26.5583 -9.2261
# 3 46.5494 34.2847 116.7663 -2.5483 -20.7574 -7.5147
# 4 -20.8195 -0.9007 -2.5483 32.1239 -0.2711 -6.8161
# 5 -3.2584 -26.5583 -20.7574 -0.2711 40.0658 -8.4542
# 6 -6.2182 -9.2261 -7.5147 -6.8161 -8.4542 30.3454
#
#
#
# Elastic Compliance Matrix: (Units=1/GPa)
#
#
# Indices 1 2 3 4 5 6 
#
# 1 0.012490 -0.005559 -0.003979 0.007652 -0.004612 0.000318
# 2 -0.005559 0.018299 -0.000365 -0.001380 0.013098 0.007673
# 3 -0.003979 -0.000365 0.011551 -0.000890 0.006140 0.003445
# 4 0.007652 -0.001380 -0.000890 0.038100 0.001600 0.009932
# 5 -0.004612 0.013098 0.006140 0.001600 0.039838 0.016016
# 6 0.000318 0.007673 0.003445 0.009932 0.016016 0.042898
#
#
# Mechanical properties :
#
#
# Convention : Reuss Voigt Hill
#
# Bulk Modulus (GPa) = 44.37603 64.41951 54.39777
# Shear Modulus (GPa) = 26.24772 34.50883 30.37827
#
# Velocity S-wave (km/s) = 3.40893 3.90875 3.66736
# Velocity P-wave (km/s) = 5.92801 6.99228 6.48202
#
# Compressibility (1/GPa) = 0.02253469
#
# Stress axis : x y z
#
# Youngs Moduli (GPa) = 80.06458 54.64892 86.56943
#
# Poissons Ratio (x) = 0.30377 0.34450
# Poissons Ratio (y) = 0.44504 0.03157
# Poissons Ratio (z) = 0.31861 0.01993
#
# Static dielectric constant tensor:
#      x y z
#    x 1.901420 -0.136860 0.079750 
#    y -0.136860 2.307930 -0.116650 
#    z 0.079750 -0.116650 1.971050 
# 
# From -- ./inp_files/416736.got.cif
#   From: 2010.05.17/outbox.cif.g08.bks.cpg/sg2_209_cif.got.tgz:416736.got - 2010.06.03 11:33:40.
