data_PCOD9055021
_publ_section_title
;
Structure prediction by ZEFSAII (Michael W. Deem and Ramdas Pophale) SiO2 
 PCOD9055021
Probable space group: P -1
;
_chemical_formula_sum "Si O2"
_cell_formula_units_Z 14
_cell_length_a 12.083773
_cell_length_b 16.344579
_cell_length_c 21.496909
_cell_angle_alpha 19.150176
_cell_angle_beta 30.498554
_cell_angle_gamma 32.611522
_cell_volume 696.516687
_symmetry_space_group_name_H-M "P -1"
_symmetry_group_IT_number 2
_symmetry_cell_setting 'triclinic'
loop_
_space_group_symop_operation_xyz
x,y,z
-x,-y,-z
loop_
_atom_site_type_symbol
_atom_site_label
_atom_site_fract_x
_atom_site_fract_y
_atom_site_fract_z
Si Si1 0.253876 0.445097 0.152515
Si Si2 0.638751 0.619420 0.151639
Si Si3 0.753602 0.063451 0.547312
Si Si4 0.106234 0.706383 0.164378
Si Si5 0.525724 0.079785 0.097278
Si Si6 0.881730 0.372174 0.594993
Si Si7 0.866523 0.826415 0.009134
O O1 0.163741 0.557418 0.180780
O O2 0.276982 0.154926 0.329791
O O3 0.500000 0.500000 0.000000
O O4 0.070005 0.599962 0.084352
O O5 0.731624 0.327574 0.331346
O O6 0.376490 0.625448 0.276833
O O7 0.657737 0.760982 0.974631
O O8 0.726241 0.770440 0.057497
O O9 0.586327 0.048899 0.698266
O O10 0.000000 0.000000 0.500000
O O11 0.929361 0.549579 0.389524
O O12 0.325899 0.724984 0.085191
O O13 0.000000 0.000000 0.000000
O O14 0.697725 0.891859 0.103563
O O15 0.000000 0.500000 0.500000
O O16 0.974569 0.074783 0.764631
#
# Coordination Sequence:
#
# PCOD9055021 Si02
#       7
#     2   2   2   2   2   2   2
#     4  12  26  43  67 100 142 180 229 284 349 414
#     4  11  25  45  71 103 143 180 234 292 343 414
#     4  12  27  47  68 103 144 187 226 282 358 423
#     4  12  22  42  70 103 136 181 232 287 342 410
#     4  11  23  44  75  99 136 186 233 288 347 399
#     4  11  21  39  72 103 128 174 238 288 336 401
#     4  11  24  46  68 103 139 178 236 294 339 410
#
# _framework density 20.100020000000001
#
# number of rings (size 3 to 8) (size 9 to 14) (size 15 to 20)
#    0.000    0.571    7.143    2.571    2.000    3.429 
#    2.571    1.429    0.000    0.000    0.000    0.000 
#    0.000    0.000    0.000    0.000    0.000    0.000 
#
# Total GULP energy -77998.615865 kJ/mol
# GULP energy per Si atom -5571.329705 kJ/mol
# Density = 2.005427 g / cm^3
# Si number density = 20.100020 Si / 1000 Ang^3
#
#
#
# Elastic Constant Matrix: (Units=GPa)
#
#
# Indices 1 2 3 4 5 6 
#
# 1 126.3368 25.3944 15.2765 -11.3886 -21.7261 8.2134
# 2 25.3944 60.4250 38.1568 -12.5791 10.5239 8.5418
# 3 15.2765 38.1568 83.6061 -15.3490 -7.7387 17.3087
# 4 -11.3886 -12.5791 -15.3490 39.5433 -0.4438 -5.9327
# 5 -21.7261 10.5239 -7.7387 -0.4438 47.7871 -6.0121
# 6 8.2134 8.5418 17.3087 -5.9327 -6.0121 36.8628
#
#
#
# Elastic Compliance Matrix: (Units=1/GPa)
#
#
# Indices 1 2 3 4 5 6 
#
# 1 0.010184 -0.006179 0.001950 0.001727 0.006266 -0.000453
# 2 -0.006179 0.030029 -0.013000 0.002449 -0.011628 -0.000980
# 3 0.001950 -0.013000 0.019817 0.003418 0.006343 -0.005142
# 4 0.001727 0.002449 0.003418 0.028238 0.001339 0.002206
# 5 0.006266 -0.011628 0.006343 0.001339 0.027761 0.003063
# 6 -0.000453 -0.000980 -0.005142 0.002206 0.003063 0.030725
#
#
# Mechanical properties :
#
#
# Convention : Reuss Voigt Hill
#
# Bulk Modulus (GPa) = 39.10480 47.55816 43.33148
# Shear Modulus (GPa) = 26.35260 37.60799 31.98030
#
# Velocity S-wave (km/s) = 3.62480 4.33025 3.99313
# Velocity P-wave (km/s) = 6.08410 6.97951 6.54713
#
# Compressibility (1/GPa) = 0.02557231
#
# Stress axis : x y z
#
# Youngs Moduli (GPa) = 98.19065 33.30132 50.46266
#
# Poissons Ratio (x) = 0.20578 -0.09841
# Poissons Ratio (y) = 0.60675 0.65599
# Poissons Ratio (z) = -0.19148 0.43290
#
# Static dielectric constant tensor:
#      x y z
#    x 1.858300 -0.085640 0.154280 
#    y -0.085640 1.774050 -0.106390 
#    z 0.154280 -0.106390 1.755550 
# 
# From -- ./inp_files/153951.got.cif
#   From: 2010.05.17/outbox.cif.g08.bks.cpg/sg2_77_cif.got.tgz:153951.got - 2010.06.03 11:33:40.
