data_PCOD9055344
_publ_section_title
;
Structure prediction by ZEFSAII (Michael W. Deem and Ramdas Pophale) SiO2 
 PCOD9055344
Probable space group: P -1
;
_chemical_formula_sum "Si O2"
_cell_formula_units_Z 15
_cell_length_a 8.567288
_cell_length_b 7.892737
_cell_length_c 15.624750
_cell_angle_alpha 116.547967
_cell_angle_beta 144.035995
_cell_angle_gamma 62.652211
_cell_volume 545.385598
_symmetry_space_group_name_H-M "P -1"
_symmetry_group_IT_number 2
_symmetry_cell_setting 'triclinic'
loop_
_space_group_symop_operation_xyz
x,y,z
-x,-y,-z
loop_
_atom_site_type_symbol
_atom_site_label
_atom_site_fract_x
_atom_site_fract_y
_atom_site_fract_z
Si Si1 0.345557 0.844957 0.210005
Si Si2 0.997800 0.825089 0.781766
Si Si3 0.527174 0.121596 0.233776
Si Si4 0.031464 0.570669 0.934313
Si Si5 0.078862 0.632943 0.490073
Si Si6 0.510563 0.723476 0.446878
Si Si7 0.500000 0.000000 0.000000
Si Si8 0.989039 0.620578 0.268705
O O1 0.449097 0.752970 0.325706
O O2 0.524753 0.986242 0.283650
O O3 0.073531 0.996331 0.145640
O O4 0.265571 0.695869 0.073384
O O5 0.733595 0.843901 0.605917
O O6 0.000163 0.615264 0.777848
O O7 0.273025 0.852960 0.867420
O O8 0.269679 0.294746 0.175406
O O9 0.808902 0.195685 0.379380
O O10 0.498832 0.013580 0.108522
O O11 0.131526 0.370695 0.879244
O O12 0.000000 0.500000 0.000000
O O13 0.331645 0.496291 0.525008
O O14 0.888754 0.674803 0.331863
O O15 0.000000 0.500000 0.500000
O O16 0.242308 0.726253 0.384489
#
# Coordination Sequence:
#
# PCOD9055344 Si02
#       8
#     2   2   2   2   2   2   1   2
#     4  12  22  40  66  99 129 170 225 286 329 385
#     4  11  22  40  65  96 131 177 219 269 337 404
#     4  12  23  43  66  96 134 177 223 277 337 401
#     4  12  22  39  66  98 131 167 223 280 327 390
#     4  11  23  42  66  95 134 180 218 271 340 406
#     4  11  22  40  67 101 130 167 231 281 328 391
#     4  12  26  42  64  96 140 182 220 262 350 414
#     4  11  21  41  68  97 129 170 229 277 328 393
#
# _framework density 27.503478000000001
#
# number of rings (size 3 to 8) (size 9 to 14) (size 15 to 20)
#    0.000    0.533    5.333    5.600    0.000    0.000 
#    0.000    5.333    0.000    6.400    0.000    0.000 
#    0.000    0.000    0.000    0.000    0.000    0.000 
#
# Total GULP energy -83568.662374 kJ/mol
# GULP energy per Si atom -5571.244158 kJ/mol
# Density = 2.744088 g / cm^3
# Si number density = 27.503478 Si / 1000 Ang^3
#
#
#
# Elastic Constant Matrix: (Units=GPa)
#
#
# Indices 1 2 3 4 5 6 
#
# 1 89.0124 27.6300 47.3109 -1.7994 -15.9492 32.4685
# 2 27.6300 48.1855 10.0066 4.1292 20.9076 8.3809
# 3 47.3109 10.0066 175.3285 46.6622 -11.8619 14.0738
# 4 -1.7994 4.1292 46.6622 38.2693 5.9646 5.4203
# 5 -15.9492 20.9076 -11.8619 5.9646 57.5691 8.0529
# 6 32.4685 8.3809 14.0738 5.4203 8.0529 60.2209
#
#
#
# Elastic Compliance Matrix: (Units=1/GPa)
#
#
# Indices 1 2 3 4 5 6 
#
# 1 0.030680 -0.020906 -0.008592 0.013951 0.014958 -0.014880
# 2 -0.020906 0.039925 0.003309 -0.007380 -0.020004 0.008281
# 3 -0.008592 0.003309 0.011725 -0.015464 0.000042 0.002818
# 4 0.013951 -0.007380 -0.015464 0.047530 -0.000575 -0.007082
# 5 0.014958 -0.020004 0.000042 -0.000575 0.030144 -0.009270
# 6 -0.014880 0.008281 0.002818 -0.007082 -0.009270 0.024694
#
#
# Mechanical properties :
#
#
# Convention : Reuss Voigt Hill
#
# Bulk Modulus (GPa) = 33.38622 53.60237 43.49430
# Shear Modulus (GPa) = 20.23779 46.38377 33.31078
#
# Velocity S-wave (km/s) = 2.71556 4.11112 3.48393
# Velocity P-wave (km/s) = 4.69016 6.48588 5.65969
#
# Compressibility (1/GPa) = 0.02995248
#
# Stress axis : x y z
#
# Youngs Moduli (GPa) = 32.59410 25.04681 85.28488
#
# Poissons Ratio (x) = 0.52362 0.73279
# Poissons Ratio (y) = 0.68140 -0.28218
# Poissons Ratio (z) = 0.28006 -0.08287
#
# Static dielectric constant tensor:
#      x y z
#    x 26.863080 -5.080760 0.692560 
#    y -5.080760 3.406280 -0.477780 
#    z 0.692560 -0.477780 2.774870 
# 
# From -- ./inp_files/298562.got.cif
#   From: 2010.05.17/outbox.cif.g08.bks.cpg/sg2_150_cif.got.tgz:298562.got - 2010.06.03 11:33:40.
