data_PCOD9055995
_publ_section_title
;
Structure prediction by ZEFSAII (Michael W. Deem and Ramdas Pophale) SiO2 
 PCOD9055995
Probable space group: P -1
;
_chemical_formula_sum "Si O2"
_cell_formula_units_Z 15
_cell_length_a 9.942174
_cell_length_b 8.965273
_cell_length_c 17.238561
_cell_angle_alpha 37.208715
_cell_angle_beta 48.080071
_cell_angle_gamma 43.394140
_cell_volume 623.416920
_symmetry_space_group_name_H-M "P -1"
_symmetry_group_IT_number 2
_symmetry_cell_setting 'triclinic'
loop_
_space_group_symop_operation_xyz
x,y,z
-x,-y,-z
loop_
_atom_site_type_symbol
_atom_site_label
_atom_site_fract_x
_atom_site_fract_y
_atom_site_fract_z
Si Si1 0.535325 0.318276 0.385271
Si Si2 0.981162 0.472557 0.927631
Si Si3 0.430636 0.129885 0.887408
Si Si4 0.759377 0.476760 0.714047
Si Si5 0.996362 0.975324 0.313416
Si Si6 0.943826 0.295600 0.437972
Si Si7 0.436125 0.434158 0.972324
Si Si8 0.500000 0.500000 0.500000
O O1 0.362881 0.315386 0.395230
O O2 0.525697 0.314693 0.483921
O O3 0.755086 0.121336 0.349268
O O4 0.079642 0.754310 0.441240
O O5 0.950791 0.773213 0.788182
O O6 0.195295 0.246636 0.913771
O O7 0.798817 0.394236 0.020946
O O8 0.000000 0.500000 0.000000
O O9 0.489338 0.372756 0.748782
O O10 0.500000 0.000000 0.000000
O O11 0.540729 0.871979 0.899239
O O12 0.586652 0.448554 0.843509
O O13 0.907258 0.190245 0.734004
O O14 0.110662 0.412374 0.328390
O O15 0.726604 0.479876 0.410065
O O16 0.000000 0.000000 0.500000
O O17 0.500000 0.500000 0.000000
#
# Coordination Sequence:
#
# PCOD9055995 Si02
#       8
#     2   2   2   2   2   2   2   1
#     4  11  24  44  77 111 141 192 240 292 362 434
#     4  11  22  42  76 104 137 189 236 283 357 433
#     4  11  21  44  76 102 142 192 237 286 357 436
#     4  12  26  47  73 105 145 191 239 302 362 429
#     4  11  24  45  77 103 143 189 244 292 352 434
#     4  12  28  48  74 104 144 194 240 301 361 427
#     4  12  27  43  69 111 147 182 238 305 359 420
#     4  12  26  44  72 110 140 188 244 292 362 420
#
# _framework density 24.060946000000001
#
# number of rings (size 3 to 8) (size 9 to 14) (size 15 to 20)
#    0.000    0.533    5.333    2.800    1.867    2.133 
#    0.000    1.333    0.000    0.000    0.000    0.000 
#    0.000    0.000    0.000    0.000    0.000    0.000 
#
# Total GULP energy -83551.119874 kJ/mol
# GULP energy per Si atom -5570.074658 kJ/mol
# Density = 2.400618 g / cm^3
# Si number density = 24.060946 Si / 1000 Ang^3
#
#
#
# Elastic Constant Matrix: (Units=GPa)
#
#
# Indices 1 2 3 4 5 6 
#
# 1 175.2581 51.4175 12.2673 10.0161 -41.5997 -13.7857
# 2 51.4175 103.8643 8.2291 22.1519 -19.4858 -15.2267
# 3 12.2673 8.2291 73.8559 2.9927 -21.1024 -11.9637
# 4 10.0161 22.1519 2.9927 23.1178 -4.4020 0.6301
# 5 -41.5997 -19.4858 -21.1024 -4.4020 37.3630 15.7600
# 6 -13.7857 -15.2267 -11.9637 0.6301 15.7600 39.1549
#
#
#
# Elastic Compliance Matrix: (Units=1/GPa)
#
#
# Indices 1 2 3 4 5 6 
#
# 1 0.008569 -0.002968 0.001336 0.000810 0.009505 -0.001567
# 2 -0.002968 0.014659 0.000447 -0.012715 0.001189 0.004518
# 3 0.001336 0.000447 0.016496 -0.001240 0.010221 0.001591
# 4 0.000810 -0.012715 -0.001240 0.056063 0.003230 -0.007240
# 5 0.009505 0.001189 0.010221 0.003230 0.049648 -0.013103
# 6 -0.001567 0.004518 0.001591 -0.007240 -0.013103 0.032621
#
#
# Mechanical properties :
#
#
# Convention : Reuss Voigt Hill
#
# Bulk Modulus (GPa) = 26.76984 55.20068 40.98526
# Shear Modulus (GPa) = 25.92313 38.66477 32.29395
#
# Velocity S-wave (km/s) = 3.28593 4.01303 3.66754
# Velocity P-wave (km/s) = 5.05435 6.66816 5.91654
#
# Compressibility (1/GPa) = 0.03735547
#
# Stress axis : x y z
#
# Youngs Moduli (GPa) = 116.69347 68.21727 60.61937
#
# Poissons Ratio (x) = 0.20244 -0.08101
# Poissons Ratio (y) = 0.34629 -0.02707
# Poissons Ratio (z) = -0.15594 -0.03046
#
# Static dielectric constant tensor:
#      x y z
#    x 1.874950 0.057360 0.037520 
#    y 0.057360 1.851640 0.043470 
#    z 0.037520 0.043470 1.852220 
# 
# From -- ./inp_files/586061.got.cif
#   From: 2010.05.17/outbox.cif.g08.bks.cpg/sg2_294_cif.got.tgz:586061.got - 2010.06.03 11:33:40.
