data_PCOD9055417
_publ_section_title
;
Structure prediction by ZEFSAII (Michael W. Deem and Ramdas Pophale) SiO2 
 PCOD9055417
Probable space group: P -1
;
_chemical_formula_sum "Si O2"
_cell_formula_units_Z 15
_cell_length_a 16.950087
_cell_length_b 8.240525
_cell_length_c 12.836841
_cell_angle_alpha 99.797196
_cell_angle_beta 25.874933
_cell_angle_gamma 114.405077
_cell_volume 614.078552
_symmetry_space_group_name_H-M "P -1"
_symmetry_group_IT_number 2
_symmetry_cell_setting 'triclinic'
loop_
_space_group_symop_operation_xyz
x,y,z
-x,-y,-z
loop_
_atom_site_type_symbol
_atom_site_label
_atom_site_fract_x
_atom_site_fract_y
_atom_site_fract_z
Si Si1 0.903158 0.376088 0.824555
Si Si2 0.487809 0.179499 0.996937
Si Si3 0.252755 0.288093 0.442106
Si Si4 0.472024 0.982862 0.408256
Si Si5 0.608449 0.752651 0.107395
Si Si6 0.201132 0.340961 0.951829
Si Si7 0.000000 0.500000 0.500000
Si Si8 0.712535 0.780471 0.378720
O O1 0.075528 0.320597 0.614696
O O2 0.851265 0.392602 0.769456
O O3 0.695236 0.179777 0.111041
O O4 0.954424 0.582937 0.838480
O O5 0.377693 0.144342 0.008269
O O6 0.753629 0.380561 0.709856
O O7 0.313510 0.173658 0.281551
O O8 0.500000 0.000000 0.000000
O O9 0.485433 0.518640 0.195167
O O10 0.182255 0.209306 0.635092
O O11 0.294094 0.025883 0.596922
O O12 0.500000 0.000000 0.500000
O O13 0.454937 0.787750 0.365655
O O14 0.801637 0.787193 0.959955
O O15 0.456149 0.562826 0.667820
O O16 0.185907 0.237791 0.849369
#
# Coordination Sequence:
#
# PCOD9055417 Si02
#       8
#     2   2   2   2   2   2   1   2
#     4  11  25  42  66 105 140 188 246 299 364 437
#     4  12  26  48  73 108 148 191 244 306 368 441
#     4  11  24  44  68 102 144 186 245 299 365 441
#     4  11  22  44  70 104 144 189 246 303 370 435
#     4  11  21  41  71  98 137 193 234 303 368 428
#     4   9  19  36  64  95 130 185 236 286 358 428
#     4  12  24  48  74 106 148 190 242 300 364 446
#     4   9  18  38  63  91 134 182 231 291 360 423
#
# _framework density 24.426843000000002
#
# number of rings (size 3 to 8) (size 9 to 14) (size 15 to 20)
#    0.000    1.333    2.667    4.400    3.733    0.533 
#    4.800    2.000    0.000    0.000    0.000    0.000 
#    0.000    0.000    0.000    0.000    0.000    0.000 
#
# Total GULP energy -83534.648327 kJ/mol
# GULP energy per Si atom -5568.976555 kJ/mol
# Density = 2.437125 g / cm^3
# Si number density = 24.426843 Si / 1000 Ang^3
#
#
#
# Elastic Constant Matrix: (Units=GPa)
#
#
# Indices 1 2 3 4 5 6 
#
# 1 128.8952 65.8194 53.1515 15.7563 40.7490 -19.3015
# 2 65.8194 108.9517 49.1700 50.3438 1.3322 -17.7274
# 3 53.1515 49.1700 99.4091 18.8220 7.2126 -4.8124
# 4 15.7563 50.3438 18.8220 57.4404 2.6507 0.5625
# 5 40.7490 1.3322 7.2126 2.6507 48.4760 -1.1304
# 6 -19.3015 -17.7274 -4.8124 0.5625 -1.1304 40.6510
#
#
#
# Elastic Compliance Matrix: (Units=1/GPa)
#
#
# Indices 1 2 3 4 5 6 
#
# 1 0.022514 -0.015044 -0.004919 0.009434 -0.018228 0.002910
# 2 -0.015044 0.031605 -0.003901 -0.022998 0.013776 0.006879
# 3 -0.004919 -0.003901 0.014362 -0.000010 0.002053 -0.002280
# 4 0.009434 -0.022998 -0.000010 0.035476 -0.009384 -0.006303
# 5 -0.018228 0.013776 0.002053 -0.009384 0.035750 -0.001280
# 6 0.002910 0.006879 -0.002280 -0.006303 -0.001280 0.028763
#
#
# Mechanical properties :
#
#
# Convention : Reuss Voigt Hill
#
# Bulk Modulus (GPa) = 48.18771 74.83752 61.51262
# Shear Modulus (GPa) = 22.40986 40.58783 31.49884
#
# Velocity S-wave (km/s) = 3.03219 4.08070 3.59488
# Velocity P-wave (km/s) = 5.65943 7.27371 6.51674
#
# Compressibility (1/GPa) = 0.02075218
#
# Stress axis : x y z
#
# Youngs Moduli (GPa) = 44.41702 31.64068 69.62905
#
# Poissons Ratio (x) = 0.47600 0.34254
# Poissons Ratio (y) = 0.66820 0.27162
# Poissons Ratio (z) = 0.21851 0.12343
#
# Static dielectric constant tensor:
#      x y z
#    x 2.355050 -0.357800 -0.281310 
#    y -0.357800 2.329740 0.135820 
#    z -0.281310 0.135820 2.118030 
# 
# From -- ./inp_files/447467.got.cif
#   From: 2010.05.17/outbox.cif.g08.bks.cpg/sg2_224_cif.got.tgz:447467.got - 2010.06.03 11:33:40.
