data_PCOD9055975
_publ_section_title
;
Structure prediction by ZEFSAII (Michael W. Deem and Ramdas Pophale) SiO2 
 PCOD9055975
Probable space group: P -1
;
_chemical_formula_sum "Si O2"
_cell_formula_units_Z 14
_cell_length_a 10.950285
_cell_length_b 9.322501
_cell_length_c 9.869068
_cell_angle_alpha 105.330878
_cell_angle_beta 139.100512
_cell_angle_gamma 92.491912
_cell_volume 587.025658
_symmetry_space_group_name_H-M "P -1"
_symmetry_group_IT_number 2
_symmetry_cell_setting 'triclinic'
loop_
_space_group_symop_operation_xyz
x,y,z
-x,-y,-z
loop_
_atom_site_type_symbol
_atom_site_label
_atom_site_fract_x
_atom_site_fract_y
_atom_site_fract_z
Si Si1 0.615762 0.983649 0.832397
Si Si2 0.531384 0.590599 0.906311
Si Si3 0.834717 0.176076 0.617862
Si Si4 0.338536 0.354237 0.249673
Si Si5 0.913149 0.464666 0.568273
Si Si6 0.842193 0.934249 0.231735
Si Si7 0.910145 0.277432 0.991102
O O1 0.384504 0.963929 0.623744
O O2 0.601146 0.800264 0.755521
O O3 0.735966 0.036495 0.088845
O O4 0.755293 0.105432 0.870216
O O5 0.667026 0.574590 0.888876
O O6 0.313928 0.543583 0.642239
O O7 0.500000 0.500000 0.000000
O O8 0.654442 0.778865 0.087893
O O9 0.889871 0.291811 0.563375
O O10 0.011196 0.107718 0.763092
O O11 0.832101 0.284882 0.774048
O O12 0.500000 0.500000 0.500000
O O13 0.136532 0.295603 0.152983
O O14 0.000000 0.500000 0.500000
O O15 0.053735 0.595565 0.825635
O O16 0.000000 0.000000 0.500000
#
# Coordination Sequence:
#
# PCOD9055975 Si02
#       7
#     2   2   2   2   2   2   2
#     4  11  25  46  70 108 145 181 244 293 353 423
#     4  11  23  46  66 103 141 181 239 285 353 421
#     4  12  24  49  72 102 144 186 242 293 356 427
#     4  11  21  44  74 102 139 186 232 292 349 419
#     4  12  27  45  72 107 144 189 240 298 355 432
#     4  11  26  44  74 103 144 190 232 295 363 421
#     4  12  25  45  74 103 144 193 235 299 359 420
#
# _framework density 23.849042000000001
#
# number of rings (size 3 to 8) (size 9 to 14) (size 15 to 20)
#    0.000    0.571    7.143    2.143    4.000    1.714 
#    0.000    0.000    0.000    0.000    0.000    0.000 
#    0.000    0.000    0.000    0.000    0.000    0.000 
#
# Total GULP energy -78184.936036 kJ/mol
# GULP energy per Si atom -5584.638288 kJ/mol
# Density = 2.379476 g / cm^3
# Si number density = 23.849042 Si / 1000 Ang^3
#
#
#
# Elastic Constant Matrix: (Units=GPa)
#
#
# Indices 1 2 3 4 5 6 
#
# 1 93.5163 33.7934 32.3503 11.3556 -1.6575 29.8070
# 2 33.7934 82.9162 19.8739 6.5776 7.2533 40.8177
# 3 32.3503 19.8739 146.3229 12.1891 4.1986 2.8871
# 4 11.3556 6.5776 12.1891 33.2410 1.2858 3.4882
# 5 -1.6575 7.2533 4.1986 1.2858 57.5982 3.0034
# 6 29.8070 40.8177 2.8871 3.4882 3.0034 43.6915
#
#
#
# Elastic Compliance Matrix: (Units=1/GPa)
#
#
# Indices 1 2 3 4 5 6 
#
# 1 0.015375 -0.000838 -0.002880 -0.003099 0.001315 -0.009359
# 2 -0.000838 0.023642 -0.002460 -0.001206 -0.001693 -0.021140
# 3 -0.002880 -0.002460 0.007894 -0.001816 -0.000513 0.003922
# 4 -0.003099 -0.001206 -0.001816 0.031979 -0.000563 0.000847
# 5 0.001315 -0.001693 -0.000513 -0.000563 0.017686 -0.000453
# 6 -0.009359 -0.021140 0.003922 0.000847 -0.000453 0.048727
#
#
# Mechanical properties :
#
#
# Convention : Reuss Voigt Hill
#
# Bulk Modulus (GPa) = 28.93948 54.97674 41.95811
# Shear Modulus (GPa) = 29.55481 42.68866 36.12174
#
# Velocity S-wave (km/s) = 3.52411 4.23537 3.89601
# Velocity P-wave (km/s) = 5.35910 6.85710 6.15385
#
# Compressibility (1/GPa) = 0.03455487
#
# Stress axis : x y z
#
# Youngs Moduli (GPa) = 65.03965 42.29778 126.68383
#
# Poissons Ratio (x) = 0.03544 0.36490
# Poissons Ratio (y) = 0.05450 0.31160
# Poissons Ratio (z) = 0.18734 0.10404
#
# Static dielectric constant tensor:
#      x y z
#    x 2.004550 -0.048980 -0.054990 
#    y -0.048980 1.911340 0.007500 
#    z -0.054990 0.007500 1.977430 
# 
# From -- ./inp_files/258737.got.cif
#   From: 2010.05.17/outbox.cif.g08.bks.cpg/sg2_130_cif.got.tgz:258737.got - 2010.06.03 11:33:40.
