data_PCOD9055850
_publ_section_title
;
Structure prediction by ZEFSAII (Michael W. Deem and Ramdas Pophale) SiO2 
 PCOD9055850
Probable space group: P -1
;
_chemical_formula_sum "Si O2"
_cell_formula_units_Z 14
_cell_length_a 9.972286
_cell_length_b 17.959942
_cell_length_c 10.625955
_cell_angle_alpha 53.563582
_cell_angle_beta 79.574659
_cell_angle_gamma 35.221380
_cell_volume 666.707805
_symmetry_space_group_name_H-M "P -1"
_symmetry_group_IT_number 2
_symmetry_cell_setting 'triclinic'
loop_
_space_group_symop_operation_xyz
x,y,z
-x,-y,-z
loop_
_atom_site_type_symbol
_atom_site_label
_atom_site_fract_x
_atom_site_fract_y
_atom_site_fract_z
Si Si1 0.168403 0.740242 0.271775
Si Si2 0.807738 0.767519 0.328933
Si Si3 0.104342 0.973020 0.160879
Si Si4 0.305621 0.308716 0.784497
Si Si5 0.046535 0.538467 0.071867
Si Si6 0.675976 0.929459 0.663540
Si Si7 0.734105 0.099849 0.503570
O O1 0.500000 0.500000 0.500000
O O2 0.067803 0.884796 0.238560
O O3 0.952100 0.780954 0.268405
O O4 0.162013 0.797014 0.079402
O O5 0.697988 0.783245 0.204987
O O6 0.058893 0.538334 0.560490
O O7 0.553913 0.927467 0.321110
O O8 0.376316 0.836619 0.156371
O O9 0.221374 0.922907 0.330703
O O10 0.212915 0.335515 0.911841
O O11 0.382239 0.334100 0.285163
O O12 0.000000 0.500000 0.000000
O O13 0.960785 0.691951 0.886623
O O14 0.500000 0.000000 0.500000
O O15 0.787871 0.963769 0.584820
O O16 0.000000 0.000000 0.500000
#
# Coordination Sequence:
#
# PCOD9055850 Si02
#       7
#     2   2   2   2   2   2   2
#     4  11  25  41  66 103 144 182 224 294 364 428
#     4  11  22  42  72 105 137 183 235 299 350 429
#     4  11  25  46  67 105 143 186 237 299 357 424
#     4  11  21  43  76 104 137 180 244 293 354 420
#     4  12  26  47  77 106 144 191 243 301 356 435
#     4  12  25  46  72 104 139 193 245 291 365 428
#     4  12  28  49  70 104 149 191 241 302 362 427
#
# _framework density 20.998704
#
# number of rings (size 3 to 8) (size 9 to 14) (size 15 to 20)
#    0.000    0.571    5.714    1.714    4.000    4.000 
#    2.571    0.000    0.000    0.000    0.000    0.000 
#    0.000    0.000    0.000    0.000    0.000    0.000 
#
# Total GULP energy -78205.086302 kJ/mol
# GULP energy per Si atom -5586.077593 kJ/mol
# Density = 2.095091 g / cm^3
# Si number density = 20.998704 Si / 1000 Ang^3
#
#
#
# Elastic Constant Matrix: (Units=GPa)
#
#
# Indices 1 2 3 4 5 6 
#
# 1 188.6455 50.1761 51.7283 6.7145 -19.1600 11.4935
# 2 50.1761 102.3131 36.5521 16.2945 10.0613 6.9332
# 3 51.7283 36.5521 167.1532 -2.8570 -5.4582 15.4577
# 4 6.7145 16.2945 -2.8570 33.0151 10.7931 3.9544
# 5 -19.1600 10.0613 -5.4582 10.7931 42.8822 3.2078
# 6 11.4935 6.9332 15.4577 3.9544 3.2078 39.0597
#
#
#
# Elastic Compliance Matrix: (Units=1/GPa)
#
#
# Indices 1 2 3 4 5 6 
#
# 1 0.007008 -0.003117 -0.001260 -0.001187 0.004093 -0.001226
# 2 -0.003117 0.013184 -0.002138 -0.004928 -0.003534 0.000212
# 3 -0.001260 -0.002138 0.007105 0.002039 0.000502 -0.002309
# 4 -0.001187 -0.004928 0.002039 0.036063 -0.007999 -0.002577
# 5 0.004093 -0.003534 0.000502 -0.007999 0.028225 -0.002284
# 6 -0.001226 0.000212 -0.002309 -0.002577 -0.002284 0.027287
#
#
# Mechanical properties :
#
#
# Convention : Reuss Voigt Hill
#
# Bulk Modulus (GPa) = 70.09154 81.66941 75.88048
# Shear Modulus (GPa) = 36.58743 44.30174 40.44458
#
# Velocity S-wave (km/s) = 4.17869 4.59817 4.39344
# Velocity P-wave (km/s) = 7.53216 8.19560 7.87087
#
# Compressibility (1/GPa) = 0.01426706
#
# Stress axis : x y z
#
# Youngs Moduli (GPa) = 142.68845 75.84806 140.74892
#
# Poissons Ratio (x) = 0.23642 0.17741
# Poissons Ratio (y) = 0.44476 0.30088
# Poissons Ratio (z) = 0.17986 0.16214
#
# Static dielectric constant tensor:
#      x y z
#    x 1.697270 0.025730 -0.060930 
#    y 0.025730 1.725670 0.019800 
#    z -0.060930 0.019800 1.745640 
# 
# From -- ./inp_files/402987.got.cif
#   From: 2010.05.17/outbox.cif.g08.bks.cpg/sg2_202_cif.got.tgz:402987.got - 2010.06.03 11:33:40.
