data_PCOD9055071
_publ_section_title
;
Structure prediction by ZEFSAII (Michael W. Deem and Ramdas Pophale) SiO2 
 PCOD9055071
Probable space group: P -1
;
_chemical_formula_sum "Si O2"
_cell_formula_units_Z 16
_cell_length_a 8.195326
_cell_length_b 17.375836
_cell_length_c 9.223790
_cell_angle_alpha 147.831184
_cell_angle_beta 101.311380
_cell_angle_gamma 67.925485
_cell_volume 627.934571
_symmetry_space_group_name_H-M "P -1"
_symmetry_group_IT_number 2
_symmetry_cell_setting 'triclinic'
loop_
_space_group_symop_operation_xyz
x,y,z
-x,-y,-z
loop_
_atom_site_type_symbol
_atom_site_label
_atom_site_fract_x
_atom_site_fract_y
_atom_site_fract_z
Si Si1 0.365519 0.626037 0.797434
Si Si2 0.964399 0.294620 0.735949
Si Si3 0.547176 0.928869 0.233860
Si Si4 0.159871 0.362264 0.136617
Si Si5 0.010251 0.711013 0.723227
Si Si6 0.201160 0.897642 0.434740
Si Si7 0.364684 0.440742 0.793933
Si Si8 0.269574 0.150450 0.327551
O O1 0.500000 0.500000 0.500000
O O2 0.190138 0.730622 0.834498
O O3 0.344273 0.505591 0.727664
O O4 0.337238 0.768006 0.138871
O O5 0.843988 0.196439 0.593453
O O6 0.091118 0.232525 0.524819
O O7 0.821112 0.473191 0.009764
O O8 0.103584 0.277634 0.863013
O O9 0.703961 0.989428 0.320101
O O10 0.395169 0.996351 0.192148
O O11 0.500000 0.000000 0.500000
O O12 0.628170 0.739253 0.958603
O O13 0.094977 0.545505 0.384961
O O14 0.058874 0.340147 0.224318
O O15 0.836314 0.843643 0.830287
O O16 0.000000 0.000000 0.500000
O O17 0.383914 0.260491 0.507973
O O18 0.500000 0.500000 0.000000
#
# Coordination Sequence:
#
# PCOD9055071 Si02
#       8
#     2   2   2   2   2   2   2   2
#     4  11  25  42  66 106 140 185 219 288 355 407
#     4  11  21  40  65  96 128 179 232 272 336 396
#     4  12  25  42  69 103 131 175 238 284 338 404
#     4  11  21  43  67  92 131 182 222 273 339 408
#     4  11  23  42  67  95 141 175 226 272 351 418
#     4  11  21  44  71  94 132 181 234 280 337 418
#     4  11  23  41  65 102 138 177 234 286 335 399
#     4  12  24  39  67 104 132 179 227 290 337 408
#
# _framework density 25.480360999999998
#
# number of rings (size 3 to 8) (size 9 to 14) (size 15 to 20)
#    0.000    0.750    6.250    2.625    3.500    0.500 
#    0.000    0.000    0.000    3.750    0.000    0.000 
#    0.000    0.000    0.000    0.000    0.000    0.000 
#
# Total GULP energy -89230.653191 kJ/mol
# GULP energy per Si atom -5576.915824 kJ/mol
# Density = 2.542237 g / cm^3
# Si number density = 25.480361 Si / 1000 Ang^3
#
#
#
# Elastic Constant Matrix: (Units=GPa)
#
#
# Indices 1 2 3 4 5 6 
#
# 1 61.6517 28.8587 40.2849 -12.2165 -16.5661 -4.8891
# 2 28.8587 118.1980 25.8851 -1.8626 -4.8559 -35.2173
# 3 40.2849 25.8851 118.7967 -4.7023 -13.2823 10.7868
# 4 -12.2165 -1.8626 -4.7023 45.5938 -3.9978 -11.3411
# 5 -16.5661 -4.8559 -13.2823 -3.9978 33.1740 0.2564
# 6 -4.8891 -35.2173 10.7868 -11.3411 0.2564 39.6739
#
#
#
# Elastic Compliance Matrix: (Units=1/GPa)
#
#
# Indices 1 2 3 4 5 6 
#
# 1 0.027864 -0.002895 -0.007678 0.008909 0.011448 0.005424
# 2 -0.002895 0.014017 -0.003264 0.002850 -0.000464 0.013790
# 3 -0.007678 -0.003264 0.012389 -0.002880 0.000363 -0.008037
# 4 0.008909 0.002850 -0.002880 0.027814 0.006969 0.012317
# 5 0.011448 -0.000464 0.000363 0.006969 0.036758 0.002655
# 6 0.005424 0.013790 -0.008037 0.012317 0.002655 0.043804
#
#
# Mechanical properties :
#
#
# Convention : Reuss Voigt Hill
#
# Bulk Modulus (GPa) = 37.59888 54.30043 45.94965
# Shear Modulus (GPa) = 25.10238 37.26285 31.18262
#
# Velocity S-wave (km/s) = 3.14214 3.82830 3.50207
# Velocity P-wave (km/s) = 5.28698 6.39517 5.86729
#
# Compressibility (1/GPa) = 0.02659654
#
# Stress axis : x y z
#
# Youngs Moduli (GPa) = 35.88876 71.34373 80.71668
#
# Poissons Ratio (x) = 0.20652 0.61975
# Poissons Ratio (y) = 0.10389 0.26344
# Poissons Ratio (z) = 0.27556 0.23285
#
# Static dielectric constant tensor:
#      x y z
#    x 1.299530 -0.625750 1.651300 
#    y -0.625750 1.766680 1.024760 
#    z 1.651300 1.024760 -0.866560 
# 
# From -- ./inp_files/218923.got.cif
#   From: 2010.05.17/outbox.cif.g08.bks.cpg/sg2_110_cif.got.tgz:218923.got - 2010.06.03 11:33:40.
