data_PCOD9055004
_publ_section_title
;
Structure prediction by ZEFSAII (Michael W. Deem and Ramdas Pophale) SiO2 
 PCOD9055004
Probable space group: P -1
;
_chemical_formula_sum "Si O2"
_cell_formula_units_Z 14
_cell_length_a 6.807677
_cell_length_b 21.265254
_cell_length_c 9.424535
_cell_angle_alpha 149.362416
_cell_angle_beta 123.373310
_cell_angle_gamma 59.380429
_cell_volume 578.551946
_symmetry_space_group_name_H-M "P -1"
_symmetry_group_IT_number 2
_symmetry_cell_setting 'triclinic'
loop_
_space_group_symop_operation_xyz
x,y,z
-x,-y,-z
loop_
_atom_site_type_symbol
_atom_site_label
_atom_site_fract_x
_atom_site_fract_y
_atom_site_fract_z
Si Si1 0.918618 0.212277 0.795102
Si Si2 0.381212 0.636472 0.266097
Si Si3 0.194360 0.425666 0.336332
Si Si4 0.733771 0.448590 0.649333
Si Si5 0.345141 0.114136 0.087252
Si Si6 0.636339 0.901282 0.260240
Si Si7 0.827043 0.206141 0.063035
O O1 0.760308 0.299745 0.798966
O O2 0.092534 0.108422 0.588571
O O3 0.796531 0.187332 0.845619
O O4 0.141678 0.286522 0.078768
O O5 0.223751 0.600009 0.268822
O O6 0.542968 0.750603 0.592571
O O7 0.500000 0.500000 0.000000
O O8 0.449314 0.460904 0.552876
O O9 0.189936 0.432577 0.175032
O O10 0.000000 0.500000 0.500000
O O11 0.849565 0.348735 0.390055
O O12 0.073843 0.136510 0.075307
O O13 0.334066 0.066107 0.828533
O O14 0.500000 0.000000 0.000000
O O15 0.500000 0.000000 0.500000
O O16 0.421594 0.811123 0.997252
#
# Coordination Sequence:
#
# PCOD9055004 Si02
#       7
#     2   2   2   2   2   2   2
#     4  11  25  42  69 103 144 181 240 302 355 422
#     4  12  28  47  68 110 152 189 238 302 363 427
#     4  11  21  39  70  97 134 188 235 289 352 433
#     4  11  23  42  68 100 139 188 237 288 366 419
#     4  11  28  50  73 104 148 191 236 302 363 424
#     4  11  26  47  75 105 135 189 249 295 358 439
#     4  11  23  47  75  97 139 191 244 294 358 433
#
# _framework density 24.198349
#
# number of rings (size 3 to 8) (size 9 to 14) (size 15 to 20)
#    0.000    0.857    4.286    1.714    8.000    3.429 
#    0.000    0.000    0.000    0.000    0.000    0.000 
#    0.000    0.000    0.000    0.000    0.000    0.000 
#
# Total GULP energy -77958.181735 kJ/mol
# GULP energy per Si atom -5568.441552 kJ/mol
# Density = 2.414327 g / cm^3
# Si number density = 24.198349 Si / 1000 Ang^3
#
#
#
# Elastic Constant Matrix: (Units=GPa)
#
#
# Indices 1 2 3 4 5 6 
#
# 1 146.0867 52.2217 13.6546 -3.7394 -16.8814 -15.9389
# 2 52.2217 169.8648 19.1218 -19.8508 -17.3143 -19.4008
# 3 13.6546 19.1218 67.5785 0.5888 -1.4215 -3.2637
# 4 -3.7394 -19.8508 0.5888 28.9704 4.2264 2.3491
# 5 -16.8814 -17.3143 -1.4215 4.2264 31.9227 7.2960
# 6 -15.9389 -19.4008 -3.2637 2.3491 7.2960 42.4812
#
#
#
# Elastic Compliance Matrix: (Units=1/GPa)
#
#
# Indices 1 2 3 4 5 6 
#
# 1 0.008144 -0.002020 -0.000927 -0.000870 0.002917 0.001609
# 2 -0.002020 0.007659 -0.001660 0.004573 0.001943 0.002026
# 3 -0.000927 -0.001660 0.015469 -0.001511 -0.000562 0.000262
# 4 -0.000870 0.004573 -0.001511 0.038016 -0.003097 0.000076
# 5 0.002917 0.001943 -0.000562 -0.003097 0.035207 -0.003936
# 6 0.001609 0.002026 0.000262 0.000076 -0.003936 0.025761
#
#
# Mechanical properties :
#
#
# Convention : Reuss Voigt Hill
#
# Bulk Modulus (GPa) = 45.33703 61.50290 53.41997
# Shear Modulus (GPa) = 34.05463 40.57699 37.31581
#
# Velocity S-wave (km/s) = 3.75549 4.09938 3.93119
# Velocity P-wave (km/s) = 6.13035 6.91938 6.53678
#
# Compressibility (1/GPa) = 0.02205702
#
# Stress axis : x y z
#
# Youngs Moduli (GPa) = 122.78307 130.56884 64.64654
#
# Poissons Ratio (x) = 0.26375 0.05995
# Poissons Ratio (y) = 0.24802 0.10732
# Poissons Ratio (z) = 0.11387 0.21676
#
# Static dielectric constant tensor:
#      x y z
#    x 1.731860 0.309950 0.431320 
#    y 0.309950 1.845940 -0.189510 
#    z 0.431320 -0.189510 1.821160 
# 
# From -- ./inp_files/141767.got.cif
#   From: 2010.05.17/outbox.cif.g08.bks.cpg/sg2_71_cif.got.tgz:141767.got - 2010.06.03 11:33:40.
