data_PCOD9055092
_publ_section_title
;
Structure prediction by ZEFSAII (Michael W. Deem and Ramdas Pophale) SiO2 
 PCOD9055092
Probable space group: P -1
;
_chemical_formula_sum "Si O2"
_cell_formula_units_Z 16
_cell_length_a 6.362795
_cell_length_b 15.612510
_cell_length_c 12.099697
_cell_angle_alpha 43.763108
_cell_angle_beta 51.935142
_cell_angle_gamma 75.231225
_cell_volume 613.262660
_symmetry_space_group_name_H-M "P -1"
_symmetry_group_IT_number 2
_symmetry_cell_setting 'triclinic'
loop_
_space_group_symop_operation_xyz
x,y,z
-x,-y,-z
loop_
_atom_site_type_symbol
_atom_site_label
_atom_site_fract_x
_atom_site_fract_y
_atom_site_fract_z
Si Si1 0.891091 0.680503 0.297163
Si Si2 0.267575 0.215991 0.085558
Si Si3 0.650643 0.039098 0.107598
Si Si4 0.623298 0.256316 0.562793
Si Si5 0.327491 0.596922 0.820804
Si Si6 0.263457 0.534798 0.268165
Si Si7 0.200595 0.245835 0.335168
Si Si8 0.216530 0.987823 0.667376
O O1 0.575349 0.676472 0.373146
O O2 0.878433 0.591681 0.492270
O O3 0.051285 0.610076 0.228436
O O4 0.073935 0.832290 0.130432
O O5 0.420340 0.107949 0.141902
O O6 0.167867 0.234714 0.223999
O O7 0.005739 0.157824 0.144227
O O8 0.502415 0.350103 0.844977
O O9 0.731867 0.990073 0.242140
O O10 0.513556 0.900675 0.216813
O O11 0.597084 0.302172 0.401481
O O12 0.966263 0.299038 0.417751
O O13 0.525008 0.506554 0.840379
O O14 0.469575 0.685253 0.798801
O O15 0.000000 0.500000 0.000000
O O16 0.112282 0.097702 0.546597
O O17 0.500000 0.000000 0.500000
#
# Coordination Sequence:
#
# PCOD9055092 Si02
#       8
#     2   2   2   2   2   2   2   2
#     4   9  21  43  67  90 127 181 226 274 317 385
#     4  11  23  39  67  98 135 172 213 274 331 397
#     4  11  21  40  66  96 130 174 220 272 330 381
#     4  11  22  41  65  95 133 174 223 275 323 383
#     4  11  25  42  67  99 137 173 213 272 331 401
#     4   9  21  43  66  92 129 175 226 267 325 387
#     4  12  24  40  65 101 136 170 219 268 335 399
#     4  12  23  38  63 101 135 170 216 269 336 394
#
# _framework density 26.089963000000001
#
# number of rings (size 3 to 8) (size 9 to 14) (size 15 to 20)
#    0.000    1.250    3.750    2.250    1.750    2.000 
#    0.000   11.875    0.000    0.000    0.000    0.000 
#    0.000    0.000    0.000    0.000    0.000    0.000 
#
# Total GULP energy -89356.946585 kJ/mol
# GULP energy per Si atom -5584.809162 kJ/mol
# Density = 2.603058 g / cm^3
# Si number density = 26.089963 Si / 1000 Ang^3
#
#
#
# Elastic Constant Matrix: (Units=GPa)
#
#
# Indices 1 2 3 4 5 6 
#
# 1 49.6591 31.4089 24.7847 6.3325 -27.0804 -15.5640
# 2 31.4089 110.8970 26.8587 9.0824 -19.1506 -44.0035
# 3 24.7847 26.8587 134.0190 -20.1569 -15.3839 -18.1818
# 4 6.3325 9.0824 -20.1569 38.3282 -12.1904 -8.9666
# 5 -27.0804 -19.1506 -15.3839 -12.1904 54.8099 1.8314
# 6 -15.5640 -44.0035 -18.1818 -8.9666 1.8314 40.3229
#
#
#
# Elastic Compliance Matrix: (Units=1/GPa)
#
#
# Indices 1 2 3 4 5 6 
#
# 1 0.034037 -0.003520 -0.002930 -0.000001 0.014520 0.007315
# 2 -0.003520 0.017933 0.000497 0.002442 0.004582 0.018770
# 3 -0.002930 0.000497 0.010270 0.008128 0.003226 0.005703
# 4 -0.000001 0.002442 0.008128 0.036479 0.010781 0.013951
# 5 0.014520 0.004582 0.003226 0.010781 0.029885 0.013099
# 6 0.007315 0.018770 0.005703 0.013951 0.013099 0.053186
#
#
# Mechanical properties :
#
#
# Convention : Reuss Voigt Hill
#
# Bulk Modulus (GPa) = 19.86747 51.18663 35.52705
# Shear Modulus (GPa) = 23.75558 40.79373 32.27465
#
# Velocity S-wave (km/s) = 3.02077 3.95850 3.52099
# Velocity P-wave (km/s) = 4.44952 6.36827 5.49332
#
# Compressibility (1/GPa) = 0.05033353
#
# Stress axis : x y z
#
# Youngs Moduli (GPa) = 29.37947 55.76193 97.36775
#
# Poissons Ratio (x) = 0.19630 0.28530
# Poissons Ratio (y) = 0.10343 -0.04836
# Poissons Ratio (z) = 0.08608 -0.02770
#
# Static dielectric constant tensor:
#      x y z
#    x 1.984380 -0.030370 -0.044780 
#    y -0.030370 2.073340 0.054290 
#    z -0.044780 0.054290 2.089890 
# 
# From -- ./inp_files/485193.got.cif
#   From: 2010.05.17/outbox.cif.g08.bks.cpg/sg2_243_cif.got.tgz:485193.got - 2010.06.03 11:33:40.
