data_PCOD9055985
_publ_section_title
;
Structure prediction by ZEFSAII (Michael W. Deem and Ramdas Pophale) SiO2 
 PCOD9055985
Probable space group: P -1
;
_chemical_formula_sum "Si O2"
_cell_formula_units_Z 16
_cell_length_a 15.368305
_cell_length_b 9.270533
_cell_length_c 11.517858
_cell_angle_alpha 99.117426
_cell_angle_beta 82.026663
_cell_angle_gamma 28.883449
_cell_volume 636.554181
_symmetry_space_group_name_H-M "P -1"
_symmetry_group_IT_number 2
_symmetry_cell_setting 'triclinic'
loop_
_space_group_symop_operation_xyz
x,y,z
-x,-y,-z
loop_
_atom_site_type_symbol
_atom_site_label
_atom_site_fract_x
_atom_site_fract_y
_atom_site_fract_z
Si Si1 0.763429 0.338077 0.753084
Si Si2 0.773404 0.319348 0.010354
Si Si3 0.648304 0.160160 0.363609
Si Si4 0.310875 0.222692 0.940325
Si Si5 0.101739 0.562285 0.280262
Si Si6 0.474433 0.583476 0.255199
Si Si7 0.681645 0.866762 0.574333
Si Si8 0.709031 0.760131 0.308393
O O1 0.930115 0.213227 0.669790
O O2 0.707643 0.266783 0.699829
O O3 0.529399 0.787548 0.846786
O O4 0.834032 0.190183 0.851548
O O5 0.649886 0.663775 0.067610
O O6 0.602805 0.459355 0.107314
O O7 0.000000 0.000000 0.000000
O O8 0.500000 0.500000 0.500000
O O9 0.668086 0.203144 0.239747
O O10 0.553959 0.141991 0.382200
O O11 0.882962 0.804308 0.333767
O O12 0.183317 0.387821 0.860230
O O13 0.211367 0.367847 0.107006
O O14 0.208627 0.347347 0.352861
O O15 0.370337 0.882655 0.375094
O O16 0.809097 0.621606 0.401881
O O17 0.443844 0.148244 0.649091
#
# Coordination Sequence:
#
# PCOD9055985 Si02
#       8
#     2   2   2   2   2   2   2   2
#     4  11  22  42  69 103 140 187 226 285 358 416
#     4  11  23  40  62 104 144 179 232 290 345 409
#     4  12  26  47  69  97 142 184 233 293 354 420
#     4  11  21  44  74  98 140 184 227 283 344 422
#     4  11  24  45  71 105 136 183 238 287 351 425
#     4  12  21  42  68  97 140 187 231 286 348 414
#     4  11  23  44  73 100 137 187 235 288 341 426
#     4  11  23  45  72  99 140 186 230 276 367 408
#
# _framework density 25.135331999999998
#
# number of rings (size 3 to 8) (size 9 to 14) (size 15 to 20)
#    0.000    0.750    5.000    4.125    0.000    1.000 
#    4.500    2.500    0.000    0.000    0.000    0.000 
#    0.000    0.000    0.000    0.000    0.000    0.000 
#
# Total GULP energy -89219.325770 kJ/mol
# GULP energy per Si atom -5576.207861 kJ/mol
# Density = 2.507812 g / cm^3
# Si number density = 25.135332 Si / 1000 Ang^3
#
#
#
# Elastic Constant Matrix: (Units=GPa)
#
#
# Indices 1 2 3 4 5 6 
#
# 1 143.5265 25.5630 39.6550 -8.7742 16.7228 29.0542
# 2 25.5630 70.7735 55.5321 -46.5496 -2.6718 -0.8372
# 3 39.6550 55.5321 113.7299 -43.8029 7.9372 0.0496
# 4 -8.7742 -46.5496 -43.8029 46.5911 2.3634 4.9191
# 5 16.7228 -2.6718 7.9372 2.3634 43.4251 -7.5065
# 6 29.0542 -0.8372 0.0496 4.9191 -7.5065 41.1004
#
#
#
# Elastic Compliance Matrix: (Units=1/GPa)
#
#
# Indices 1 2 3 4 5 6 
#
# 1 0.010447 -0.004732 -0.002546 -0.004067 -0.004994 -0.007904
# 2 -0.004732 0.047510 -0.006184 0.040560 0.003693 0.000141
# 3 -0.002546 -0.006184 0.016282 0.008784 -0.002839 0.000084
# 4 -0.004067 0.040560 0.008784 0.070133 -0.002245 -0.005113
# 5 -0.004994 0.003693 -0.002839 -0.002245 0.027353 0.008873
# 6 -0.007904 0.000141 0.000084 -0.005113 0.008873 0.032153
#
#
# Mechanical properties :
#
#
# Convention : Reuss Voigt Hill
#
# Bulk Modulus (GPa) = 21.13604 63.28113 42.20859
# Shear Modulus (GPa) = 20.27786 40.04197 30.15991
#
# Velocity S-wave (km/s) = 2.84341 3.99564 3.46772
# Velocity P-wave (km/s) = 4.38259 6.82039 5.73257
#
# Compressibility (1/GPa) = 0.04731254
#
# Stress axis : x y z
#
# Youngs Moduli (GPa) = 95.72250 21.04835 61.41940
#
# Poissons Ratio (x) = 0.09961 0.15639
# Poissons Ratio (y) = 0.45299 0.37983
# Poissons Ratio (z) = 0.24373 0.13017
#
# Static dielectric constant tensor:
#      x y z
#    x 1.973540 -0.030260 0.034600 
#    y -0.030260 2.065630 -0.014820 
#    z 0.034600 -0.014820 2.115560 
# 
# From -- ./inp_files/447652.got.cif
#   From: 2010.05.17/outbox.cif.g08.bks.cpg/sg2_224_cif.got.tgz:447652.got - 2010.06.03 11:33:40.
