data_PCOD9055801
_publ_section_title
;
Structure prediction by ZEFSAII (Michael W. Deem and Ramdas Pophale) SiO2 
 PCOD9055801
Probable space group: P -1
;
_chemical_formula_sum "Si O2"
_cell_formula_units_Z 16
_cell_length_a 17.802182
_cell_length_b 9.104985
_cell_length_c 11.447673
_cell_angle_alpha 55.535967
_cell_angle_beta 32.533937
_cell_angle_gamma 52.685408
_cell_volume 787.106955
_symmetry_space_group_name_H-M "P -1"
_symmetry_group_IT_number 2
_symmetry_cell_setting 'triclinic'
loop_
_space_group_symop_operation_xyz
x,y,z
-x,-y,-z
loop_
_atom_site_type_symbol
_atom_site_label
_atom_site_fract_x
_atom_site_fract_y
_atom_site_fract_z
Si Si1 0.301210 0.218183 0.460263
Si Si2 0.873554 0.004365 0.069755
Si Si3 0.348962 0.559036 0.389373
Si Si4 0.964563 0.317524 0.175681
Si Si5 0.381751 0.817303 0.017495
Si Si6 0.104269 0.130207 0.297616
Si Si7 0.329823 0.617304 0.940958
Si Si8 0.848181 0.656559 0.640462
O O1 0.245960 0.081935 0.676609
O O2 0.299200 0.404244 0.450287
O O3 0.199793 0.262596 0.459962
O O4 0.465456 0.147633 0.228033
O O5 0.785702 0.211674 0.048945
O O6 0.950248 0.865841 0.926381
O O7 0.000000 0.000000 0.000000
O O8 0.209253 0.654946 0.608572
O O9 0.379903 0.706476 0.190194
O O10 0.504045 0.453496 0.292949
O O11 0.022893 0.292127 0.243547
O O12 0.000000 0.500000 0.000000
O O13 0.256287 0.009774 0.099662
O O14 0.348143 0.690740 0.014598
O O15 0.131254 0.195843 0.360255
O O16 0.000000 0.000000 0.500000
O O17 0.266851 0.443271 0.113879
O O18 0.000000 0.500000 0.500000
#
# Coordination Sequence:
#
# PCOD9055801 Si02
#       8
#     2   2   2   2   2   2   2   2
#     4  11  23  42  68 102 132 179 224 280 338 401
#     4  12  28  45  68  99 142 182 228 281 336 411
#     4  11  21  43  74 100 139 175 230 283 339 406
#     4  12  26  45  68  99 138 182 227 277 343 405
#     4  11  21  43  72 102 134 174 233 283 340 402
#     4  12  26  42  69 101 135 180 232 283 335 402
#     4  11  23  44  68 100 135 183 223 276 350 403
#     4  12  24  40  69  98 134 177 231 283 332 399
#
# _framework density 20.327607
#
# number of rings (size 3 to 8) (size 9 to 14) (size 15 to 20)
#    0.000    0.500    6.250    3.000    3.500    3.500 
#    2.250    0.625    0.000    0.000    0.000    0.000 
#    0.000    0.000    0.000    0.000    0.000    0.000 
#
# Total GULP energy -89495.426221 kJ/mol
# GULP energy per Si atom -5593.464139 kJ/mol
# Density = 2.028134 g / cm^3
# Si number density = 20.327607 Si / 1000 Ang^3
#
#
#
# Elastic Constant Matrix: (Units=GPa)
#
#
# Indices 1 2 3 4 5 6 
#
# 1 72.0061 7.1010 6.8347 1.4838 -13.0652 -5.7667
# 2 7.1010 58.8973 22.6786 15.7621 -3.5356 -15.5192
# 3 6.8347 22.6786 113.3772 14.9890 -3.5148 -6.7617
# 4 1.4838 15.7621 14.9890 37.5543 -11.4265 -4.8246
# 5 -13.0652 -3.5356 -3.5148 -11.4265 24.6150 -4.5349
# 6 -5.7667 -15.5192 -6.7617 -4.8246 -4.5349 38.2768
#
#
#
# Elastic Compliance Matrix: (Units=1/GPa)
#
#
# Indices 1 2 3 4 5 6 
#
# 1 0.016242 -0.001109 -0.000716 0.003872 0.010827 0.003642
# 2 -0.001109 0.022106 -0.002977 -0.007010 0.000274 0.007419
# 3 -0.000716 -0.002977 0.009813 -0.002869 -0.000744 -0.000031
# 4 0.003872 -0.007010 -0.002869 0.036683 0.018412 0.004040
# 5 0.010827 0.000274 -0.000744 0.018412 0.056817 0.010663
# 6 0.003642 0.007419 -0.000031 0.004040 0.010663 0.031449
#
#
# Mechanical properties :
#
#
# Convention : Reuss Voigt Hill
#
# Bulk Modulus (GPa) = 25.93671 35.27881 30.60776
# Shear Modulus (GPa) = 25.56665 33.93362 29.75013
#
# Velocity S-wave (km/s) = 3.55030 4.09018 3.82977
# Velocity P-wave (km/s) = 5.43996 6.30071 5.88609
#
# Compressibility (1/GPa) = 0.03855539
#
# Stress axis : x y z
#
# Youngs Moduli (GPa) = 61.57063 45.23651 101.90319
#
# Poissons Ratio (x) = 0.05017 0.07299
# Poissons Ratio (y) = 0.06829 0.30340
# Poissons Ratio (z) = 0.04410 0.13468
#
# Static dielectric constant tensor:
#      x y z
#    x 1.694940 0.008630 0.035100 
#    y 0.008630 1.743870 0.037300 
#    z 0.035100 0.037300 1.724430 
# 
# From -- ./inp_files/299044.got.cif
#   From: 2010.05.17/outbox.cif.g08.bks.cpg/sg2_150_cif.got.tgz:299044.got - 2010.06.03 11:33:40.
