data_PCOD9055001
_publ_section_title
;
Structure prediction by ZEFSAII (Michael W. Deem and Ramdas Pophale) SiO2 
 PCOD9055001
Probable space group: P -1
;
_chemical_formula_sum "Si O2"
_cell_formula_units_Z 10
_cell_length_a 11.279141
_cell_length_b 14.247884
_cell_length_c 8.360737
_cell_angle_alpha 66.750240
_cell_angle_beta 115.709188
_cell_angle_gamma 162.757101
_cell_volume 357.884503
_symmetry_space_group_name_H-M "P -1"
_symmetry_group_IT_number 2
_symmetry_cell_setting 'triclinic'
loop_
_space_group_symop_operation_xyz
x,y,z
-x,-y,-z
loop_
_atom_site_type_symbol
_atom_site_label
_atom_site_fract_x
_atom_site_fract_y
_atom_site_fract_z
Si Si1 0.567119 0.116216 0.117307
Si Si2 0.147719 0.804989 0.522629
Si Si3 0.594156 0.662069 0.818480
Si Si4 0.112732 0.246129 0.338271
Si Si5 0.688630 0.436283 0.017714
O O1 0.917121 0.330513 0.291701
O O2 0.647112 0.293055 0.023047
O O3 0.103698 0.759108 0.146217
O O4 0.500000 0.000000 0.000000
O O5 0.775396 0.572841 0.356043
O O6 0.215268 0.950686 0.591684
O O7 0.500000 0.000000 0.500000
O O8 0.935749 0.879011 0.741364
O O9 0.652902 0.797896 0.887193
O O10 0.500000 0.500000 0.000000
O O11 0.500000 0.500000 0.500000
O O12 0.259409 0.443923 0.172416
#
# Coordination Sequence:
#
# PCOD9055001 Si02
#       5
#     2   2   2   2   2
#     4  12  25  43  72 105 145 183 240 299 356 418
#     4  11  21  39  70 105 141 184 242 294 353 417
#     4   9  20  42  69 100 143 187 236 288 363 425
#     4   9  20  41  70 100 145 188 235 288 358 430
#     4  11  23  45  73 102 143 188 235 298 358 422
#
# _framework density 27.941977999999999
#
# number of rings (size 3 to 8) (size 9 to 14) (size 15 to 20)
#    0.000    1.600    4.000    0.600    0.000    0.800 
#    0.000   10.000    0.000    0.000    0.000    0.000 
#    0.000    0.000    0.000    0.000    0.000    0.000 
#
# Total GULP energy -55680.767635 kJ/mol
# GULP energy per Si atom -5568.076764 kJ/mol
# Density = 2.787838 g / cm^3
# Si number density = 27.941978 Si / 1000 Ang^3
#
#
#
# Elastic Constant Matrix: (Units=GPa)
#
#
# Indices 1 2 3 4 5 6 
#
# 1 224.9524 35.4577 82.1959 -12.4655 -41.5822 14.5606
# 2 35.4577 109.9353 32.9486 16.0029 13.8616 -2.7704
# 3 82.1959 32.9486 177.5240 40.4198 6.2779 12.2720
# 4 -12.4655 16.0029 40.4198 15.8991 32.8637 8.5114
# 5 -41.5822 13.8616 6.2779 32.8637 71.2942 -1.7331
# 6 14.5606 -2.7704 12.2720 8.5114 -1.7331 50.1348
#
#
#
# Elastic Compliance Matrix: (Units=1/GPa)
#
#
# Indices 1 2 3 4 5 6 
#
# 1 0.005818 -0.001328 -0.000578 -0.009558 0.008115 0.000281
# 2 -0.001328 0.010046 -0.002535 0.006407 -0.005451 0.000285
# 3 -0.000578 -0.002535 0.001482 0.024757 -0.011506 -0.004936
# 4 -0.009558 0.006407 0.024757 -0.105736 0.040139 0.016408
# 5 0.008115 -0.005451 -0.011506 0.040139 0.002170 -0.006581
# 6 0.000281 0.000285 -0.004936 0.016408 -0.006581 0.018075
#
#
# Mechanical properties :
#
#
# Convention : Reuss Voigt Hill
#
# Bulk Modulus (GPa) = 118.14132 90.40179 104.27156
# Shear Modulus (GPa) = -88.59010 51.58625 -18.50193
#
# Velocity S-wave (km/s) = -5.63683 4.30139 -2.57603
# Velocity P-wave (km/s) = 0.08717 7.55599 5.34325
#
# Compressibility (1/GPa) = 0.00846444
#
# Stress axis : x y z
#
# Youngs Moduli (GPa) = 171.88104 99.53805 674.63030
#
# Poissons Ratio (x) = 0.13221 0.38964
# Poissons Ratio (y) = 0.22830 1.71042
# Poissons Ratio (z) = 0.09927 0.25236
#
# Static dielectric constant tensor:
#      x y z
#    x 2.473630 0.153640 -0.128300 
#    y 0.153640 2.157590 -0.071550 
#    z -0.128300 -0.071550 2.179350 
# 
# From -- ./inp_files/267468.got.cif
#   From: 2010.05.17/outbox.cif.g08.bks.cpg/sg2_134_cif.got.tgz:267468.got - 2010.06.03 11:33:40.
