data_PCOD9055925
_publ_section_title
;
Structure prediction by ZEFSAII (Michael W. Deem and Ramdas Pophale) SiO2 
 PCOD9055925
Probable space group: P -1
;
_chemical_formula_sum "Si O2"
_cell_formula_units_Z 16
_cell_length_a 9.168221
_cell_length_b 8.880490
_cell_length_c 12.406638
_cell_angle_alpha 51.687439
_cell_angle_beta 54.357331
_cell_angle_gamma 72.099236
_cell_volume 641.804418
_symmetry_space_group_name_H-M "P -1"
_symmetry_group_IT_number 2
_symmetry_cell_setting 'triclinic'
loop_
_space_group_symop_operation_xyz
x,y,z
-x,-y,-z
loop_
_atom_site_type_symbol
_atom_site_label
_atom_site_fract_x
_atom_site_fract_y
_atom_site_fract_z
Si Si1 0.821465 0.564888 0.102412
Si Si2 0.956557 0.846501 0.364232
Si Si3 0.743712 0.623334 0.734641
Si Si4 0.695265 0.276071 0.619472
Si Si5 0.498166 0.069186 0.218991
Si Si6 0.489211 0.282452 0.927298
Si Si7 0.932206 0.617027 0.262282
Si Si8 0.675946 0.140965 0.325135
O O1 0.720285 0.704857 0.007240
O O2 0.864593 0.669400 0.150937
O O3 0.695822 0.361506 0.258586
O O4 0.000000 0.500000 0.000000
O O5 0.822030 0.687339 0.555317
O O6 0.983215 0.776209 0.261175
O O7 0.137823 0.839671 0.358492
O O8 0.853858 0.038684 0.325220
O O9 0.672322 0.809256 0.736728
O O10 0.571729 0.472812 0.867153
O O11 0.900349 0.513073 0.769862
O O12 0.579733 0.296896 0.766100
O O13 0.777023 0.473112 0.446317
O O14 0.572795 0.152120 0.642261
O O15 0.651571 0.136274 0.207753
O O16 0.542427 0.111493 0.056358
O O17 0.500000 0.000000 0.500000
#
# Coordination Sequence:
#
# PCOD9055925 Si02
#       8
#     2   2   2   2   2   2   2   2
#     4  12  29  46  69 105 141 178 231 286 340 410
#     4  11  23  44  71 100 138 168 229 292 332 401
#     4  11  21  44  71  97 131 181 230 275 336 410
#     4  11  25  44  70 104 132 180 235 277 334 413
#     4  12  26  41  70  97 137 185 223 280 345 399
#     4  12  24  47  67  94 143 181 228 274 340 415
#     4  11  24  44  74  98 134 183 224 283 347 393
#     4  12  26  47  69 106 139 178 232 286 337 406
#
# _framework density 24.929713
#
# number of rings (size 3 to 8) (size 9 to 14) (size 15 to 20)
#    0.000    0.500    5.000    3.000    7.000    1.500 
#    0.000    1.250    0.000    0.000    0.000    0.000 
#    0.000    0.000    0.000    0.000    0.000    0.000 
#
# Total GULP energy -89600.998856 kJ/mol
# GULP energy per Si atom -5600.062429 kJ/mol
# Density = 2.487297 g / cm^3
# Si number density = 24.929713 Si / 1000 Ang^3
#
#
#
# Elastic Constant Matrix: (Units=GPa)
#
#
# Indices 1 2 3 4 5 6 
#
# 1 72.6008 -14.0842 23.1897 5.0159 11.7927 2.4190
# 2 -14.0842 36.2152 -7.5525 -1.7816 -3.3961 11.6376
# 3 23.1897 -7.5525 55.8243 11.5700 6.3343 1.2568
# 4 5.0159 -1.7816 11.5700 30.4679 -3.2178 1.0532
# 5 11.7927 -3.3961 6.3343 -3.2178 32.0128 7.3408
# 6 2.4190 11.6376 1.2568 1.0532 7.3408 44.8137
#
#
#
# Elastic Compliance Matrix: (Units=1/GPa)
#
#
# Indices 1 2 3 4 5 6 
#
# 1 0.017556 0.005639 -0.005833 -0.000763 -0.004447 -0.001502
# 2 0.005639 0.033677 0.001821 0.001050 0.003463 -0.009693
# 3 -0.005833 0.001821 0.022525 -0.007785 -0.002866 -0.000137
# 4 -0.000763 0.001050 -0.007785 0.036668 0.006046 -0.001865
# 5 -0.004447 0.003463 -0.002866 0.006046 0.035933 -0.006607
# 6 -0.001502 -0.009693 -0.000137 -0.001865 -0.006607 0.026043
#
#
# Mechanical properties :
#
#
# Convention : Reuss Voigt Hill
#
# Bulk Modulus (GPa) = 12.98501 18.63849 15.81175
# Shear Modulus (GPa) = 25.66497 32.33137 28.99817
#
# Velocity S-wave (km/s) = 3.21205 3.60516 3.41427
# Velocity P-wave (km/s) = 4.35618 4.98219 4.67967
#
# Compressibility (1/GPa) = 0.07701189
#
# Stress axis : x y z
#
# Youngs Moduli (GPa) = 56.95944 29.69399 44.39572
#
# Poissons Ratio (x) = -0.16745 0.25898
# Poissons Ratio (y) = -0.32121 -0.08085
# Poissons Ratio (z) = 0.33227 -0.05408
#
# Static dielectric constant tensor:
#      x y z
#    x 1.955090 -0.002080 -0.004540 
#    y -0.002080 1.946070 -0.011070 
#    z -0.004540 -0.011070 2.014030 
# 
# From -- ./inp_files/185267.got.cif
#   From: 2010.05.17/outbox.cif.g08.bks.cpg/sg2_93_cif.got.tgz:185267.got - 2010.06.03 11:33:40.
