data_PCOD9055629
_publ_section_title
;
Structure prediction by ZEFSAII (Michael W. Deem and Ramdas Pophale) SiO2 
 PCOD9055629
Probable space group: P -1
;
_chemical_formula_sum "Si O2"
_cell_formula_units_Z 16
_cell_length_a 9.371429
_cell_length_b 12.559635
_cell_length_c 9.821165
_cell_angle_alpha 131.530336
_cell_angle_beta 85.686945
_cell_angle_gamma 75.972918
_cell_volume 794.035946
_symmetry_space_group_name_H-M "P -1"
_symmetry_group_IT_number 2
_symmetry_cell_setting 'triclinic'
loop_
_space_group_symop_operation_xyz
x,y,z
-x,-y,-z
loop_
_atom_site_type_symbol
_atom_site_label
_atom_site_fract_x
_atom_site_fract_y
_atom_site_fract_z
Si Si1 0.882524 0.805743 0.043966
Si Si2 0.097616 0.905346 0.286002
Si Si3 0.133663 0.183769 0.407072
Si Si4 0.567413 0.357179 0.272566
Si Si5 0.916051 0.187084 0.188987
Si Si6 0.845483 0.641113 0.172795
Si Si7 0.351821 0.561447 0.962930
Si Si8 0.637626 0.837394 0.864674
O O1 0.820831 0.741361 0.122791
O O2 0.961204 0.908598 0.197828
O O3 0.741980 0.859591 0.996462
O O4 0.024277 0.722243 0.854260
O O5 0.215403 0.728723 0.156002
O O6 0.184698 0.004523 0.295384
O O7 0.000000 0.000000 0.500000
O O8 0.123403 0.277713 0.625920
O O9 0.257892 0.203888 0.313362
O O10 0.977277 0.223113 0.360290
O O11 0.500000 0.500000 0.500000
O O12 0.732729 0.240538 0.224422
O O13 0.439623 0.283828 0.205116
O O14 0.599403 0.409507 0.166433
O O15 0.000000 0.000000 0.000000
O O16 0.718350 0.569705 0.146645
O O17 0.000000 0.500000 0.000000
O O18 0.500000 0.500000 0.000000
O O19 0.500000 0.000000 0.000000
#
# Coordination Sequence:
#
# PCOD9055629 Si02
#       8
#     2   2   2   2   2   2   2   2
#     4  11  22  41  70  94 130 172 221 274 325 389
#     4  12  22  44  73 102 126 175 232 271 332 400
#     4  11  24  40  71 102 128 172 227 277 324 400
#     4  12  25  45  64  99 137 175 218 271 335 400
#     4  11  21  42  72  97 129 178 222 275 332 395
#     4  12  23  44  65 100 134 173 226 274 325 395
#     4  12  26  47  67  94 141 181 214 277 337 393
#     4  11  25  43  66  98 135 172 220 276 333 389
#
# _framework density 20.150220999999998
#
# number of rings (size 3 to 8) (size 9 to 14) (size 15 to 20)
#    0.000    0.500    5.000    3.750    0.000    3.000 
#    2.250    4.375    0.000    0.000    0.000    0.000 
#    0.000    0.000    0.000    0.000    0.000    0.000 
#
# Total GULP energy -89245.823978 kJ/mol
# GULP energy per Si atom -5577.863999 kJ/mol
# Density = 2.010436 g / cm^3
# Si number density = 20.150221 Si / 1000 Ang^3
#
#
#
# Elastic Constant Matrix: (Units=GPa)
#
#
# Indices 1 2 3 4 5 6 
#
# 1 139.2868 57.0393 49.4473 3.3539 16.7889 -1.9427
# 2 57.0393 103.1556 64.3867 -16.6329 2.3530 18.5783
# 3 49.4473 64.3867 127.1057 -4.5830 8.0109 -22.6250
# 4 3.3539 -16.6329 -4.5830 25.3789 6.9228 7.6675
# 5 16.7889 2.3530 8.0109 6.9228 34.2216 -2.3192
# 6 -1.9427 18.5783 -22.6250 7.6675 -2.3192 43.0172
#
#
#
# Elastic Compliance Matrix: (Units=1/GPa)
#
#
# Indices 1 2 3 4 5 6 
#
# 1 0.011403 -0.010394 0.002025 -0.009450 -0.002927 0.007596
# 2 -0.010394 0.042134 -0.022428 0.036854 -0.002522 -0.037167
# 3 0.002025 -0.022428 0.022128 -0.018687 0.000829 0.024791
# 4 -0.009450 0.036854 -0.018687 0.076897 -0.011825 -0.040515
# 5 -0.002927 -0.002522 0.000829 -0.011825 0.033388 0.005301
# 6 0.007596 -0.037167 0.024791 -0.040515 0.005301 0.060188
#
#
# Mechanical properties :
#
#
# Convention : Reuss Voigt Hill
#
# Bulk Modulus (GPa) = 71.06957 79.03273 75.05115
# Shear Modulus (GPa) = 16.00398 33.76854 24.88626
#
# Velocity S-wave (km/s) = 2.82127 4.09814 3.51812
# Velocity P-wave (km/s) = 6.77932 7.85493 7.33686
#
# Compressibility (1/GPa) = 0.01407072
#
# Stress axis : x y z
#
# Youngs Moduli (GPa) = 87.69265 23.73379 45.19234
#
# Poissons Ratio (x) = 0.24669 -0.09151
# Poissons Ratio (y) = 0.91149 1.01357
# Poissons Ratio (z) = -0.17756 0.53230
#
# Static dielectric constant tensor:
#      x y z
#    x 1.726710 0.047960 -0.006060 
#    y 0.047960 1.770450 -0.011500 
#    z -0.006060 -0.011500 1.715280 
# 
# From -- ./inp_files/190780.got.cif
#   From: 2010.05.17/outbox.cif.g08.bks.cpg/sg2_96_cif.got.tgz:190780.got - 2010.06.03 11:33:40.
