data_PCOD9055236
_publ_section_title
;
Structure prediction by ZEFSAII (Michael W. Deem and Ramdas Pophale) SiO2 
 PCOD9055236
Probable space group: P -1
;
_chemical_formula_sum "Si O2"
_cell_formula_units_Z 14
_cell_length_a 8.365066
_cell_length_b 21.340387
_cell_length_c 9.743573
_cell_angle_alpha 125.778394
_cell_angle_beta 149.221024
_cell_angle_gamma 47.219557
_cell_volume 653.281339
_symmetry_space_group_name_H-M "P -1"
_symmetry_group_IT_number 2
_symmetry_cell_setting 'triclinic'
loop_
_space_group_symop_operation_xyz
x,y,z
-x,-y,-z
loop_
_atom_site_type_symbol
_atom_site_label
_atom_site_fract_x
_atom_site_fract_y
_atom_site_fract_z
Si Si1 0.193975 0.494490 0.496253
Si Si2 0.355860 0.937434 0.749398
Si Si3 0.487040 0.748499 0.120459
Si Si4 0.495722 0.207515 0.106726
Si Si5 0.265691 0.439903 0.009234
Si Si6 0.725938 0.779863 0.629052
Si Si7 0.680324 0.300597 0.587330
O O1 0.361147 0.561608 0.693471
O O2 0.512844 0.402311 0.596787
O O3 0.000000 0.500000 0.500000
O O4 0.897616 0.512783 0.190807
O O5 0.351582 0.876165 0.792366
O O6 0.571517 0.872993 0.705173
O O7 0.000000 0.000000 0.500000
O O8 0.500000 0.000000 0.000000
O O9 0.416347 0.807059 0.007872
O O10 0.719350 0.653907 0.112514
O O11 0.134477 0.744343 0.902469
O O12 0.638353 0.776258 0.399446
O O13 0.639455 0.269711 0.364791
O O14 0.077468 0.252792 0.865702
O O15 0.000000 0.500000 0.000000
O O16 0.552511 0.728276 0.520629
#
# Coordination Sequence:
#
# PCOD9055236 Si02
#       7
#     2   2   2   2   2   2   2
#     4  12  24  38  59  89 122 165 219 272 308 345
#     4  11  23  45  70  96 123 157 202 251 310 388
#     4  12  23  42  61  94 131 165 212 258 308 372
#     4  11  24  41  67  91 122 166 203 249 311 381
#     4  12  25  40  60  89 129 175 213 263 315 353
#     4  11  24  41  67  93 125 167 204 258 317 368
#     4  11  21  41  61  88 122 169 219 253 301 377
#
# _framework density 21.430277
#
# number of rings (size 3 to 8) (size 9 to 14) (size 15 to 20)
#    0.000    0.571    0.000   11.143    0.000    0.000 
#    0.000    4.286    0.000    0.000    0.000    0.000 
#    0.000    0.000    0.000    0.000    0.000    0.000 
#
# Total GULP energy -78330.184477 kJ/mol
# GULP energy per Si atom -5595.013177 kJ/mol
# Density = 2.138150 g / cm^3
# Si number density = 21.430277 Si / 1000 Ang^3
#
#
#
# Elastic Constant Matrix: (Units=GPa)
#
#
# Indices 1 2 3 4 5 6 
#
# 1 55.6845 4.0347 -2.0511 15.1577 -18.0104 -4.6290
# 2 4.0347 107.8503 23.6755 17.5611 -9.0171 -3.8223
# 3 -2.0511 23.6755 114.8445 13.5627 -9.6891 -3.4586
# 4 15.1577 17.5611 13.5627 43.7475 -9.2121 -4.8742
# 5 -18.0104 -9.0171 -9.6891 -9.2121 49.2509 2.8770
# 6 -4.6290 -3.8223 -3.4586 -4.8742 2.8770 25.2219
#
#
#
# Elastic Compliance Matrix: (Units=1/GPa)
#
#
# Indices 1 2 3 4 5 6 
#
# 1 0.022344 0.000560 0.001758 -0.006734 0.007225 0.002301
# 2 0.000560 0.010287 -0.001583 -0.003535 0.001078 0.000639
# 3 0.001758 -0.001583 0.009525 -0.002485 0.001720 0.000712
# 4 -0.006734 -0.003535 -0.002485 0.028039 0.001463 0.003139
# 5 0.007225 0.001078 0.001720 0.001463 0.023797 -0.000706
# 6 0.002301 0.000639 0.000712 0.003139 -0.000706 0.040952
#
#
# Mechanical properties :
#
#
# Convention : Reuss Voigt Hill
#
# Bulk Modulus (GPa) = 22.92229 36.63305 29.77767
# Shear Modulus (GPa) = 33.78021 40.49206 37.13614
#
# Velocity S-wave (km/s) = 3.97455 4.35153 4.16731
# Velocity P-wave (km/s) = 5.63757 6.50991 6.08938
#
# Compressibility (1/GPa) = 0.04362566
#
# Stress axis : x y z
#
# Youngs Moduli (GPa) = 44.75553 97.21020 104.98441
#
# Poissons Ratio (x) = -0.05447 -0.18452
# Poissons Ratio (y) = -0.02508 0.16620
# Poissons Ratio (z) = -0.07866 0.15389
#
# Static dielectric constant tensor:
#      x y z
#    x 1.778580 0.002320 0.003630 
#    y 0.002320 1.803200 0.010500 
#    z 0.003630 0.010500 1.737850 
# 
# From -- ./inp_files/48532.got.cif
#   From: 2010.05.17/outbox.cif.g08.bks.cpg/sg2_25_cif.got.tgz:48532.got - 2010.06.03 11:33:40.
