data_PCOD9055306
_publ_section_title
;
Structure prediction by ZEFSAII (Michael W. Deem and Ramdas Pophale) SiO2 
 PCOD9055306
Probable space group: P -1
;
_chemical_formula_sum "Si O2"
_cell_formula_units_Z 16
_cell_length_a 6.822818
_cell_length_b 7.505780
_cell_length_c 24.563246
_cell_angle_alpha 143.581570
_cell_angle_beta 102.580464
_cell_angle_gamma 74.159274
_cell_volume 718.422448
_symmetry_space_group_name_H-M "P -1"
_symmetry_group_IT_number 2
_symmetry_cell_setting 'triclinic'
loop_
_space_group_symop_operation_xyz
x,y,z
-x,-y,-z
loop_
_atom_site_type_symbol
_atom_site_label
_atom_site_fract_x
_atom_site_fract_y
_atom_site_fract_z
Si Si1 0.012375 0.194453 0.461922
Si Si2 0.409829 0.087989 0.143730
Si Si3 0.597369 0.753381 0.167786
Si Si4 0.375430 0.757726 0.320386
Si Si5 0.911249 0.337968 0.007270
Si Si6 0.624960 0.126139 0.361474
Si Si7 0.346252 0.234126 0.015476
Si Si8 0.648104 0.685604 0.419209
O O1 0.117825 0.272418 0.544251
O O2 0.000000 0.500000 0.500000
O O3 0.786625 0.127378 0.420466
O O4 0.173718 0.910503 0.378154
O O5 0.353392 0.441610 0.212066
O O6 0.488925 0.046586 0.200054
O O7 0.221422 0.909906 0.080707
O O8 0.593866 0.887972 0.071614
O O9 0.416695 0.553703 0.109659
O O10 0.684192 0.855923 0.254533
O O11 0.775424 0.559862 0.095407
O O12 0.572574 0.645687 0.343631
O O13 0.424900 0.031473 0.352792
O O14 0.000000 0.500000 0.000000
O O15 0.124331 0.201160 0.013163
O O16 0.605899 0.433315 0.399537
O O17 0.500000 0.000000 0.000000
O O18 0.500000 0.000000 0.500000
#
# Coordination Sequence:
#
# PCOD9055306 Si02
#       8
#     2   2   2   2   2   2   2   2
#     4   9  22  43  65  98 128 157 214 263 310 396
#     4  11  22  39  63  94 129 164 227 263 305 391
#     4  11  22  39  63  93 130 168 222 266 308 383
#     4  11  23  41  67  94 130 173 206 263 328 373
#     4  11  21  41  67  86 126 182 212 260 325 369
#     4  11  23  41  65  94 132 166 208 266 320 376
#     4  11  23  39  61  93 124 170 215 263 320 372
#     4   9  20  41  67  92 124 161 206 261 315 385
#
# _framework density 22.271017000000001
#
# number of rings (size 3 to 8) (size 9 to 14) (size 15 to 20)
#    0.000    1.500    3.750    1.500    0.000   11.000 
#    0.000    3.750    0.000    0.000    0.000    0.000 
#    0.000    0.000    0.000    0.000    0.000    0.000 
#
# Total GULP energy -89170.952839 kJ/mol
# GULP energy per Si atom -5573.184552 kJ/mol
# Density = 2.222033 g / cm^3
# Si number density = 22.271017 Si / 1000 Ang^3
#
#
#
# Elastic Constant Matrix: (Units=GPa)
#
#
# Indices 1 2 3 4 5 6 
#
# 1 95.8585 8.1515 24.1050 10.8205 13.1374 -7.9338
# 2 8.1515 70.5309 7.9006 3.3522 7.8367 -9.2583
# 3 24.1050 7.9006 98.1388 11.7368 14.3221 1.5221
# 4 10.8205 3.3522 11.7368 32.5492 5.8543 6.3222
# 5 13.1374 7.8367 14.3221 5.8543 17.5714 3.7279
# 6 -7.9338 -9.2583 1.5221 6.3222 3.7279 36.0127
#
#
#
# Elastic Compliance Matrix: (Units=1/GPa)
#
#
# Indices 1 2 3 4 5 6 
#
# 1 0.012633 0.000341 -0.001645 -0.003010 -0.008169 0.004315
# 2 0.000341 0.015765 -0.000135 -0.001282 -0.007847 0.005171
# 3 -0.001645 -0.000135 0.012025 -0.002442 -0.007767 0.000327
# 4 -0.003010 -0.001282 -0.002442 0.034975 -0.005469 -0.006463
# 5 -0.008169 -0.007847 -0.007767 -0.005469 0.076896 -0.010489
# 6 0.004315 0.005171 0.000327 -0.006463 -0.010489 0.032255
#
#
# Mechanical properties :
#
#
# Convention : Reuss Voigt Hill
#
# Bulk Modulus (GPa) = 26.63380 38.31582 32.47481
# Shear Modulus (GPa) = 25.00726 32.18474 28.59600
#
# Velocity S-wave (km/s) = 3.35455 3.80562 3.58718
# Velocity P-wave (km/s) = 5.19508 6.04583 5.63653
#
# Compressibility (1/GPa) = 0.03754628
#
# Stress axis : x y z
#
# Youngs Moduli (GPa) = 79.15656 63.43000 83.15964
#
# Poissons Ratio (x) = -0.02165 0.13681
# Poissons Ratio (y) = -0.02702 0.01121
# Poissons Ratio (z) = 0.13023 0.00855
#
# Static dielectric constant tensor:
#      x y z
#    x 1.888660 0.100860 -0.025770 
#    y 0.100860 1.900810 0.082880 
#    z -0.025770 0.082880 1.699670 
# 
# From -- ./inp_files/621781.got.cif
#   From: 2010.05.17/outbox.cif.g08.bks.cpg/sg2_311_cif.got.tgz:621781.got - 2010.06.03 11:33:40.
