data_PCOD9055226
_publ_section_title
;
Structure prediction by ZEFSAII (Michael W. Deem and Ramdas Pophale) SiO2 
 PCOD9055226
Probable space group: P -1
;
_chemical_formula_sum "Si O2"
_cell_formula_units_Z 14
_cell_length_a 11.668681
_cell_length_b 8.932831
_cell_length_c 8.205663
_cell_angle_alpha 72.369014
_cell_angle_beta 70.846851
_cell_angle_gamma 112.635291
_cell_volume 649.137686
_symmetry_space_group_name_H-M "P -1"
_symmetry_group_IT_number 2
_symmetry_cell_setting 'triclinic'
loop_
_space_group_symop_operation_xyz
x,y,z
-x,-y,-z
loop_
_atom_site_type_symbol
_atom_site_label
_atom_site_fract_x
_atom_site_fract_y
_atom_site_fract_z
Si Si1 0.213173 0.512735 0.310179
Si Si2 0.127189 0.592374 0.776435
Si Si3 0.601710 0.615732 0.565423
Si Si4 0.832557 0.013148 0.421940
Si Si5 0.328163 0.508205 0.902179
Si Si6 0.057398 0.710928 0.309819
Si Si7 0.855740 0.908121 0.814417
O O1 0.314752 0.483829 0.388845
O O2 0.185407 0.678135 0.295295
O O3 0.050785 0.331368 0.473741
O O4 0.275274 0.529328 0.096467
O O5 0.176802 0.805068 0.648788
O O6 0.259119 0.580702 0.782924
O O7 0.050032 0.449105 0.711219
O O8 0.000000 0.500000 0.000000
O O9 0.500000 0.500000 0.500000
O O10 0.495884 0.602858 0.762180
O O11 0.720098 0.836035 0.422707
O O12 0.993227 0.076431 0.274488
O O13 0.811720 0.935505 0.643565
O O14 0.257838 0.287801 0.991125
O O15 0.118465 0.916395 0.153791
#
# Coordination Sequence:
#
# PCOD9055226 Si02
#       7
#     2   2   2   2   2   2   2
#     4  11  21  43  68  98 134 182 230 280 338 398
#     4  12  24  42  67 107 141 173 225 293 345 394
#     4  12  27  46  70 100 146 186 225 277 353 420
#     4  11  23  44  70  99 139 181 231 280 348 408
#     4  12  25  44  72 102 141 184 226 285 343 411
#     4  11  22  39  72 105 137 172 231 293 339 396
#     4  11  21  40  74 106 126 181 238 285 334 400
#
# _framework density 21.567073000000001
#
# number of rings (size 3 to 8) (size 9 to 14) (size 15 to 20)
#    0.000    0.571    5.714    3.857    0.000    2.286 
#    0.000    0.714    0.000    0.000    0.000    0.000 
#    0.000    0.000    0.000    0.000    0.000    0.000 
#
# Total GULP energy -78270.428872 kJ/mol
# GULP energy per Si atom -5590.744919 kJ/mol
# Density = 2.151799 g / cm^3
# Si number density = 21.567073 Si / 1000 Ang^3
#
#
#
# Elastic Constant Matrix: (Units=GPa)
#
#
# Indices 1 2 3 4 5 6 
#
# 1 146.4095 48.9327 30.2093 -9.9013 10.0336 -21.2962
# 2 48.9327 118.2176 23.9220 -12.7730 19.8645 -4.7642
# 3 30.2093 23.9220 64.9406 -2.7747 -8.0431 -5.6287
# 4 -9.9013 -12.7730 -2.7747 40.2936 -10.2561 4.7395
# 5 10.0336 19.8645 -8.0431 -10.2561 39.7372 -2.5169
# 6 -21.2962 -4.7642 -5.6287 4.7395 -2.5169 41.8695
#
#
#
# Elastic Compliance Matrix: (Units=1/GPa)
#
#
# Indices 1 2 3 4 5 6 
#
# 1 0.009015 -0.002735 -0.002989 0.000402 -0.001172 0.003756
# 2 -0.002735 0.011340 -0.003607 0.001424 -0.005409 -0.001072
# 3 -0.002989 -0.003607 0.019078 0.001045 0.006747 0.000922
# 4 0.000402 0.001424 0.001045 0.027304 0.006306 -0.002205
# 5 -0.001172 -0.005409 0.006747 0.006306 0.031213 0.000858
# 6 0.003756 -0.001072 0.000922 -0.002205 0.000858 0.026097
#
#
# Mechanical properties :
#
#
# Convention : Reuss Voigt Hill
#
# Bulk Modulus (GPa) = 48.14200 59.52173 53.83187
# Shear Modulus (GPa) = 33.41515 39.48031 36.44773
#
# Velocity S-wave (km/s) = 3.94046 4.28317 4.11539
# Velocity P-wave (km/s) = 6.56303 7.21936 6.89900
#
# Compressibility (1/GPa) = 0.02077188
#
# Stress axis : x y z
#
# Youngs Moduli (GPa) = 110.92960 88.17982 52.41673
#
# Poissons Ratio (x) = 0.24116 0.15665
# Poissons Ratio (y) = 0.30337 0.18908
# Poissons Ratio (z) = 0.33151 0.31809
#
# Static dielectric constant tensor:
#      x y z
#    x 1.774250 0.011280 0.052710 
#    y 0.011280 1.839220 0.068550 
#    z 0.052710 0.068550 1.845750 
# 
# From -- ./inp_files/242941.got.cif
#   From: 2010.05.17/outbox.cif.g08.bks.cpg/sg2_122_cif.got.tgz:242941.got - 2010.06.03 11:33:40.
