data_PCOD9055361
_publ_section_title
;
Structure prediction by ZEFSAII (Michael W. Deem and Ramdas Pophale) SiO2 
 PCOD9055361
Probable space group: P -1
;
_chemical_formula_sum "Si O2"
_cell_formula_units_Z 16
_cell_length_a 8.218726
_cell_length_b 16.608278
_cell_length_c 5.469063
_cell_angle_alpha 113.244278
_cell_angle_beta 88.423476
_cell_angle_gamma 85.022116
_cell_volume 681.782272
_symmetry_space_group_name_H-M "P -1"
_symmetry_group_IT_number 2
_symmetry_cell_setting 'triclinic'
loop_
_space_group_symop_operation_xyz
x,y,z
-x,-y,-z
loop_
_atom_site_type_symbol
_atom_site_label
_atom_site_fract_x
_atom_site_fract_y
_atom_site_fract_z
Si Si1 0.126714 0.366469 0.835457
Si Si2 0.646330 0.020262 0.842504
Si Si3 0.628020 0.369458 0.411105
Si Si4 0.713630 0.703540 0.748726
Si Si5 0.805168 0.876117 0.899128
Si Si6 0.243845 0.559655 0.017486
Si Si7 0.173644 0.959879 0.558613
Si Si8 0.170860 0.819794 0.751669
O O1 0.185695 0.310993 0.526881
O O2 0.930540 0.381527 0.870398
O O3 0.193253 0.329675 0.049035
O O4 0.198120 0.460157 0.908483
O O5 0.651264 0.046281 0.591406
O O6 0.754166 0.923114 0.702331
O O7 0.734401 0.104436 0.035919
O O8 0.500000 0.000000 0.000000
O O9 0.445812 0.346083 0.340356
O O10 0.646439 0.421502 0.727924
O O11 0.737579 0.275893 0.330737
O O12 0.685845 0.418050 0.224291
O O13 0.678365 0.809150 0.900311
O O14 0.985128 0.826642 0.858849
O O15 0.808502 0.966190 0.152017
O O16 0.155338 0.860723 0.529058
O O17 0.000000 0.000000 0.500000
#
# Coordination Sequence:
#
# PCOD9055361 Si02
#       8
#     2   2   2   2   2   2   2   2
#     4  11  25  48  76 105 140 187 238 288 353 434
#     4  11  23  41  61  95 133 170 226 290 351 401
#     4  12  27  45  70 108 147 185 234 297 360 419
#     4  12  27  45  70 108 147 185 234 297 360 419
#     4  11  23  40  65  95 130 182 236 287 340 418
#     4  11  25  48  76 105 140 187 238 288 353 434
#     4  11  21  41  69  92 130 185 238 289 344 417
#     4  11  23  40  65  95 130 182 236 287 340 418
#
# _framework density 23.467901000000001
#
# number of rings (size 3 to 8) (size 9 to 14) (size 15 to 20)
#    0.000    0.750    2.500    5.250    3.500    8.000 
#    4.500    0.000    0.000    0.000    0.000    0.000 
#    0.000    0.000    0.000    0.000    0.000    0.000 
#
# Total GULP energy -89287.360500 kJ/mol
# GULP energy per Si atom -5580.460031 kJ/mol
# Density = 2.341449 g / cm^3
# Si number density = 23.467901 Si / 1000 Ang^3
#
#
#
# Elastic Constant Matrix: (Units=GPa)
#
#
# Indices 1 2 3 4 5 6 
#
# 1 76.7272 12.8558 14.9518 -13.2561 6.9123 17.3975
# 2 12.8558 83.6453 39.4336 -8.2808 18.2076 9.8399
# 3 14.9518 39.4336 82.5839 -21.9872 8.7627 2.9975
# 4 -13.2561 -8.2808 -21.9872 35.4383 4.1275 -2.4102
# 5 6.9123 18.2076 8.7627 4.1275 34.2334 2.4374
# 6 17.3975 9.8399 2.9975 -2.4102 2.4374 38.3861
#
#
#
# Elastic Compliance Matrix: (Units=1/GPa)
#
#
# Indices 1 2 3 4 5 6 
#
# 1 0.015907 -0.000051 -0.000868 0.005316 -0.003134 -0.006596
# 2 -0.000051 0.017413 -0.007414 0.000047 -0.007116 -0.003407
# 3 -0.000868 -0.007414 0.018560 0.009790 -0.001925 0.001582
# 4 0.005316 0.000047 0.009790 0.037208 -0.008066 -0.000337
# 5 -0.003134 -0.007116 -0.001925 -0.008066 0.035047 0.000663
# 6 -0.006596 -0.003407 0.001582 -0.000337 0.000663 0.029727
#
#
# Mechanical properties :
#
#
# Convention : Reuss Voigt Hill
#
# Bulk Modulus (GPa) = 28.39893 41.93764 35.16828
# Shear Modulus (GPa) = 27.43239 33.32590 30.37914
#
# Velocity S-wave (km/s) = 3.42267 3.77246 3.60182
# Velocity P-wave (km/s) = 5.26755 6.07324 5.68469
#
# Compressibility (1/GPa) = 0.03521259
#
# Stress axis : x y z
#
# Youngs Moduli (GPa) = 62.86407 57.42884 53.88058
#
# Poissons Ratio (x) = 0.00294 0.04679
# Poissons Ratio (y) = 0.00321 0.39948
# Poissons Ratio (z) = 0.05459 0.42578
#
# Static dielectric constant tensor:
#      x y z
#    x 2.144970 -0.195930 0.142870 
#    y -0.195930 2.036950 -0.190930 
#    z 0.142870 -0.190930 2.101250 
# 
# From -- ./inp_files/39860.got.cif
#   From: 2010.05.17/outbox.cif.g08.bks.cpg/sg2_20_cif.got.tgz:39860.got - 2010.06.03 11:33:40.
