data_PCOD9055820
_publ_section_title
;
Structure prediction by ZEFSAII (Michael W. Deem and Ramdas Pophale) SiO2 
 PCOD9055820
Probable space group: P -1
;
_chemical_formula_sum "Si O2"
_cell_formula_units_Z 15
_cell_length_a 7.881068
_cell_length_b 18.243786
_cell_length_c 6.273036
_cell_angle_alpha 58.234672
_cell_angle_beta 116.464654
_cell_angle_gamma 123.565081
_cell_volume 623.578746
_symmetry_space_group_name_H-M "P -1"
_symmetry_group_IT_number 2
_symmetry_cell_setting 'triclinic'
loop_
_space_group_symop_operation_xyz
x,y,z
-x,-y,-z
loop_
_atom_site_type_symbol
_atom_site_label
_atom_site_fract_x
_atom_site_fract_y
_atom_site_fract_z
Si Si1 0.737401 0.654536 0.750739
Si Si2 0.090219 0.183578 0.722834
Si Si3 0.454614 0.927514 0.890831
Si Si4 0.500000 0.500000 0.500000
Si Si5 0.924573 0.582647 0.349050
Si Si6 0.649095 0.801356 0.770823
Si Si7 0.173687 0.994280 0.363137
Si Si8 0.732467 0.216407 0.661463
O O1 0.567352 0.572019 0.641527
O O2 0.653679 0.718188 0.751461
O O3 0.891836 0.736084 0.557388
O O4 0.849709 0.609767 0.041915
O O5 0.037142 0.082864 0.737328
O O6 0.892467 0.168965 0.781546
O O7 0.293664 0.220558 0.928272
O O8 0.262712 0.934645 0.649474
O O9 0.647943 0.960942 0.787593
O O10 0.394040 0.827662 0.126545
O O11 0.500000 0.000000 0.000000
O O12 0.736009 0.555663 0.451125
O O13 0.000000 0.500000 0.500000
O O14 0.123042 0.674277 0.398208
O O15 0.429177 0.803836 0.591252
O O16 0.818967 0.910953 0.664510
#
# Coordination Sequence:
#
# PCOD9055820 Si02
#       8
#     2   2   2   1   2   2   2   2
#     4  12  27  53  78 114 160 195 262 343 395 485
#     4  12  26  49  74 114 162 209 266 323 386 478
#     4  11  21  43  73 112 158 209 268 322 375 483
#     4  12  26  54  86 116 152 198 274 334 404 494
#     4  12  28  54  85 119 156 211 262 341 421 482
#     4  12  27  46  74 117 160 210 264 322 390 475
#     4  11  24  42  74 114 160 220 264 315 390 469
#     4  12  24  51  76 111 160 209 261 325 408 461
#
# _framework density 24.054701999999999
#
# number of rings (size 3 to 8) (size 9 to 14) (size 15 to 20)
#    0.000    0.267    5.333    3.200    1.867    2.133 
#    7.200    0.000    0.000    0.000    0.000    0.000 
#    0.000    0.000    0.000    0.000    0.000    0.000 
#
# Total GULP energy -83750.576559 kJ/mol
# GULP energy per Si atom -5583.371771 kJ/mol
# Density = 2.399995 g / cm^3
# Si number density = 24.054702 Si / 1000 Ang^3
#
#
#
# Elastic Constant Matrix: (Units=GPa)
#
#
# Indices 1 2 3 4 5 6 
#
# 1 79.8164 44.8305 64.2676 3.8517 -3.8252 -8.6397
# 2 44.8305 188.9126 51.9548 22.0128 -0.9140 -18.6169
# 3 64.2676 51.9548 127.9212 5.2447 13.4633 8.5595
# 4 3.8517 22.0128 5.2447 46.7530 -0.8049 -8.1865
# 5 -3.8252 -0.9140 13.4633 -0.8049 41.1429 -3.8490
# 6 -8.6397 -18.6169 8.5595 -8.1865 -3.8490 47.8396
#
#
#
# Elastic Compliance Matrix: (Units=1/GPa)
#
#
# Indices 1 2 3 4 5 6 
#
# 1 0.025283 -0.001798 -0.013289 0.001627 0.007357 0.007114
# 2 -0.001798 0.006781 -0.001993 -0.002400 0.000806 0.002325
# 3 -0.013289 -0.001993 0.016592 -0.001170 -0.007381 -0.006938
# 4 0.001627 -0.002400 -0.001170 0.023175 0.001275 0.003638
# 5 0.007357 0.000806 -0.007381 0.001275 0.027956 0.005430
# 6 0.007114 0.002325 -0.006938 0.003638 0.005430 0.025393
#
#
# Mechanical properties :
#
#
# Convention : Reuss Voigt Hill
#
# Bulk Modulus (GPa) = 68.98148 79.86180 74.42164
# Shear Modulus (GPa) = 30.45603 42.85359 36.65481
#
# Velocity S-wave (km/s) = 3.56211 4.22537 3.90784
# Velocity P-wave (km/s) = 6.75702 7.55494 7.16709
#
# Compressibility (1/GPa) = 0.01449664
#
# Stress axis : x y z
#
# Youngs Moduli (GPa) = 39.55255 147.47484 60.26998
#
# Poissons Ratio (x) = 0.26516 0.80092
# Poissons Ratio (y) = 0.07112 0.12010
# Poissons Ratio (z) = 0.52561 0.29387
#
# Static dielectric constant tensor:
#      x y z
#    x 1.973160 -0.044550 -0.023710 
#    y -0.044550 1.912600 -0.003330 
#    z -0.023710 -0.003330 1.951970 
# 
# From -- ./inp_files/54746.got.cif
#   From: 2010.05.17/outbox.cif.g08.bks.cpg/sg2_28_cif.got.tgz:54746.got - 2010.06.03 11:33:40.
