data_PCOD9055637
_publ_section_title
;
Structure prediction by ZEFSAII (Michael W. Deem and Ramdas Pophale) SiO2 
 PCOD9055637
Probable space group: P -1
;
_chemical_formula_sum "Si O2"
_cell_formula_units_Z 16
_cell_length_a 6.411434
_cell_length_b 21.224645
_cell_length_c 9.963330
_cell_angle_alpha 51.622724
_cell_angle_beta 135.685223
_cell_angle_gamma 109.157908
_cell_volume 725.665194
_symmetry_space_group_name_H-M "P -1"
_symmetry_group_IT_number 2
_symmetry_cell_setting 'triclinic'
loop_
_space_group_symop_operation_xyz
x,y,z
-x,-y,-z
loop_
_atom_site_type_symbol
_atom_site_label
_atom_site_fract_x
_atom_site_fract_y
_atom_site_fract_z
Si Si1 0.554900 0.033096 0.628843
Si Si2 0.197425 0.090644 0.858742
Si Si3 0.308103 0.400831 0.348764
Si Si4 0.469286 0.719339 0.606088
Si Si5 0.624025 0.466632 0.957545
Si Si6 0.398729 0.721200 0.869923
Si Si7 0.760798 0.850817 0.471225
Si Si8 0.784014 0.722824 0.307344
O O1 0.266154 0.098967 0.468364
O O2 0.855602 0.073055 0.716235
O O3 0.500000 0.000000 0.500000
O O4 0.634339 0.960795 0.871779
O O5 0.308227 0.082492 0.766674
O O6 0.220279 0.184973 0.768710
O O7 0.297631 0.352232 0.267788
O O8 0.501934 0.467885 0.305596
O O9 0.362188 0.332122 0.581432
O O10 0.984390 0.456226 0.160931
O O11 0.524875 0.740768 0.756805
O O12 0.494433 0.799025 0.426256
O O13 0.147584 0.691348 0.496521
O O14 0.500000 0.500000 0.000000
O O15 0.605972 0.374903 0.026211
O O16 0.077319 0.784838 0.672794
O O17 0.618754 0.726484 0.085949
#
# Coordination Sequence:
#
# PCOD9055637 Si02
#       8
#     2   2   2   2   2   2   2   2
#     4  11  27  48  72 104 139 180 227 290 349 413
#     4  11  24  47  70 103 140 179 228 285 353 412
#     4  11  22  42  73  97 139 189 230 283 353 402
#     4  12  21  47  68  98 142 185 227 288 338 409
#     4  11  21  42  73 100 142 186 230 293 349 401
#     4  12  26  43  71 107 137 188 238 284 346 413
#     4  12  23  48  73  98 143 183 233 284 344 420
#     4  12  25  44  70 105 141 182 234 288 346 416
#
# _framework density 22.048735000000001
#
# number of rings (size 3 to 8) (size 9 to 14) (size 15 to 20)
#    0.000    0.500    7.500    0.375    3.500    2.000 
#    4.500    2.500    0.000    0.000    0.000    0.000 
#    0.000    0.000    0.000    0.000    0.000    0.000 
#
# Total GULP energy -89150.656729 kJ/mol
# GULP energy per Si atom -5571.916046 kJ/mol
# Density = 2.199855 g / cm^3
# Si number density = 22.048735 Si / 1000 Ang^3
#
#
#
# Elastic Constant Matrix: (Units=GPa)
#
#
# Indices 1 2 3 4 5 6 
#
# 1 118.0000 57.1305 60.5950 -3.8460 -33.8858 -30.9480
# 2 57.1305 101.3261 67.8110 -5.7363 -7.5858 -30.1772
# 3 60.5950 67.8110 125.7956 5.6354 -35.5289 -3.8719
# 4 -3.8460 -5.7363 5.6354 46.4079 4.8413 -12.1078
# 5 -33.8858 -7.5858 -35.5289 4.8413 28.7546 -12.0327
# 6 -30.9480 -30.1772 -3.8719 -12.1078 -12.0327 46.0375
#
#
#
# Elastic Compliance Matrix: (Units=1/GPa)
#
#
# Indices 1 2 3 4 5 6 
#
# 1 0.041003 -0.009221 0.006006 0.005101 0.069868 0.041627
# 2 -0.009221 0.027004 -0.016978 0.008714 -0.023593 0.006200
# 3 0.006006 -0.016978 0.024527 -0.007686 0.035085 0.002120
# 4 0.005101 0.008714 -0.007686 0.028096 0.000819 0.016098
# 5 0.069868 -0.023593 0.035085 0.000819 0.189316 0.084151
# 6 0.041627 0.006200 0.002120 0.016098 0.084151 0.080175
#
#
# Mechanical properties :
#
#
# Convention : Reuss Voigt Hill
#
# Bulk Modulus (GPa) = 19.17619 79.57717 49.37668
# Shear Modulus (GPa) = 11.16347 34.87903 23.02125
#
# Velocity S-wave (km/s) = 2.25257 3.98163 3.23477
# Velocity P-wave (km/s) = 3.93465 7.57019 6.03279
#
# Compressibility (1/GPa) = 0.05214800
#
# Stress axis : x y z
#
# Youngs Moduli (GPa) = 24.38861 37.03208 40.77063
#
# Poissons Ratio (x) = 0.34146 -0.24485
# Poissons Ratio (y) = 0.22488 0.69220
# Poissons Ratio (z) = -0.14647 0.62873
#
# Static dielectric constant tensor:
#      x y z
#    x 1.886700 0.012870 -0.026170 
#    y 0.012870 1.865300 -0.067610 
#    z -0.026170 -0.067610 1.853150 
# 
# From -- ./inp_files/140582.got.cif
#   From: 2010.05.17/outbox.cif.g08.bks.cpg/sg2_71_cif.got.tgz:140582.got - 2010.06.03 11:33:40.
