data_PCOD9055173
_publ_section_title
;
Structure prediction by ZEFSAII (Michael W. Deem and Ramdas Pophale) SiO2 
 PCOD9055173
Probable space group: P -1
;
_chemical_formula_sum "Si O2"
_cell_formula_units_Z 16
_cell_length_a 9.469741
_cell_length_b 13.253361
_cell_length_c 8.579882
_cell_angle_alpha 103.985966
_cell_angle_beta 133.280746
_cell_angle_gamma 96.918610
_cell_volume 695.489888
_symmetry_space_group_name_H-M "P -1"
_symmetry_group_IT_number 2
_symmetry_cell_setting 'triclinic'
loop_
_space_group_symop_operation_xyz
x,y,z
-x,-y,-z
loop_
_atom_site_type_symbol
_atom_site_label
_atom_site_fract_x
_atom_site_fract_y
_atom_site_fract_z
Si Si1 0.177611 0.558055 0.021326
Si Si2 0.741971 0.168663 0.525856
Si Si3 0.606727 0.595002 0.483032
Si Si4 0.045354 0.738890 0.991108
Si Si5 0.094165 0.069769 0.751393
Si Si6 0.687295 0.047256 0.910651
Si Si7 0.429546 0.778745 0.898954
Si Si8 0.234940 0.516148 0.724487
O O1 0.412690 0.622905 0.291287
O O2 0.101370 0.645360 0.907874
O O3 0.215026 0.481736 0.881014
O O4 0.000000 0.500000 0.000000
O O5 0.848625 0.268100 0.767141
O O6 0.713076 0.219628 0.357923
O O7 0.915924 0.116251 0.661008
O O8 0.510827 0.065523 0.337582
O O9 0.500000 0.500000 0.500000
O O10 0.687137 0.549429 0.372676
O O11 0.797518 0.696454 0.752979
O O12 0.175546 0.865885 0.082012
O O13 0.150651 0.990650 0.885577
O O14 0.323048 0.170405 0.937535
O O15 0.000000 0.000000 0.500000
O O16 0.598644 0.125413 0.975378
O O17 0.375493 0.651435 0.866571
O O18 0.000000 0.500000 0.500000
#
# Coordination Sequence:
#
# PCOD9055173 Si02
#       8
#     2   2   2   2   2   2   2   2
#     4  12  26  49  75 100 146 189 235 299 355 418
#     4  11  25  41  70  99 135 184 228 287 356 414
#     4  12  27  47  71 107 145 184 241 294 350 428
#     4  12  27  45  68 101 140 187 233 290 358 415
#     4  11  21  40  69  99 136 174 227 294 344 420
#     4  11  22  45  66 100 137 177 234 290 343 427
#     4  11  23  41  71  99 132 179 234 281 355 418
#     4  12  25  48  74 105 141 189 237 293 355 424
#
# _framework density 23.005369000000002
#
# number of rings (size 3 to 8) (size 9 to 14) (size 15 to 20)
#    0.000    0.500    6.250    1.500    5.250    3.500 
#    2.250    0.000    0.000    0.000    0.000    0.000 
#    0.000    0.000    0.000    0.000    0.000    0.000 
#
# Total GULP energy -89200.361028 kJ/mol
# GULP energy per Si atom -5575.022564 kJ/mol
# Density = 2.295301 g / cm^3
# Si number density = 23.005369 Si / 1000 Ang^3
#
#
#
# Elastic Constant Matrix: (Units=GPa)
#
#
# Indices 1 2 3 4 5 6 
#
# 1 115.1992 32.6033 52.9977 -8.3854 0.6920 2.4307
# 2 32.6033 72.8206 20.6280 3.4284 11.8245 1.0304
# 3 52.9977 20.6280 165.7087 -17.0818 9.0427 -0.6049
# 4 -8.3854 3.4284 -17.0818 35.5888 -13.5532 6.9884
# 5 0.6920 11.8245 9.0427 -13.5532 40.2675 -8.8639
# 6 2.4307 1.0304 -0.6049 6.9884 -8.8639 38.1788
#
#
#
# Elastic Compliance Matrix: (Units=1/GPa)
#
#
# Indices 1 2 3 4 5 6 
#
# 1 0.011660 -0.004971 -0.002958 0.002983 0.002807 -0.000549
# 2 -0.004971 0.017612 -0.000819 -0.005786 -0.007013 -0.000741
# 3 -0.002958 -0.000819 0.007398 0.002804 -0.000492 -0.000300
# 4 0.002983 -0.005786 0.002804 0.036146 0.012362 -0.003736
# 5 0.002807 -0.007013 -0.000492 0.012362 0.032268 0.005232
# 6 -0.000549 -0.000741 -0.000300 -0.003736 0.005232 0.028141
#
#
# Mechanical properties :
#
#
# Convention : Reuss Voigt Hill
#
# Bulk Modulus (GPa) = 52.15597 62.90959 57.53278
# Shear Modulus (GPa) = 31.82444 39.30698 35.56571
#
# Velocity S-wave (km/s) = 3.72337 4.13801 3.93615
# Velocity P-wave (km/s) = 6.41912 7.08772 6.76169
#
# Compressibility (1/GPa) = 0.01917326
#
# Stress axis : x y z
#
# Youngs Moduli (GPa) = 85.76140 56.78058 135.18071
#
# Poissons Ratio (x) = 0.28226 0.39987
# Poissons Ratio (y) = 0.42632 0.11071
# Poissons Ratio (z) = 0.25369 0.04650
#
# Static dielectric constant tensor:
#      x y z
#    x 1.193690 0.537540 0.549690 
#    y 0.537540 1.558360 -0.419190 
#    z 0.549690 -0.419190 1.408020 
# 
# From -- ./inp_files/208541.got.cif
#   From: 2010.05.17/outbox.cif.g08.bks.cpg/sg2_105_cif.got.tgz:208541.got - 2010.06.03 11:33:40.
