data_PCOD9055853
_publ_section_title
;
Structure prediction by ZEFSAII (Michael W. Deem and Ramdas Pophale) SiO2 
 PCOD9055853
Probable space group: P -1
;
_chemical_formula_sum "Si O2"
_cell_formula_units_Z 16
_cell_length_a 15.406043
_cell_length_b 9.712439
_cell_length_c 10.960348
_cell_angle_alpha 105.229302
_cell_angle_beta 62.513551
_cell_angle_gamma 51.995729
_cell_volume 714.051167
_symmetry_space_group_name_H-M "P -1"
_symmetry_group_IT_number 2
_symmetry_cell_setting 'triclinic'
loop_
_space_group_symop_operation_xyz
x,y,z
-x,-y,-z
loop_
_atom_site_type_symbol
_atom_site_label
_atom_site_fract_x
_atom_site_fract_y
_atom_site_fract_z
Si Si1 0.000928 0.329135 0.972458
Si Si2 0.115813 0.206857 0.355109
Si Si3 0.731270 0.452982 0.075974
Si Si4 0.615912 0.229275 0.515133
Si Si5 0.892397 0.279261 0.662081
Si Si6 0.575308 0.606845 0.579473
Si Si7 0.019833 0.138821 0.164127
Si Si8 0.497121 0.167469 0.079994
O O1 0.797229 0.511508 0.117872
O O2 0.157716 0.076276 0.714576
O O3 0.059859 0.188445 0.032556
O O4 0.000000 0.500000 0.000000
O O5 0.057807 0.181577 0.271410
O O6 0.000000 0.500000 0.500000
O O7 0.044231 0.213502 0.522110
O O8 0.339580 0.957869 0.132395
O O9 0.800805 0.388595 0.879316
O O10 0.847534 0.170020 0.990398
O O11 0.506662 0.699348 0.288015
O O12 0.572980 0.451076 0.601956
O O13 0.529187 0.277057 0.455144
O O14 0.715391 0.513437 0.738599
O O15 0.000000 0.000000 0.500000
O O16 0.475888 0.837363 0.794604
O O17 0.796952 0.371939 0.360574
O O18 0.500000 0.000000 0.000000
#
# Coordination Sequence:
#
# PCOD9055853 Si02
#       8
#     2   2   2   2   2   2   2   2
#     4  12  28  45  69 106 143 184 232 300 363 424
#     4  12  25  46  74 105 147 194 236 298 368 424
#     4  12  25  47  71 101 143 185 240 295 351 428
#     4  11  24  43  72 106 135 185 239 296 354 425
#     4  12  27  47  70 109 145 190 246 298 352 433
#     4  11  21  43  78 104 135 185 246 288 353 434
#     4  12  22  49  74 100 142 188 234 291 359 430
#     4  12  25  47  74 107 144 196 243 298 367 433
#
# _framework density 22.407357999999999
#
# number of rings (size 3 to 8) (size 9 to 14) (size 15 to 20)
#    0.000    0.250    6.250    3.375    1.750    3.000 
#    2.250    0.000    0.000    0.000    0.000    0.000 
#    0.000    0.000    0.000    0.000    0.000    0.000 
#
# Total GULP energy -89593.480125 kJ/mol
# GULP energy per Si atom -5599.592508 kJ/mol
# Density = 2.235636 g / cm^3
# Si number density = 22.407358 Si / 1000 Ang^3
#
#
#
# Elastic Constant Matrix: (Units=GPa)
#
#
# Indices 1 2 3 4 5 6 
#
# 1 102.5603 20.2581 26.8070 -12.1559 -1.9766 20.2007
# 2 20.2581 71.7777 21.7324 -24.0052 3.3897 27.2149
# 3 26.8070 21.7324 140.9754 -34.1887 -23.0064 12.4584
# 4 -12.1559 -24.0052 -34.1887 46.1174 2.9044 -2.2863
# 5 -1.9766 3.3897 -23.0064 2.9044 55.1896 -0.8898
# 6 20.2007 27.2149 12.4584 -2.2863 -0.8898 35.7390
#
#
#
# Elastic Compliance Matrix: (Units=1/GPa)
#
#
# Indices 1 2 3 4 5 6 
#
# 1 0.011457 0.000028 -0.001267 0.001820 -0.000311 -0.005947
# 2 0.000028 0.025190 0.000450 0.012678 -0.002326 -0.018602
# 3 -0.001267 0.000450 0.009705 0.006746 0.003577 -0.002489
# 4 0.001820 0.012678 0.006746 0.033212 0.000175 -0.010906
# 5 -0.000311 -0.002326 0.003577 0.000175 0.019752 0.001203
# 6 -0.005947 -0.018602 -0.002489 -0.010906 0.001203 0.045707
#
#
# Mechanical properties :
#
#
# Convention : Reuss Voigt Hill
#
# Bulk Modulus (GPa) = 22.33343 50.32318 36.32830
# Shear Modulus (GPa) = 30.95483 43.84361 37.39922
#
# Velocity S-wave (km/s) = 3.72083 4.42822 4.08984
# Velocity P-wave (km/s) = 5.33367 6.97514 6.20889
#
# Compressibility (1/GPa) = 0.04477593
#
# Stress axis : x y z
#
# Youngs Moduli (GPa) = 87.28301 39.69775 103.04209
#
# Poissons Ratio (x) = -0.00113 0.13052
# Poissons Ratio (y) = -0.00247 -0.04640
# Poissons Ratio (z) = 0.11056 -0.01787
#
# Static dielectric constant tensor:
#      x y z
#    x 1.835280 -0.036760 -0.005700 
#    y -0.036760 1.810200 -0.023400 
#    z -0.005700 -0.023400 1.822910 
# 
# From -- ./inp_files/399422.got.cif
#   From: 2010.05.17/outbox.cif.g08.bks.cpg/sg2_200_cif.got.tgz:399422.got - 2010.06.03 11:33:40.
