data_PCOD9055247
_publ_section_title
;
Structure prediction by ZEFSAII (Michael W. Deem and Ramdas Pophale) SiO2 
 PCOD9055247
Probable space group: P -1
;
_chemical_formula_sum "Si O2"
_cell_formula_units_Z 14
_cell_length_a 9.284150
_cell_length_b 18.787724
_cell_length_c 11.759855
_cell_angle_alpha 37.299499
_cell_angle_beta 60.434895
_cell_angle_gamma 35.622412
_cell_volume 652.216350
_symmetry_space_group_name_H-M "P -1"
_symmetry_group_IT_number 2
_symmetry_cell_setting 'triclinic'
loop_
_space_group_symop_operation_xyz
x,y,z
-x,-y,-z
loop_
_atom_site_type_symbol
_atom_site_label
_atom_site_fract_x
_atom_site_fract_y
_atom_site_fract_z
Si Si1 0.988197 0.877283 0.962516
Si Si2 0.890741 0.792181 0.904561
Si Si3 0.569753 0.777664 0.149275
Si Si4 0.217471 0.432047 0.088468
Si Si5 0.742027 0.427039 0.568865
Si Si6 0.696946 0.845293 0.443766
Si Si7 0.334090 0.883695 0.850076
O O1 0.007991 0.832183 0.880870
O O2 0.045914 0.980365 0.840048
O O3 0.682144 0.023336 0.938977
O O4 0.195105 0.683777 0.203382
O O5 0.593284 0.993034 0.714123
O O6 0.819827 0.725614 0.103599
O O7 0.093013 0.619607 0.953440
O O8 0.651164 0.611778 0.388815
O O9 0.467447 0.807761 0.020835
O O10 0.261295 0.303547 0.325730
O O11 0.486759 0.291823 0.085287
O O12 0.000000 0.500000 0.000000
O O13 0.500000 0.500000 0.500000
O O14 0.032135 0.275614 0.581272
O O15 0.673978 0.976273 0.363546
#
# Coordination Sequence:
#
# PCOD9055247 Si02
#       7
#     2   2   2   2   2   2   2
#     4  12  25  42  62  99 139 160 208 264 329 376
#     4  11  25  42  65  95 131 173 204 267 318 377
#     4  11  21  41  63  96 128 166 216 255 317 379
#     4  12  23  44  69  93 122 167 230 256 305 382
#     4  12  22  36  68  97 129 165 211 264 315 373
#     4  11  23  42  68  95 122 166 222 256 317 375
#     4  11  22  41  67  93 126 169 209 271 305 373
#
# _framework density 21.465268999999999
#
# number of rings (size 3 to 8) (size 9 to 14) (size 15 to 20)
#    0.000    0.571    8.571    2.143    0.000    2.286 
#    0.000    0.714    0.000    0.000    0.000    0.000 
#    0.000    0.000    0.000    0.000    0.000    0.000 
#
# Total GULP energy -78214.734588 kJ/mol
# GULP energy per Si atom -5586.766756 kJ/mol
# Density = 2.141641 g / cm^3
# Si number density = 21.465269 Si / 1000 Ang^3
#
#
#
# Elastic Constant Matrix: (Units=GPa)
#
#
# Indices 1 2 3 4 5 6 
#
# 1 74.6447 5.7944 15.1768 -3.8167 6.0312 16.1829
# 2 5.7944 88.4755 8.2389 -14.5499 12.7371 13.7425
# 3 15.1768 8.2389 107.9489 -11.5251 0.5057 10.1362
# 4 -3.8167 -14.5499 -11.5251 25.7022 -6.0806 -3.5586
# 5 6.0312 12.7371 0.5057 -6.0806 19.1545 0.8231
# 6 16.1829 13.7425 10.1362 -3.5586 0.8231 25.6523
#
#
#
# Elastic Compliance Matrix: (Units=1/GPa)
#
#
# Indices 1 2 3 4 5 6 
#
# 1 0.016258 0.001458 -0.001419 -0.000164 -0.005660 -0.010318
# 2 0.001458 0.014442 0.000031 0.005453 -0.008003 -0.007656
# 3 -0.001419 0.000031 0.010165 0.004402 0.001666 -0.002581
# 4 -0.000164 0.005453 0.004402 0.046787 0.011094 0.001578
# 5 -0.005660 -0.008003 0.001666 0.011094 0.062500 0.006734
# 6 -0.010318 -0.007656 -0.002581 0.001578 0.006734 0.050616
#
#
# Mechanical properties :
#
#
# Convention : Reuss Voigt Hill
#
# Bulk Modulus (GPa) = 24.38714 36.60994 30.49854
# Shear Modulus (GPa) = 23.33218 30.22575 26.77896
#
# Velocity S-wave (km/s) = 3.30050 3.75657 3.53590
# Velocity P-wave (km/s) = 5.09022 5.99234 5.55961
#
# Compressibility (1/GPa) = 0.04100522
#
# Stress axis : x y z
#
# Youngs Moduli (GPa) = 61.50818 69.24151 98.37388
#
# Poissons Ratio (x) = -0.10094 0.13961
# Poissons Ratio (y) = -0.08967 -0.00308
# Poissons Ratio (z) = 0.08729 -0.00217
#
# Static dielectric constant tensor:
#      x y z
#    x 1.794120 -0.017720 -0.013420 
#    y -0.017720 1.832600 -0.015080 
#    z -0.013420 -0.015080 1.790220 
# 
# From -- ./inp_files/255733.got.cif
#   From: 2010.05.17/outbox.cif.g08.bks.cpg/sg2_128_cif.got.tgz:255733.got - 2010.06.03 11:33:40.
