data_PCOD9055058
_publ_section_title
;
Structure prediction by ZEFSAII (Michael W. Deem and Ramdas Pophale) SiO2 
 PCOD9055058
Probable space group: P -1
;
_chemical_formula_sum "Si O2"
_cell_formula_units_Z 16
_cell_length_a 17.533868
_cell_length_b 29.534982
_cell_length_c 23.795304
_cell_angle_alpha 169.055135
_cell_angle_beta 161.400599
_cell_angle_gamma 17.751445
_cell_volume 695.929889
_symmetry_space_group_name_H-M "P -1"
_symmetry_group_IT_number 2
_symmetry_cell_setting 'triclinic'
loop_
_space_group_symop_operation_xyz
x,y,z
-x,-y,-z
loop_
_atom_site_type_symbol
_atom_site_label
_atom_site_fract_x
_atom_site_fract_y
_atom_site_fract_z
Si Si1 0.463217 0.854951 0.853249
Si Si2 0.103184 0.610501 0.352076
Si Si3 0.466957 0.131681 0.365399
Si Si4 0.948202 0.021571 0.841366
Si Si5 0.638348 0.541731 0.204007
Si Si6 0.980083 0.236744 0.313366
Si Si7 0.478686 0.313811 0.482083
Si Si8 0.999728 0.321214 0.833533
O O1 0.258790 0.714883 0.542279
O O2 0.713886 0.628063 0.774206
O O3 0.500000 0.000000 0.000000
O O4 0.378445 0.085962 0.120090
O O5 0.985785 0.839267 0.591769
O O6 0.937870 0.494761 0.057831
O O7 0.499425 0.226334 0.566049
O O8 0.447513 0.347400 0.568040
O O9 0.720489 0.897595 0.237999
O O10 0.209364 0.064652 0.097022
O O11 0.737850 0.289704 0.004435
O O12 0.883307 0.874340 0.668590
O O13 0.884453 0.595787 0.419416
O O14 0.500000 0.500000 0.000000
O O15 0.687679 0.426779 0.349147
O O16 0.000000 0.000000 0.000000
O O17 0.769008 0.216798 0.544415
O O18 0.000000 0.500000 0.000000
#
# Coordination Sequence:
#
# PCOD9055058 Si02
#       8
#     2   2   2   2   2   2   2   2
#     4  11  21  40  64  97 139 185 236 283 354 427
#     4  11  23  41  68 103 142 182 237 297 352 426
#     4  12  23  48  74 102 147 196 238 296 365 433
#     4  12  24  47  78 108 146 191 245 302 363 435
#     4  12  29  49  76 109 147 189 246 310 361 425
#     4  12  25  46  79 107 139 197 249 293 368 434
#     4  12  24  45  72 106 145 196 240 296 368 437
#     4  12  27  43  69 109 151 191 239 300 368 431
#
# _framework density 22.990822000000001
#
# number of rings (size 3 to 8) (size 9 to 14) (size 15 to 20)
#    0.000    0.250    5.000    4.500    1.750    1.500 
#    2.250    0.000    0.000    0.000    0.000    0.000 
#    0.000    0.000    0.000    0.000    0.000    0.000 
#
# Total GULP energy -89469.153359 kJ/mol
# GULP energy per Si atom -5591.822085 kJ/mol
# Density = 2.293849 g / cm^3
# Si number density = 22.990822 Si / 1000 Ang^3
#
#
#
# Elastic Constant Matrix: (Units=GPa)
#
#
# Indices 1 2 3 4 5 6 
#
# 1 104.0338 -1.0037 9.8881 3.4865 -5.4607 21.5868
# 2 -1.0037 59.3377 20.2251 9.9112 -2.7205 8.4307
# 3 9.8881 20.2251 82.0186 5.1187 -20.8250 2.7728
# 4 3.4865 9.9112 5.1187 31.2700 10.3052 1.8919
# 5 -5.4607 -2.7205 -20.8250 10.3052 51.3799 8.1873
# 6 21.5868 8.4307 2.7728 1.8919 8.1873 30.4717
#
#
#
# Elastic Compliance Matrix: (Units=1/GPa)
#
#
# Indices 1 2 3 4 5 6 
#
# 1 0.011981 0.002397 -0.000759 -0.002413 0.003134 -0.009774
# 2 0.002397 0.020483 -0.004184 -0.006318 0.002049 -0.007142
# 3 -0.000759 -0.004184 0.015274 -0.003234 0.006745 -0.001307
# 4 -0.002413 -0.006318 -0.003234 0.037878 -0.010156 0.004129
# 5 0.003134 0.002049 0.006745 -0.010156 0.026240 -0.009821
# 6 -0.009774 -0.007142 -0.001307 0.004129 -0.009821 0.044219
#
#
# Mechanical properties :
#
#
# Convention : Reuss Voigt Hill
#
# Bulk Modulus (GPa) = 23.44867 33.73432 28.59150
# Shear Modulus (GPa) = 28.50913 37.04305 32.77609
#
# Velocity S-wave (km/s) = 3.52521 4.01834 3.77983
# Velocity P-wave (km/s) = 5.17598 6.01949 5.61360
#
# Compressibility (1/GPa) = 0.04264634
#
# Stress axis : x y z
#
# Youngs Moduli (GPa) = 83.46614 48.82036 65.46971
#
# Poissons Ratio (x) = -0.11700 0.04967
# Poissons Ratio (y) = -0.20003 0.27393
# Poissons Ratio (z) = 0.06332 0.20427
#
# Static dielectric constant tensor:
#      x y z
#    x 1.945620 -0.049320 0.102330 
#    y -0.049320 2.002030 -0.229790 
#    z 0.102330 -0.229790 2.250730 
# 
# From -- ./inp_files/613353.got.cif
#   From: 2010.05.17/outbox.cif.g08.bks.cpg/sg2_307_cif.got.tgz:613353.got - 2010.06.03 11:33:40.
