data_PCOD9055263
_publ_section_title
;
Structure prediction by ZEFSAII (Michael W. Deem and Ramdas Pophale) SiO2 
 PCOD9055263
Probable space group: P -1
;
_chemical_formula_sum "Si O2"
_cell_formula_units_Z 14
_cell_length_a 10.141248
_cell_length_b 17.838230
_cell_length_c 17.592324
_cell_angle_alpha 156.715261
_cell_angle_beta 24.901231
_cell_angle_gamma 144.861284
_cell_volume 527.432571
_symmetry_space_group_name_H-M "P -1"
_symmetry_group_IT_number 2
_symmetry_cell_setting 'triclinic'
loop_
_space_group_symop_operation_xyz
x,y,z
-x,-y,-z
loop_
_atom_site_type_symbol
_atom_site_label
_atom_site_fract_x
_atom_site_fract_y
_atom_site_fract_z
Si Si1 0.210828 0.960041 0.457716
Si Si2 0.829703 0.308475 0.914419
Si Si3 0.143663 0.300274 0.508188
Si Si4 0.810913 0.171291 0.115402
Si Si5 0.239809 0.827648 0.606688
Si Si6 0.282976 0.358493 0.937681
Si Si7 0.822710 0.543304 0.538369
O O1 0.148391 0.805961 0.282689
O O2 0.105598 0.855681 0.491975
O O3 0.554077 0.027310 0.322126
O O4 0.985629 0.152374 0.745649
O O5 0.482616 0.369007 0.178779
O O6 0.000000 0.500000 0.000000
O O7 0.479592 0.215120 0.286103
O O8 0.171977 0.373250 0.474679
O O9 0.000746 0.491946 0.805373
O O10 0.809733 0.318281 0.322817
O O11 0.104375 0.225739 0.962341
O O12 0.912470 0.954628 0.880917
O O13 0.495147 0.768174 0.352184
O O14 0.127879 0.620563 0.489552
O O15 0.500000 0.500000 0.000000
#
# Coordination Sequence:
#
# PCOD9055263 Si02
#       7
#     2   2   2   2   2   2   2
#     4  11  28  46  74 109 141 190 243 288 367 431
#     4  11  27  52  75 100 145 195 240 294 357 435
#     4  11  24  45  75 107 146 181 247 294 351 428
#     4  11  24  40  65 109 147 186 236 292 358 427
#     4  12  26  41  71 105 152 186 233 301 359 424
#     4  11  21  41  65 104 151 192 228 287 367 424
#     4  11  25  45  72 107 144 190 238 296 359 419
#
# _framework density 26.543676999999999
#
# number of rings (size 3 to 8) (size 9 to 14) (size 15 to 20)
#    0.000    0.857    2.857    4.714    8.000    2.857 
#    0.000    1.429    0.000    0.000    0.000    0.000 
#    0.000    0.000    0.000    0.000    0.000    0.000 
#
# Total GULP energy -78402.372994 kJ/mol
# GULP energy per Si atom -5600.169500 kJ/mol
# Density = 2.648326 g / cm^3
# Si number density = 26.543677 Si / 1000 Ang^3
#
#
#
# Elastic Constant Matrix: (Units=GPa)
#
#
# Indices 1 2 3 4 5 6 
#
# 1 71.8271 18.0301 35.7562 10.0254 -5.4648 11.6069
# 2 18.0301 160.3451 28.3681 5.5011 3.7184 16.0701
# 3 35.7562 28.3681 178.7113 12.1582 -11.6681 -1.5007
# 4 10.0254 5.5011 12.1582 57.1407 9.8674 0.6879
# 5 -5.4648 3.7184 -11.6681 9.8674 27.2890 3.7346
# 6 11.6069 16.0701 -1.5007 0.6879 3.7346 44.3689
#
#
#
# Elastic Compliance Matrix: (Units=1/GPa)
#
#
# Indices 1 2 3 4 5 6 
#
# 1 0.017009 -0.000954 -0.002829 -0.002927 0.003999 -0.004491
# 2 -0.000954 0.006760 -0.000977 -0.000038 -0.001225 -0.002128
# 3 -0.002829 -0.000977 0.006590 -0.001291 0.002700 0.001110
# 4 -0.002927 -0.000038 -0.001291 0.019734 -0.008424 0.001139
# 5 0.003999 -0.001225 0.002700 -0.008424 0.042353 -0.003946
# 6 -0.004491 -0.002128 0.001110 0.001139 -0.003946 0.024836
#
#
# Mechanical properties :
#
#
# Convention : Reuss Voigt Hill
#
# Bulk Modulus (GPa) = 47.99085 63.91027 55.95056
# Shear Modulus (GPa) = 37.38360 47.67499 42.52930
#
# Velocity S-wave (km/s) = 3.75691 4.24263 4.00714
# Velocity P-wave (km/s) = 6.07770 6.93755 6.52181
#
# Compressibility (1/GPa) = 0.02083731
#
# Stress axis : x y z
#
# Youngs Moduli (GPa) = 58.79339 147.93418 151.74024
#
# Poissons Ratio (x) = 0.14117 0.42928
# Poissons Ratio (y) = 0.05611 0.14830
# Poissons Ratio (z) = 0.16633 0.14458
#
# Static dielectric constant tensor:
#      x y z
#    x 2.266200 0.002330 -0.032140 
#    y 0.002330 2.141330 0.035640 
#    z -0.032140 0.035640 1.987290 
# 
# From -- ./inp_files/596250.got.cif
#   From: 2010.05.17/outbox.cif.g08.bks.cpg/sg2_299_cif.got.tgz:596250.got - 2010.06.03 11:33:40.
