data_PCOD9055370
_publ_section_title
;
Structure prediction by ZEFSAII (Michael W. Deem and Ramdas Pophale) SiO2 
 PCOD9055370
Probable space group: P -1
;
_chemical_formula_sum "Si O2"
_cell_formula_units_Z 16
_cell_length_a 18.010636
_cell_length_b 9.445113
_cell_length_c 10.596385
_cell_angle_alpha 77.896166
_cell_angle_beta 114.303897
_cell_angle_gamma 45.156103
_cell_volume 738.060276
_symmetry_space_group_name_H-M "P -1"
_symmetry_group_IT_number 2
_symmetry_cell_setting 'triclinic'
loop_
_space_group_symop_operation_xyz
x,y,z
-x,-y,-z
loop_
_atom_site_type_symbol
_atom_site_label
_atom_site_fract_x
_atom_site_fract_y
_atom_site_fract_z
Si Si1 0.252828 0.417491 0.245233
Si Si2 0.005441 0.353663 0.119711
Si Si3 0.522491 0.167128 0.332809
Si Si4 0.414152 0.642173 0.550471
Si Si5 0.185317 0.643134 0.656999
Si Si6 0.646628 0.592126 0.427906
Si Si7 0.719790 0.801861 0.058033
Si Si8 0.531890 0.274583 0.048437
O O1 0.354074 0.332803 0.215080
O O2 0.288159 0.470258 0.376103
O O3 0.338226 0.133782 0.417812
O O4 0.064862 0.669554 0.010047
O O5 0.869950 0.593288 0.096341
O O6 0.209574 0.008991 0.359581
O O7 0.000000 0.500000 0.000000
O O8 0.478663 0.399962 0.300197
O O9 0.584558 0.102418 0.245643
O O10 0.500000 0.500000 0.500000
O O11 0.409998 0.483538 0.615833
O O12 0.200223 0.609527 0.523461
O O13 0.217116 0.436349 0.775802
O O14 0.343607 0.499559 0.838121
O O15 0.000000 0.000000 0.500000
O O16 0.464350 0.952652 0.186110
O O17 0.670131 0.008105 0.084602
O O18 0.500000 0.500000 0.000000
#
# Coordination Sequence:
#
# PCOD9055370 Si02
#       8
#     2   2   2   2   2   2   2   2
#     4  11  22  40  68 100 131 168 234 271 333 409
#     4  12  25  44  66  98 133 176 223 281 345 399
#     4  11  21  41  69  98 131 175 218 276 332 408
#     4  12  24  44  65  97 141 175 218 281 346 399
#     4  11  23  44  67  98 138 178 229 279 335 402
#     4  11  22  41  69  99 131 182 221 275 346 396
#     4  11  23  45  71  95 135 184 225 276 342 406
#     4  11  24  44  70 100 135 180 229 276 337 410
#
# _framework density 21.678446000000001
#
# number of rings (size 3 to 8) (size 9 to 14) (size 15 to 20)
#    0.000    0.750    2.500    8.250    0.000    0.500 
#    4.500    1.250    0.000    0.000    0.000    0.000 
#    0.000    0.000    0.000    0.000    0.000    0.000 
#
# Total GULP energy -89241.093270 kJ/mol
# GULP energy per Si atom -5577.568329 kJ/mol
# Density = 2.162911 g / cm^3
# Si number density = 21.678446 Si / 1000 Ang^3
#
#
#
# Elastic Constant Matrix: (Units=GPa)
#
#
# Indices 1 2 3 4 5 6 
#
# 1 148.4874 70.7003 21.2738 -0.2267 -23.1755 -7.2417
# 2 70.7003 162.3937 27.7111 -7.6553 -8.9540 -16.8653
# 3 21.2738 27.7111 25.6474 -11.4078 -0.5026 -4.2017
# 4 -0.2267 -7.6553 -11.4078 33.4080 -0.7403 3.5493
# 5 -23.1755 -8.9540 -0.5026 -0.7403 29.7251 -2.6427
# 6 -7.2417 -16.8653 -4.2017 3.5493 -2.6427 55.3010
#
#
#
# Elastic Compliance Matrix: (Units=1/GPa)
#
#
# Indices 1 2 3 4 5 6 
#
# 1 0.010159 -0.003093 -0.006034 -0.002593 0.006860 0.000423
# 2 -0.003093 0.008872 -0.006961 -0.000552 0.000291 0.001821
# 3 -0.006034 -0.006961 0.059725 0.018622 -0.005312 0.000176
# 4 -0.002593 -0.000552 0.018622 0.036280 -0.001101 -0.001474
# 5 0.006860 0.000291 -0.005312 -0.001101 0.039185 0.002527
# 6 0.000423 0.001821 0.000176 -0.001474 0.002527 0.018922
#
#
# Mechanical properties :
#
#
# Convention : Reuss Voigt Hill
#
# Bulk Modulus (GPa) = 21.46956 63.98876 42.72916
# Shear Modulus (GPa) = 22.64017 38.14306 30.39161
#
# Velocity S-wave (km/s) = 3.23517 4.19918 3.74829
# Velocity P-wave (km/s) = 4.88674 7.28643 6.20372
#
# Compressibility (1/GPa) = 0.04657757
#
# Stress axis : x y z
#
# Youngs Moduli (GPa) = 98.43147 112.71901 16.74354
#
# Poissons Ratio (x) = 0.34868 0.10104
# Poissons Ratio (y) = 0.30449 0.11655
# Poissons Ratio (z) = 0.59398 0.78465
#
# Static dielectric constant tensor:
#      x y z
#    x 1.790230 0.047680 -0.070260 
#    y 0.047680 1.937810 -0.055490 
#    z -0.070260 -0.055490 1.861050 
# 
# From -- ./inp_files/447177.got.cif
#   From: 2010.05.17/outbox.cif.g08.bks.cpg/sg2_224_cif.got.tgz:447177.got - 2010.06.03 11:33:40.
