data_PCOD9055011
_publ_section_title
;
Structure prediction by ZEFSAII (Michael W. Deem and Ramdas Pophale) SiO2 
 PCOD9055011
Probable space group: P -1
;
_chemical_formula_sum "Si O2"
_cell_formula_units_Z 15
_cell_length_a 10.781876
_cell_length_b 12.883329
_cell_length_c 21.644361
_cell_angle_alpha 158.363946
_cell_angle_beta 34.058974
_cell_angle_gamma 137.845561
_cell_volume 614.785350
_symmetry_space_group_name_H-M "P -1"
_symmetry_group_IT_number 2
_symmetry_cell_setting 'triclinic'
loop_
_space_group_symop_operation_xyz
x,y,z
-x,-y,-z
loop_
_atom_site_type_symbol
_atom_site_label
_atom_site_fract_x
_atom_site_fract_y
_atom_site_fract_z
Si Si1 0.759833 0.408755 0.472293
Si Si2 0.207267 0.001369 0.472570
Si Si3 0.727404 0.540602 0.694750
Si Si4 0.692429 0.394686 0.018977
Si Si5 0.500000 0.500000 0.500000
Si Si6 0.824028 0.892435 0.325868
Si Si7 0.998207 0.510194 0.256568
Si Si8 0.665450 0.805320 0.143839
O O1 0.691009 0.586905 0.661848
O O2 0.605932 0.517897 0.537676
O O3 0.027656 0.402453 0.354434
O O4 0.743339 0.070522 0.293477
O O5 0.408650 0.916999 0.294873
O O6 0.104848 0.715878 0.373809
O O7 0.289939 0.122057 0.568395
O O8 0.045316 0.256807 0.651612
O O9 0.530569 0.682178 0.899202
O O10 0.739836 0.201030 0.506803
O O11 0.764704 0.645906 0.170585
O O12 0.656115 0.541215 0.047816
O O13 0.908058 0.155444 0.798851
O O14 0.760900 0.429787 0.328222
O O15 0.181186 0.269122 0.020110
#
# Coordination Sequence:
#
# PCOD9055011 Si02
#       8
#     2   2   2   2   1   2   2   2
#     4  11  26  46  68  97 145 189 228 279 345 414
#     4  11  22  43  66  98 133 174 228 285 339 402
#     4  11  23  46  68 103 142 182 226 283 348 413
#     4  11  23  37  74 109 130 173 227 295 345 412
#     4  12  26  48  64  96 136 194 228 274 336 412
#     4  11  21  39  71 104 136 169 227 290 349 401
#     4  11  26  43  66  95 135 181 228 281 336 408
#     4  12  22  45  69 101 132 176 230 284 346 405
#
# _framework density 24.398759999999999
#
# number of rings (size 3 to 8) (size 9 to 14) (size 15 to 20)
#    0.000    0.800    5.333    2.400    0.000    0.533 
#    4.800    1.333    0.000    0.000    0.000    0.000 
#    0.000    0.000    0.000    0.000    0.000    0.000 
#
# Total GULP energy -83593.867289 kJ/mol
# GULP energy per Si atom -5572.924486 kJ/mol
# Density = 2.434323 g / cm^3
# Si number density = 24.398760 Si / 1000 Ang^3
#
#
#
# Elastic Constant Matrix: (Units=GPa)
#
#
# Indices 1 2 3 4 5 6 
#
# 1 82.8563 7.1978 12.9228 -2.1770 -2.0986 -3.4406
# 2 7.1978 71.8512 36.0946 -40.1536 0.6827 16.4539
# 3 12.9228 36.0946 114.0762 -40.0749 -4.8718 9.0857
# 4 -2.1770 -40.1536 -40.0749 40.7776 5.7632 -5.9121
# 5 -2.0986 0.6827 -4.8718 5.7632 32.1093 -8.4065
# 6 -3.4406 16.4539 9.0857 -5.9121 -8.4065 34.4839
#
#
#
# Elastic Compliance Matrix: (Units=1/GPa)
#
#
# Indices 1 2 3 4 5 6 
#
# 1 0.012811 -0.003816 -0.002195 -0.005077 0.002384 0.003388
# 2 -0.003816 0.039533 0.003163 0.041239 -0.012196 -0.015980
# 3 -0.002195 0.003163 0.014000 0.016580 -0.001855 -0.003027
# 4 -0.005077 0.041239 0.016580 0.081440 -0.017179 -0.014778
# 5 0.002384 -0.012196 -0.001855 -0.017179 0.037710 0.012793
# 6 0.003388 -0.015980 -0.003027 -0.014778 0.012793 0.038345
#
#
# Mechanical properties :
#
#
# Convention : Reuss Voigt Hill
#
# Bulk Modulus (GPa) = 16.48907 42.35711 29.42309
# Shear Modulus (GPa) = 20.01993 35.64540 27.83267
#
# Velocity S-wave (km/s) = 2.86760 3.82639 3.38115
# Velocity P-wave (km/s) = 4.21153 6.07616 5.22765
#
# Compressibility (1/GPa) = 0.06064625
#
# Stress axis : x y z
#
# Youngs Moduli (GPa) = 78.05975 25.29555 71.42726
#
# Poissons Ratio (x) = 0.09654 0.15681
# Poissons Ratio (y) = 0.29791 -0.22594
# Poissons Ratio (z) = 0.17137 -0.08001
#
# Static dielectric constant tensor:
#      x y z
#    x 2.011760 0.012850 0.017840 
#    y 0.012850 2.046850 0.006900 
#    z 0.017840 0.006900 1.908420 
# 
# From -- ./inp_files/610559.got.cif
#   From: 2010.05.17/outbox.cif.g08.bks.cpg/sg2_306_cif.got.tgz:610559.got - 2010.06.03 11:33:40.
