data_PCOD9055776
_publ_section_title
;
Structure prediction by ZEFSAII (Michael W. Deem and Ramdas Pophale) SiO2 
 PCOD9055776
Probable space group: P -1
;
_chemical_formula_sum "Si O2"
_cell_formula_units_Z 14
_cell_length_a 6.697163
_cell_length_b 18.892996
_cell_length_c 7.499952
_cell_angle_alpha 43.360651
_cell_angle_beta 61.087171
_cell_angle_gamma 66.825282
_cell_volume 568.940905
_symmetry_space_group_name_H-M "P -1"
_symmetry_group_IT_number 2
_symmetry_cell_setting 'triclinic'
loop_
_space_group_symop_operation_xyz
x,y,z
-x,-y,-z
loop_
_atom_site_type_symbol
_atom_site_label
_atom_site_fract_x
_atom_site_fract_y
_atom_site_fract_z
Si Si1 0.312791 0.074070 0.340252
Si Si2 0.946691 0.783325 0.261032
Si Si3 0.555074 0.198075 0.575772
Si Si4 0.852951 0.008481 0.818140
Si Si5 0.423635 0.768197 0.885223
Si Si6 0.339375 0.449652 0.803999
Si Si7 0.890302 0.366207 0.211866
O O1 0.244994 0.039398 0.235231
O O2 0.417420 0.184756 0.118700
O O3 0.500000 0.000000 0.500000
O O4 0.074803 0.065979 0.561623
O O5 0.698148 0.762615 0.329513
O O6 0.998156 0.701899 0.546703
O O7 0.915832 0.906326 0.094626
O O8 0.163405 0.774273 0.052797
O O9 0.543702 0.169528 0.424114
O O10 0.726996 0.287378 0.342581
O O11 0.669319 0.096179 0.808616
O O12 0.512891 0.652270 0.013729
O O13 0.500000 0.500000 0.500000
O O14 0.261763 0.535516 0.826199
O O15 0.094273 0.407800 0.930450
#
# Coordination Sequence:
#
# PCOD9055776 Si02
#       7
#     2   2   2   2   2   2   2
#     4  11  21  43  71 104 144 189 242 287 335 436
#     4  12  26  45  69 109 144 186 240 284 348 434
#     4  12  27  46  69 109 145 188 235 289 349 427
#     4  11  24  41  71 106 145 194 233 281 358 413
#     4  12  24  47  74 100 145 190 234 294 361 405
#     4  11  24  49  80 101 134 190 235 298 365 412
#     4  11  27  49  73 106 145 177 242 301 346 425
#
# _framework density 24.607123999999999
#
# number of rings (size 3 to 8) (size 9 to 14) (size 15 to 20)
#    0.000    0.571    5.714    2.143    2.000    2.286 
#    0.000    1.429    0.000    0.000    0.000    0.000 
#    0.000    0.000    0.000    0.000    0.000    0.000 
#
# Total GULP energy -78360.466826 kJ/mol
# GULP energy per Si atom -5597.176202 kJ/mol
# Density = 2.455112 g / cm^3
# Si number density = 24.607124 Si / 1000 Ang^3
#
#
#
# Elastic Constant Matrix: (Units=GPa)
#
#
# Indices 1 2 3 4 5 6 
#
# 1 127.4454 68.4279 40.8914 10.7898 -15.9619 -22.1828
# 2 68.4279 122.2931 50.5322 -16.9499 -14.4511 -27.7660
# 3 40.8914 50.5322 118.0951 7.2261 -27.1544 -28.1785
# 4 10.7898 -16.9499 7.2261 51.3969 -21.3576 -6.1003
# 5 -15.9619 -14.4511 -27.1544 -21.3576 54.4333 10.1311
# 6 -22.1828 -27.7660 -28.1785 -6.1003 10.1311 38.7980
#
#
#
# Elastic Compliance Matrix: (Units=1/GPa)
#
#
# Indices 1 2 3 4 5 6 
#
# 1 0.012499 -0.007275 -0.000943 -0.005183 -0.000896 0.000674
# 2 -0.007275 0.016585 -0.002892 0.009563 0.003422 0.006219
# 3 -0.000943 -0.002892 0.012199 -0.000194 0.004002 0.005176
# 4 -0.005183 0.009563 -0.000194 0.029070 0.011332 0.005352
# 5 -0.000896 0.003422 0.004002 0.011332 0.025464 -0.000024
# 6 0.000674 0.006219 0.005176 0.005352 -0.000024 0.035217
#
#
# Mechanical properties :
#
#
# Convention : Reuss Voigt Hill
#
# Bulk Modulus (GPa) = 52.45921 76.39295 64.42608
# Shear Modulus (GPa) = 31.32675 42.79113 37.05894
#
# Velocity S-wave (km/s) = 3.57189 4.17462 3.88496
# Velocity P-wave (km/s) = 6.19485 7.37218 6.80901
#
# Compressibility (1/GPa) = 0.01906243
#
# Stress axis : x y z
#
# Youngs Moduli (GPa) = 80.00479 60.29658 81.97678
#
# Poissons Ratio (x) = 0.43868 0.07729
# Poissons Ratio (y) = 0.58207 0.23706
# Poissons Ratio (z) = 0.07543 0.17436
#
# Static dielectric constant tensor:
#      x y z
#    x 2.012280 0.022620 0.042390 
#    y 0.022620 1.944110 -0.012910 
#    z 0.042390 -0.012910 2.036990 
# 
# From -- ./inp_files/138627.got.cif
#   From: 2010.05.17/outbox.cif.g08.bks.cpg/sg2_70_cif.got.tgz:138627.got - 2010.06.03 11:33:40.
