data_PCOD9055128
_publ_section_title
;
Structure prediction by ZEFSAII (Michael W. Deem and Ramdas Pophale) SiO2 
 PCOD9055128
Probable space group: P -1
;
_chemical_formula_sum "Si O2"
_cell_formula_units_Z 16
_cell_length_a 15.921520
_cell_length_b 9.394254
_cell_length_c 8.665671
_cell_angle_alpha 79.126946
_cell_angle_beta 92.357127
_cell_angle_gamma 142.804453
_cell_volume 756.380082
_symmetry_space_group_name_H-M "P -1"
_symmetry_group_IT_number 2
_symmetry_cell_setting 'triclinic'
loop_
_space_group_symop_operation_xyz
x,y,z
-x,-y,-z
loop_
_atom_site_type_symbol
_atom_site_label
_atom_site_fract_x
_atom_site_fract_y
_atom_site_fract_z
Si Si1 0.493140 0.048309 0.165147
Si Si2 0.116172 0.138438 0.114218
Si Si3 0.414128 0.504588 0.905684
Si Si4 0.929044 0.240415 0.841934
Si Si5 0.239701 0.061726 0.790022
Si Si6 0.791904 0.314086 0.626625
Si Si7 0.748234 0.226161 0.283161
Si Si8 0.989711 0.836563 0.623328
O O1 0.495213 0.225121 0.149217
O O2 0.630489 0.178993 0.237070
O O3 0.345290 0.802848 0.282743
O O4 0.500000 0.000000 0.000000
O O5 0.097195 0.238060 0.215342
O O6 0.086376 0.933832 0.213326
O O7 0.272883 0.355456 0.015619
O O8 0.000000 0.000000 0.000000
O O9 0.355193 0.343041 0.782396
O O10 0.500000 0.500000 0.000000
O O11 0.850672 0.261998 0.743400
O O12 0.094254 0.510668 0.816498
O O13 0.852307 0.101412 0.028538
O O14 0.296948 0.987436 0.753983
O O15 0.137514 0.983089 0.668192
O O16 0.758529 0.222893 0.468401
O O17 0.912785 0.603007 0.574894
O O18 0.000000 0.000000 0.500000
#
# Coordination Sequence:
#
# PCOD9055128 Si02
#       8
#     2   2   2   2   2   2   2   2
#     4  12  26  45  73  97 136 185 229 277 334 413
#     4  11  21  40  68 101 133 174 229 281 334 398
#     4  11  23  43  69 100 135 172 229 279 336 397
#     4  11  22  41  72 100 134 174 231 281 335 400
#     4  11  25  43  70 104 132 179 232 286 335 404
#     4  12  27  45  67 104 140 180 225 282 346 410
#     4  12  25  43  67 100 141 177 227 280 347 400
#     4  12  26  43  68 103 141 174 227 285 352 400
#
# _framework density 21.153388
#
# number of rings (size 3 to 8) (size 9 to 14) (size 15 to 20)
#    0.000    0.500    3.750    6.375    5.250    0.000 
#    0.000    0.625    0.000    0.000    0.000    0.000 
#    0.000    0.000    0.000    0.000    0.000    0.000 
#
# Total GULP energy -89509.114872 kJ/mol
# GULP energy per Si atom -5594.319679 kJ/mol
# Density = 2.110524 g / cm^3
# Si number density = 21.153388 Si / 1000 Ang^3
#
#
#
# Elastic Constant Matrix: (Units=GPa)
#
#
# Indices 1 2 3 4 5 6 
#
# 1 90.9149 6.9878 14.4533 8.9344 23.6620 3.4105
# 2 6.9878 86.0231 13.9141 6.0237 6.3960 -3.8547
# 3 14.4533 13.9141 73.9150 5.1290 16.0891 5.9799
# 4 8.9344 6.0237 5.1290 18.8998 -7.3665 3.5134
# 5 23.6620 6.3960 16.0891 -7.3665 41.7593 5.2362
# 6 3.4105 -3.8547 5.9799 3.5134 5.2362 50.2745
#
#
#
# Elastic Compliance Matrix: (Units=1/GPa)
#
#
# Indices 1 2 3 4 5 6 
#
# 1 0.014813 0.000421 0.000056 -0.011463 -0.010618 0.000928
# 2 0.000421 0.012488 -0.001649 -0.005084 -0.002633 0.001755
# 3 0.000056 -0.001649 0.015836 -0.006324 -0.006889 -0.000854
# 4 -0.011463 -0.005084 -0.006324 0.071871 0.023179 -0.006297
# 5 -0.010618 -0.002633 -0.006889 0.023179 0.037636 -0.004202
# 6 0.000928 0.001755 -0.000854 -0.006297 -0.004202 0.020942
#
#
# Mechanical properties :
#
#
# Convention : Reuss Voigt Hill
#
# Bulk Modulus (GPa) = 24.51407 35.72929 30.12168
# Shear Modulus (GPa) = 26.38137 36.55324 31.46730
#
# Velocity S-wave (km/s) = 3.53533 4.16144 3.86110
# Velocity P-wave (km/s) = 5.31776 6.32593 5.84363
#
# Compressibility (1/GPa) = 0.04079290
#
# Stress axis : x y z
#
# Youngs Moduli (GPa) = 67.50699 80.07873 63.14692
#
# Poissons Ratio (x) = -0.03375 -0.00352
# Poissons Ratio (y) = -0.02845 0.10414
# Poissons Ratio (z) = -0.00376 0.13207
#
# Static dielectric constant tensor:
#      x y z
#    x 1.750550 -0.007060 -0.007390 
#    y -0.007060 1.775770 -0.005690 
#    z -0.007390 -0.005690 1.788280 
# 
# From -- ./inp_files/297947.got.cif
#   From: 2010.05.17/outbox.cif.g08.bks.cpg/sg2_149_cif.got.tgz:297947.got - 2010.06.03 11:33:40.
