data_PCOD9055704
_publ_section_title
;
Structure prediction by ZEFSAII (Michael W. Deem and Ramdas Pophale) SiO2 
 PCOD9055704
Probable space group: P -1
;
_chemical_formula_sum "Si O2"
_cell_formula_units_Z 15
_cell_length_a 22.049964
_cell_length_b 18.252210
_cell_length_c 9.809422
_cell_angle_alpha 45.390768
_cell_angle_beta 146.280415
_cell_angle_gamma 160.856740
_cell_volume 638.628698
_symmetry_space_group_name_H-M "P -1"
_symmetry_group_IT_number 2
_symmetry_cell_setting 'triclinic'
loop_
_space_group_symop_operation_xyz
x,y,z
-x,-y,-z
loop_
_atom_site_type_symbol
_atom_site_label
_atom_site_fract_x
_atom_site_fract_y
_atom_site_fract_z
Si Si1 0.810604 0.436431 0.059991
Si Si2 0.034564 0.149175 0.887942
Si Si3 0.477186 0.216386 0.278303
Si Si4 0.657795 0.997397 0.430096
Si Si5 0.000000 0.000000 0.500000
Si Si6 0.121896 0.264128 0.209554
Si Si7 0.760178 0.652852 0.283558
Si Si8 0.190678 0.587189 0.604298
O O1 0.698751 0.325025 0.150173
O O2 0.087719 0.612456 0.343296
O O3 0.608996 0.208599 0.878264
O O4 0.835103 0.578783 0.888768
O O5 0.169319 0.301620 0.802909
O O6 0.751347 0.963074 0.609023
O O7 0.161267 0.281777 0.099318
O O8 0.000000 0.000000 0.000000
O O9 0.396597 0.057799 0.439386
O O10 0.670335 0.459861 0.403879
O O11 0.614773 0.291152 0.303649
O O12 0.196239 0.034379 0.958052
O O13 0.914108 0.284947 0.495870
O O14 0.979748 0.901379 0.457424
O O15 0.761015 0.722693 0.492495
O O16 0.500000 0.500000 0.000000
#
# Coordination Sequence:
#
# PCOD9055704 Si02
#       8
#     2   2   2   2   1   2   2   2
#     4  11  24  46  69 100 135 175 228 283 333 398
#     4  11  21  43  67  92 137 179 215 274 339 391
#     4  11  22  44  70  94 140 179 217 279 336 393
#     4  11  23  45  68  98 136 175 224 277 334 407
#     4  12  24  38  66  96 128 172 224 270 320 410
#     4  11  23  44  66  98 137 176 226 272 337 402
#     4  12  22  41  64  94 133 176 219 272 331 394
#     4  11  24  46  71  98 135 178 224 283 341 390
#
# _framework density 23.487825999999998
#
# number of rings (size 3 to 8) (size 9 to 14) (size 15 to 20)
#    0.000    0.800    6.667    2.000    0.000    2.133 
#    4.800    1.333    0.000    0.000    0.000    0.000 
#    0.000    0.000    0.000    0.000    0.000    0.000 
#
# Total GULP energy -83586.538595 kJ/mol
# GULP energy per Si atom -5572.435906 kJ/mol
# Density = 2.343437 g / cm^3
# Si number density = 23.487826 Si / 1000 Ang^3
#
#
#
# Elastic Constant Matrix: (Units=GPa)
#
#
# Indices 1 2 3 4 5 6 
#
# 1 126.4195 28.7923 -0.6281 -2.7031 -1.6827 22.1905
# 2 28.7923 88.0335 0.1230 -8.4377 3.6635 -3.3715
# 3 -0.6281 0.1230 21.2791 -2.1630 -9.3648 0.4291
# 4 -2.7031 -8.4377 -2.1630 17.3477 -6.3565 -0.9386
# 5 -1.6827 3.6635 -9.3648 -6.3565 22.6180 -5.0643
# 6 22.1905 -3.3715 0.4291 -0.9386 -5.0643 49.9414
#
#
#
# Elastic Compliance Matrix: (Units=1/GPa)
#
#
# Indices 1 2 3 4 5 6 
#
# 1 0.009432 -0.003284 0.000574 -0.000125 0.000457 -0.004374
# 2 -0.003284 0.013106 0.000424 0.006073 0.000066 0.002461
# 3 0.000574 0.000424 0.063335 0.020276 0.032548 0.002911
# 4 -0.000125 0.006073 0.020276 0.074081 0.029263 0.004651
# 5 0.000457 0.000066 0.032548 0.029263 0.067484 0.006915
# 6 -0.004374 0.002461 0.002911 0.004651 0.006915 0.022897
#
#
# Mechanical properties :
#
#
# Convention : Reuss Voigt Hill
#
# Bulk Modulus (GPa) = 12.29987 32.47849 22.38918
# Shear Modulus (GPa) = 17.72995 31.81109 24.77052
#
# Velocity S-wave (km/s) = 2.75045 3.68416 3.25100
# Velocity P-wave (km/s) = 3.91595 5.65289 4.86261
#
# Compressibility (1/GPa) = 0.08130170
#
# Stress axis : x y z
#
# Youngs Moduli (GPa) = 106.02076 76.29817 15.78898
#
# Poissons Ratio (x) = 0.25058 -0.00906
# Poissons Ratio (y) = 0.34819 -0.00670
# Poissons Ratio (z) = -0.06084 -0.03237
#
# Static dielectric constant tensor:
#      x y z
#    x 1.910440 -0.032580 -0.061550 
#    y -0.032580 2.022940 0.130870 
#    z -0.061550 0.130870 1.509650 
# 
# From -- ./inp_files/337966.got.cif
#   From: 2010.05.17/outbox.cif.g08.bks.cpg/sg2_169_cif.got.tgz:337966.got - 2010.06.03 11:33:40.
