data_PCOD9055138
_publ_section_title
;
Structure prediction by ZEFSAII (Michael W. Deem and Ramdas Pophale) SiO2 
 PCOD9055138
Probable space group: P -1
;
_chemical_formula_sum "Si O2"
_cell_formula_units_Z 16
_cell_length_a 25.658701
_cell_length_b 8.771527
_cell_length_c 12.233289
_cell_angle_alpha 31.512957
_cell_angle_beta 150.712410
_cell_angle_gamma 137.282943
_cell_volume 703.590076
_symmetry_space_group_name_H-M "P -1"
_symmetry_group_IT_number 2
_symmetry_cell_setting 'triclinic'
loop_
_space_group_symop_operation_xyz
x,y,z
-x,-y,-z
loop_
_atom_site_type_symbol
_atom_site_label
_atom_site_fract_x
_atom_site_fract_y
_atom_site_fract_z
Si Si1 0.520515 0.336953 0.950861
Si Si2 0.580685 0.670984 0.467458
Si Si3 0.815731 0.227821 0.853041
Si Si4 0.680227 0.750782 0.234609
Si Si5 0.912724 0.604515 0.365026
Si Si6 0.228192 0.701404 0.863698
Si Si7 0.622132 0.904057 0.803311
Si Si8 0.941034 0.291421 0.256459
O O1 0.456888 0.369150 0.700938
O O2 0.428388 0.392048 0.838611
O O3 0.615567 0.557843 0.988351
O O4 0.566686 0.013769 0.252972
O O5 0.500000 0.500000 0.500000
O O6 0.694994 0.539302 0.790505
O O7 0.771732 0.502725 0.534522
O O8 0.710000 0.062847 0.798431
O O9 0.871897 0.374154 0.972362
O O10 0.887484 0.956521 0.102428
O O11 0.714598 0.993400 0.236522
O O12 0.654357 0.942090 0.964172
O O13 0.812546 0.433238 0.241532
O O14 0.000000 0.500000 0.500000
O O15 0.964094 0.529405 0.623642
O O16 0.136060 0.765318 0.746854
O O17 0.500000 0.000000 0.500000
O O18 0.000000 0.000000 0.500000
#
# Coordination Sequence:
#
# PCOD9055138 Si02
#       8
#     2   2   2   2   2   2   2   2
#     4  11  25  39  60  97 138 180 227 262 318 397
#     4  11  24  40  63  93 140 183 211 269 331 396
#     4  11  23  41  72  95 134 176 218 280 335 391
#     4  12  24  40  66 102 133 176 229 268 329 400
#     4   9  22  41  71  94 124 174 218 279 343 396
#     4  11  21  40  68  95 135 174 217 269 342 392
#     4  12  25  39  65  98 138 176 221 267 325 393
#     4   9  19  44  67  93 124 169 220 281 340 387
#
# _framework density 22.740514000000001
#
# number of rings (size 3 to 8) (size 9 to 14) (size 15 to 20)
#    0.000    1.250    3.750    1.875    3.500    0.000 
#    0.000    6.250    0.000    0.000    0.000    0.000 
#    0.000    0.000    0.000    0.000    0.000    0.000 
#
# Total GULP energy -89334.690853 kJ/mol
# GULP energy per Si atom -5583.418178 kJ/mol
# Density = 2.268876 g / cm^3
# Si number density = 22.740514 Si / 1000 Ang^3
#
#
#
# Elastic Constant Matrix: (Units=GPa)
#
#
# Indices 1 2 3 4 5 6 
#
# 1 64.4534 4.9552 33.0754 2.9384 15.5529 -10.8779
# 2 4.9552 130.3694 60.2173 11.9559 -4.4772 -28.7977
# 3 33.0754 60.2173 118.0241 5.2101 15.5643 0.4507
# 4 2.9384 11.9559 5.2101 31.3968 1.8922 -3.7779
# 5 15.5529 -4.4772 15.5643 1.8922 22.1926 -6.0127
# 6 -10.8779 -28.7977 0.4507 -3.7779 -6.0127 21.4895
#
#
#
# Elastic Compliance Matrix: (Units=1/GPa)
#
#
# Indices 1 2 3 4 5 6 
#
# 1 0.026666 0.012822 -0.014426 -0.001356 0.002663 0.031490
# 2 0.012822 0.033382 -0.024844 -0.004503 0.031770 0.059843
# 3 -0.014426 -0.024844 0.029083 0.001829 -0.028708 -0.048917
# 4 -0.001356 -0.004503 0.001829 0.033407 -0.004684 -0.002197
# 5 0.002663 0.031770 -0.028708 -0.004684 0.088700 0.068519
# 6 0.031490 0.059843 -0.048917 -0.002197 0.068519 0.162480
#
#
# Mechanical properties :
#
#
# Convention : Reuss Voigt Hill
#
# Bulk Modulus (GPa) = 27.59902 56.59364 42.09633
# Shear Modulus (GPa) = 11.39749 29.32237 20.35993
#
# Velocity S-wave (km/s) = 2.24117 3.59476 2.99543
# Velocity P-wave (km/s) = 4.34281 6.49388 5.52406
#
# Compressibility (1/GPa) = 0.03623317
#
# Stress axis : x y z
#
# Youngs Moduli (GPa) = 37.50073 29.95671 34.38388
#
# Poissons Ratio (x) = -0.38409 0.49603
# Poissons Ratio (y) = -0.48082 0.85424
# Poissons Ratio (z) = 0.54100 0.74425
#
# Static dielectric constant tensor:
#      x y z
#    x 1.868510 -0.010180 0.024350 
#    y -0.010180 1.924260 0.049730 
#    z 0.024350 0.049730 1.913030 
# 
# From -- ./inp_files/476354.got.cif
#   From: 2010.05.17/outbox.cif.g08.bks.cpg/sg2_239_cif.got.tgz:476354.got - 2010.06.03 11:33:40.
