data_PCOD9055825
_publ_section_title
;
Structure prediction by ZEFSAII (Michael W. Deem and Ramdas Pophale) SiO2 
 PCOD9055825
Probable space group: P -1
;
_chemical_formula_sum "Si O2"
_cell_formula_units_Z 16
_cell_length_a 13.398670
_cell_length_b 12.411751
_cell_length_c 8.038115
_cell_angle_alpha 59.540518
_cell_angle_beta 90.303697
_cell_angle_gamma 137.079109
_cell_volume 613.557534
_symmetry_space_group_name_H-M "P -1"
_symmetry_group_IT_number 2
_symmetry_cell_setting 'triclinic'
loop_
_space_group_symop_operation_xyz
x,y,z
-x,-y,-z
loop_
_atom_site_type_symbol
_atom_site_label
_atom_site_fract_x
_atom_site_fract_y
_atom_site_fract_z
Si Si1 0.255994 0.036454 0.259246
Si Si2 0.221997 0.665140 0.952411
Si Si3 0.594992 0.515595 0.715353
Si Si4 0.047935 0.084011 0.747712
Si Si5 0.510678 0.710082 0.593822
Si Si6 0.441849 0.879433 0.268817
Si Si7 0.902987 0.393644 0.365896
Si Si8 0.839580 0.671852 0.883841
O O1 0.350765 0.131474 0.368732
O O2 0.152171 0.797783 0.410303
O O3 0.419135 0.242573 0.967039
O O4 0.103387 0.983192 0.278534
O O5 0.138421 0.436763 0.122794
O O6 0.122065 0.629034 0.135036
O O7 0.176374 0.677948 0.766136
O O8 0.445605 0.903142 0.782056
O O9 0.745414 0.640146 0.480215
O O10 0.533153 0.591869 0.626642
O O11 0.723327 0.638552 0.786311
O O12 0.022462 0.930770 0.757203
O O13 0.000000 0.000000 0.000000
O O14 0.528999 0.838857 0.357588
O O15 0.302807 0.503524 0.829630
O O16 0.220680 0.644944 0.492280
O O17 0.500000 0.000000 0.000000
#
# Coordination Sequence:
#
# PCOD9055825 Si02
#       8
#     2   2   2   2   2   2   2   2
#     4  11  22  45  70 102 138 179 239 290 337 424
#     4  11  24  44  74 103 132 194 241 290 342 423
#     4  11  23  41  74  99 133 190 235 281 350 422
#     4  12  27  44  67 108 146 178 228 293 357 417
#     4  11  21  43  73  99 136 185 234 286 345 420
#     4  12  26  47  71 106 148 182 230 303 361 413
#     4  11  24  43  72 102 137 188 248 283 341 424
#     4  11  21  45  72 101 137 181 241 286 336 427
#
# _framework density 26.077424000000001
#
# number of rings (size 3 to 8) (size 9 to 14) (size 15 to 20)
#    0.000    0.750    5.000    3.750    1.750    2.000 
#    6.750    0.000    0.000    0.000    0.000    0.000 
#    0.000    0.000    0.000    0.000    0.000    0.000 
#
# Total GULP energy -89577.833313 kJ/mol
# GULP energy per Si atom -5598.614582 kJ/mol
# Density = 2.601807 g / cm^3
# Si number density = 26.077424 Si / 1000 Ang^3
#
#
#
# Elastic Constant Matrix: (Units=GPa)
#
#
# Indices 1 2 3 4 5 6 
#
# 1 109.1260 20.8467 66.7564 14.3960 16.6358 14.4663
# 2 20.8467 70.5405 27.6883 4.5705 7.2329 14.7172
# 3 66.7564 27.6883 200.5701 16.0689 3.6332 21.0220
# 4 14.3960 4.5705 16.0689 37.1518 6.0836 2.7698
# 5 16.6358 7.2329 3.6332 6.0836 57.1722 -3.6347
# 6 14.4663 14.7172 21.0220 2.7698 -3.6347 19.3048
#
#
#
# Elastic Compliance Matrix: (Units=1/GPa)
#
#
# Indices 1 2 3 4 5 6 
#
# 1 0.013005 -0.000789 -0.003347 -0.002475 -0.003578 -0.005819
# 2 -0.000789 0.017611 -0.000803 -0.000139 -0.002724 -0.012454
# 3 -0.003347 -0.000803 0.006714 -0.001306 0.000540 -0.003903
# 4 -0.002475 -0.000139 -0.001306 0.028930 -0.002334 -0.001207
# 5 -0.003578 -0.002724 0.000540 -0.002334 0.019612 0.008198
# 6 -0.005819 -0.012454 -0.003903 -0.001207 0.008198 0.071622
#
#
# Mechanical properties :
#
#
# Convention : Reuss Voigt Hill
#
# Bulk Modulus (GPa) = 36.42427 67.86881 52.14654
# Shear Modulus (GPa) = 28.32512 40.38879 34.35695
#
# Velocity S-wave (km/s) = 3.29932 3.93975 3.63367
# Velocity P-wave (km/s) = 5.33967 6.83944 6.13555
#
# Compressibility (1/GPa) = 0.02745422
#
# Stress axis : x y z
#
# Youngs Moduli (GPa) = 76.89363 56.78243 148.93325
#
# Poissons Ratio (x) = 0.04477 0.49843
# Poissons Ratio (y) = 0.06063 0.11959
# Poissons Ratio (z) = 0.25734 0.04559
#
# Static dielectric constant tensor:
#      x y z
#    x 2.128760 -0.036190 -0.029740 
#    y -0.036190 2.059020 0.019540 
#    z -0.029740 0.019540 2.014430 
# 
# From -- ./inp_files/314684.got.cif
#   From: 2010.05.17/outbox.cif.g08.bks.cpg/sg2_158_cif.got.tgz:314684.got - 2010.06.03 11:33:40.
