data_PCOD9055640
_publ_section_title
;
Structure prediction by ZEFSAII (Michael W. Deem and Ramdas Pophale) SiO2 
 PCOD9055640
Probable space group: P -1
;
_chemical_formula_sum "Si O2"
_cell_formula_units_Z 15
_cell_length_a 8.681314
_cell_length_b 13.543408
_cell_length_c 18.780278
_cell_angle_alpha 157.567757
_cell_angle_beta 137.950889
_cell_angle_gamma 40.344498
_cell_volume 538.954821
_symmetry_space_group_name_H-M "P -1"
_symmetry_group_IT_number 2
_symmetry_cell_setting 'triclinic'
loop_
_space_group_symop_operation_xyz
x,y,z
-x,-y,-z
loop_
_atom_site_type_symbol
_atom_site_label
_atom_site_fract_x
_atom_site_fract_y
_atom_site_fract_z
Si Si1 0.687668 0.913465 0.080834
Si Si2 0.297348 0.655328 0.724757
Si Si3 0.573217 0.199610 0.603245
Si Si4 0.881690 0.509817 0.127920
Si Si5 0.844543 0.854502 0.800056
Si Si6 0.438514 0.567322 0.927712
Si Si7 0.500000 0.500000 0.500000
Si Si8 0.137974 0.013227 0.658251
O O1 0.694055 0.224124 0.273007
O O2 0.784166 0.859416 0.157823
O O3 0.435072 0.859450 0.943250
O O4 0.871367 0.699566 0.950264
O O5 0.436863 0.339540 0.577723
O O6 0.034039 0.716554 0.710670
O O7 0.501585 0.474036 0.808011
O O8 0.500000 0.000000 0.500000
O O9 0.854031 0.071841 0.606918
O O10 0.793850 0.514093 0.180516
O O11 0.851653 0.805192 0.285051
O O12 0.675287 0.416614 0.952883
O O13 0.703387 0.670689 0.667331
O O14 0.637695 0.114271 0.873810
O O15 0.000000 0.000000 0.000000
O O16 0.303759 0.708569 0.517021
#
# Coordination Sequence:
#
# PCOD9055640 Si02
#       8
#     2   2   2   2   2   2   1   2
#     4  11  22  41  72 107 138 186 247 299 360 441
#     4  11  23  40  68 105 145 182 237 300 359 432
#     4  12  25  45  67 101 142 192 240 294 360 436
#     4  11  21  42  73 104 133 187 248 299 362 433
#     4  12  23  43  71  99 143 190 233 295 364 428
#     4  11  23  41  71 102 141 185 245 296 360 439
#     4  12  28  46  68 108 138 188 244 300 360 432
#     4  12  24  45  69  97 144 188 239 299 361 433
#
# _framework density 27.831648000000001
#
# number of rings (size 3 to 8) (size 9 to 14) (size 15 to 20)
#    0.000    0.533    6.667    2.800    0.000    0.000 
#    2.400    2.000    0.000    0.000    0.000    0.000 
#    0.000    0.000    0.000    0.000    0.000    0.000 
#
# Total GULP energy -83774.173052 kJ/mol
# GULP energy per Si atom -5584.944870 kJ/mol
# Density = 2.776830 g / cm^3
# Si number density = 27.831648 Si / 1000 Ang^3
#
#
#
# Elastic Constant Matrix: (Units=GPa)
#
#
# Indices 1 2 3 4 5 6 
#
# 1 128.3494 56.0452 67.9829 8.1809 37.8867 -21.8568
# 2 56.0452 152.3635 58.9963 43.9066 18.4570 -28.0828
# 3 67.9829 58.9963 155.0956 33.4559 39.4973 2.0814
# 4 8.1809 43.9066 33.4559 68.3809 14.0066 6.8177
# 5 37.8867 18.4570 39.4973 14.0066 69.4529 7.2489
# 6 -21.8568 -28.0828 2.0814 6.8177 7.2489 57.8872
#
#
#
# Elastic Compliance Matrix: (Units=1/GPa)
#
#
# Indices 1 2 3 4 5 6 
#
# 1 0.013179 -0.002676 -0.004108 0.002791 -0.005137 0.004140
# 2 -0.002676 0.010993 -0.001765 -0.006447 0.000309 0.005106
# 3 -0.004108 -0.001765 0.010096 -0.002632 -0.002273 -0.002176
# 4 0.002791 -0.006447 -0.002632 0.020545 -0.002023 -0.004146
# 5 -0.005137 0.000309 -0.002273 -0.002023 0.019223 -0.003877
# 6 0.004140 0.005106 -0.002176 -0.004146 -0.003877 0.022367
#
#
# Mechanical properties :
#
#
# Convention : Reuss Voigt Hill
#
# Bulk Modulus (GPa) = 58.24576 89.09525 73.67050
# Shear Modulus (GPa) = 41.93737 55.99649 48.96693
#
# Velocity S-wave (km/s) = 3.88599 4.49037 4.19907
# Velocity P-wave (km/s) = 6.41155 7.67895 7.07369
#
# Compressibility (1/GPa) = 0.01716863
#
# Stress axis : x y z
#
# Youngs Moduli (GPa) = 75.87682 90.97050 99.05141
#
# Poissons Ratio (x) = 0.24343 0.40694
# Poissons Ratio (y) = 0.20304 0.17484
# Poissons Ratio (z) = 0.31173 0.16058
#
# Static dielectric constant tensor:
#      x y z
#    x -2.008120 1.167960 1.692940 
#    y 1.167960 1.932670 -0.387090 
#    z 1.692940 -0.387090 1.625150 
# 
# From -- ./inp_files/608143.got.cif
#   From: 2010.05.17/outbox.cif.g08.bks.cpg/sg2_305_cif.got.tgz:608143.got - 2010.06.03 11:33:40.
