data_PCOD9055141
_publ_section_title
;
Structure prediction by ZEFSAII (Michael W. Deem and Ramdas Pophale) SiO2 
 PCOD9055141
Probable space group: P -1
;
_chemical_formula_sum "Si O2"
_cell_formula_units_Z 12
_cell_length_a 10.056050
_cell_length_b 11.535620
_cell_length_c 10.886103
_cell_angle_alpha 107.621586
_cell_angle_beta 35.528286
_cell_angle_gamma 83.718296
_cell_volume 535.994379
_symmetry_space_group_name_H-M "P -1"
_symmetry_group_IT_number 2
_symmetry_cell_setting 'triclinic'
loop_
_space_group_symop_operation_xyz
x,y,z
-x,-y,-z
loop_
_atom_site_type_symbol
_atom_site_label
_atom_site_fract_x
_atom_site_fract_y
_atom_site_fract_z
Si Si1 0.976254 0.386846 0.562147
Si Si2 0.873036 0.022795 0.466116
Si Si3 0.670635 0.860427 0.427903
Si Si4 0.579121 0.181262 0.172976
Si Si5 0.683304 0.425806 0.214579
Si Si6 0.496825 0.631993 0.197487
O O1 0.299534 0.238246 0.318298
O O2 0.226473 0.510234 0.135502
O O3 0.000000 0.500000 0.500000
O O4 0.795784 0.344452 0.613984
O O5 0.581411 0.203688 0.722098
O O6 0.795489 0.911576 0.453614
O O7 0.000000 0.000000 0.500000
O O8 0.122458 0.973428 0.161690
O O9 0.470455 0.838954 0.654350
O O10 0.500000 0.000000 0.500000
O O11 0.956131 0.700316 0.097297
O O12 0.595817 0.322267 0.194786
O O13 0.500000 0.500000 0.500000
O O14 0.575198 0.571580 0.256696
#
# Coordination Sequence:
#
# PCOD9055141 Si02
#       6
#     2   2   2   2   2   2
#     4  11  21  40  68  96 130 168 213 272 334 379
#     4  11  26  44  68 101 137 172 219 272 331 393
#     4  11  27  47  67  96 135 178 221 270 332 397
#     4  11  24  45  68  94 135 173 218 273 329 394
#     4  11  26  44  67  96 131 174 223 273 324 388
#     4  11  24  40  67 100 131 166 222 275 321 393
#
# _framework density 22.388293999999998
#
# number of rings (size 3 to 8) (size 9 to 14) (size 15 to 20)
#    0.000    1.000    3.333    2.000    9.333    7.333 
#    0.000    0.000    0.000    0.000    0.000    0.000 
#    0.000    0.000    0.000    0.000    0.000    0.000 
#
# Total GULP energy -67133.865384 kJ/mol
# GULP energy per Si atom -5594.488782 kJ/mol
# Density = 2.233734 g / cm^3
# Si number density = 22.388294 Si / 1000 Ang^3
#
#
#
# Elastic Constant Matrix: (Units=GPa)
#
#
# Indices 1 2 3 4 5 6 
#
# 1 54.6379 4.2885 17.8633 -2.5249 14.8315 -14.3826
# 2 4.2885 70.0419 1.4289 -7.5856 10.0500 -24.6369
# 3 17.8633 1.4289 68.0589 3.8304 4.4048 -5.6485
# 4 -2.5249 -7.5856 3.8304 41.7584 1.3216 1.2330
# 5 14.8315 10.0500 4.4048 1.3216 28.5968 -0.9706
# 6 -14.3826 -24.6369 -5.6485 1.2330 -0.9706 46.1929
#
#
#
# Elastic Compliance Matrix: (Units=1/GPa)
#
#
# Indices 1 2 3 4 5 6 
#
# 1 0.026139 0.004110 -0.005439 0.002994 -0.013986 0.009292
# 2 0.004110 0.019755 -0.000180 0.003793 -0.008831 0.011507
# 3 -0.005439 -0.000180 0.016220 -0.001872 0.000481 0.000254
# 4 0.002994 0.003793 -0.001872 0.025047 -0.003688 0.001980
# 5 -0.013986 -0.008831 0.000481 -0.003688 0.045153 -0.007959
# 6 0.009292 0.011507 0.000254 0.001980 -0.007959 0.030490
#
#
# Mechanical properties :
#
#
# Convention : Reuss Voigt Hill
#
# Bulk Modulus (GPa) = 16.92211 26.65558 21.78884
# Shear Modulus (GPa) = 26.95126 34.58681 30.76903
#
# Velocity S-wave (km/s) = 3.47336 3.93474 3.71123
# Velocity P-wave (km/s) = 4.86421 5.70743 5.30261
#
# Compressibility (1/GPa) = 0.05909430
#
# Stress axis : x y z
#
# Youngs Moduli (GPa) = 38.25720 50.62095 61.65302
#
# Poissons Ratio (x) = -0.20805 0.33533
# Poissons Ratio (y) = -0.15724 0.01112
# Poissons Ratio (z) = 0.20808 0.00913
#
# Static dielectric constant tensor:
#      x y z
#    x 1.833990 0.044350 -0.017910 
#    y 0.044350 1.801020 0.010370 
#    z -0.017910 0.010370 1.778940 
# 
# From -- ./inp_files/428300.got.cif
#   From: 2010.05.17/outbox.cif.g08.bks.cpg/sg2_215_cif.got.tgz:428300.got - 2010.06.03 11:33:40.
