data_PCOD9055999
_publ_section_title
;
Structure prediction by ZEFSAII (Michael W. Deem and Ramdas Pophale) SiO2 
 PCOD9055999
Probable space group: P -1
;
_chemical_formula_sum "Si O2"
_cell_formula_units_Z 13
_cell_length_a 20.112478
_cell_length_b 17.312289
_cell_length_c 11.444226
_cell_angle_alpha 157.983577
_cell_angle_beta 30.190535
_cell_angle_gamma 158.351696
_cell_volume 550.969078
_symmetry_space_group_name_H-M "P -1"
_symmetry_group_IT_number 2
_symmetry_cell_setting 'triclinic'
loop_
_space_group_symop_operation_xyz
x,y,z
-x,-y,-z
loop_
_atom_site_type_symbol
_atom_site_label
_atom_site_fract_x
_atom_site_fract_y
_atom_site_fract_z
Si Si1 0.749253 0.779591 0.767863
Si Si2 0.817251 0.703797 0.810797
Si Si3 0.945117 0.313343 0.707729
Si Si4 0.414009 0.686031 0.172109
Si Si5 0.857238 0.795991 0.246892
Si Si6 0.366506 0.737389 0.916714
Si Si7 0.500000 0.500000 0.500000
O O1 0.754379 0.770544 0.888201
O O2 0.728294 0.531976 0.399675
O O3 0.566658 0.703407 0.903493
O O4 0.942213 0.062767 0.828997
O O5 0.661542 0.497268 0.851491
O O6 0.886334 0.559184 0.451538
O O7 0.000000 0.000000 0.000000
O O8 0.878791 0.019024 0.442532
O O9 0.787084 0.267263 0.815871
O O10 0.000000 0.500000 0.000000
O O11 0.500000 0.000000 0.500000
O O12 0.242991 0.491008 0.073664
O O13 0.721066 0.724438 0.452496
O O14 0.487020 0.733528 0.815583
O O15 0.500000 0.000000 0.000000
#
# Coordination Sequence:
#
# PCOD9055999 Si02
#       7
#     2   2   2   2   2   2   1
#     4  11  24  48  75 100 149 192 248 314 366 442
#     4  11  23  46  77 104 145 200 247 302 374 448
#     4  11  21  44  77 103 140 192 250 301 371 441
#     4  12  26  46  69 105 148 194 250 304 368 450
#     4  11  24  46  68 107 149 185 252 313 360 454
#     4  12  24  44  74 107 148 191 247 310 374 452
#     4  12  26  42  72 104 156 190 240 310 386 428
#
# _framework density 23.594791000000001
#
# number of rings (size 3 to 8) (size 9 to 14) (size 15 to 20)
#    0.000    0.615    9.231    0.462    0.000    4.923 
#    2.769    0.000    0.000    0.000    0.000    0.000 
#    0.000    0.000    0.000    0.000    0.000    0.000 
#
# Total GULP energy -72433.468856 kJ/mol
# GULP energy per Si atom -5571.805297 kJ/mol
# Density = 2.354109 g / cm^3
# Si number density = 23.594791 Si / 1000 Ang^3
#
#
#
# Elastic Constant Matrix: (Units=GPa)
#
#
# Indices 1 2 3 4 5 6 
#
# 1 79.4736 19.0389 -6.4805 10.4565 -5.0480 4.6340
# 2 19.0389 173.2346 15.4018 -4.2625 -1.3972 4.5128
# 3 -6.4805 15.4018 74.4226 16.8462 1.1126 8.2908
# 4 10.4565 -4.2625 16.8462 50.8436 10.5856 1.1333
# 5 -5.0480 -1.3972 1.1126 10.5856 40.2740 3.2540
# 6 4.6340 4.5128 8.2908 1.1333 3.2540 38.7748
#
#
#
# Elastic Compliance Matrix: (Units=1/GPa)
#
#
# Indices 1 2 3 4 5 6 
#
# 1 0.014184 -0.001844 0.002859 -0.004599 0.003022 -0.002211
# 2 -0.001844 0.006172 -0.001771 0.001563 -0.000368 -0.000134
# 3 0.002859 -0.001771 0.015835 -0.006278 0.001791 -0.003488
# 4 -0.004599 0.001563 -0.006278 0.024214 -0.006841 0.001576
# 5 0.003022 -0.000368 0.001791 -0.006841 0.027169 -0.002782
# 6 -0.002211 -0.000134 -0.003488 0.001576 -0.002782 0.027003
#
#
# Mechanical properties :
#
#
# Convention : Reuss Voigt Hill
#
# Bulk Modulus (GPa) = 28.83724 42.56124 35.69924
# Shear Modulus (GPa) = 39.16985 45.92320 42.54652
#
# Velocity S-wave (km/s) = 4.07886 4.41651 4.25104
# Velocity P-wave (km/s) = 5.86781 6.63965 6.26563
#
# Compressibility (1/GPa) = 0.03467739
#
# Stress axis : x y z
#
# Youngs Moduli (GPa) = 70.50375 162.03111 63.15026
#
# Poissons Ratio (x) = 0.29881 -0.18053
# Poissons Ratio (y) = 0.13002 0.11185
# Poissons Ratio (z) = -0.20156 0.28699
#
# Static dielectric constant tensor:
#      x y z
#    x 1.785470 -0.049850 -0.149460 
#    y -0.049850 1.823810 -0.033540 
#    z -0.149460 -0.033540 1.736500 
# 
# From -- ./inp_files/472538.got.cif
#   From: 2010.05.17/outbox.cif.g08.bks.cpg/sg2_237_cif.got.tgz:472538.got - 2010.06.03 11:33:40.
