data_PCOD9055381
_publ_section_title
;
Structure prediction by ZEFSAII (Michael W. Deem and Ramdas Pophale) SiO2 
 PCOD9055381
Probable space group: P -1
;
_chemical_formula_sum "Si O2"
_cell_formula_units_Z 16
_cell_length_a 9.440266
_cell_length_b 9.403403
_cell_length_c 24.890527
_cell_angle_alpha 136.654787
_cell_angle_beta 151.901255
_cell_angle_gamma 47.013918
_cell_volume 708.742647
_symmetry_space_group_name_H-M "P -1"
_symmetry_group_IT_number 2
_symmetry_cell_setting 'triclinic'
loop_
_space_group_symop_operation_xyz
x,y,z
-x,-y,-z
loop_
_atom_site_type_symbol
_atom_site_label
_atom_site_fract_x
_atom_site_fract_y
_atom_site_fract_z
Si Si1 0.781340 0.343946 0.071350
Si Si2 0.721359 0.947218 0.009537
Si Si3 0.707000 0.634925 0.371409
Si Si4 0.857355 0.385209 0.655303
Si Si5 0.621404 0.011792 0.715533
Si Si6 0.347351 0.305868 0.179897
Si Si7 0.199023 0.921585 0.647415
Si Si8 0.793448 0.622416 0.588972
O O1 0.674599 0.141129 0.006321
O O2 0.971646 0.452988 0.210033
O O3 0.013334 0.287836 0.085206
O O4 0.500000 0.500000 0.000000
O O5 0.071779 0.929341 0.139349
O O6 0.500000 0.000000 0.000000
O O7 0.653186 0.748454 0.898084
O O8 0.434673 0.538751 0.282942
O O9 0.942303 0.766381 0.515636
O O10 0.910588 0.426661 0.360947
O O11 0.564398 0.788470 0.319355
O O12 0.846200 0.448936 0.606153
O O13 0.500112 0.399494 0.551254
O O14 0.027926 0.155366 0.658435
O O15 0.406149 0.918890 0.661963
O O16 0.723918 0.840265 0.656830
O O17 0.576923 0.147519 0.247988
#
# Coordination Sequence:
#
# PCOD9055381 Si02
#       8
#     2   2   2   2   2   2   2   2
#     4  12  27  47  72 104 148 189 243 296 371 435
#     4  12  28  50  76 103 141 193 251 303 355 434
#     4  12  26  44  73 109 150 189 244 297 366 432
#     4  11  22  40  73 104 141 187 242 292 366 420
#     4  12  24  45  75 106 148 189 253 293 364 429
#     4  12  28  49  70 107 150 194 236 304 370 433
#     4  12  23  46  73 107 144 198 234 300 367 441
#     4  11  21  41  70 108 141 183 239 304 349 426
#
# _framework density 22.575188000000001
#
# number of rings (size 3 to 8) (size 9 to 14) (size 15 to 20)
#    0.000    0.250    5.000    4.875    3.500    0.500 
#    2.250    1.250    0.000    0.000    0.000    0.000 
#    0.000    0.000    0.000    0.000    0.000    0.000 
#
# Total GULP energy -89597.584139 kJ/mol
# GULP energy per Si atom -5599.849009 kJ/mol
# Density = 2.252381 g / cm^3
# Si number density = 22.575188 Si / 1000 Ang^3
#
#
#
# Elastic Constant Matrix: (Units=GPa)
#
#
# Indices 1 2 3 4 5 6 
#
# 1 75.1369 15.7505 7.8610 5.0961 3.3825 6.6006
# 2 15.7505 93.3994 30.4292 -16.5960 4.1569 -9.3136
# 3 7.8610 30.4292 122.2951 -8.1965 -6.6208 5.8085
# 4 5.0961 -16.5960 -8.1965 49.8330 0.4375 -1.9222
# 5 3.3825 4.1569 -6.6208 0.4375 33.8952 3.1726
# 6 6.6006 -9.3136 5.8085 -1.9222 3.1726 20.7209
#
#
#
# Elastic Compliance Matrix: (Units=1/GPa)
#
#
# Indices 1 2 3 4 5 6 
#
# 1 0.014884 -0.003711 0.000062 -0.003001 -0.000357 -0.006650
# 2 -0.003711 0.014520 -0.003666 0.005013 -0.003097 0.009675
# 3 0.000062 -0.003666 0.009466 0.000123 0.002733 -0.004728
# 4 -0.003001 0.005013 0.000123 0.022282 -0.001085 0.005408
# 5 -0.000357 -0.003097 0.002733 -0.001085 0.031113 -0.006909
# 6 -0.006650 0.009675 -0.004728 0.005408 -0.006909 0.057612
#
#
# Mechanical properties :
#
#
# Convention : Reuss Voigt Hill
#
# Bulk Modulus (GPa) = 41.25176 44.32366 42.78771
# Shear Modulus (GPa) = 28.97108 36.67587 32.82347
#
# Velocity S-wave (km/s) = 3.58622 4.03502 3.81722
# Velocity P-wave (km/s) = 5.95489 6.43311 6.19861
#
# Compressibility (1/GPa) = 0.02424139
#
# Stress axis : x y z
#
# Youngs Moduli (GPa) = 67.18510 68.87066 105.64338
#
# Poissons Ratio (x) = 0.25556 -0.00654
# Poissons Ratio (y) = 0.24931 0.38724
# Poissons Ratio (z) = -0.00416 0.25245
#
# Static dielectric constant tensor:
#      x y z
#    x 1.868400 -0.006050 0.018770 
#    y -0.006050 1.799980 0.039670 
#    z 0.018770 0.039670 1.838300 
# 
# From -- ./inp_files/447811.got.cif
#   From: 2010.05.17/outbox.cif.g08.bks.cpg/sg2_224_cif.got.tgz:447811.got - 2010.06.03 11:33:40.
