data_PCOD9055333
_publ_section_title
;
Structure prediction by ZEFSAII (Michael W. Deem and Ramdas Pophale) SiO2 
 PCOD9055333
Probable space group: P -1
;
_chemical_formula_sum "Si O2"
_cell_formula_units_Z 16
_cell_length_a 11.674807
_cell_length_b 8.994469
_cell_length_c 15.095963
_cell_angle_alpha 139.475097
_cell_angle_beta 56.806340
_cell_angle_gamma 104.805523
_cell_volume 823.500368
_symmetry_space_group_name_H-M "P -1"
_symmetry_group_IT_number 2
_symmetry_cell_setting 'triclinic'
loop_
_space_group_symop_operation_xyz
x,y,z
-x,-y,-z
loop_
_atom_site_type_symbol
_atom_site_label
_atom_site_fract_x
_atom_site_fract_y
_atom_site_fract_z
Si Si1 0.669689 0.043955 0.734773
Si Si2 0.389904 0.065767 0.958403
Si Si3 0.690690 0.260737 0.011716
Si Si4 0.922586 0.591008 0.435852
Si Si5 0.907962 0.815609 0.954046
Si Si6 0.857891 0.253629 0.459268
Si Si7 0.996405 0.752884 0.080020
Si Si8 0.593211 0.403380 0.763182
O O1 0.534176 0.969636 0.796712
O O2 0.621246 0.233142 0.760767
O O3 0.798100 0.811830 0.549574
O O4 0.721101 0.160783 0.853064
O O5 0.378771 0.913291 0.981199
O O6 0.250378 0.074200 0.964991
O O7 0.381710 0.341259 0.107236
O O8 0.570218 0.515717 0.166354
O O9 0.836778 0.252165 0.995683
O O10 0.855925 0.440041 0.464808
O O11 0.011051 0.408901 0.242712
O O12 0.032887 0.692643 0.490788
O O13 0.910174 0.756485 0.028294
O O14 0.000000 0.000000 0.000000
O O15 0.706644 0.292580 0.588567
O O16 0.919440 0.987321 0.275169
O O17 0.000000 0.500000 0.000000
#
# Coordination Sequence:
#
# PCOD9055333 Si02
#       8
#     2   2   2   2   2   2   2   2
#     4  11  24  38  65 100 130 166 220 276 320 374
#     4  11  21  41  68  93 130 173 218 268 320 386
#     4  11  21  43  65  95 128 176 219 262 328 383
#     4  11  22  41  71  94 130 164 231 265 313 384
#     4  12  24  44  66 100 129 174 215 265 325 394
#     4  11  22  43  66  99 124 175 219 270 314 388
#     4  12  28  42  68  96 140 171 211 266 339 388
#     4  11  24  38  65  98 133 165 220 274 321 375
#
# _framework density 19.429255999999999
#
# number of rings (size 3 to 8) (size 9 to 14) (size 15 to 20)
#    0.000    0.750    5.000    4.500    5.250    0.500 
#    0.000    2.500    0.000    0.000    0.000    0.000 
#    0.000    0.000    0.000    0.000    0.000    0.000 
#
# Total GULP energy -89350.750773 kJ/mol
# GULP energy per Si atom -5584.421923 kJ/mol
# Density = 1.938503 g / cm^3
# Si number density = 19.429256 Si / 1000 Ang^3
#
#
#
# Elastic Constant Matrix: (Units=GPa)
#
#
# Indices 1 2 3 4 5 6 
#
# 1 82.6267 -16.6813 35.5302 3.5963 -2.3013 -7.7053
# 2 -16.6813 -121.9842 70.8531 63.3121 55.9185 65.4286
# 3 35.5302 70.8531 85.2073 -16.6524 -12.1046 -33.9133
# 4 3.5963 63.3121 -16.6524 12.5726 -16.8158 -29.1921
# 5 -2.3013 55.9185 -12.1046 -16.8158 18.8592 -23.1935
# 6 -7.7053 65.4286 -33.9133 -29.1921 -23.1935 -3.6288
#
#
#
# Elastic Compliance Matrix: (Units=1/GPa)
#
#
# Indices 1 2 3 4 5 6 
#
# 1 0.015048 0.002099 -0.004190 0.001767 0.003660 0.007450
# 2 0.002099 0.007370 0.001518 0.007863 0.005540 0.015572
# 3 -0.004190 0.001518 0.010094 -0.003575 -0.004263 -0.002067
# 4 0.001767 0.007863 -0.003575 0.025192 -0.004664 -0.001408
# 5 0.003660 0.005540 -0.004263 -0.004664 0.026926 -0.002621
# 6 0.007450 0.015572 -0.002067 -0.001408 -0.002621 0.036772
#
#
# Mechanical properties :
#
#
# Convention : Reuss Voigt Hill
#
# Bulk Modulus (GPa) = 31.88122 25.02820 28.45471
# Shear Modulus (GPa) = 37.59298 2.63712 20.11505
#
# Velocity S-wave (km/s) = 4.40348 1.16629 3.22109
# Velocity P-wave (km/s) = 6.50374 3.83710 5.33957
#
# Compressibility (1/GPa) = 0.03136643
#
# Stress axis : x y z
#
# Youngs Moduli (GPa) = 66.45407 135.68745 99.06656
#
# Poissons Ratio (x) = -0.28486 0.41509
# Poissons Ratio (y) = -0.13951 -0.15036
# Poissons Ratio (z) = 0.27844 -0.20595
#
# Static dielectric constant tensor:
#      x y z
#    x 0.596700 0.349220 -0.220240 
#    y 0.349220 1.565090 0.049460 
#    z -0.220240 0.049460 1.626040 
# 
# From -- ./inp_files/271218.got.cif
#   From: 2010.05.17/outbox.cif.g08.bks.cpg/sg2_136_cif.got.tgz:271218.got - 2010.06.03 11:33:40.
