data_PCOD9055305
_publ_section_title
;
Structure prediction by ZEFSAII (Michael W. Deem and Ramdas Pophale) SiO2 
 PCOD9055305
Probable space group: P -1
;
_chemical_formula_sum "Si O2"
_cell_formula_units_Z 11
_cell_length_a 8.905804
_cell_length_b 12.200939
_cell_length_c 12.075232
_cell_angle_alpha 36.527524
_cell_angle_beta 51.793930
_cell_angle_gamma 36.473504
_cell_volume 462.821737
_symmetry_space_group_name_H-M "P -1"
_symmetry_group_IT_number 2
_symmetry_cell_setting 'triclinic'
loop_
_space_group_symop_operation_xyz
x,y,z
-x,-y,-z
loop_
_atom_site_type_symbol
_atom_site_label
_atom_site_fract_x
_atom_site_fract_y
_atom_site_fract_z
Si Si1 0.000000 0.500000 0.000000
Si Si2 0.256231 0.270158 0.429689
Si Si3 0.706620 0.495319 0.565866
Si Si4 0.528390 0.041101 0.825064
Si Si5 0.240785 0.578329 0.005150
Si Si6 0.168264 0.963134 0.053361
O O1 0.209711 0.202378 0.140358
O O2 0.213647 0.508545 0.953615
O O3 0.326382 0.365250 0.419824
O O4 0.177730 0.442334 0.220983
O O5 0.004154 0.320579 0.538945
O O6 0.500000 0.000000 0.500000
O O7 0.657246 0.313283 0.759583
O O8 0.538313 0.708508 0.378958
O O9 0.306923 0.053260 0.867054
O O10 0.500000 0.000000 0.000000
O O11 0.500000 0.500000 0.000000
O O12 0.017574 0.861931 0.904371
O O13 0.000000 0.000000 0.000000
#
# Coordination Sequence:
#
# PCOD9055305 Si02
#       6
#     1   2   2   2   2   2
#     4  12  26  46  72 104 148 196 244 310 370 432
#     4  11  21  41  67 107 144 184 244 303 364 437
#     4  11  23  41  72 104 140 193 244 302 371 438
#     4  12  25  48  68 100 150 188 241 310 371 434
#     4  12  24  44  74 108 147 196 248 304 371 446
#     4  12  22  44  73 104 141 189 246 300 367 445
#
# _framework density 23.767249
#
# number of rings (size 3 to 8) (size 9 to 14) (size 15 to 20)
#    0.000    0.364    5.455    4.364    0.000    0.727 
#    0.000    0.909    0.000    0.000    0.000    0.000 
#    0.000    0.000    0.000    0.000    0.000    0.000 
#
# Total GULP energy -61255.943662 kJ/mol
# GULP energy per Si atom -5568.722151 kJ/mol
# Density = 2.371315 g / cm^3
# Si number density = 23.767249 Si / 1000 Ang^3
#
#
#
# Elastic Constant Matrix: (Units=GPa)
#
#
# Indices 1 2 3 4 5 6 
#
# 1 101.5723 23.0784 -6.2885 -4.7220 -3.5577 -0.5773
# 2 23.0784 154.9015 47.7847 -36.1659 -0.6941 1.3384
# 3 -6.2885 47.7847 144.0299 -37.0932 -1.9263 5.3975
# 4 -4.7220 -36.1659 -37.0932 42.3797 -3.3989 -5.2359
# 5 -3.5577 -0.6941 -1.9263 -3.3989 27.7308 -5.0045
# 6 -0.5773 1.3384 5.3975 -5.2359 -5.0045 29.3607
#
#
#
# Elastic Compliance Matrix: (Units=1/GPa)
#
#
# Indices 1 2 3 4 5 6 
#
# 1 0.010419 -0.001708 0.001287 0.001019 0.001599 0.000500
# 2 -0.001708 0.008553 -0.001367 0.006111 0.000840 0.001061
# 3 0.001287 -0.001367 0.009355 0.007292 0.001666 -0.000048
# 4 0.001019 0.006111 0.007292 0.036559 0.006355 0.006003
# 5 0.001599 0.000840 0.001666 0.006355 0.038514 0.007385
# 6 0.000500 0.001061 -0.000048 0.006003 0.007385 0.036359
#
#
# Mechanical properties :
#
#
# Convention : Reuss Voigt Hill
#
# Bulk Modulus (GPa) = 40.40389 58.85033 49.62711
# Shear Modulus (GPa) = 32.98444 42.28952 37.63698
#
# Velocity S-wave (km/s) = 3.72937 4.22277 3.98372
# Velocity P-wave (km/s) = 5.96498 6.97070 6.48736
#
# Compressibility (1/GPa) = 0.02475009
#
# Stress axis : x y z
#
# Youngs Moduli (GPa) = 95.97583 116.91405 106.89594
#
# Poissons Ratio (x) = 0.19975 -0.13756
# Poissons Ratio (y) = 0.16397 0.14614
# Poissons Ratio (z) = -0.12351 0.15983
#
# Static dielectric constant tensor:
#      x y z
#    x 2.025230 0.037010 0.044400 
#    y 0.037010 1.892350 -0.000100 
#    z 0.044400 -0.000100 1.877300 
# 
# From -- ./inp_files/153699.got.cif
#   From: 2010.05.17/outbox.cif.g08.bks.cpg/sg2_77_cif.got.tgz:153699.got - 2010.06.03 11:33:40.
