data_PCOD9055689
_publ_section_title
;
Structure prediction by ZEFSAII (Michael W. Deem and Ramdas Pophale) SiO2 
 PCOD9055689
Probable space group: P -1
;
_chemical_formula_sum "Si O2"
_cell_formula_units_Z 16
_cell_length_a 15.668745
_cell_length_b 11.945122
_cell_length_c 10.828576
_cell_angle_alpha 59.742678
_cell_angle_beta 78.267951
_cell_angle_gamma 27.251093
_cell_volume 629.887477
_symmetry_space_group_name_H-M "P -1"
_symmetry_group_IT_number 2
_symmetry_cell_setting 'triclinic'
loop_
_space_group_symop_operation_xyz
x,y,z
-x,-y,-z
loop_
_atom_site_type_symbol
_atom_site_label
_atom_site_fract_x
_atom_site_fract_y
_atom_site_fract_z
Si Si1 0.834558 0.918207 0.545894
Si Si2 0.769565 0.259966 0.488624
Si Si3 0.256028 0.258492 0.950216
Si Si4 0.787198 0.650407 0.456947
Si Si5 0.608163 0.124153 0.082487
Si Si6 0.055827 0.866570 0.864557
Si Si7 0.973801 0.824442 0.154242
Si Si8 0.415618 0.951299 0.314426
O O1 0.040848 0.635588 0.746397
O O2 0.978571 0.709608 0.492841
O O3 0.691717 0.245901 0.436388
O O4 0.682708 0.002279 0.574286
O O5 0.568949 0.644078 0.352066
O O6 0.000000 0.000000 0.500000
O O7 0.864171 0.100276 0.687117
O O8 0.274037 0.107892 0.941318
O O9 0.500000 0.000000 0.000000
O O10 0.227575 0.269347 0.096667
O O11 0.584093 0.831163 0.378036
O O12 0.859105 0.519244 0.648290
O O13 0.695683 0.916089 0.289810
O O14 0.712642 0.123056 0.064325
O O15 0.326709 0.501046 0.942535
O O16 0.002325 0.082639 0.817340
O O17 0.043051 0.779649 0.025198
#
# Coordination Sequence:
#
# PCOD9055689 Si02
#       8
#     2   2   2   2   2   2   2   2
#     4  11  24  39  68 100 129 172 215 266 333 399
#     4  12  22  44  67  95 139 172 214 274 333 388
#     4  11  21  43  65  98 138 165 209 273 336 387
#     4  11  24  46  65  99 136 171 215 279 327 387
#     4  11  24  41  72  95 128 178 220 266 332 393
#     4  11  25  44  67  96 132 175 220 275 325 383
#     4  11  25  47  65  94 134 173 229 268 319 392
#     4  12  23  40  65  97 135 169 215 268 329 391
#
# _framework density 25.401361999999999
#
# number of rings (size 3 to 8) (size 9 to 14) (size 15 to 20)
#    0.000    0.750    5.000    3.000    1.750    3.500 
#    4.500    0.000    0.000    0.000    0.000    0.000 
#    0.000    0.000    0.000    0.000    0.000    0.000 
#
# Total GULP energy -89733.518072 kJ/mol
# GULP energy per Si atom -5608.344880 kJ/mol
# Density = 2.534355 g / cm^3
# Si number density = 25.401362 Si / 1000 Ang^3
#
#
#
# Elastic Constant Matrix: (Units=GPa)
#
#
# Indices 1 2 3 4 5 6 
#
# 1 126.7896 36.9959 1.8833 9.6733 -2.0199 -19.0676
# 2 36.9959 71.8876 5.9400 1.9512 -11.7027 -13.4671
# 3 1.8833 5.9400 83.9743 17.2141 -0.8058 -5.3040
# 4 9.6733 1.9512 17.2141 37.9353 -7.1549 -11.0489
# 5 -2.0199 -11.7027 -0.8058 -7.1549 21.8296 -0.1845
# 6 -19.0676 -13.4671 -5.3040 -11.0489 -0.1845 45.9773
#
#
#
# Elastic Compliance Matrix: (Units=1/GPa)
#
#
# Indices 1 2 3 4 5 6 
#
# 1 0.009816 -0.005079 0.000751 -0.002467 -0.002578 0.002067
# 2 -0.005079 0.019223 -0.001788 0.004546 0.011297 0.004456
# 3 0.000751 -0.001788 0.013356 -0.006740 -0.002608 -0.000302
# 4 -0.002467 0.004546 -0.006740 0.034642 0.013381 0.007910
# 5 -0.002578 0.011297 -0.002608 0.013381 0.055962 0.005379
# 6 0.002067 0.004456 -0.000302 0.007910 0.005379 0.025800
#
#
# Mechanical properties :
#
#
# Convention : Reuss Voigt Hill
#
# Bulk Modulus (GPa) = 33.15548 41.36555 37.26052
# Shear Modulus (GPa) = 27.61152 37.00394 32.30773
#
# Velocity S-wave (km/s) = 3.30056 3.82091 3.57023
# Velocity P-wave (km/s) = 5.25413 5.98213 5.62991
#
# Compressibility (1/GPa) = 0.03016093
#
# Stress axis : x y z
#
# Youngs Moduli (GPa) = 101.87556 52.02209 74.87545
#
# Poissons Ratio (x) = 0.26423 -0.05620
# Poissons Ratio (y) = 0.51745 0.13387
# Poissons Ratio (z) = -0.07647 0.09301
#
# Static dielectric constant tensor:
#      x y z
#    x 2.014740 0.029940 -0.049440 
#    y 0.029940 1.994990 -0.027190 
#    z -0.049440 -0.027190 2.020360 
# 
# From -- ./inp_files/433964.got.cif
#   From: 2010.05.17/outbox.cif.g08.bks.cpg/sg2_217_cif.got.tgz:433964.got - 2010.06.03 11:33:40.
