data_PCOD9055513
_publ_section_title
;
Structure prediction by ZEFSAII (Michael W. Deem and Ramdas Pophale) SiO2 
 PCOD9055513
Probable space group: P -1
;
_chemical_formula_sum "Si O2"
_cell_formula_units_Z 14
_cell_length_a 4.841766
_cell_length_b 7.630818
_cell_length_c 28.487515
_cell_angle_alpha 36.420822
_cell_angle_beta 73.250813
_cell_angle_gamma 92.746011
_cell_volume 520.894493
_symmetry_space_group_name_H-M "P -1"
_symmetry_group_IT_number 2
_symmetry_cell_setting 'triclinic'
loop_
_space_group_symop_operation_xyz
x,y,z
-x,-y,-z
loop_
_atom_site_type_symbol
_atom_site_label
_atom_site_fract_x
_atom_site_fract_y
_atom_site_fract_z
Si Si1 0.620048 0.394392 0.470136
Si Si2 0.374353 0.649617 0.857368
Si Si3 0.651081 0.675739 0.309312
Si Si4 0.382801 0.743484 0.016408
Si Si5 0.088722 0.036661 0.421403
Si Si6 0.436113 0.576702 0.764494
Si Si7 0.952383 0.195776 0.823255
O O1 0.500000 0.500000 0.500000
O O2 0.712615 0.644305 0.367751
O O3 0.894754 0.295171 0.491785
O O4 0.288040 0.053539 0.543089
O O5 0.597103 0.585633 0.896693
O O6 0.440106 0.546062 0.825207
O O7 0.997979 0.386536 0.947317
O O8 0.399674 0.006711 0.767981
O O9 0.328185 0.340942 0.378025
O O10 0.962187 0.722318 0.252304
O O11 0.500000 0.000000 0.000000
O O12 0.634238 0.915798 0.924130
O O13 0.261457 0.142801 0.338982
O O14 0.909263 0.444474 0.232479
O O15 0.292202 0.209050 0.824803
#
# Coordination Sequence:
#
# PCOD9055513 Si02
#       7
#     2   2   2   2   2   2   2
#     4  12  26  48  76 106 141 189 246 294 348 437
#     4  12  25  41  72 103 143 186 244 301 346 429
#     4  11  28  47  71 112 151 189 236 299 378 423
#     4  12  23  43  71 103 138 191 249 293 355 419
#     4  11  25  46  74 103 148 191 231 295 365 429
#     4  11  21  42  68 103 135 188 241 290 347 423
#     4  11  24  42  68  98 144 186 236 296 359 424
#
# _framework density 26.876847999999999
#
# number of rings (size 3 to 8) (size 9 to 14) (size 15 to 20)
#    0.000    0.571    2.857    5.143    0.000    9.143 
#    0.000    0.000    0.000    0.000    0.000    0.000 
#    0.000    0.000    0.000    0.000    0.000    0.000 
#
# Total GULP energy -78229.014338 kJ/mol
# GULP energy per Si atom -5587.786738 kJ/mol
# Density = 2.681567 g / cm^3
# Si number density = 26.876848 Si / 1000 Ang^3
#
#
#
# Elastic Constant Matrix: (Units=GPa)
#
#
# Indices 1 2 3 4 5 6 
#
# 1 76.7262 25.9459 31.3629 7.0023 1.2762 -10.9594
# 2 25.9459 73.1789 65.8956 35.3856 0.4279 -1.4926
# 3 31.3629 65.8956 152.1991 42.7356 5.5611 -13.8996
# 4 7.0023 35.3856 42.7356 62.7306 -6.7804 -5.7015
# 5 1.2762 0.4279 5.5611 -6.7804 44.4329 -2.0850
# 6 -10.9594 -1.4926 -13.8996 -5.7015 -2.0850 27.5337
#
#
#
# Elastic Compliance Matrix: (Units=1/GPa)
#
#
# Indices 1 2 3 4 5 6 
#
# 1 0.016117 -0.006186 -0.000910 0.002928 0.000451 0.006261
# 2 -0.006186 0.028692 -0.008950 -0.010184 -0.000889 -0.007601
# 3 -0.000910 -0.008950 0.011853 -0.002689 -0.001572 0.004460
# 4 0.002928 -0.010184 -0.002689 0.024063 0.004237 0.004559
# 5 0.000451 -0.000889 -0.001572 0.004237 0.023438 0.001990
# 6 0.006261 -0.007601 0.004460 0.004559 0.001990 0.041746
#
#
# Mechanical properties :
#
#
# Convention : Reuss Voigt Hill
#
# Bulk Modulus (GPa) = 40.69885 60.94590 50.82238
# Shear Modulus (GPa) = 26.85439 38.86608 32.86023
#
# Velocity S-wave (km/s) = 3.16439 3.80686 3.50039
# Velocity P-wave (km/s) = 5.34104 6.48445 5.94032
#
# Compressibility (1/GPa) = 0.02457072
#
# Stress axis : x y z
#
# Youngs Moduli (GPa) = 62.04796 34.85265 84.37002
#
# Poissons Ratio (x) = 0.21559 0.07675
# Poissons Ratio (y) = 0.38381 0.75510
# Poissons Ratio (z) = 0.05645 0.31193
#
# Static dielectric constant tensor:
#      x y z
#    x 2.020220 -0.022180 0.011630 
#    y -0.022180 2.165190 -0.048650 
#    z 0.011630 -0.048650 2.056490 
# 
# From -- ./inp_files/621710.got.cif
#   From: 2010.05.17/outbox.cif.g08.bks.cpg/sg2_311_cif.got.tgz:621710.got - 2010.06.03 11:33:40.
