data_PCOD9055766
_publ_section_title
;
Structure prediction by ZEFSAII (Michael W. Deem and Ramdas Pophale) SiO2 
 PCOD9055766
Probable space group: P -1
;
_chemical_formula_sum "Si O2"
_cell_formula_units_Z 14
_cell_length_a 6.444910
_cell_length_b 15.043720
_cell_length_c 7.605780
_cell_angle_alpha 82.994539
_cell_angle_beta 98.273879
_cell_angle_gamma 56.730730
_cell_volume 591.881737
_symmetry_space_group_name_H-M "P -1"
_symmetry_group_IT_number 2
_symmetry_cell_setting 'triclinic'
loop_
_space_group_symop_operation_xyz
x,y,z
-x,-y,-z
loop_
_atom_site_type_symbol
_atom_site_label
_atom_site_fract_x
_atom_site_fract_y
_atom_site_fract_z
Si Si1 0.068161 0.380463 0.077219
Si Si2 0.131020 0.557458 0.581096
Si Si3 0.824218 0.175555 0.622944
Si Si4 0.877389 0.975281 0.833867
Si Si5 0.279310 0.633513 0.241048
Si Si6 0.403382 0.001831 0.683163
Si Si7 0.633287 0.202235 0.229081
O O1 0.368511 0.296467 0.088322
O O2 0.024302 0.373349 0.281627
O O3 0.000000 0.500000 0.000000
O O4 0.884002 0.363337 0.942134
O O5 0.157476 0.619791 0.407239
O O6 0.422457 0.467284 0.703479
O O7 0.000000 0.500000 0.500000
O O8 0.800335 0.074828 0.669326
O O9 0.735665 0.256582 0.755341
O O10 0.663566 0.239365 0.415098
O O11 0.127172 0.113942 0.648261
O O12 0.620409 0.986721 0.840550
O O13 0.090934 0.855457 0.814824
O O14 0.000000 0.000000 0.000000
O O15 0.383014 0.901162 0.731034
O O16 0.500000 0.000000 0.500000
#
# Coordination Sequence:
#
# PCOD9055766 Si02
#       7
#     2   2   2   2   2   2   2
#     4  12  27  48  72 102 144 184 238 295 347 417
#     4  11  24  49  73  96 139 184 235 295 352 407
#     4  11  24  43  69 102 137 174 234 278 343 426
#     4  11  25  42  68 102 142 177 225 284 343 418
#     4  11  27  45  72 105 135 186 235 290 354 414
#     4  11  21  43  70  97 133 183 220 276 346 408
#     4  11  25  44  67 102 136 182 233 279 342 417
#
# _framework density 23.653375
#
# number of rings (size 3 to 8) (size 9 to 14) (size 15 to 20)
#    0.000    0.857    4.286    2.143    8.000    3.429 
#    0.000    0.000    0.000    0.000    0.000    0.000 
#    0.000    0.000    0.000    0.000    0.000    0.000 
#
# Total GULP energy -78386.807829 kJ/mol
# GULP energy per Si atom -5599.057702 kJ/mol
# Density = 2.359954 g / cm^3
# Si number density = 23.653375 Si / 1000 Ang^3
#
#
#
# Elastic Constant Matrix: (Units=GPa)
#
#
# Indices 1 2 3 4 5 6 
#
# 1 97.7873 12.9533 32.3776 2.3071 24.3123 -9.5032
# 2 12.9533 90.9921 19.8095 -3.6675 15.9910 -8.7285
# 3 32.3776 19.8095 115.4430 17.1952 34.9324 -2.5049
# 4 2.3071 -3.6675 17.1952 39.4501 3.0100 5.5607
# 5 24.3123 15.9910 34.9324 3.0100 59.0829 5.1271
# 6 -9.5032 -8.7285 -2.5049 5.5607 5.1271 27.2093
#
#
#
# Elastic Compliance Matrix: (Units=1/GPa)
#
#
# Indices 1 2 3 4 5 6 
#
# 1 0.012480 -0.000103 -0.002030 -0.000229 -0.004330 0.005002
# 2 -0.000103 0.012245 -0.001304 0.001366 -0.002921 0.004043
# 3 -0.002030 -0.001304 0.012031 -0.005100 -0.005850 0.002125
# 4 -0.000229 0.001366 -0.005100 0.028456 0.001835 -0.006273
# 5 -0.004330 -0.002921 -0.005850 0.001835 0.023540 -0.007798
# 6 0.005002 0.004043 0.002125 -0.006273 -0.007798 0.042743
#
#
# Mechanical properties :
#
#
# Convention : Reuss Voigt Hill
#
# Bulk Modulus (GPa) = 33.46479 48.27813 40.87146
# Shear Modulus (GPa) = 33.70890 41.08726 37.39808
#
# Velocity S-wave (km/s) = 3.77917 4.17232 3.98060
# Velocity P-wave (km/s) = 5.76382 6.60803 6.20031
#
# Compressibility (1/GPa) = 0.02988216
#
# Stress axis : x y z
#
# Youngs Moduli (GPa) = 80.12859 81.66740 83.11800
#
# Poissons Ratio (x) = 0.00844 0.16869
# Poissons Ratio (y) = 0.00828 0.10838
# Poissons Ratio (z) = 0.16263 0.10649
#
# Static dielectric constant tensor:
#      x y z
#    x 1.915360 -0.004540 -0.030690 
#    y -0.004540 1.871360 -0.028050 
#    z -0.030690 -0.028050 1.982080 
# 
# From -- ./inp_files/107449.got.cif
#   From: 2010.05.17/outbox.cif.g08.bks.cpg/sg2_54_cif.got.tgz:107449.got - 2010.06.03 11:33:40.
