data_PCOD9055234
_publ_section_title
;
Structure prediction by ZEFSAII (Michael W. Deem and Ramdas Pophale) SiO2 
 PCOD9055234
Probable space group: P -1
;
_chemical_formula_sum "Si O2"
_cell_formula_units_Z 12
_cell_length_a 16.873395
_cell_length_b 8.028249
_cell_length_c 19.456981
_cell_angle_alpha 37.260712
_cell_angle_beta 161.432377
_cell_angle_gamma 140.070851
_cell_volume 507.084543
_symmetry_space_group_name_H-M "P -1"
_symmetry_group_IT_number 2
_symmetry_cell_setting 'triclinic'
loop_
_space_group_symop_operation_xyz
x,y,z
-x,-y,-z
loop_
_atom_site_type_symbol
_atom_site_label
_atom_site_fract_x
_atom_site_fract_y
_atom_site_fract_z
Si Si1 0.772519 0.142500 0.989068
Si Si2 0.044160 0.547842 0.166422
Si Si3 0.522205 0.149378 0.041581
Si Si4 0.490195 0.783716 0.777521
Si Si5 0.764013 0.858533 0.446969
Si Si6 0.602059 0.959466 0.672636
O O1 0.514030 0.302291 0.726441
O O2 0.738718 0.969068 0.948074
O O3 0.001242 0.348433 0.130682
O O4 0.706743 0.932461 0.067341
O O5 0.044836 0.350223 0.299351
O O6 0.291091 0.745750 0.307243
O O7 0.822164 0.749928 0.920138
O O8 0.533711 0.472953 0.933700
O O9 0.500000 0.000000 0.000000
O O10 0.751634 0.021061 0.312344
O O11 0.273566 0.904406 0.605325
O O12 0.427434 0.828319 0.632026
O O13 0.500000 0.000000 0.500000
#
# Coordination Sequence:
#
# PCOD9055234 Si02
#       6
#     2   2   2   2   2   2
#     4   8  19  37  61  84 121 147 194 243 292 345
#     4  11  21  41  60  89 117 154 205 241 293 344
#     4   9  17  35  67  86 119 159 184 240 307 350
#     4   9  20  41  60  86 119 161 192 238 302 344
#     4   8  20  38  62  87 117 153 197 242 291 350
#     4  11  25  40  60  84 125 158 195 248 290 352
#
# _framework density 23.664691999999999
#
# number of rings (size 3 to 8) (size 9 to 14) (size 15 to 20)
#    2.000    0.333    0.000    4.000    2.333    1.333 
#    6.000    6.667    0.000    0.000    0.000    0.000 
#    0.000    0.000    0.000    0.000    0.000    0.000 
#
# Total GULP energy -66829.699721 kJ/mol
# GULP energy per Si atom -5569.141643 kJ/mol
# Density = 2.361083 g / cm^3
# Si number density = 23.664692 Si / 1000 Ang^3
#
#
#
# Elastic Constant Matrix: (Units=GPa)
#
#
# Indices 1 2 3 4 5 6 
#
# 1 112.8578 34.7888 45.6171 0.6587 -36.5368 -23.7797
# 2 34.7888 139.4422 51.8814 -8.8790 -10.1157 -22.8208
# 3 45.6171 51.8814 183.5883 -26.3500 -48.3103 -1.0735
# 4 0.6587 -8.8790 -26.3500 32.2789 3.3171 -4.7506
# 5 -36.5368 -10.1157 -48.3103 3.3171 47.6289 5.3539
# 6 -23.7797 -22.8208 -1.0735 -4.7506 5.3539 21.4574
#
#
#
# Elastic Compliance Matrix: (Units=1/GPa)
#
#
# Indices 1 2 3 4 5 6 
#
# 1 0.015382 -0.000363 -0.001387 -0.000332 0.008727 0.014341
# 2 -0.000363 0.010263 -0.003141 0.002246 -0.002737 0.011536
# 3 -0.001387 -0.003141 0.009576 0.005365 0.008199 -0.005256
# 4 -0.000332 0.002246 0.005365 0.037265 0.001939 0.010055
# 5 0.008727 -0.002737 0.008199 0.001939 0.035430 -0.001240
# 6 0.014341 0.011536 -0.005256 0.010055 -0.001240 0.077039
#
#
# Mechanical properties :
#
#
# Convention : Reuss Voigt Hill
#
# Bulk Modulus (GPa) = 39.30732 77.82921 58.56826
# Shear Modulus (GPa) = 24.60448 40.51310 32.55879
#
# Velocity S-wave (km/s) = 3.22796 4.14208 3.71325
# Velocity P-wave (km/s) = 5.52622 7.47231 6.57170
#
# Compressibility (1/GPa) = 0.02544056
#
# Stress axis : x y z
#
# Youngs Moduli (GPa) = 65.01106 97.43900 104.42712
#
# Poissons Ratio (x) = 0.03534 0.14483
# Poissons Ratio (y) = 0.02358 0.32797
# Poissons Ratio (z) = 0.09016 0.30602
#
# Static dielectric constant tensor:
#      x y z
#    x 1.968860 0.050200 0.012140 
#    y 0.050200 1.948060 0.064550 
#    z 0.012140 0.064550 1.915640 
# 
# From -- ./inp_files/600952.got.cif
#   From: 2010.05.17/outbox.cif.g08.bks.cpg/sg2_301_cif.got.tgz:600952.got - 2010.06.03 11:33:40.
