data_PCOD9055436
_publ_section_title
;
Structure prediction by ZEFSAII (Michael W. Deem and Ramdas Pophale) SiO2 
 PCOD9055436
Probable space group: P -1
;
_chemical_formula_sum "Si O2"
_cell_formula_units_Z 16
_cell_length_a 11.568487
_cell_length_b 8.177339
_cell_length_c 8.200640
_cell_angle_alpha 87.815816
_cell_angle_beta 82.219204
_cell_angle_gamma 56.192740
_cell_volume 638.015507
_symmetry_space_group_name_H-M "P -1"
_symmetry_group_IT_number 2
_symmetry_cell_setting 'triclinic'
loop_
_space_group_symop_operation_xyz
x,y,z
-x,-y,-z
loop_
_atom_site_type_symbol
_atom_site_label
_atom_site_fract_x
_atom_site_fract_y
_atom_site_fract_z
Si Si1 0.269655 0.162121 0.745144
Si Si2 0.555091 0.772518 0.061075
Si Si3 0.456757 0.749441 0.729131
Si Si4 0.747854 0.955619 0.730991
Si Si5 0.258921 0.671960 0.946942
Si Si6 0.036667 0.276457 0.007743
Si Si7 0.716838 0.334385 0.669313
Si Si8 0.160274 0.429266 0.470175
O O1 0.338804 0.172036 0.899659
O O2 0.227707 0.348851 0.637114
O O3 0.388805 0.957833 0.644373
O O4 0.126171 0.186785 0.827842
O O5 0.407254 0.912379 0.169396
O O6 0.628442 0.551998 0.114845
O O7 0.537042 0.757699 0.873060
O O8 0.316462 0.775421 0.826721
O O9 0.566387 0.534632 0.641898
O O10 0.757418 0.118098 0.617493
O O11 0.867484 0.852327 0.852602
O O12 0.765466 0.769714 0.642921
O O13 0.103641 0.722017 0.957354
O O14 0.281791 0.686092 0.133804
O O15 0.000000 0.500000 0.000000
O O16 0.821109 0.400077 0.598635
O O17 0.000000 0.500000 0.500000
#
# Coordination Sequence:
#
# PCOD9055436 Si02
#       8
#     2   2   2   2   2   2   2   2
#     4  12  25  43  70 104 145 195 238 293 368 423
#     4  11  21  42  72 107 139 179 241 298 357 425
#     4  11  22  42  74 112 141 176 240 317 358 416
#     4  12  25  47  77 103 142 196 244 292 371 422
#     4  11  21  41  73 109 145 172 239 309 359 412
#     4  12  24  41  72 113 139 187 242 301 359 431
#     4  11  23  46  74 101 144 192 239 296 359 429
#     4  12  30  50  66 103 155 195 240 293 358 440
#
# _framework density 25.077760000000001
#
# number of rings (size 3 to 8) (size 9 to 14) (size 15 to 20)
#    0.000    0.500    5.000    4.125    1.750    5.500 
#    2.250    1.250    0.000    0.000    0.000    0.000 
#    0.000    0.000    0.000    0.000    0.000    0.000 
#
# Total GULP energy -89469.228685 kJ/mol
# GULP energy per Si atom -5591.826793 kJ/mol
# Density = 2.502068 g / cm^3
# Si number density = 25.077760 Si / 1000 Ang^3
#
#
#
# Elastic Constant Matrix: (Units=GPa)
#
#
# Indices 1 2 3 4 5 6 
#
# 1 147.1032 34.9699 31.7353 -0.3590 -19.2075 -8.4116
# 2 34.9699 148.3628 21.8115 -15.0720 -8.6101 -2.2767
# 3 31.7353 21.8115 39.0208 -1.7231 -0.4362 3.4682
# 4 -0.3590 -15.0720 -1.7231 29.4989 7.3412 -10.1923
# 5 -19.2075 -8.6101 -0.4362 7.3412 43.8999 -4.7890
# 6 -8.4116 -2.2767 3.4682 -10.1923 -4.7890 43.8946
#
#
#
# Elastic Compliance Matrix: (Units=1/GPa)
#
#
# Indices 1 2 3 4 5 6 
#
# 1 0.009281 -0.000935 -0.007246 -0.000966 0.004244 0.002541
# 2 -0.000935 0.007988 -0.003650 0.004256 0.000581 0.001575
# 3 -0.007246 -0.003650 0.033918 -0.000658 -0.003968 -0.004843
# 4 -0.000966 0.004256 -0.000658 0.040436 -0.005387 0.008889
# 5 0.004244 0.000581 -0.003968 -0.005387 0.025909 0.002733
# 6 0.002541 0.001575 -0.004843 0.008889 0.002733 0.026095
#
#
# Mechanical properties :
#
#
# Convention : Reuss Voigt Hill
#
# Bulk Modulus (GPa) = 36.33233 56.83556 46.58395
# Shear Modulus (GPa) = 28.33444 39.85667 34.09555
#
# Velocity S-wave (km/s) = 3.36499 3.99096 3.69127
# Velocity P-wave (km/s) = 5.44214 6.62947 6.06493
#
# Compressibility (1/GPa) = 0.02752369
#
# Stress axis : x y z
#
# Youngs Moduli (GPa) = 107.75180 125.19559 29.48290
#
# Poissons Ratio (x) = 0.11706 0.21364
# Poissons Ratio (y) = 0.10075 0.10761
# Poissons Ratio (z) = 0.78080 0.45695
#
# Static dielectric constant tensor:
#      x y z
#    x 1.999940 0.061110 0.012850 
#    y 0.061110 2.047360 0.032630 
#    z 0.012850 0.032630 2.012250 
# 
# From -- ./inp_files/243512.got.cif
#   From: 2010.05.17/outbox.cif.g08.bks.cpg/sg2_122_cif.got.tgz:243512.got - 2010.06.03 11:33:40.
