data_PCOD9055002
_publ_section_title
;
Structure prediction by ZEFSAII (Michael W. Deem and Ramdas Pophale) SiO2 
 PCOD9055002
Probable space group: P -1
;
_chemical_formula_sum "Si O2"
_cell_formula_units_Z 16
_cell_length_a 24.057092
_cell_length_b 15.217424
_cell_length_c 9.504240
_cell_angle_alpha 134.406783
_cell_angle_beta 28.404711
_cell_angle_gamma 152.206935
_cell_volume 721.952123
_symmetry_space_group_name_H-M "P -1"
_symmetry_group_IT_number 2
_symmetry_cell_setting 'triclinic'
loop_
_space_group_symop_operation_xyz
x,y,z
-x,-y,-z
loop_
_atom_site_type_symbol
_atom_site_label
_atom_site_fract_x
_atom_site_fract_y
_atom_site_fract_z
Si Si1 0.228987 0.440199 0.382955
Si Si2 0.747980 0.552286 0.328140
Si Si3 0.127917 0.868724 0.365396
Si Si4 0.354554 0.923033 0.357086
Si Si5 0.050357 0.528313 0.256193
Si Si6 0.410841 0.395310 0.732832
Si Si7 0.125519 0.961130 0.791552
Si Si8 0.527940 0.122057 0.694022
O O1 0.244821 0.416651 0.485614
O O2 0.292063 0.636000 0.452335
O O3 0.022902 0.238948 0.545959
O O4 0.368654 0.479414 0.014442
O O5 0.554528 0.431936 0.546817
O O6 0.790600 0.442770 0.089335
O O7 0.922643 0.764821 0.096066
O O8 0.095998 0.699330 0.288104
O O9 0.109034 0.926747 0.620844
O O10 0.344024 0.057755 0.042152
O O11 0.279405 0.991306 0.545347
O O12 0.469914 0.969429 0.283667
O O13 0.151108 0.691810 0.593585
O O14 0.500000 0.000000 0.000000
O O15 0.000000 0.500000 0.500000
O O16 0.500000 0.500000 0.500000
O O17 0.214139 0.162681 0.870473
O O18 0.500000 0.000000 0.500000
#
# Coordination Sequence:
#
# PCOD9055002 Si02
#       8
#     2   2   2   2   2   2   2   2
#     4  12  29  48  70 107 151 192 236 293 363 426
#     4  11  27  48  72 105 145 189 240 298 359 427
#     4  12  24  43  71 105 148 184 233 298 354 429
#     4  11  22  39  68 103 142 180 234 292 351 418
#     4  11  21  39  70 105 143 178 229 293 360 416
#     4  12  29  49  78  99 141 193 249 301 348 425
#     4  11  26  44  73 107 133 190 246 292 355 420
#     4  12  27  42  69 108 148 189 231 289 366 435
#
# _framework density 22.162134999999999
#
# number of rings (size 3 to 8) (size 9 to 14) (size 15 to 20)
#    0.000    0.500    5.000    2.625    8.750    4.500 
#    0.000    0.000    0.000    0.000    0.000    0.000 
#    0.000    0.000    0.000    0.000    0.000    0.000 
#
# Total GULP energy -89324.646870 kJ/mol
# GULP energy per Si atom -5582.790429 kJ/mol
# Density = 2.211169 g / cm^3
# Si number density = 22.162135 Si / 1000 Ang^3
#
#
#
# Elastic Constant Matrix: (Units=GPa)
#
#
# Indices 1 2 3 4 5 6 
#
# 1 163.2373 20.4361 47.6984 10.8345 10.3610 36.0167
# 2 20.4361 102.4894 7.3189 10.6140 1.9123 18.6845
# 3 47.6984 7.3189 61.7718 16.9305 4.4748 20.7985
# 4 10.8345 10.6140 16.9305 33.6003 8.8261 4.4041
# 5 10.3610 1.9123 4.4748 8.8261 43.0149 2.4323
# 6 36.0167 18.6845 20.7985 4.4041 2.4323 24.1665
#
#
#
# Elastic Compliance Matrix: (Units=1/GPa)
#
#
# Indices 1 2 3 4 5 6 
#
# 1 0.009790 0.000415 -0.003712 0.000487 -0.001431 -0.011662
# 2 0.000415 0.012090 0.003501 -0.004259 0.000565 -0.012260
# 3 -0.003712 0.003501 0.028434 -0.012025 0.001356 -0.019591
# 4 0.000487 -0.004259 -0.012025 0.037928 -0.006838 0.006692
# 5 -0.001431 0.000565 0.001356 -0.006838 0.024870 -0.000728
# 6 -0.011662 -0.012260 -0.019591 0.006692 -0.000728 0.083953
#
#
# Mechanical properties :
#
#
# Convention : Reuss Voigt Hill
#
# Bulk Modulus (GPa) = 19.71508 53.15614 36.43561
# Shear Modulus (GPa) = 23.41206 36.95934 30.18570
#
# Velocity S-wave (km/s) = 3.25376 4.08815 3.69459
# Velocity P-wave (km/s) = 4.79907 6.80597 5.88864
#
# Compressibility (1/GPa) = 0.05072260
#
# Stress axis : x y z
#
# Youngs Moduli (GPa) = 102.14039 82.71366 35.16929
#
# Poissons Ratio (x) = -0.03435 0.13056
# Poissons Ratio (y) = -0.04242 -0.12313
# Poissons Ratio (z) = 0.37917 -0.28960
#
# Static dielectric constant tensor:
#      x y z
#    x 1.956320 0.122520 -0.135170 
#    y 0.122520 1.901570 -0.054870 
#    z -0.135170 -0.054870 1.897800 
# 
# From -- ./inp_files/354572.got.cif
#   From: 2010.05.17/outbox.cif.g08.bks.cpg/sg2_178_cif.got.tgz:354572.got - 2010.06.03 11:33:40.
