data_PCOD9055533
_publ_section_title
;
Structure prediction by ZEFSAII (Michael W. Deem and Ramdas Pophale) SiO2 
 PCOD9055533
Probable space group: P -1
;
_chemical_formula_sum "Si O2"
_cell_formula_units_Z 14
_cell_length_a 12.310190
_cell_length_b 7.209578
_cell_length_c 9.956468
_cell_angle_alpha 52.516540
_cell_angle_beta 92.500424
_cell_angle_gamma 66.588195
_cell_volume 591.986374
_symmetry_space_group_name_H-M "P -1"
_symmetry_group_IT_number 2
_symmetry_cell_setting 'triclinic'
loop_
_space_group_symop_operation_xyz
x,y,z
-x,-y,-z
loop_
_atom_site_type_symbol
_atom_site_label
_atom_site_fract_x
_atom_site_fract_y
_atom_site_fract_z
Si Si1 0.854546 0.134498 0.235766
Si Si2 0.776350 0.478195 0.855743
Si Si3 0.424736 0.577967 0.280420
Si Si4 0.338725 0.989045 0.575163
Si Si5 0.003887 0.666794 0.250220
Si Si6 0.612431 0.679435 0.349734
Si Si7 0.106545 0.665101 0.533338
O O1 0.767558 0.073879 0.352237
O O2 0.786577 0.437718 0.034574
O O3 0.888254 0.939569 0.191707
O O4 0.999821 0.990736 0.365778
O O5 0.692921 0.356917 0.848866
O O6 0.713131 0.777673 0.647868
O O7 0.922479 0.319382 0.878274
O O8 0.484744 0.766497 0.219424
O O9 0.383101 0.529575 0.444890
O O10 0.541810 0.287135 0.358383
O O11 0.384939 0.087746 0.664106
O O12 0.106354 0.558250 0.427613
O O13 0.956438 0.459825 0.323274
O O14 0.744142 0.489438 0.358213
#
# Coordination Sequence:
#
# PCOD9055533 Si02
#       7
#     2   2   2   2   2   2   2
#     4  10  18  29  57  84 107 141 183 229 271 321
#     4  11  18  32  54  84 109 141 188 222 270 328
#     4  10  22  32  55  85 107 151 183 215 277 324
#     4  11  19  38  55  79 115 145 181 222 272 322
#     4   9  14  29  52  81 103 137 183 219 270 318
#     4  10  17  36  58  79 112 141 188 223 261 337
#     4   9  14  30  55  79 105 144 178 224 279 312
#
# _framework density 23.649191999999999
#
# number of rings (size 3 to 8) (size 9 to 14) (size 15 to 20)
#    0.857    1.143    5.714    2.143    0.000    0.571 
#    0.000    1.429    0.000    4.286    0.000    0.000 
#    0.000    1.143    0.000    0.000    0.000    0.000 
#
# Total GULP energy -77990.222778 kJ/mol
# GULP energy per Si atom -5570.730198 kJ/mol
# Density = 2.359537 g / cm^3
# Si number density = 23.649192 Si / 1000 Ang^3
#
#
#
# Elastic Constant Matrix: (Units=GPa)
#
#
# Indices 1 2 3 4 5 6 
#
# 1 64.3498 66.0845 -21.8943 6.4874 -19.7105 -56.5231
# 2 66.0845 54.8152 52.5916 4.0586 3.9542 39.2866
# 3 -21.8943 52.5916 38.9401 5.4880 -18.9907 -38.1399
# 4 6.4874 4.0586 5.4880 12.6561 -3.6480 -3.6775
# 5 -19.7105 3.9542 -18.9907 -3.6480 17.1785 -9.6971
# 6 -56.5231 39.2866 -38.1399 -3.6775 -9.6971 -1.7217
#
#
#
# Elastic Compliance Matrix: (Units=1/GPa)
#
#
# Indices 1 2 3 4 5 6 
#
# 1 0.006228 0.002132 -0.005576 -0.003936 -0.003307 -0.005247
# 2 0.002132 0.007471 0.002281 -0.000084 0.007543 0.007639
# 3 -0.005576 0.002281 0.011589 -0.005494 -0.000205 -0.008729
# 4 -0.003936 -0.000084 -0.005494 0.087572 0.010290 0.004011
# 5 -0.003307 0.007543 -0.000205 0.010290 0.048631 -0.010644
# 6 -0.005247 0.007639 -0.008729 0.004011 -0.010644 0.010511
#
#
# Mechanical properties :
#
#
# Convention : Reuss Voigt Hill
#
# Bulk Modulus (GPa) = 43.54817 39.07430 41.31124
# Shear Modulus (GPa) = 27.47535 9.71078 18.59306
#
# Velocity S-wave (km/s) = 3.41220 2.02857 2.80697
# Velocity P-wave (km/s) = 5.82909 4.69522 5.29261
#
# Compressibility (1/GPa) = 0.02296307
#
# Stress axis : x y z
#
# Youngs Moduli (GPa) = 160.56960 133.84975 86.28770
#
# Poissons Ratio (x) = -0.28542 0.48113
# Poissons Ratio (y) = -0.34239 -0.19683
# Poissons Ratio (z) = 0.89532 -0.30532
#
# Static dielectric constant tensor:
#      x y z
#    x 1.934290 0.052640 0.044810 
#    y 0.052640 1.951400 -0.012000 
#    z 0.044810 -0.012000 1.962090 
# 
# From -- ./inp_files/444043.got.cif
#   From: 2010.05.17/outbox.cif.g08.bks.cpg/sg2_223_cif.got.tgz:444043.got - 2010.06.03 11:33:40.
