data_PCOD9055033
_publ_section_title
;
Structure prediction by ZEFSAII (Michael W. Deem and Ramdas Pophale) SiO2 
 PCOD9055033
Probable space group: P -1
;
_chemical_formula_sum "Si O2"
_cell_formula_units_Z 16
_cell_length_a 8.534323
_cell_length_b 20.949501
_cell_length_c 23.344546
_cell_angle_alpha 15.603813
_cell_angle_beta 51.436120
_cell_angle_gamma 42.208733
_cell_volume 654.017256
_symmetry_space_group_name_H-M "P -1"
_symmetry_group_IT_number 2
_symmetry_cell_setting 'triclinic'
loop_
_space_group_symop_operation_xyz
x,y,z
-x,-y,-z
loop_
_atom_site_type_symbol
_atom_site_label
_atom_site_fract_x
_atom_site_fract_y
_atom_site_fract_z
Si Si1 0.291912 0.919605 0.283818
Si Si2 0.587812 0.193609 0.294130
Si Si3 0.563328 0.821906 0.785774
Si Si4 0.223256 0.639240 0.194694
Si Si5 0.174861 0.825344 0.914864
Si Si6 0.102392 0.513614 0.886937
Si Si7 0.773472 0.233092 0.461545
Si Si8 0.182852 0.211943 0.752310
O O1 0.340886 0.658347 0.540974
O O2 0.543018 0.855783 0.254495
O O3 0.152741 0.211061 0.110312
O O4 0.095890 0.004984 0.204258
O O5 0.512782 0.249572 0.195599
O O6 0.401608 0.491132 0.121075
O O7 0.500000 0.000000 0.500000
O O8 0.900307 0.021024 0.380782
O O9 0.792487 0.812016 0.713776
O O10 0.275688 0.015541 0.716319
O O11 0.746722 0.581770 0.004800
O O12 0.168771 0.729573 0.062705
O O13 0.513630 0.287790 0.447186
O O14 0.983193 0.690620 0.235912
O O15 0.234483 0.899755 0.991389
O O16 0.215040 0.589366 0.746496
O O17 0.000000 0.500000 0.500000
#
# Coordination Sequence:
#
# PCOD9055033 Si02
#       8
#     2   2   2   2   2   2   2   2
#     4  12  23  41  72  94 135 177 219 277 343 394
#     4  12  24  39  63 100 144 184 224 263 325 398
#     4  11  21  40  61  89 138 182 220 266 315 388
#     4  11  26  47  72  98 136 170 226 290 334 400
#     4  12  24  44  64 101 143 179 218 277 332 395
#     4  11  23  41  61  95 136 181 226 267 323 386
#     4  12  22  40  66 101 131 182 222 265 328 397
#     4  11  24  49  76  98 124 173 229 284 350 400
#
# _framework density 24.464186000000002
#
# number of rings (size 3 to 8) (size 9 to 14) (size 15 to 20)
#    0.000    0.500    7.500    1.125    0.000    2.000 
#    2.250    0.625    0.000    0.000    0.000    0.000 
#    0.000    0.000    0.000    0.000    0.000    0.000 
#
# Total GULP energy -89080.858060 kJ/mol
# GULP energy per Si atom -5567.553629 kJ/mol
# Density = 2.440850 g / cm^3
# Si number density = 24.464186 Si / 1000 Ang^3
#
#
#
# Elastic Constant Matrix: (Units=GPa)
#
#
# Indices 1 2 3 4 5 6 
#
# 1 108.7732 74.7986 46.4092 21.0508 30.1309 -35.8428
# 2 74.7986 217.6570 72.5825 56.4004 11.1153 -37.0260
# 3 46.4092 72.5825 69.6462 25.1316 12.1676 1.7343
# 4 21.0508 56.4004 25.1316 55.3918 10.0708 0.1281
# 5 30.1309 11.1153 12.1676 10.0708 47.9305 11.1667
# 6 -35.8428 -37.0260 1.7343 0.1281 11.1667 59.9701
#
#
#
# Elastic Compliance Matrix: (Units=1/GPa)
#
#
# Indices 1 2 3 4 5 6 
#
# 1 0.027656 0.000360 -0.016020 -0.000361 -0.018124 0.020591
# 2 0.000360 0.010262 -0.008622 -0.006571 -0.000652 0.006936
# 3 -0.016020 -0.008622 0.033727 -0.001838 0.007936 -0.017347
# 4 -0.000361 -0.006571 -0.001838 0.026158 -0.002386 -0.003831
# 5 -0.018124 -0.000652 0.007936 -0.002386 0.035087 -0.017993
# 6 0.020591 0.006936 -0.017347 -0.003831 -0.017993 0.037124
#
#
# Mechanical properties :
#
#
# Convention : Reuss Voigt Hill
#
# Bulk Modulus (GPa) = 43.32497 87.07298 65.19898
# Shear Modulus (GPa) = 22.09735 46.14421 34.12078
#
# Velocity S-wave (km/s) = 3.00868 4.34775 3.73865
# Velocity P-wave (km/s) = 5.46054 7.80212 6.73389
#
# Compressibility (1/GPa) = 0.02308138
#
# Stress axis : x y z
#
# Youngs Moduli (GPa) = 36.15799 97.45003 29.64946
#
# Poissons Ratio (x) = -0.03506 0.47499
# Poissons Ratio (y) = -0.01301 0.25563
# Poissons Ratio (z) = 0.57926 0.84018
#
# Static dielectric constant tensor:
#      x y z
#    x 2.432250 0.229860 -0.404550 
#    y 0.229860 2.157790 -0.192420 
#    z -0.404550 -0.192420 2.346480 
# 
# From -- ./inp_files/591602.got.cif
#   From: 2010.05.17/outbox.cif.g08.bks.cpg/sg2_296_cif.got.tgz:591602.got - 2010.06.03 11:33:40.
