data_PCOD9055552
_publ_section_title
;
Structure prediction by ZEFSAII (Michael W. Deem and Ramdas Pophale) SiO2 
 PCOD9055552
Probable space group: P -1
;
_chemical_formula_sum "Si O2"
_cell_formula_units_Z 16
_cell_length_a 10.027396
_cell_length_b 9.154811
_cell_length_c 12.189173
_cell_angle_alpha 49.962265
_cell_angle_beta 58.764416
_cell_angle_gamma 63.949464
_cell_volume 722.920051
_symmetry_space_group_name_H-M "P -1"
_symmetry_group_IT_number 2
_symmetry_cell_setting 'triclinic'
loop_
_space_group_symop_operation_xyz
x,y,z
-x,-y,-z
loop_
_atom_site_type_symbol
_atom_site_label
_atom_site_fract_x
_atom_site_fract_y
_atom_site_fract_z
Si Si1 0.835902 0.195044 0.802227
Si Si2 0.316296 0.444926 0.690708
Si Si3 0.344307 0.140673 0.472865
Si Si4 0.030952 0.510093 0.245151
Si Si5 0.429871 0.003446 0.906070
Si Si6 0.974267 0.898032 0.445664
Si Si7 0.378890 0.349657 0.133559
Si Si8 0.378439 0.488477 0.401184
O O1 0.945774 0.307351 0.776961
O O2 0.705787 0.357243 0.722462
O O3 0.918691 0.083617 0.714849
O O4 0.739277 0.067393 0.979165
O O5 0.338569 0.546814 0.515386
O O6 0.431265 0.538170 0.678948
O O7 0.127718 0.458725 0.775650
O O8 0.398000 0.219387 0.767384
O O9 0.203490 0.032237 0.551719
O O10 0.374724 0.278954 0.293872
O O11 0.307405 0.291244 0.514350
O O12 0.500000 0.000000 0.500000
O O13 0.016250 0.329672 0.419730
O O14 0.197086 0.445309 0.141007
O O15 0.552783 0.844986 0.866435
O O16 0.500000 0.000000 0.000000
O O17 0.000000 0.000000 0.500000
O O18 0.500000 0.500000 0.000000
#
# Coordination Sequence:
#
# PCOD9055552 Si02
#       8
#     2   2   2   2   2   2   2   2
#     4  12  22  45  71  92 133 183 221 266 347 409
#     4  11  25  40  69 103 136 172 230 282 334 400
#     4  11  24  41  67  96 135 169 222 278 334 397
#     4  11  23  44  72  97 136 175 226 280 338 396
#     4  12  26  43  68  97 137 181 226 271 337 406
#     4  11  25  40  67 103 131 169 226 285 333 389
#     4  11  23  46  68  96 132 184 221 270 336 410
#     4  11  21  42  69  98 131 181 220 272 338 410
#
# _framework density 22.132459000000001
#
# number of rings (size 3 to 8) (size 9 to 14) (size 15 to 20)
#    0.000    0.750    6.250    1.875    5.250    0.500 
#    2.250    0.625    0.000    0.000    0.000    0.000 
#    0.000    0.000    0.000    0.000    0.000    0.000 
#
# Total GULP energy -89360.381286 kJ/mol
# GULP energy per Si atom -5585.023830 kJ/mol
# Density = 2.208208 g / cm^3
# Si number density = 22.132459 Si / 1000 Ang^3
#
#
#
# Elastic Constant Matrix: (Units=GPa)
#
#
# Indices 1 2 3 4 5 6 
#
# 1 167.2963 33.6512 13.0152 9.7729 -27.5607 -14.0722
# 2 33.6512 75.5940 17.0118 11.5681 -11.1029 -3.9697
# 3 13.0152 17.0118 60.1625 3.5720 -18.4831 -6.2585
# 4 9.7729 11.5681 3.5720 33.2898 -4.8990 -1.7145
# 5 -27.5607 -11.1029 -18.4831 -4.8990 32.0000 0.8900
# 6 -14.0722 -3.9697 -6.2585 -1.7145 0.8900 38.8908
#
#
#
# Elastic Compliance Matrix: (Units=1/GPa)
#
#
# Indices 1 2 3 4 5 6 
#
# 1 0.007680 -0.002581 0.001307 -0.000433 0.006336 0.002562
# 2 -0.002581 0.015912 -0.003504 -0.004309 0.000616 -0.000078
# 3 0.001307 -0.003504 0.021410 0.000511 0.012263 0.003303
# 4 -0.000433 -0.004309 0.000511 0.032141 0.003324 0.000826
# 5 0.006336 0.000616 0.012263 0.003324 0.044417 0.003459
# 6 0.002562 -0.000078 0.003303 0.000826 0.003459 0.027121
#
#
# Mechanical properties :
#
#
# Convention : Reuss Voigt Hill
#
# Bulk Modulus (GPa) = 28.21180 47.82326 38.01753
# Shear Modulus (GPa) = 29.40293 36.79444 33.09868
#
# Velocity S-wave (km/s) = 3.64881 4.08176 3.87134
# Velocity P-wave (km/s) = 5.52505 6.62337 6.09898
#
# Compressibility (1/GPa) = 0.03544616
#
# Stress axis : x y z
#
# Youngs Moduli (GPa) = 130.21619 62.84566 46.70651
#
# Poissons Ratio (x) = 0.16223 -0.06106
# Poissons Ratio (y) = 0.33613 0.16365
# Poissons Ratio (z) = -0.17023 0.22020
#
# Static dielectric constant tensor:
#      x y z
#    x 1.861140 0.017970 -0.069700 
#    y 0.017970 1.914960 0.034050 
#    z -0.069700 0.034050 1.800590 
# 
# From -- ./inp_files/381242.got.cif
#   From: 2010.05.17/outbox.cif.g08.bks.cpg/sg2_191_cif.got.tgz:381242.got - 2010.06.03 11:33:40.
