data_PCOD9055826
_publ_section_title
;
Structure prediction by ZEFSAII (Michael W. Deem and Ramdas Pophale) SiO2 
 PCOD9055826
Probable space group: P -1
;
_chemical_formula_sum "Si O2"
_cell_formula_units_Z 16
_cell_length_a 9.010221
_cell_length_b 13.796418
_cell_length_c 8.978436
_cell_angle_alpha 111.196750
_cell_angle_beta 85.115791
_cell_angle_gamma 134.506231
_cell_volume 717.950620
_symmetry_space_group_name_H-M "P -1"
_symmetry_group_IT_number 2
_symmetry_cell_setting 'triclinic'
loop_
_space_group_symop_operation_xyz
x,y,z
-x,-y,-z
loop_
_atom_site_type_symbol
_atom_site_label
_atom_site_fract_x
_atom_site_fract_y
_atom_site_fract_z
Si Si1 0.066730 0.710702 0.174487
Si Si2 0.590069 0.379914 0.066206
Si Si3 0.867638 0.142017 0.294394
Si Si4 0.350782 0.424376 0.318784
Si Si5 0.972023 0.863745 0.413192
Si Si6 0.537165 0.129296 0.986639
Si Si7 0.633917 0.165532 0.515605
Si Si8 0.491684 0.310378 0.690647
O O1 0.241169 0.775056 0.070175
O O2 0.176264 0.720587 0.319830
O O3 0.831638 0.542009 0.100455
O O4 0.051235 0.828545 0.255282
O O5 0.459378 0.403354 0.176010
O O6 0.571077 0.266671 0.107701
O O7 0.504105 0.311329 0.868608
O O8 0.740675 0.186600 0.362328
O O9 0.103162 0.265326 0.273694
O O10 0.919608 0.128087 0.446581
O O11 0.689622 0.980716 0.144539
O O12 0.500000 0.500000 0.500000
O O13 0.326767 0.527780 0.309486
O O14 0.716253 0.727420 0.356037
O O15 0.000000 0.000000 0.500000
O O16 0.500000 0.000000 0.000000
O O17 0.492377 0.197505 0.552915
O O18 0.500000 0.000000 0.500000
#
# Coordination Sequence:
#
# PCOD9055826 Si02
#       8
#     2   2   2   2   2   2   2   2
#     4  11  23  45  70  99 146 184 240 290 354 428
#     4  12  26  48  73 107 146 189 248 296 359 443
#     4  11  25  46  67 104 148 182 236 305 363 422
#     4  12  26  48  69 104 147 186 239 300 369 429
#     4  11  23  40  74 104 134 189 239 292 358 428
#     4  12  28  44  70 107 145 193 237 303 370 420
#     4  11  21  43  73  99 138 182 239 297 347 433
#     4  12  24  43  75 106 138 191 242 291 357 434
#
# _framework density 22.285654999999998
#
# number of rings (size 3 to 8) (size 9 to 14) (size 15 to 20)
#    0.000    0.500    5.000    3.750    1.750    3.000 
#    0.000    0.000    0.000    0.000    0.000    0.000 
#    0.000    0.000    0.000    0.000    0.000    0.000 
#
# Total GULP energy -89208.462929 kJ/mol
# GULP energy per Si atom -5575.528933 kJ/mol
# Density = 2.223493 g / cm^3
# Si number density = 22.285655 Si / 1000 Ang^3
#
#
#
# Elastic Constant Matrix: (Units=GPa)
#
#
# Indices 1 2 3 4 5 6 
#
# 1 106.5584 44.9867 18.8624 11.2874 -21.1146 0.0801
# 2 44.9867 143.7012 32.4999 7.2054 -14.6659 11.3002
# 3 18.8624 32.4999 42.3690 11.9709 -5.1399 0.7468
# 4 11.2874 7.2054 11.9709 21.5952 -2.5752 1.0420
# 5 -21.1146 -14.6659 -5.1399 -2.5752 39.6173 4.7202
# 6 0.0801 11.3002 0.7468 1.0420 4.7202 56.0138
#
#
#
# Elastic Compliance Matrix: (Units=1/GPa)
#
#
# Indices 1 2 3 4 5 6 
#
# 1 0.012258 -0.002784 -0.001584 -0.004013 0.005010 0.000218
# 2 -0.002784 0.009493 -0.006418 0.002129 0.001574 -0.001998
# 3 -0.001584 -0.006418 0.033657 -0.015745 -0.000013 0.001142
# 4 -0.004013 0.002129 -0.015745 0.056536 0.000437 -0.001303
# 5 0.005010 0.001574 -0.000013 0.000437 0.028851 -0.002764
# 6 0.000218 -0.001998 0.001142 -0.001303 -0.002764 0.018497
#
#
# Mechanical properties :
#
#
# Convention : Reuss Voigt Hill
#
# Bulk Modulus (GPa) = 29.55375 53.92520 41.73948
# Shear Modulus (GPa) = 26.02242 36.53055 31.27649
#
# Velocity S-wave (km/s) = 3.42083 4.05309 3.75031
# Velocity P-wave (km/s) = 5.37521 6.79361 6.12561
#
# Compressibility (1/GPa) = 0.03383665
#
# Stress axis : x y z
#
# Youngs Moduli (GPa) = 81.58037 105.34270 29.71152
#
# Poissons Ratio (x) = 0.29325 0.04706
# Poissons Ratio (y) = 0.22710 0.19068
# Poissons Ratio (z) = 0.12922 0.67607
#
# Static dielectric constant tensor:
#      x y z
#    x 1.761350 0.037400 0.039970 
#    y 0.037400 1.903460 -0.008580 
#    z 0.039970 -0.008580 1.856120 
# 
# From -- ./inp_files/208320.got.cif
#   From: 2010.05.17/outbox.cif.g08.bks.cpg/sg2_105_cif.got.tgz:208320.got - 2010.06.03 11:33:40.
