data_PCOD9055749
_publ_section_title
;
Structure prediction by ZEFSAII (Michael W. Deem and Ramdas Pophale) SiO2 
 PCOD9055749
Probable space group: P -1
;
_chemical_formula_sum "Si O2"
_cell_formula_units_Z 16
_cell_length_a 9.327421
_cell_length_b 14.362371
_cell_length_c 14.694617
_cell_angle_alpha 151.086185
_cell_angle_beta 68.191904
_cell_angle_gamma 124.636931
_cell_volume 742.759578
_symmetry_space_group_name_H-M "P -1"
_symmetry_group_IT_number 2
_symmetry_cell_setting 'triclinic'
loop_
_space_group_symop_operation_xyz
x,y,z
-x,-y,-z
loop_
_atom_site_type_symbol
_atom_site_label
_atom_site_fract_x
_atom_site_fract_y
_atom_site_fract_z
Si Si1 0.401386 0.632366 0.660644
Si Si2 0.519802 0.727783 0.223222
Si Si3 0.363097 0.902120 0.265995
Si Si4 0.844836 0.903033 0.031618
Si Si5 0.901497 0.088927 0.535270
Si Si6 0.490362 0.893002 0.046802
Si Si7 0.316579 0.631023 0.368707
Si Si8 0.991487 0.255939 0.455843
O O1 0.500000 0.500000 0.500000
O O2 0.186040 0.458703 0.545744
O O3 0.483204 0.872399 0.794911
O O4 0.428605 0.709401 0.824973
O O5 0.492430 0.849972 0.250142
O O6 0.366947 0.678605 0.291009
O O7 0.714010 0.880981 0.357166
O O8 0.500000 0.500000 0.000000
O O9 0.178395 0.809645 0.287109
O O10 0.345901 0.802036 0.085275
O O11 0.491917 0.180447 0.466180
O O12 0.686323 0.948233 0.082674
O O13 0.928981 0.029111 0.216460
O O14 0.750888 0.630201 0.822658
O O15 0.000000 0.000000 0.000000
O O16 0.006227 0.224285 0.534289
O O17 0.000000 0.000000 0.500000
O O18 0.157275 0.675635 0.464967
#
# Coordination Sequence:
#
# PCOD9055749 Si02
#       8
#     2   2   2   2   2   2   2   2
#     4  11  28  46  69  92 144 187 220 287 360 406
#     4  11  21  43  70 100 137 185 230 276 342 417
#     4  11  22  44  73 100 142 181 235 282 344 420
#     4  12  26  42  73 104 130 177 249 290 337 402
#     4  11  24  42  65 104 139 180 221 284 350 413
#     4  11  25  47  65 104 131 181 238 274 346 428
#     4  11  22  41  72  97 137 179 222 291 339 399
#     4  12  24  46  68 102 138 175 234 289 342 412
#
# _framework density 21.541291999999999
#
# number of rings (size 3 to 8) (size 9 to 14) (size 15 to 20)
#    0.000    0.750    3.750    3.750    5.250    4.000 
#    2.250    1.250    0.000    0.000    0.000    0.000 
#    0.000    0.000    0.000    0.000    0.000    0.000 
#
# Total GULP energy -89453.283548 kJ/mol
# GULP energy per Si atom -5590.830222 kJ/mol
# Density = 2.149226 g / cm^3
# Si number density = 21.541292 Si / 1000 Ang^3
#
#
#
# Elastic Constant Matrix: (Units=GPa)
#
#
# Indices 1 2 3 4 5 6 
#
# 1 65.8659 11.2586 12.4257 -4.5183 -17.4029 -7.7791
# 2 11.2586 72.8473 45.5892 -22.2477 -5.0538 -3.1574
# 3 12.4257 45.5892 115.9339 -13.6865 -25.0849 -11.6262
# 4 -4.5183 -22.2477 -13.6865 43.7793 1.3725 2.3445
# 5 -17.4029 -5.0538 -25.0849 1.3725 26.7776 -5.9760
# 6 -7.7791 -3.1574 -11.6262 2.3445 -5.9760 32.9192
#
#
#
# Elastic Compliance Matrix: (Units=1/GPa)
#
#
# Indices 1 2 3 4 5 6 
#
# 1 0.021433 -0.004369 0.004711 0.000319 0.019703 0.009864
# 2 -0.004369 0.022198 -0.009737 0.008322 -0.009227 -0.004610
# 3 0.004711 -0.009737 0.017107 -0.000247 0.019442 0.009768
# 4 0.000319 0.008322 -0.000247 0.027092 -0.000101 -0.001161
# 5 0.019703 -0.009227 0.019442 -0.000101 0.071915 0.023700
# 6 0.009864 -0.004610 0.009768 -0.001161 0.023700 0.040101
#
#
# Mechanical properties :
#
#
# Convention : Reuss Voigt Hill
#
# Bulk Modulus (GPa) = 23.83938 43.68823 33.76380
# Shear Modulus (GPa) = 21.49447 33.05345 27.27396
#
# Velocity S-wave (km/s) = 3.16227 3.92142 3.56212
# Velocity P-wave (km/s) = 4.94207 6.38972 5.71195
#
# Compressibility (1/GPa) = 0.04194740
#
# Stress axis : x y z
#
# Youngs Moduli (GPa) = 46.65693 45.04992 58.45662
#
# Poissons Ratio (x) = 0.19681 -0.27537
# Poissons Ratio (y) = 0.20383 0.56918
# Poissons Ratio (z) = -0.21979 0.43865
#
# Static dielectric constant tensor:
#      x y z
#    x 1.760900 -0.011170 -0.001530 
#    y -0.011170 1.831410 -0.003510 
#    z -0.001530 -0.003510 1.824450 
# 
# From -- ./inp_files/505764.got.cif
#   From: 2010.05.17/outbox.cif.g08.bks.cpg/sg2_253_cif.got.tgz:505764.got - 2010.06.03 11:33:40.
