data_PCOD9055756
_publ_section_title
;
Structure prediction by ZEFSAII (Michael W. Deem and Ramdas Pophale) SiO2 
 PCOD9055756
Probable space group: P -1
;
_chemical_formula_sum "Si O2"
_cell_formula_units_Z 16
_cell_length_a 8.141106
_cell_length_b 14.928279
_cell_length_c 11.147684
_cell_angle_alpha 147.019690
_cell_angle_beta 115.721178
_cell_angle_gamma 58.764044
_cell_volume 630.581992
_symmetry_space_group_name_H-M "P -1"
_symmetry_group_IT_number 2
_symmetry_cell_setting 'triclinic'
loop_
_space_group_symop_operation_xyz
x,y,z
-x,-y,-z
loop_
_atom_site_type_symbol
_atom_site_label
_atom_site_fract_x
_atom_site_fract_y
_atom_site_fract_z
Si Si1 0.144458 0.116534 0.426956
Si Si2 0.876944 0.515568 0.097200
Si Si3 0.739837 0.641408 0.843923
Si Si4 0.713072 0.213281 0.757895
Si Si5 0.411794 0.598755 0.825038
Si Si6 0.072852 0.797308 0.769243
Si Si7 0.292586 0.299619 0.374738
Si Si8 0.525919 0.022002 0.292185
O O1 0.204571 0.276938 0.680040
O O2 0.955284 0.202340 0.383003
O O3 0.325511 0.027223 0.297461
O O4 0.129006 0.962447 0.335492
O O5 0.033350 0.438201 0.163589
O O6 0.764980 0.375333 0.900230
O O7 0.000000 0.500000 0.000000
O O8 0.622998 0.541882 0.772325
O O9 0.688282 0.647736 0.695633
O O10 0.666763 0.832855 0.094607
O O11 0.615445 0.128641 0.531243
O O12 0.599072 0.303324 0.942702
O O13 0.332178 0.437914 0.633351
O O14 0.272709 0.712610 0.804679
O O15 0.916679 0.716948 0.686181
O O16 0.000000 0.000000 0.000000
O O17 0.455399 0.121915 0.258537
#
# Coordination Sequence:
#
# PCOD9055756 Si02
#       8
#     2   2   2   2   2   2   2   2
#     4  11  24  47  76 106 144 191 247 298 350 443
#     4  12  30  48  71 109 151 188 239 304 367 431
#     4  12  26  49  70 108 149 184 239 308 364 422
#     4  12  25  48  78 105 146 198 244 291 366 440
#     4  12  24  44  76 106 143 190 243 300 359 433
#     4  11  21  43  70 105 138 188 244 285 356 431
#     4  11  25  43  70 110 146 186 237 305 366 420
#     4  11  25  45  76 107 142 193 247 295 354 441
#
# _framework density 25.373384999999999
#
# number of rings (size 3 to 8) (size 9 to 14) (size 15 to 20)
#    0.000    0.500    2.500    6.000    3.500    3.000 
#    0.000    0.000    0.000    0.000    0.000    0.000 
#    0.000    0.000    0.000    0.000    0.000    0.000 
#
# Total GULP energy -89551.791029 kJ/mol
# GULP energy per Si atom -5596.986939 kJ/mol
# Density = 2.531563 g / cm^3
# Si number density = 25.373385 Si / 1000 Ang^3
#
#
#
# Elastic Constant Matrix: (Units=GPa)
#
#
# Indices 1 2 3 4 5 6 
#
# 1 61.7487 11.7347 28.2984 -4.1961 1.4699 5.1260
# 2 11.7347 101.5623 12.8925 -2.8771 -1.3814 10.2811
# 3 28.2984 12.8925 163.5471 3.6439 -1.1811 -0.2398
# 4 -4.1961 -2.8771 3.6439 49.7302 -4.2836 -0.1967
# 5 1.4699 -1.3814 -1.1811 -4.2836 35.2147 -1.9576
# 6 5.1260 10.2811 -0.2398 -0.1967 -1.9576 36.0337
#
#
#
# Elastic Compliance Matrix: (Units=1/GPa)
#
#
# Indices 1 2 3 4 5 6 
#
# 1 0.018195 -0.001452 -0.003079 0.001595 -0.000850 -0.002232
# 2 -0.001452 0.010385 -0.000581 0.000541 0.000362 -0.002738
# 3 -0.003079 -0.000581 0.006713 -0.000759 0.000275 0.000659
# 4 0.001595 0.000541 -0.000759 0.020538 0.002420 -0.000143
# 5 -0.000850 0.000362 0.000275 0.002420 0.028839 0.001599
# 6 -0.002232 -0.002738 0.000659 -0.000143 0.001599 0.028941
#
#
# Mechanical properties :
#
#
# Convention : Reuss Voigt Hill
#
# Bulk Modulus (GPa) = 39.88818 48.07879 43.98349
# Shear Modulus (GPa) = 37.82391 42.45790 40.14090
#
# Velocity S-wave (km/s) = 3.86514 4.09507 3.98176
# Velocity P-wave (km/s) = 5.97274 6.43032 6.20575
#
# Compressibility (1/GPa) = 0.02507008
#
# Stress axis : x y z
#
# Youngs Moduli (GPa) = 54.95871 96.29205 148.96853
#
# Poissons Ratio (x) = 0.13981 0.45865
# Poissons Ratio (y) = 0.07980 0.08653
# Poissons Ratio (z) = 0.16921 0.05594
#
# Static dielectric constant tensor:
#      x y z
#    x 1.964380 -0.039190 0.025550 
#    y -0.039190 2.067780 0.027620 
#    z 0.025550 0.027620 2.034550 
# 
# From -- ./inp_files/400133.got.cif
#   From: 2010.05.17/outbox.cif.g08.bks.cpg/sg2_201_cif.got.tgz:400133.got - 2010.06.03 11:33:40.
