data_PCOD9055855
_publ_section_title
;
Structure prediction by ZEFSAII (Michael W. Deem and Ramdas Pophale) SiO2 
 PCOD9055855
Probable space group: P -1
;
_chemical_formula_sum "Si O2"
_cell_formula_units_Z 14
_cell_length_a 8.324048
_cell_length_b 18.286418
_cell_length_c 5.614966
_cell_angle_alpha 68.042715
_cell_angle_beta 62.057366
_cell_angle_gamma 50.014025
_cell_volume 575.165399
_symmetry_space_group_name_H-M "P -1"
_symmetry_group_IT_number 2
_symmetry_cell_setting 'triclinic'
loop_
_space_group_symop_operation_xyz
x,y,z
-x,-y,-z
loop_
_atom_site_type_symbol
_atom_site_label
_atom_site_fract_x
_atom_site_fract_y
_atom_site_fract_z
Si Si1 0.509973 0.729634 0.584391
Si Si2 0.869653 0.204315 0.895875
Si Si3 0.183735 0.237013 0.946205
Si Si4 0.598943 0.944125 0.749586
Si Si5 0.933026 0.093640 0.582808
Si Si6 0.397269 0.469660 0.315349
Si Si7 0.146870 0.638919 0.594736
O O1 0.691329 0.750724 0.371823
O O2 0.295485 0.812327 0.474797
O O3 0.631716 0.615824 0.603392
O O4 0.379108 0.744402 0.900857
O O5 0.921017 0.106590 0.863419
O O6 0.891593 0.266422 0.607188
O O7 0.030594 0.205504 0.976846
O O8 0.371554 0.155770 0.094003
O O9 0.025580 0.329566 0.109234
O O10 0.846217 0.912308 0.602480
O O11 0.500000 0.000000 0.500000
O O12 0.500000 0.000000 0.000000
O O13 0.000000 0.000000 0.500000
O O14 0.179876 0.564236 0.462163
O O15 0.607083 0.415240 0.409885
O O16 0.500000 0.500000 0.000000
#
# Coordination Sequence:
#
# PCOD9055855 Si02
#       7
#     2   2   2   2   2   2   2
#     4  12  26  48  76 116 154 200 272 317 395 476
#     4  12  22  51  77 103 160 207 251 337 392 472
#     4  12  26  48  75 116 155 207 262 325 403 461
#     4  12  26  50  79 112 156 212 264 331 403 473
#     4  12  27  50  74 110 151 204 263 321 396 476
#     4  11  21  43  78 111 150 208 254 316 401 462
#     4  11  22  43  79 104 152 207 252 320 395 471
#
# _framework density 24.340824000000001
#
# number of rings (size 3 to 8) (size 9 to 14) (size 15 to 20)
#    0.000    0.286    7.143    1.714    0.000    2.286 
#    7.714    2.857    0.000    0.000    0.000    0.000 
#    0.000    0.000    0.000    0.000    0.000    0.000 
#
# Total GULP energy -77978.780302 kJ/mol
# GULP energy per Si atom -5569.912879 kJ/mol
# Density = 2.428542 g / cm^3
# Si number density = 24.340824 Si / 1000 Ang^3
#
#
#
# Elastic Constant Matrix: (Units=GPa)
#
#
# Indices 1 2 3 4 5 6 
#
# 1 65.4561 51.5367 42.6988 3.8907 -4.7967 0.8943
# 2 51.5367 176.0375 48.0112 26.8630 5.2505 23.8163
# 3 42.6988 48.0112 97.5024 20.2831 -4.6662 8.6276
# 4 3.8907 26.8630 20.2831 54.1296 -6.0827 0.7047
# 5 -4.7967 5.2505 -4.6662 -6.0827 35.8640 3.1756
# 6 0.8943 23.8163 8.6276 0.7047 3.1756 31.5746
#
#
#
# Elastic Compliance Matrix: (Units=1/GPa)
#
#
# Indices 1 2 3 4 5 6 
#
# 1 0.027317 -0.007168 -0.010046 0.005690 0.003752 0.006873
# 2 -0.007168 0.009436 -0.000155 -0.004307 -0.002513 -0.006523
# 3 -0.010046 -0.000155 0.016169 -0.005180 0.000252 -0.003927
# 4 0.005690 -0.004307 -0.005180 0.022573 0.004230 0.003574
# 5 0.003752 -0.002513 0.000252 0.004230 0.029623 -0.001353
# 6 0.006873 -0.006523 -0.003927 0.003574 -0.001353 0.037526
#
#
# Mechanical properties :
#
#
# Convention : Reuss Voigt Hill
#
# Bulk Modulus (GPa) = 54.98769 69.27660 62.13215
# Shear Modulus (GPa) = 27.25694 37.43027 32.34361
#
# Velocity S-wave (km/s) = 3.34998 3.92568 3.64920
# Velocity P-wave (km/s) = 6.13212 7.00506 6.58307
#
# Compressibility (1/GPa) = 0.01818589
#
# Stress axis : x y z
#
# Youngs Moduli (GPa) = 36.60787 105.97854 61.84824
#
# Poissons Ratio (x) = 0.75960 0.62130
# Poissons Ratio (y) = 0.26239 0.00956
# Poissons Ratio (z) = 0.36774 0.01638
#
# Static dielectric constant tensor:
#      x y z
#    x 2.006860 0.121750 0.102400 
#    y 0.121750 2.219850 -0.074400 
#    z 0.102400 -0.074400 2.044940 
# 
# From -- ./inp_files/46483.got.cif
#   From: 2010.05.17/outbox.cif.g08.bks.cpg/sg2_24_cif.got.tgz:46483.got - 2010.06.03 11:33:40.
