data_PCOD9055397
_publ_section_title
;
Structure prediction by ZEFSAII (Michael W. Deem and Ramdas Pophale) SiO2 
 PCOD9055397
Probable space group: P -1
;
_chemical_formula_sum "Si O2"
_cell_formula_units_Z 14
_cell_length_a 15.158442
_cell_length_b 21.001159
_cell_length_c 9.407430
_cell_angle_alpha 148.129651
_cell_angle_beta 26.978813
_cell_angle_gamma 155.073415
_cell_volume 559.226552
_symmetry_space_group_name_H-M "P -1"
_symmetry_group_IT_number 2
_symmetry_cell_setting 'triclinic'
loop_
_space_group_symop_operation_xyz
x,y,z
-x,-y,-z
loop_
_atom_site_type_symbol
_atom_site_label
_atom_site_fract_x
_atom_site_fract_y
_atom_site_fract_z
Si Si1 0.511201 0.991971 0.299585
Si Si2 0.043626 0.209379 0.289537
Si Si3 0.787761 0.917802 0.415139
Si Si4 0.453243 0.270810 0.348357
Si Si5 0.248242 0.736189 0.737579
Si Si6 0.828913 0.715929 0.445042
Si Si7 0.731372 0.501299 0.633178
O O1 0.236351 0.922454 0.509008
O O2 0.500000 0.000000 0.500000
O O3 0.707196 0.159034 0.261735
O O4 0.536194 0.861390 0.975107
O O5 0.046319 0.324322 0.397557
O O6 0.206361 0.300806 0.367609
O O7 0.146735 0.137076 0.918338
O O8 0.776264 0.824663 0.390818
O O9 0.505201 0.856984 0.687955
O O10 0.991418 0.097918 0.484711
O O11 0.672177 0.402941 0.387254
O O12 0.407786 0.345240 0.426852
O O13 0.239816 0.587553 0.454528
O O14 0.999333 0.675399 0.063618
O O15 0.500000 0.500000 0.000000
#
# Coordination Sequence:
#
# PCOD9055397 Si02
#       7
#     2   2   2   2   2   2   2
#     4  12  27  44  72 109 140 172 237 294 339 404
#     4  12  25  43  73 101 138 188 230 280 342 411
#     4  11  21  41  70  98 136 179 231 279 343 405
#     4  11  25  43  70 100 141 182 225 286 343 406
#     4  11  24  43  69  98 136 183 227 279 349 403
#     4  12  24  40  71 106 136 177 235 286 348 399
#     4  11  25  47  71  95 142 188 230 275 345 418
#
# _framework density 25.034578
#
# number of rings (size 3 to 8) (size 9 to 14) (size 15 to 20)
#    0.000    0.571    5.714    3.857    4.000    2.857 
#    0.000    2.857    0.000    0.000    0.000    0.000 
#    0.000    0.000    0.000    0.000    0.000    0.000 
#
# Total GULP energy -78345.771398 kJ/mol
# GULP energy per Si atom -5596.126528 kJ/mol
# Density = 2.497760 g / cm^3
# Si number density = 25.034578 Si / 1000 Ang^3
#
#
#
# Elastic Constant Matrix: (Units=GPa)
#
#
# Indices 1 2 3 4 5 6 
#
# 1 119.5310 -6.6553 48.4440 1.9138 3.9837 -7.2045
# 2 -6.6553 50.6767 8.7274 14.7279 -8.6667 -16.1164
# 3 48.4440 8.7274 159.5240 3.3728 -7.0273 -21.2922
# 4 1.9138 14.7279 3.3728 31.4161 -10.4795 -7.1202
# 5 3.9837 -8.6667 -7.0273 -10.4795 33.2531 0.6588
# 6 -7.2045 -16.1164 -21.2922 -7.1202 0.6588 29.9096
#
#
#
# Elastic Compliance Matrix: (Units=1/GPa)
#
#
# Indices 1 2 3 4 5 6 
#
# 1 0.009877 0.002378 -0.003019 -0.001724 -0.001767 0.001140
# 2 0.002378 0.027428 -0.000121 -0.008746 0.003822 0.013099
# 3 -0.003019 -0.000121 0.007952 0.001326 0.002327 0.005133
# 4 -0.001724 -0.008746 0.001326 0.040739 0.010941 0.005274
# 5 -0.001767 0.003822 0.002327 0.010941 0.035119 0.005121
# 6 0.001140 0.013099 0.005133 0.005274 0.005121 0.045564
#
#
# Mechanical properties :
#
#
# Convention : Reuss Voigt Hill
#
# Bulk Modulus (GPa) = 22.86592 47.86265 35.36428
# Shear Modulus (GPa) = 27.35562 37.53012 32.44287
#
# Velocity S-wave (km/s) = 3.30921 3.87606 3.60380
# Velocity P-wave (km/s) = 4.87388 6.26035 5.61011
#
# Compressibility (1/GPa) = 0.04373320
#
# Stress axis : x y z
#
# Youngs Moduli (GPa) = 101.24383 36.45974 125.76168
#
# Poissons Ratio (x) = -0.08672 0.37965
# Poissons Ratio (y) = -0.24080 0.01523
# Poissons Ratio (z) = 0.30563 0.00442
#
# Static dielectric constant tensor:
#      x y z
#    x 2.073660 -0.022490 -0.033040 
#    y -0.022490 1.996840 -0.005580 
#    z -0.033040 -0.005580 1.939710 
# 
# From -- ./inp_files/199318.got.cif
#   From: 2010.05.17/outbox.cif.g08.bks.cpg/sg2_100_cif.got.tgz:199318.got - 2010.06.03 11:33:40.
