data_PCOD9055428
_publ_section_title
;
Structure prediction by ZEFSAII (Michael W. Deem and Ramdas Pophale) SiO2 
 PCOD9055428
Probable space group: P -1
;
_chemical_formula_sum "Si O2"
_cell_formula_units_Z 16
_cell_length_a 11.740967
_cell_length_b 12.387381
_cell_length_c 8.502098
_cell_angle_alpha 144.611302
_cell_angle_beta 124.511637
_cell_angle_gamma 65.287536
_cell_volume 587.586435
_symmetry_space_group_name_H-M "P -1"
_symmetry_group_IT_number 2
_symmetry_cell_setting 'triclinic'
loop_
_space_group_symop_operation_xyz
x,y,z
-x,-y,-z
loop_
_atom_site_type_symbol
_atom_site_label
_atom_site_fract_x
_atom_site_fract_y
_atom_site_fract_z
Si Si1 0.333677 0.148812 0.412047
Si Si2 0.056085 0.139872 0.349664
Si Si3 0.157001 0.902951 0.415186
Si Si4 0.353826 0.401754 0.144305
Si Si5 0.620951 0.267840 0.078081
Si Si6 0.360758 0.646095 0.122661
Si Si7 0.854201 0.366816 0.626902
Si Si8 0.625227 0.863058 0.924550
O O1 0.211733 0.211465 0.500801
O O2 0.482291 0.264226 0.672010
O O3 0.351562 0.933614 0.206093
O O4 0.303561 0.139634 0.191489
O O5 0.968013 0.314968 0.526795
O O6 0.058500 0.009797 0.352478
O O7 0.000000 0.000000 0.000000
O O8 0.249279 0.790054 0.239403
O O9 0.111210 0.752040 0.334058
O O10 0.259461 0.057319 0.767297
O O11 0.363317 0.542836 0.169771
O O12 0.193900 0.436678 0.113283
O O13 0.458198 0.259701 0.980019
O O14 0.412628 0.352850 0.309694
O O15 0.669750 0.418732 0.159467
O O16 0.710615 0.293643 0.338528
O O17 0.500000 0.000000 0.000000
#
# Coordination Sequence:
#
# PCOD9055428 Si02
#       8
#     2   2   2   2   2   2   2   2
#     4  12  24  39  70  99 136 171 227 280 338 396
#     4  12  24  45  68  99 139 183 234 273 325 410
#     4  11  21  41  73 100 132 177 230 287 323 404
#     4  11  26  41  67  99 140 178 219 290 343 406
#     4  12  21  42  66 100 136 171 222 288 343 400
#     4  11  24  39  64 109 134 172 222 285 359 389
#     4  11  24  43  67 100 132 184 230 271 339 401
#     4  12  22  42  69 103 138 174 226 280 343 404
#
# _framework density 27.230038
#
# number of rings (size 3 to 8) (size 9 to 14) (size 15 to 20)
#    0.000    0.500    6.250    1.500    5.250    0.000 
#    0.000    1.250    0.000    0.000    0.000    0.000 
#    0.000    0.000    0.000    0.000    0.000    0.000 
#
# Total GULP energy -89249.136754 kJ/mol
# GULP energy per Si atom -5578.071047 kJ/mol
# Density = 2.716806 g / cm^3
# Si number density = 27.230038 Si / 1000 Ang^3
#
#
#
# Elastic Constant Matrix: (Units=GPa)
#
#
# Indices 1 2 3 4 5 6 
#
# 1 191.3482 57.1541 12.9262 21.1524 -39.8778 -41.7729
# 2 57.1541 179.0442 14.4485 -4.8247 -21.1014 1.0425
# 3 12.9262 14.4485 65.6776 -22.0425 -10.1060 -10.2828
# 4 21.1524 -4.8247 -22.0425 47.9597 -6.6342 -17.3316
# 5 -39.8778 -21.1014 -10.1060 -6.6342 44.1358 4.6247
# 6 -41.7729 1.0425 -10.2828 -17.3316 4.6247 59.7304
#
#
#
# Elastic Compliance Matrix: (Units=1/GPa)
#
#
# Indices 1 2 3 4 5 6 
#
# 1 0.008267 -0.002023 0.000112 -0.001169 0.005824 0.005046
# 2 -0.002023 0.006488 -0.000780 0.000825 0.001380 -0.001530
# 3 0.000112 -0.000780 0.021951 0.013431 0.006008 0.007303
# 4 -0.001169 0.000825 0.013431 0.032217 0.006171 0.010350
# 5 0.005824 0.001380 0.006008 0.006171 0.030409 0.004519
# 6 0.005046 -0.001530 0.007303 0.010350 0.004519 0.024208
#
#
# Mechanical properties :
#
#
# Convention : Reuss Voigt Hill
#
# Bulk Modulus (GPa) = 31.92371 67.23639 49.58005
# Shear Modulus (GPa) = 35.87782 53.80126 44.83954
#
# Velocity S-wave (km/s) = 3.63379 4.44983 4.06235
# Velocity P-wave (km/s) = 5.41803 7.15170 6.34436
#
# Compressibility (1/GPa) = 0.03132468
#
# Stress axis : x y z
#
# Youngs Moduli (GPa) = 120.95997 154.14198 45.55599
#
# Poissons Ratio (x) = 0.31176 -0.00508
# Poissons Ratio (y) = 0.24465 0.03551
# Poissons Ratio (z) = -0.01350 0.12016
#
# Static dielectric constant tensor:
#      x y z
#    x 2.152190 0.103440 0.136950 
#    y 0.103440 2.226140 0.068440 
#    z 0.136950 0.068440 2.485000 
# 
# From -- ./inp_files/260736.got.cif
#   From: 2010.05.17/outbox.cif.g08.bks.cpg/sg2_131_cif.got.tgz:260736.got - 2010.06.03 11:33:40.
