data_PCOD9055982
_publ_section_title
;
Structure prediction by ZEFSAII (Michael W. Deem and Ramdas Pophale) SiO2 
 PCOD9055982
Probable space group: P -1
;
_chemical_formula_sum "Si O2"
_cell_formula_units_Z 16
_cell_length_a 10.061003
_cell_length_b 19.319181
_cell_length_c 16.709278
_cell_angle_alpha 32.732372
_cell_angle_beta 149.477603
_cell_angle_gamma 151.916932
_cell_volume 730.341279
_symmetry_space_group_name_H-M "P -1"
_symmetry_group_IT_number 2
_symmetry_cell_setting 'triclinic'
loop_
_space_group_symop_operation_xyz
x,y,z
-x,-y,-z
loop_
_atom_site_type_symbol
_atom_site_label
_atom_site_fract_x
_atom_site_fract_y
_atom_site_fract_z
Si Si1 0.224229 0.977344 0.199390
Si Si2 0.813838 0.814757 0.303214
Si Si3 0.179161 0.924802 0.857669
Si Si4 0.712294 0.332484 0.101744
Si Si5 0.582634 0.376463 0.573759
Si Si6 0.358125 0.080043 0.638007
Si Si7 0.577211 0.422167 0.786491
Si Si8 0.844617 0.574173 0.071260
O O1 0.517097 0.154778 0.200153
O O2 0.388342 0.906772 0.305111
O O3 0.054738 0.881524 0.286661
O O4 0.000000 0.000000 0.000000
O O5 0.701140 0.691988 0.439208
O O6 0.481667 0.709106 0.180793
O O7 0.932594 0.970866 0.264603
O O8 0.298001 0.963309 0.791537
O O9 0.954023 0.743482 0.932797
O O10 0.500000 0.000000 0.000000
O O11 0.780196 0.452445 0.088617
O O12 0.076748 0.412661 0.184282
O O13 0.517372 0.345324 0.916360
O O14 0.637463 0.525900 0.412630
O O15 0.894615 0.408792 0.748246
O O16 0.481578 0.243137 0.585762
O O17 0.000000 0.000000 0.500000
O O18 0.500000 0.500000 0.000000
#
# Coordination Sequence:
#
# PCOD9055982 Si02
#       8
#     2   2   2   2   2   2   2   2
#     4  12  25  43  74 105 141 178 243 297 344 414
#     4  11  22  43  71 101 130 185 235 288 347 413
#     4  11  21  44  74  93 138 187 236 279 354 423
#     4  11  25  41  71 104 137 179 238 289 347 421
#     4  11  25  46  73  98 146 189 230 289 364 424
#     4  11  26  46  71 105 140 189 233 290 356 419
#     4  11  23  44  72  99 136 185 231 287 354 422
#     4  12  26  43  68 105 139 184 236 289 352 422
#
# _framework density 21.907568000000001
#
# number of rings (size 3 to 8) (size 9 to 14) (size 15 to 20)
#    0.000    0.750    5.000    2.625    7.000    0.000 
#    2.250    6.875    0.000    0.000    0.000    0.000 
#    0.000    0.000    0.000    0.000    0.000    0.000 
#
# Total GULP energy -89177.384394 kJ/mol
# GULP energy per Si atom -5573.586525 kJ/mol
# Density = 2.185771 g / cm^3
# Si number density = 21.907568 Si / 1000 Ang^3
#
#
#
# Elastic Constant Matrix: (Units=GPa)
#
#
# Indices 1 2 3 4 5 6 
#
# 1 116.9321 30.1530 18.5852 -6.9435 -5.3420 9.3928
# 2 30.1530 122.3741 2.0969 -25.1096 -5.4213 -5.3361
# 3 18.5852 2.0969 57.9555 -11.0859 -4.9735 2.5110
# 4 -6.9435 -25.1096 -11.0859 35.0891 1.5551 -9.2753
# 5 -5.3420 -5.4213 -4.9735 1.5551 22.9421 -1.1766
# 6 9.3928 -5.3361 2.5110 -9.2753 -1.1766 47.8548
#
#
#
# Elastic Compliance Matrix: (Units=1/GPa)
#
#
# Indices 1 2 3 4 5 6 
#
# 1 0.009923 -0.002811 -0.003229 -0.001746 0.000941 -0.002407
# 2 -0.002811 0.010848 0.002197 0.008707 0.001968 0.003382
# 3 -0.003229 0.002197 0.019883 0.007413 0.003645 0.001362
# 4 -0.001746 0.008707 0.007413 0.038925 0.001055 0.008495
# 5 0.000941 0.001968 0.003645 0.001055 0.045050 0.001156
# 6 -0.002407 0.003382 0.001362 0.008495 0.001156 0.023350
#
#
# Mechanical properties :
#
#
# Convention : Reuss Voigt Hill
#
# Bulk Modulus (GPa) = 30.33417 44.32575 37.32996
# Shear Modulus (GPa) = 30.00224 37.60566 33.80395
#
# Velocity S-wave (km/s) = 3.70468 4.14763 3.93240
# Velocity P-wave (km/s) = 5.67239 6.57375 6.13963
#
# Compressibility (1/GPa) = 0.03296612
#
# Stress axis : x y z
#
# Youngs Moduli (GPa) = 100.77785 92.18254 50.29542
#
# Poissons Ratio (x) = 0.25915 0.16242
# Poissons Ratio (y) = 0.28331 -0.11050
# Poissons Ratio (z) = 0.32545 -0.20252
#
# Static dielectric constant tensor:
#      x y z
#    x 1.284290 -0.122040 -0.271170 
#    y -0.122040 1.780820 -0.062340 
#    z -0.271170 -0.062340 1.679580 
# 
# From -- ./inp_files/507285.got.cif
#   From: 2010.05.17/outbox.cif.g08.bks.cpg/sg2_254_cif.got.tgz:507285.got - 2010.06.03 11:33:40.
