data_PCOD9055106
_publ_section_title
;
Structure prediction by ZEFSAII (Michael W. Deem and Ramdas Pophale) SiO2 
 PCOD9055106
Probable space group: P -1
;
_chemical_formula_sum "Si O2"
_cell_formula_units_Z 16
_cell_length_a 14.021732
_cell_length_b 23.104482
_cell_length_c 8.540778
_cell_angle_alpha 63.416132
_cell_angle_beta 72.406988
_cell_angle_gamma 20.032621
_cell_volume 782.004909
_symmetry_space_group_name_H-M "P -1"
_symmetry_group_IT_number 2
_symmetry_cell_setting 'triclinic'
loop_
_space_group_symop_operation_xyz
x,y,z
-x,-y,-z
loop_
_atom_site_type_symbol
_atom_site_label
_atom_site_fract_x
_atom_site_fract_y
_atom_site_fract_z
Si Si1 0.689085 0.019408 0.022491
Si Si2 0.252916 0.263924 0.644902
Si Si3 0.746177 0.509498 0.074964
Si Si4 0.567860 0.949256 0.710052
Si Si5 0.828035 0.046704 0.601411
Si Si6 0.685277 0.164358 0.886648
Si Si7 0.224480 0.404353 0.298897
Si Si8 0.713226 0.318026 0.036784
O O1 0.574031 0.028819 0.167873
O O2 0.489461 0.144100 0.808649
O O3 0.640224 0.117068 0.017771
O O4 0.046565 0.800667 0.066040
O O5 0.137715 0.384350 0.420249
O O6 0.954751 0.437649 0.687494
O O7 0.414443 0.103228 0.688379
O O8 0.596129 0.620829 0.179581
O O9 0.068625 0.277814 0.185784
O O10 0.793873 0.548947 0.913382
O O11 0.491588 0.617397 0.996802
O O12 0.500000 0.000000 0.500000
O O13 0.720418 0.135231 0.718812
O O14 0.566550 0.191331 0.437659
O O15 0.000000 0.000000 0.500000
O O16 0.059137 0.847616 0.746183
O O17 0.000000 0.000000 0.000000
O O18 0.500000 0.500000 0.000000
#
# Coordination Sequence:
#
# PCOD9055106 Si02
#       8
#     2   2   2   2   2   2   2   2
#     4  11  23  46  72  97 136 190 222 283 345 405
#     4  11  24  45  68 101 137 178 236 279 336 416
#     4  12  25  44  71 102 138 183 225 289 352 402
#     4  12  30  47  66 102 142 183 229 287 352 412
#     4  11  21  40  67 103 131 177 230 278 329 408
#     4  11  22  43  67 102 144 172 225 283 343 405
#     4  11  23  40  71 104 129 181 232 282 335 403
#     4  11  23  41  70 102 136 176 227 276 348 405
#
# _framework density 20.460231
#
# number of rings (size 3 to 8) (size 9 to 14) (size 15 to 20)
#    0.000    0.750    7.500    1.125    5.250    0.500 
#    0.000    0.625    0.000    0.000    0.000    0.000 
#    0.000    0.000    0.000    0.000    0.000    0.000 
#
# Total GULP energy -89186.965273 kJ/mol
# GULP energy per Si atom -5574.185330 kJ/mol
# Density = 2.041366 g / cm^3
# Si number density = 20.460231 Si / 1000 Ang^3
#
#
#
# Elastic Constant Matrix: (Units=GPa)
#
#
# Indices 1 2 3 4 5 6 
#
# 1 69.9451 18.0406 7.9530 -5.2036 -11.4821 9.4144
# 2 18.0406 125.8051 21.3659 -26.6553 -24.2622 12.7314
# 3 7.9530 21.3659 77.6837 -7.7281 -12.7850 -0.5954
# 4 -5.2036 -26.6553 -7.7281 36.3817 -6.0711 -6.9243
# 5 -11.4821 -24.2622 -12.7850 -6.0711 17.0305 -5.3854
# 6 9.4144 12.7314 -0.5954 -6.9243 -5.3854 44.1035
#
#
#
# Elastic Compliance Matrix: (Units=1/GPa)
#
#
# Indices 1 2 3 4 5 6 
#
# 1 0.017253 0.002660 0.001370 0.007686 0.018900 -0.000918
# 2 0.002660 0.019389 0.003361 0.022553 0.040736 0.002396
# 3 0.001370 0.003361 0.016721 0.010744 0.023197 0.003482
# 4 0.007686 0.022553 0.010744 0.061070 0.070366 0.010174
# 5 0.018900 0.040736 0.023197 0.070366 0.177443 0.017234
# 6 -0.000918 0.002396 0.003482 0.010174 0.017234 0.025927
#
#
# Mechanical properties :
#
#
# Convention : Reuss Voigt Hill
#
# Bulk Modulus (GPa) = 14.67451 40.90588 27.79020
# Shear Modulus (GPa) = 15.34987 34.57477 24.96232
#
# Velocity S-wave (km/s) = 2.74200 4.11524 3.49670
# Velocity P-wave (km/s) = 4.14880 6.52814 5.46942
#
# Compressibility (1/GPa) = 0.06814538
#
# Stress axis : x y z
#
# Youngs Moduli (GPa) = 57.96079 51.57615 59.80459
#
# Poissons Ratio (x) = -0.13717 -0.08195
# Poissons Ratio (y) = -0.15415 -0.20102
# Poissons Ratio (z) = -0.07943 -0.17337
#
# Static dielectric constant tensor:
#      x y z
#    x 1.950350 -0.205600 -0.158660 
#    y -0.205600 1.894150 0.153640 
#    z -0.158660 0.153640 1.864940 
# 
# From -- ./inp_files/320298.got.cif
#   From: 2010.05.17/outbox.cif.g08.bks.cpg/sg2_161_cif.got.tgz:320298.got - 2010.06.03 11:33:40.
