data_PCOD9056528
_publ_section_title
;
Structure prediction by ZEFSAII (Michael W. Deem and Ramdas Pophale) SiO2 
 PCOD9056528
Probable space group: P -1
;
_chemical_formula_sum "Si O2"
_cell_formula_units_Z 16
_cell_length_a 14.079555
_cell_length_b 8.761296
_cell_length_c 12.528566
_cell_angle_alpha 123.495676
_cell_angle_beta 46.024667
_cell_angle_gamma 92.637597
_cell_volume 767.249300
_symmetry_space_group_name_H-M "P -1"
_symmetry_group_IT_number 2
_symmetry_cell_setting 'triclinic'
loop_
_space_group_symop_operation_xyz
x,y,z
-x,-y,-z
loop_
_atom_site_type_symbol
_atom_site_label
_atom_site_fract_x
_atom_site_fract_y
_atom_site_fract_z
Si Si1 0.433949 0.883398 0.940494
Si Si2 0.173102 0.813272 0.623206
Si Si3 0.691020 0.344306 0.306874
Si Si4 0.372296 0.223057 0.469255
Si Si5 0.498433 0.467581 0.861431
Si Si6 0.670802 0.786142 0.159074
Si Si7 0.850781 0.872177 0.887044
Si Si8 0.857346 0.752419 0.210489
O O1 0.553330 0.787875 0.707845
O O2 0.436791 0.693096 0.930988
O O3 0.255581 0.070133 0.112702
O O4 0.500000 0.000000 0.000000
O O5 0.251078 0.726074 0.644878
O O6 0.319181 0.695906 0.382286
O O7 0.096393 0.075129 0.783064
O O8 0.036920 0.769320 0.691233
O O9 0.500000 0.500000 0.500000
O O10 0.724281 0.525340 0.317245
O O11 0.772656 0.119064 0.091802
O O12 0.239868 0.172109 0.572347
O O13 0.525489 0.038578 0.345104
O O14 0.397732 0.363930 0.867045
O O15 0.500000 0.500000 0.000000
O O16 0.737371 0.779414 0.220857
O O17 0.807465 0.741350 0.951001
O O18 0.000000 0.500000 0.000000
#
# Coordination Sequence:
#
# PCOD9056528 Si02
#       8
#     2   2   2   2   2   2   2   2
#     4  11  25  46  72  96 125 180 237 276 330 410
#     4  12  25  43  68 103 142 174 224 282 341 399
#     4  12  20  38  68 100 132 180 219 265 333 417
#     4  11  22  39  66  96 132 176 222 270 327 400
#     4  12  26  47  72  95 129 179 235 285 330 398
#     4  11  24  42  66  98 139 174 226 272 332 406
#     4  11  24  43  67 101 139 175 219 282 338 401
#     4  12  26  38  63 105 147 175 211 276 346 400
#
# _framework density 20.853717
#
# number of rings (size 3 to 8) (size 9 to 14) (size 15 to 20)
#    0.000    0.500    6.250    3.000    7.000    0.000 
#    0.000    4.375    0.000    0.000    0.000    0.000 
#    0.000    0.000    0.000    0.000    0.000    0.000 
#
# Total GULP energy -89337.780536 kJ/mol
# GULP energy per Si atom -5583.611284 kJ/mol
# Density = 2.080625 g / cm^3
# Si number density = 20.853717 Si / 1000 Ang^3
#
#
#
# Elastic Constant Matrix: (Units=GPa)
#
#
# Indices 1 2 3 4 5 6 
#
# 1 115.6737 41.2715 37.9558 -23.1650 -3.6769 11.7285
# 2 41.2715 139.0393 26.6488 -17.3717 -8.2994 6.8585
# 3 37.9558 26.6488 52.5679 -15.7403 -19.2382 7.8706
# 4 -23.1650 -17.3717 -15.7403 31.7077 10.5927 -6.3127
# 5 -3.6769 -8.2994 -19.2382 10.5927 25.3736 -7.8114
# 6 11.7285 6.8585 7.8706 -6.3127 -7.8114 39.3280
#
#
#
# Elastic Compliance Matrix: (Units=1/GPa)
#
#
# Indices 1 2 3 4 5 6 
#
# 1 0.014077 -0.001768 -0.010531 0.006981 -0.010269 -0.002701
# 2 -0.001768 0.008448 -0.002437 0.002198 -0.000309 -0.000167
# 3 -0.010531 -0.002437 0.037552 0.001178 0.026095 0.001423
# 4 0.006981 0.002198 0.001178 0.043781 -0.015254 0.001297
# 5 -0.010269 -0.000309 0.026095 -0.015254 0.066648 0.008683
# 6 -0.002701 -0.000167 0.001423 0.001297 0.008683 0.027910
#
#
# Mechanical properties :
#
#
# Convention : Reuss Voigt Hill
#
# Bulk Modulus (GPa) = 32.67342 57.67035 45.17188
# Shear Modulus (GPa) = 21.00058 32.70885 26.85472
#
# Velocity S-wave (km/s) = 3.17684 3.96471 3.59244
# Velocity P-wave (km/s) = 5.39984 6.97663 6.23826
#
# Compressibility (1/GPa) = 0.03060591
#
# Stress axis : x y z
#
# Youngs Moduli (GPa) = 71.03961 118.36771 26.62990
#
# Poissons Ratio (x) = 0.20922 0.28045
# Poissons Ratio (y) = 0.12556 0.06489
# Poissons Ratio (z) = 0.74813 0.28842
#
# Static dielectric constant tensor:
#      x y z
#    x 1.799600 0.061110 -0.023630 
#    y 0.061110 1.810060 0.004070 
#    z -0.023630 0.004070 1.678070 
# 
# From -- ./inp_files/357371.got.cif
#   From: 2010.05.17/outbox.cif.g08.bks.cpg/sg2_179_cif.got.tgz:357371.got - 2010.06.03 11:33:40.
