data_PCOD9056546
_publ_section_title
;
Structure prediction by ZEFSAII (Michael W. Deem and Ramdas Pophale) SiO2 
 PCOD9056546
Probable space group: P -1
;
_chemical_formula_sum "Si O2"
_cell_formula_units_Z 16
_cell_length_a 11.902383
_cell_length_b 11.697493
_cell_length_c 11.283123
_cell_angle_alpha 111.725255
_cell_angle_beta 136.576113
_cell_angle_gamma 100.033622
_cell_volume 722.382661
_symmetry_space_group_name_H-M "P -1"
_symmetry_group_IT_number 2
_symmetry_cell_setting 'triclinic'
loop_
_space_group_symop_operation_xyz
x,y,z
-x,-y,-z
loop_
_atom_site_type_symbol
_atom_site_label
_atom_site_fract_x
_atom_site_fract_y
_atom_site_fract_z
Si Si1 0.898884 0.682711 0.117426
Si Si2 0.833765 0.518413 0.425762
Si Si3 0.178650 0.024858 0.068279
Si Si4 0.996966 0.123811 0.380499
Si Si5 0.305294 0.200373 0.841864
Si Si6 0.760465 0.160488 0.786781
Si Si7 0.029924 0.496056 0.220780
Si Si8 0.420270 0.584310 0.407791
O O1 0.831538 0.768831 0.171987
O O2 0.075030 0.788479 0.180326
O O3 0.006762 0.630420 0.260066
O O4 0.657714 0.505539 0.814515
O O5 0.928244 0.697814 0.520363
O O6 0.863788 0.514788 0.587938
O O7 0.000000 0.500000 0.500000
O O8 0.572935 0.359797 0.126046
O O9 0.400580 0.218670 0.343162
O O10 0.184997 0.893766 0.078264
O O11 0.000000 0.000000 0.000000
O O12 0.094230 0.977794 0.851816
O O13 0.215185 0.175175 0.630012
O O14 0.788515 0.980577 0.254313
O O15 0.500000 0.000000 0.500000
O O16 0.796375 0.315865 0.925252
O O17 0.194783 0.534433 0.259802
O O18 0.500000 0.500000 0.500000
#
# Coordination Sequence:
#
# PCOD9056546 Si02
#       8
#     2   2   2   2   2   2   2   2
#     4  11  23  43  69 101 138 189 234 280 363 420
#     4  12  26  48  74 103 139 188 239 295 361 419
#     4  12  23  39  65 102 139 177 230 291 346 414
#     4  11  25  48  70 106 142 182 245 289 356 428
#     4  11  26  49  74 101 144 185 238 300 350 430
#     4  11  22  40  62 101 141 176 224 287 343 413
#     4  11  22  42  64  97 139 177 234 282 347 427
#     4  11  22  39  67  97 137 190 230 285 353 418
#
# _framework density 22.148928000000002
#
# number of rings (size 3 to 8) (size 9 to 14) (size 15 to 20)
#    0.000    0.750    1.250    8.625    1.750    0.500 
#    9.000    0.000    0.000    0.000    0.000    0.000 
#    0.000    0.000    0.000    0.000    0.000    0.000 
#
# Total GULP energy -89273.212410 kJ/mol
# GULP energy per Si atom -5579.575776 kJ/mol
# Density = 2.209852 g / cm^3
# Si number density = 22.148928 Si / 1000 Ang^3
#
#
#
# Elastic Constant Matrix: (Units=GPa)
#
#
# Indices 1 2 3 4 5 6 
#
# 1 38.4545 9.1694 32.5564 0.0140 0.1748 1.2839
# 2 9.1694 148.8841 42.5153 -3.0393 0.6198 5.7564
# 3 32.5564 42.5153 157.1168 13.4649 -7.1219 8.5192
# 4 0.0140 -3.0393 13.4649 43.4716 3.5181 -6.5290
# 5 0.1748 0.6198 -7.1219 3.5181 30.0500 -12.6410
# 6 1.2839 5.7564 8.5192 -6.5290 -12.6410 23.7289
#
#
#
# Elastic Compliance Matrix: (Units=1/GPa)
#
#
# Indices 1 2 3 4 5 6 
#
# 1 0.031849 0.000058 -0.006924 0.002350 -0.001954 0.000354
# 2 0.000058 0.007394 -0.002085 0.001050 -0.001404 -0.001507
# 3 -0.006924 -0.002085 0.008853 -0.003372 0.001571 -0.002389
# 4 0.002350 0.001050 -0.003372 0.025291 -0.000669 0.007431
# 5 -0.001954 -0.001404 0.001571 -0.000669 0.043358 0.022796
# 6 0.000354 -0.001507 -0.002389 0.007431 0.022796 0.057535
#
#
# Mechanical properties :
#
#
# Convention : Reuss Voigt Hill
#
# Bulk Modulus (GPa) = 33.11833 56.99308 45.05570
# Shear Modulus (GPa) = 24.72210 36.79771 30.75991
#
# Velocity S-wave (km/s) = 3.34455 4.08042 3.73067
# Velocity P-wave (km/s) = 5.46806 6.92729 6.24048
#
# Compressibility (1/GPa) = 0.03019476
#
# Stress axis : x y z
#
# Youngs Moduli (GPa) = 31.39771 135.24626 112.95158
#
# Poissons Ratio (x) = -0.00787 0.78213
# Poissons Ratio (y) = -0.00183 0.23547
# Poissons Ratio (z) = 0.21741 0.28195
#
# Static dielectric constant tensor:
#      x y z
#    x -0.198310 -0.157070 0.066280 
#    y -0.157070 1.840460 0.041770 
#    z 0.066280 0.041770 1.813860 
# 
# From -- ./inp_files/428600.got.cif
#   From: 2010.05.17/outbox.cif.g08.bks.cpg/sg2_215_cif.got.tgz:428600.got - 2010.06.03 11:33:40.
