data_PCOD9056006
_publ_section_title
;
Structure prediction by ZEFSAII (Michael W. Deem and Ramdas Pophale) SiO2 
 PCOD9056006
Probable space group: P -1
;
_chemical_formula_sum "Si O2"
_cell_formula_units_Z 15
_cell_length_a 23.149913
_cell_length_b 14.224648
_cell_length_c 14.473010
_cell_angle_alpha 31.256139
_cell_angle_beta 157.259427
_cell_angle_gamma 160.461254
_cell_volume 612.373416
_symmetry_space_group_name_H-M "P -1"
_symmetry_group_IT_number 2
_symmetry_cell_setting 'triclinic'
loop_
_space_group_symop_operation_xyz
x,y,z
-x,-y,-z
loop_
_atom_site_type_symbol
_atom_site_label
_atom_site_fract_x
_atom_site_fract_y
_atom_site_fract_z
Si Si1 0.244366 0.203700 0.906804
Si Si2 0.399427 0.689575 0.390064
Si Si3 0.106088 0.978451 0.092839
Si Si4 0.456987 0.040901 0.033796
Si Si5 0.000000 0.500000 0.500000
Si Si6 0.253538 0.786432 0.264471
Si Si7 0.150189 0.086580 0.560236
Si Si8 0.929417 0.434472 0.252152
O O1 0.500000 0.500000 0.000000
O O2 0.200650 0.167834 0.982698
O O3 0.043103 0.128639 0.622520
O O4 0.212297 0.960292 0.038182
O O5 0.671801 0.920912 0.622689
O O6 0.387496 0.793403 0.192896
O O7 0.269002 0.680174 0.285481
O O8 0.296114 0.394327 0.481453
O O9 0.926609 0.653491 0.071907
O O10 0.000000 0.000000 0.000000
O O11 0.312463 0.892401 0.849545
O O12 0.735110 0.308185 0.231544
O O13 0.333554 0.102085 0.843242
O O14 0.942281 0.512859 0.510223
O O15 0.074776 0.547128 0.277421
O O16 0.500000 0.000000 0.500000
O O17 0.000000 0.000000 0.500000
#
# Coordination Sequence:
#
# PCOD9056006 Si02
#       8
#     2   2   2   2   1   2   2   2
#     4  11  25  47  76 115 155 203 267 330 395 476
#     4  12  24  49  77 111 159 204 254 329 404 471
#     4  11  25  47  75 113 158 211 259 322 412 475
#     4  12  28  51  82 116 156 209 272 328 397 484
#     4  12  26  54  74 114 156 210 274 330 398 472
#     4  11  21  44  78 111 152 204 258 319 399 474
#     4  12  28  46  75 123 157 201 266 332 402 485
#     4  11  25  47  77 110 152 208 261 321 397 475
#
# _framework density 24.494859999999999
#
# number of rings (size 3 to 8) (size 9 to 14) (size 15 to 20)
#    0.000    0.533    4.000    4.400    3.733    2.667 
#    2.400    1.333    0.000    0.000    0.000    0.000 
#    0.000    0.000    0.000    0.000    0.000    0.000 
#
# Total GULP energy -83721.436315 kJ/mol
# GULP energy per Si atom -5581.429088 kJ/mol
# Density = 2.443911 g / cm^3
# Si number density = 24.494860 Si / 1000 Ang^3
#
#
#
# Elastic Constant Matrix: (Units=GPa)
#
#
# Indices 1 2 3 4 5 6 
#
# 1 110.4817 11.5357 30.8534 11.8448 -1.7864 -3.6629
# 2 11.5357 96.0896 50.8734 3.1394 13.8510 0.7457
# 3 30.8534 50.8734 156.9702 19.9321 -0.2586 0.7414
# 4 11.8448 3.1394 19.9321 52.8680 -0.6773 -2.4339
# 5 -1.7864 13.8510 -0.2586 -0.6773 54.6489 1.7263
# 6 -3.6629 0.7457 0.7414 -2.4339 1.7263 29.5341
#
#
#
# Elastic Compliance Matrix: (Units=1/GPa)
#
#
# Indices 1 2 3 4 5 6 
#
# 1 0.009741 -0.000316 -0.001627 -0.001495 0.000337 0.001114
# 2 -0.000316 0.013194 -0.004331 0.000877 -0.003364 0.000005
# 3 -0.001627 -0.004331 0.008425 -0.002567 0.001071 -0.000578
# 4 -0.001495 0.000877 -0.002567 0.020235 -0.000081 0.001529
# 5 0.000337 -0.003364 0.001071 -0.000081 0.019199 -0.001029
# 6 0.001114 0.000005 -0.000578 0.001529 -0.001029 0.034198
#
#
# Mechanical properties :
#
#
# Convention : Reuss Voigt Hill
#
# Bulk Modulus (GPa) = 53.16002 61.11849 57.13925
# Shear Modulus (GPa) = 40.38405 45.42881 42.90643
#
# Velocity S-wave (km/s) = 4.06479 4.31121 4.18981
# Velocity P-wave (km/s) = 6.61662 7.05604 6.83986
#
# Compressibility (1/GPa) = 0.01881113
#
# Stress axis : x y z
#
# Youngs Moduli (GPa) = 102.65546 75.79124 118.70020
#
# Poissons Ratio (x) = 0.02398 0.19313
# Poissons Ratio (y) = 0.03249 0.51408
# Poissons Ratio (z) = 0.16703 0.32825
#
# Static dielectric constant tensor:
#      x y z
#    x 2.030700 -0.029320 0.040410 
#    y -0.029320 1.980110 0.035560 
#    z 0.040410 0.035560 1.911570 
# 
# From -- ./inp_files/543026.got.cif
#   From: 2010.05.17/outbox.cif.g08.bks.cpg/sg2_272_cif.got.tgz:543026.got - 2010.06.03 11:33:40.
