data_PCOD9056713
_publ_section_title
;
Structure prediction by ZEFSAII (Michael W. Deem and Ramdas Pophale) SiO2 
 PCOD9056713
Probable space group: P -1
;
_chemical_formula_sum "Si O2"
_cell_formula_units_Z 12
_cell_length_a 8.608809
_cell_length_b 12.341728
_cell_length_c 11.913820
_cell_angle_alpha 34.486964
_cell_angle_beta 39.913393
_cell_angle_gamma 53.894617
_cell_volume 456.649319
_symmetry_space_group_name_H-M "P -1"
_symmetry_group_IT_number 2
_symmetry_cell_setting 'triclinic'
loop_
_space_group_symop_operation_xyz
x,y,z
-x,-y,-z
loop_
_atom_site_type_symbol
_atom_site_label
_atom_site_fract_x
_atom_site_fract_y
_atom_site_fract_z
Si Si1 0.362882 0.977724 0.839401
Si Si2 0.093338 0.721637 0.372011
Si Si3 0.409501 0.399440 0.748303
Si Si4 0.834177 0.972511 0.742676
Si Si5 0.726355 0.386092 0.954569
Si Si6 0.255935 0.719469 0.710638
O O1 0.593052 0.983697 0.792588
O O2 0.463464 0.175773 0.548982
O O3 0.118952 0.895953 0.116537
O O4 0.358038 0.813521 0.888983
O O5 0.350108 0.637432 0.286179
O O6 0.907988 0.529357 0.655156
O O7 0.084548 0.833288 0.401037
O O8 0.500000 0.500000 0.500000
O O9 0.254161 0.533073 0.792465
O O10 0.274787 0.192018 0.968344
O O11 0.057657 0.865282 0.661799
O O12 0.500000 0.500000 0.000000
O O13 0.803456 0.339462 0.078041
#
# Coordination Sequence:
#
# PCOD9056713 Si02
#       6
#     2   2   2   2   2   2
#     4  11  24  43  69 102 139 182 229 281 340 407
#     4  11  24  45  70  99 138 184 228 281 341 406
#     4  11  22  40  67 104 138 177 229 285 339 403
#     4  11  23  43  71 103 136 179 231 285 336 401
#     4  12  26  46  68 101 142 183 226 283 348 409
#     4  12  25  43  70 105 138 179 229 285 341 406
#
# _framework density 26.278372999999998
#
# number of rings (size 3 to 8) (size 9 to 14) (size 15 to 20)
#    0.000    0.667    0.000   10.000    0.000    2.667 
#    0.000    2.500    0.000    0.000    0.000    0.000 
#    0.000    0.000    0.000    0.000    0.000    0.000 
#
# Total GULP energy -67052.733003 kJ/mol
# GULP energy per Si atom -5587.727750 kJ/mol
# Density = 2.621856 g / cm^3
# Si number density = 26.278373 Si / 1000 Ang^3
#
#
#
# Elastic Constant Matrix: (Units=GPa)
#
#
# Indices 1 2 3 4 5 6 
#
# 1 63.6219 26.6534 -7.3789 -5.3345 14.4884 9.2848
# 2 26.6534 142.6585 -21.5958 -9.7688 -8.3516 12.3194
# 3 -7.3789 -21.5958 161.6116 -4.0435 2.3446 -2.3542
# 4 -5.3345 -9.7688 -4.0435 53.5569 5.8561 -11.8967
# 5 14.4884 -8.3516 2.3446 5.8561 36.5336 5.3366
# 6 9.2848 12.3194 -2.3542 -11.8967 5.3366 44.4255
#
#
#
# Elastic Compliance Matrix: (Units=1/GPa)
#
#
# Indices 1 2 3 4 5 6 
#
# 1 0.019802 -0.003879 0.000543 0.001956 -0.008877 -0.001444
# 2 -0.003879 0.008252 0.000859 0.000405 0.003560 -0.001751
# 3 0.000543 0.000859 0.006360 0.000818 -0.000599 0.000276
# 4 0.001956 0.000405 0.000818 0.020800 -0.004899 0.005681
# 5 -0.008877 0.003560 -0.000599 -0.004899 0.033182 -0.004462
# 6 -0.001444 -0.001751 0.000276 0.005681 -0.004462 0.025369
#
#
# Mechanical properties :
#
#
# Convention : Reuss Voigt Hill
#
# Bulk Modulus (GPa) = 33.94551 40.36106 37.15328
# Shear Modulus (GPa) = 38.89865 51.58409 45.24137
#
# Velocity S-wave (km/s) = 3.85158 4.43537 4.15374
# Velocity P-wave (km/s) = 5.72060 6.45154 6.09703
#
# Compressibility (1/GPa) = 0.02945898
#
# Stress axis : x y z
#
# Youngs Moduli (GPa) = 50.50020 121.18588 157.22431
#
# Poissons Ratio (x) = 0.47003 -0.08530
# Poissons Ratio (y) = 0.19587 -0.13499
# Poissons Ratio (z) = -0.02740 -0.10405
#
# Static dielectric constant tensor:
#      x y z
#    x 1.666950 0.063340 0.074090 
#    y 0.063340 1.942550 0.020570 
#    z 0.074090 0.020570 2.335220 
# 
# From -- ./inp_files/261882.got.cif
#   From: 2010.05.17/outbox.cif.g08.bks.cpg/sg2_131_cif.got.tgz:261882.got - 2010.06.03 11:33:40.
