data_PCOD9056747
_publ_section_title
;
Structure prediction by ZEFSAII (Michael W. Deem and Ramdas Pophale) SiO2 
 PCOD9056747
Probable space group: P -1
;
_chemical_formula_sum "Si O2"
_cell_formula_units_Z 16
_cell_length_a 4.979622
_cell_length_b 16.625995
_cell_length_c 8.659166
_cell_angle_alpha 84.487494
_cell_angle_beta 125.105170
_cell_angle_gamma 99.616270
_cell_volume 578.255299
_symmetry_space_group_name_H-M "P -1"
_symmetry_group_IT_number 2
_symmetry_cell_setting 'triclinic'
loop_
_space_group_symop_operation_xyz
x,y,z
-x,-y,-z
loop_
_atom_site_type_symbol
_atom_site_label
_atom_site_fract_x
_atom_site_fract_y
_atom_site_fract_z
Si Si1 0.528902 0.769967 0.879141
Si Si2 0.260586 0.640662 0.082636
Si Si3 0.827564 0.058665 0.040619
Si Si4 0.291957 0.348483 0.282339
Si Si5 0.770639 0.269969 0.620861
Si Si6 0.746328 0.558666 0.459385
Si Si7 0.272723 0.151519 0.782340
Si Si8 0.904666 0.859339 0.582634
O O1 0.732231 0.732807 0.819117
O O2 0.215814 0.808694 0.704885
O O3 0.393932 0.698998 0.971243
O O4 0.737077 0.841289 0.035391
O O5 0.193931 0.691306 0.204880
O O6 0.537960 0.587798 0.241977
O O7 0.904313 0.597761 0.907356
O O8 0.648302 0.132328 0.897639
O O9 0.054024 0.087794 0.258030
O O10 0.500000 0.000000 0.000000
O O11 0.000000 0.000000 0.000000
O O12 0.666295 0.341293 0.464617
O O13 0.146952 0.367673 0.397625
O O14 0.451468 0.198999 0.528757
O O15 0.094017 0.232811 0.680881
O O16 0.500000 0.500000 0.500000
O O17 0.000000 0.500000 0.500000
O O18 0.089617 0.097764 0.592645
#
# Coordination Sequence:
#
# PCOD9056747 Si02
#       8
#     2   2   2   2   2   2   2   2
#     4  11  22  40  68 110 134 169 234 292 382 415
#     4  11  24  41  72  99 142 179 224 303 354 424
#     4  11  30  50  66  98 142 197 246 276 330 423
#     4  11  24  41  72  99 142 179 224 303 354 424
#     4  11  22  40  68 110 134 169 234 292 382 415
#     4  11  30  50  66  98 142 197 246 276 330 423
#     4  11  24  41  72  99 142 179 224 303 354 424
#     4  11  24  41  72  99 142 179 224 303 354 424
#
# _framework density 27.669443000000001
#
# number of rings (size 3 to 8) (size 9 to 14) (size 15 to 20)
#    0.000    1.000    5.000    0.000    7.000    2.000 
#    0.000    0.000    0.000    0.000    0.000    0.000 
#    0.000    0.000    0.000    0.000    0.000    0.000 
#
# Total GULP energy -89222.473658 kJ/mol
# GULP energy per Si atom -5576.404604 kJ/mol
# Density = 2.760647 g / cm^3
# Si number density = 27.669443 Si / 1000 Ang^3
#
#
#
# Elastic Constant Matrix: (Units=GPa)
#
#
# Indices 1 2 3 4 5 6 
#
# 1 174.2174 74.9750 42.5425 1.7276 -3.4520 -56.9198
# 2 74.9750 131.8508 59.4366 -1.2394 -0.5882 -41.4981
# 3 42.5425 59.4366 274.9760 -2.7254 0.0052 -35.5944
# 4 1.7276 -1.2394 -2.7254 60.0740 -16.8706 0.1902
# 5 -3.4520 -0.5882 0.0052 -16.8706 33.0461 1.7964
# 6 -56.9198 -41.4981 -35.5944 0.1902 1.7964 74.8852
#
#
#
# Elastic Compliance Matrix: (Units=1/GPa)
#
#
# Indices 1 2 3 4 5 6 
#
# 1 0.008815 -0.003525 0.000010 -0.000201 0.000498 0.004740
# 2 -0.003525 0.011143 -0.001501 0.000192 -0.000223 0.002788
# 3 0.000010 -0.001501 0.004107 0.000148 -0.000012 0.001128
# 4 -0.000201 0.000192 0.000148 0.019451 0.009927 -0.000264
# 5 0.000498 -0.000223 -0.000012 0.009927 0.035411 -0.000626
# 6 0.004740 0.002788 0.001128 -0.000264 -0.000626 0.019053
#
#
# Mechanical properties :
#
#
# Convention : Reuss Voigt Hill
#
# Bulk Modulus (GPa) = 71.25511 103.88359 87.56935
# Shear Modulus (GPa) = 44.36975 60.54040 52.45507
#
# Velocity S-wave (km/s) = 4.00880 4.68267 4.35877
# Velocity P-wave (km/s) = 6.87281 8.17695 7.55308
#
# Compressibility (1/GPa) = 0.01403408
#
# Stress axis : x y z
#
# Youngs Moduli (GPa) = 113.44312 89.74113 243.48670
#
# Poissons Ratio (x) = 0.31630 -0.00235
# Poissons Ratio (y) = 0.39984 0.36537
# Poissons Ratio (z) = -0.00110 0.13466
#
# Static dielectric constant tensor:
#      x y z
#    x 2.243650 0.183180 0.007280 
#    y 0.183180 2.331850 0.001030 
#    z 0.007280 0.001030 2.230900 
# 
# From -- ./inp_files/13694.got.cif
#   From: 2010.05.17/outbox.cif.g08.bks.cpg/sg2_7_cif.got.tgz:13694.got - 2010.06.03 11:33:40.
