data_PCOD9056197
_publ_section_title
;
Structure prediction by ZEFSAII (Michael W. Deem and Ramdas Pophale) SiO2 
 PCOD9056197
Probable space group: P -1
;
_chemical_formula_sum "Si O2"
_cell_formula_units_Z 16
_cell_length_a 11.608718
_cell_length_b 8.078653
_cell_length_c 14.855264
_cell_angle_alpha 54.670791
_cell_angle_beta 142.245024
_cell_angle_gamma 129.671811
_cell_volume 648.536455
_symmetry_space_group_name_H-M "P -1"
_symmetry_group_IT_number 2
_symmetry_cell_setting 'triclinic'
loop_
_space_group_symop_operation_xyz
x,y,z
-x,-y,-z
loop_
_atom_site_type_symbol
_atom_site_label
_atom_site_fract_x
_atom_site_fract_y
_atom_site_fract_z
Si Si1 0.597535 0.839158 0.156685
Si Si2 0.393189 0.166534 0.178162
Si Si3 0.806875 0.548963 0.971940
Si Si4 0.901834 0.683251 0.791109
Si Si5 0.388400 0.716619 0.349527
Si Si6 0.992614 0.825991 0.358499
Si Si7 0.353854 0.755011 0.513171
Si Si8 0.728414 0.066881 0.346921
O O1 0.403414 0.636184 0.128933
O O2 0.751657 0.753699 0.224619
O O3 0.730573 0.968224 0.282534
O O4 0.500000 0.000000 0.000000
O O5 0.241103 0.292576 0.036714
O O6 0.525932 0.270875 0.316648
O O7 0.565255 0.187513 0.204080
O O8 0.288739 0.904067 0.212420
O O9 0.913158 0.680859 0.907092
O O10 0.940321 0.410566 0.127071
O O11 0.695336 0.495979 0.694832
O O12 0.938682 0.922080 0.707005
O O13 0.351484 0.640420 0.453506
O O14 0.610039 0.867316 0.405032
O O15 0.130021 0.732716 0.411763
O O16 0.068940 0.805079 0.514147
O O17 0.500000 0.000000 0.500000
#
# Coordination Sequence:
#
# PCOD9056197 Si02
#       8
#     2   2   2   2   2   2   2   2
#     4  12  24  45  59  87 129 167 204 247 306 365
#     4   8  18  36  59  83 122 155 192 249 307 353
#     4  11  22  39  59  87 124 164 210 244 304 362
#     4  11  22  35  60  95 118 162 207 252 300 362
#     4   9  18  35  59  92 124 144 201 253 313 341
#     4  11  22  39  68  91 124 161 202 249 311 359
#     4   9  16  36  59  92 121 153 191 254 307 357
#     4   9  21  41  62  91 119 163 198 255 301 365
#
# _framework density 24.670935
#
# number of rings (size 3 to 8) (size 9 to 14) (size 15 to 20)
#    0.750    1.250    3.750    1.875    0.000    2.000 
#    2.250    4.375    0.000    0.000    0.000    0.000 
#    0.000    0.000    0.000    0.000    0.000    0.000 
#
# Total GULP energy -89247.880099 kJ/mol
# GULP energy per Si atom -5577.992506 kJ/mol
# Density = 2.461478 g / cm^3
# Si number density = 24.670935 Si / 1000 Ang^3
#
#
#
# Elastic Constant Matrix: (Units=GPa)
#
#
# Indices 1 2 3 4 5 6 
#
# 1 92.1972 5.6682 40.1719 -4.6620 26.4259 -1.9928
# 2 5.6682 53.8808 15.3492 -22.4271 3.7398 -0.7185
# 3 40.1719 15.3492 56.2838 -3.0793 25.5506 1.8915
# 4 -4.6620 -22.4271 -3.0793 26.1587 -3.4584 7.4299
# 5 26.4259 3.7398 25.5506 -3.4584 42.9035 3.8381
# 6 -1.9928 -0.7185 1.8915 7.4299 3.8381 27.3882
#
#
#
# Elastic Compliance Matrix: (Units=1/GPa)
#
#
# Indices 1 2 3 4 5 6 
#
# 1 0.016723 0.002962 -0.010800 0.003226 -0.004022 0.001729
# 2 0.002962 0.034175 -0.011977 0.031219 0.005499 -0.007300
# 3 -0.010800 -0.011977 0.034359 -0.010315 -0.013709 0.001247
# 4 0.003226 0.031219 -0.010315 0.070826 0.008815 -0.018683
# 5 -0.004022 0.005499 -0.013709 0.008815 0.034759 -0.006464
# 6 0.001729 -0.007300 0.001247 -0.018683 -0.006464 0.042334
#
#
# Mechanical properties :
#
#
# Convention : Reuss Voigt Hill
#
# Bulk Modulus (GPa) = 21.91658 36.08227 28.99943
# Shear Modulus (GPa) = 17.36023 28.70157 23.03090
#
# Velocity S-wave (km/s) = 2.65556 3.41453 3.05868
# Velocity P-wave (km/s) = 4.27849 5.49568 4.92484
#
# Compressibility (1/GPa) = 0.04562755
#
# Stress axis : x y z
#
# Youngs Moduli (GPa) = 59.79805 29.26106 29.10475
#
# Poissons Ratio (x) = -0.08668 0.31432
# Poissons Ratio (y) = -0.17714 0.34860
# Poissons Ratio (z) = 0.64580 0.35047
#
# Static dielectric constant tensor:
#      x y z
#    x 2.013910 -0.030230 0.008720 
#    y -0.030230 1.953500 0.016710 
#    z 0.008720 0.016710 2.100710 
# 
# From -- ./inp_files/515123.got.cif
#   From: 2010.05.17/outbox.cif.g08.bks.cpg/sg2_258_cif.got.tgz:515123.got - 2010.06.03 11:33:40.
