data_PCOD9056560
_publ_section_title
;
Structure prediction by ZEFSAII (Michael W. Deem and Ramdas Pophale) SiO2 
 PCOD9056560
Probable space group: P -1
;
_chemical_formula_sum "Si O2"
_cell_formula_units_Z 16
_cell_length_a 8.799944
_cell_length_b 24.030421
_cell_length_c 21.786863
_cell_angle_alpha 19.484062
_cell_angle_beta 28.447765
_cell_angle_gamma 35.422925
_cell_volume 729.170612
_symmetry_space_group_name_H-M "P -1"
_symmetry_group_IT_number 2
_symmetry_cell_setting 'triclinic'
loop_
_space_group_symop_operation_xyz
x,y,z
-x,-y,-z
loop_
_atom_site_type_symbol
_atom_site_label
_atom_site_fract_x
_atom_site_fract_y
_atom_site_fract_z
Si Si1 0.643275 0.890365 0.617322
Si Si2 0.399965 0.509714 0.096248
Si Si3 0.827370 0.032364 0.889615
Si Si4 0.164139 0.278704 0.707217
Si Si5 0.349058 0.883712 0.385775
Si Si6 0.484400 0.829834 0.534020
Si Si7 0.580533 0.223567 0.895033
Si Si8 0.331659 0.489658 0.636563
O O1 0.999078 0.842245 0.525021
O O2 0.500000 0.000000 0.500000
O O3 0.664736 0.024425 0.525864
O O4 0.463400 0.707065 0.886938
O O5 0.572490 0.360851 0.223025
O O6 0.023388 0.458190 0.293572
O O7 0.500000 0.500000 0.000000
O O8 0.760686 0.146051 0.853990
O O9 0.132558 0.113934 0.660053
O O10 0.500000 0.000000 0.000000
O O11 0.920715 0.860460 0.065551
O O12 0.376997 0.198979 0.662675
O O13 0.410152 0.409452 0.517260
O O14 0.843888 0.324255 0.739846
O O15 0.366045 0.835357 0.500576
O O16 0.427550 0.079875 0.142585
O O17 0.309028 0.312759 0.863541
O O18 0.500000 0.500000 0.500000
#
# Coordination Sequence:
#
# PCOD9056560 Si02
#       8
#     2   2   2   2   2   2   2   2
#     4  12  27  46  74 101 136 192 243 292 356 423
#     4  12  27  49  70 106 146 188 240 299 362 421
#     4  11  22  39  68 103 135 181 228 291 360 421
#     4  11  22  43  69 100 143 185 224 293 375 419
#     4  11  24  47  69 102 139 188 236 288 363 435
#     4  12  25  47  72 100 146 182 244 291 350 441
#     4  11  22  43  69 101 144 179 230 295 362 428
#     4  12  27  43  70 108 142 183 247 302 349 432
#
# _framework density 21.942740000000001
#
# number of rings (size 3 to 8) (size 9 to 14) (size 15 to 20)
#    0.000    0.500    3.750    5.250    7.000    0.500 
#    2.250    0.000    0.000    0.000    0.000    0.000 
#    0.000    0.000    0.000    0.000    0.000    0.000 
#
# Total GULP energy -89354.855338 kJ/mol
# GULP energy per Si atom -5584.678459 kJ/mol
# Density = 2.189280 g / cm^3
# Si number density = 21.942740 Si / 1000 Ang^3
#
#
#
# Elastic Constant Matrix: (Units=GPa)
#
#
# Indices 1 2 3 4 5 6 
#
# 1 112.2438 19.8121 37.7952 -9.9130 15.0666 -3.6026
# 2 19.8121 41.6107 17.6039 -8.2944 18.0524 -5.0817
# 3 37.7952 17.6039 78.2224 -10.6413 18.6275 3.9154
# 4 -9.9130 -8.2944 -10.6413 35.5426 -9.9985 -1.5856
# 5 15.0666 18.0524 18.6275 -9.9985 50.5374 2.4118
# 6 -3.6026 -5.0817 3.9154 -1.5856 2.4118 29.2731
#
#
#
# Elastic Compliance Matrix: (Units=1/GPa)
#
#
# Indices 1 2 3 4 5 6 
#
# 1 0.011150 -0.002738 -0.004587 0.001020 -0.000530 0.001609
# 2 -0.002738 0.032298 -0.003667 0.003440 -0.009008 0.006689
# 3 -0.004587 -0.003667 0.016972 0.001951 -0.003044 -0.003115
# 4 0.001020 0.003440 0.001951 0.030953 0.003785 0.001826
# 5 -0.000530 -0.009008 -0.003044 0.003785 0.025181 -0.003092
# 6 0.001609 0.006689 -0.003115 0.001826 -0.003092 0.036290
#
#
# Mechanical properties :
#
#
# Convention : Reuss Voigt Hill
#
# Bulk Modulus (GPa) = 26.01803 42.49992 34.25898
# Shear Modulus (GPa) = 26.64676 33.52834 30.08755
#
# Velocity S-wave (km/s) = 3.48857 3.91320 3.70697
# Velocity P-wave (km/s) = 5.30187 6.31095 5.82829
#
# Compressibility (1/GPa) = 0.03843488
#
# Stress axis : x y z
#
# Youngs Moduli (GPa) = 89.68711 30.96165 58.92198
#
# Poissons Ratio (x) = 0.08479 0.27025
# Poissons Ratio (y) = 0.24560 0.21608
# Poissons Ratio (z) = 0.41136 0.11355
#
# Static dielectric constant tensor:
#      x y z
#    x 1.766180 0.001100 -0.032330 
#    y 0.001100 1.778140 -0.037560 
#    z -0.032330 -0.037560 1.851790 
# 
# From -- ./inp_files/327553.got.cif
#   From: 2010.05.17/outbox.cif.g08.bks.cpg/sg2_164_cif.got.tgz:327553.got - 2010.06.03 11:33:40.
