data_PCOD9056086
_publ_section_title
;
Structure prediction by ZEFSAII (Michael W. Deem and Ramdas Pophale) SiO2 
 PCOD9056086
Probable space group: P -1
;
_chemical_formula_sum "Si O2"
_cell_formula_units_Z 11
_cell_length_a 7.184874
_cell_length_b 11.755769
_cell_length_c 9.535266
_cell_angle_alpha 73.716908
_cell_angle_beta 92.558292
_cell_angle_gamma 143.754784
_cell_volume 433.074243
_symmetry_space_group_name_H-M "P -1"
_symmetry_group_IT_number 2
_symmetry_cell_setting 'triclinic'
loop_
_space_group_symop_operation_xyz
x,y,z
-x,-y,-z
loop_
_atom_site_type_symbol
_atom_site_label
_atom_site_fract_x
_atom_site_fract_y
_atom_site_fract_z
Si Si1 0.211486 0.679796 0.057502
Si Si2 0.000000 0.000000 0.000000
Si Si3 0.241187 0.367472 0.818592
Si Si4 0.525825 0.820827 0.290789
Si Si5 0.671361 0.015642 0.746136
Si Si6 0.381712 0.212063 0.400335
O O1 0.242081 0.646300 0.225466
O O2 0.030020 0.707988 0.068313
O O3 0.000000 0.500000 0.000000
O O4 0.581994 0.897538 0.930947
O O5 0.277982 0.258186 0.921560
O O6 0.138244 0.036459 0.829077
O O7 0.527460 0.613854 0.723124
O O8 0.055743 0.248963 0.702683
O O9 0.514147 0.956613 0.272448
O O10 0.448904 0.715478 0.468480
O O11 0.559033 0.867763 0.673469
O O12 0.000000 0.000000 0.500000
#
# Coordination Sequence:
#
# PCOD9056086 Si02
#       6
#     2   1   2   2   2   2
#     4  11  21  45  78 107 136 193 250 301 353 429
#     4  12  22  44  74 102 142 198 236 290 366 416
#     4  11  24  46  75 102 152 188 244 306 354 430
#     4  11  25  44  73 106 145 189 241 298 360 431
#     4  11  22  48  74 105 142 190 247 301 358 431
#     4  12  28  48  71 111 153 190 237 299 373 433
#
# _framework density 25.399802000000001
#
# number of rings (size 3 to 8) (size 9 to 14) (size 15 to 20)
#    0.000    0.727    5.455    2.727    0.000    5.818 
#    6.545    4.545    0.000    0.000    0.000    0.000 
#    0.000    0.000    0.000    0.000    0.000    0.000 
#
# Total GULP energy -61302.576426 kJ/mol
# GULP energy per Si atom -5572.961493 kJ/mol
# Density = 2.534199 g / cm^3
# Si number density = 25.399802 Si / 1000 Ang^3
#
#
#
# Elastic Constant Matrix: (Units=GPa)
#
#
# Indices 1 2 3 4 5 6 
#
# 1 76.4552 33.8359 24.5320 -5.5352 -4.8506 -44.8294
# 2 33.8359 189.4338 61.6188 0.0232 0.1599 -31.6779
# 3 24.5320 61.6188 119.9076 5.1122 -2.3473 -20.4104
# 4 -5.5352 0.0232 5.1122 54.1130 2.4258 2.1923
# 5 -4.8506 0.1599 -2.3473 2.4258 31.7095 -0.7473
# 6 -44.8294 -31.6779 -20.4104 2.1923 -0.7473 45.4584
#
#
#
# Elastic Compliance Matrix: (Units=1/GPa)
#
#
# Indices 1 2 3 4 5 6 
#
# 1 0.032331 -0.000172 -0.001185 0.001910 0.005449 0.031229
# 2 -0.000172 0.006802 -0.002917 0.000133 -0.000210 0.003251
# 3 -0.001185 -0.002917 0.010409 -0.001199 0.000732 0.001542
# 4 0.001910 0.000133 -0.001199 0.018823 -0.001225 0.000510
# 5 0.005449 -0.000210 0.000732 -0.001225 0.032664 0.006152
# 6 0.031229 0.003251 0.001542 0.000510 0.006152 0.055830
#
#
# Mechanical properties :
#
#
# Convention : Reuss Voigt Hill
#
# Bulk Modulus (GPa) = 24.39344 69.52999 46.96171
# Shear Modulus (GPa) = 27.92181 43.97684 35.94933
#
# Velocity S-wave (km/s) = 3.31916 4.16551 3.76618
# Velocity P-wave (km/s) = 4.93089 7.11118 6.11893
#
# Compressibility (1/GPa) = 0.04099463
#
# Stress axis : x y z
#
# Youngs Moduli (GPa) = 30.92985 147.01161 96.07043
#
# Poissons Ratio (x) = 0.02526 0.11388
# Poissons Ratio (y) = 0.00531 0.28021
# Poissons Ratio (z) = 0.03666 0.42880
#
# Static dielectric constant tensor:
#      x y z
#    x 1.880640 0.080100 -0.042530 
#    y 0.080100 1.998580 0.044870 
#    z -0.042530 0.044870 2.008640 
# 
# From -- ./inp_files/169521.got.cif
#   From: 2010.05.17/outbox.cif.g08.bks.cpg/sg2_85_cif.got.tgz:169521.got - 2010.06.03 11:33:40.
