data_PCOD9056962
_publ_section_title
;
Structure prediction by ZEFSAII (Michael W. Deem and Ramdas Pophale) SiO2 
 PCOD9056962
Probable space group: P -1
;
_chemical_formula_sum "Si O2"
_cell_formula_units_Z 14
_cell_length_a 8.285071
_cell_length_b 10.335128
_cell_length_c 9.894082
_cell_angle_alpha 44.234661
_cell_angle_beta 98.776566
_cell_angle_gamma 107.290378
_cell_volume 561.978101
_symmetry_space_group_name_H-M "P -1"
_symmetry_group_IT_number 2
_symmetry_cell_setting 'triclinic'
loop_
_space_group_symop_operation_xyz
x,y,z
-x,-y,-z
loop_
_atom_site_type_symbol
_atom_site_label
_atom_site_fract_x
_atom_site_fract_y
_atom_site_fract_z
Si Si1 0.342969 0.056501 0.517825
Si Si2 0.969222 0.931019 0.891211
Si Si3 0.196621 0.648675 0.153480
Si Si4 0.303068 0.384643 0.076868
Si Si5 0.482421 0.948111 0.879721
Si Si6 0.878712 0.341104 0.277592
Si Si7 0.819477 0.238502 0.627249
O O1 0.386935 0.054380 0.682869
O O2 0.177301 0.880304 0.603918
O O3 0.500000 0.000000 0.500000
O O4 0.311575 0.245506 0.307930
O O5 0.804712 0.766933 0.937006
O O6 0.969886 0.141680 0.676463
O O7 0.113092 0.820314 0.971780
O O8 0.000000 0.000000 0.000000
O O9 0.179753 0.649646 0.315562
O O10 0.074037 0.450175 0.237398
O O11 0.382561 0.722302 0.054757
O O12 0.500000 0.500000 0.000000
O O13 0.204268 0.547669 0.924242
O O14 0.670517 0.043639 0.778359
O O15 0.500000 0.000000 0.000000
O O16 0.795593 0.354661 0.405139
#
# Coordination Sequence:
#
# PCOD9056962 Si02
#       7
#     2   2   2   2   2   2   2
#     4  12  21  38  64  90 119 164 210 254 304 368
#     4   9  18  34  57  86 119 160 203 246 299 365
#     4   9  21  35  57  93 125 158 201 260 311 361
#     4  11  20  33  57  93 119 151 208 263 294 353
#     4  10  21  38  62  90 124 164 199 251 320 368
#     4  11  21  35  61  93 118 159 212 255 299 368
#     4  10  17  36  64  86 122 166 209 246 304 373
#
# _framework density 24.912005000000001
#
# number of rings (size 3 to 8) (size 9 to 14) (size 15 to 20)
#    0.000    1.714    4.286    0.429    0.000    0.571 
#    0.000    2.857    3.143    0.857    0.000    0.000 
#    0.000    0.000    0.000    0.000    0.000    0.000 
#
# Total GULP energy -77961.495308 kJ/mol
# GULP energy per Si atom -5568.678236 kJ/mol
# Density = 2.485530 g / cm^3
# Si number density = 24.912005 Si / 1000 Ang^3
#
#
#
# Elastic Constant Matrix: (Units=GPa)
#
#
# Indices 1 2 3 4 5 6 
#
# 1 56.0523 21.1771 34.2394 0.7894 -11.5534 -7.4178
# 2 21.1771 109.0933 54.7259 26.0908 -12.2747 17.3613
# 3 34.2394 54.7259 192.4647 18.8983 -14.9668 -7.8529
# 4 0.7894 26.0908 18.8983 54.0499 2.1628 0.0350
# 5 -11.5534 -12.2747 -14.9668 2.1628 35.1137 -6.7871
# 6 -7.4178 17.3613 -7.8529 0.0350 -6.7871 22.3202
#
#
#
# Elastic Compliance Matrix: (Units=1/GPa)
#
#
# Indices 1 2 3 4 5 6 
#
# 1 0.024743 -0.006063 -0.001737 0.002845 0.007956 0.014743
# 2 -0.006063 0.016162 -0.003583 -0.006427 -0.000572 -0.016011
# 3 -0.001737 -0.003583 0.006993 -0.000783 0.002239 0.005353
# 4 0.002845 -0.006427 -0.000783 0.021914 -0.002024 0.005019
# 5 0.007956 -0.000572 0.002239 -0.002024 0.034769 0.014452
# 6 0.014743 -0.016011 0.005353 0.005019 0.014452 0.068426
#
#
# Mechanical properties :
#
#
# Convention : Reuss Voigt Hill
#
# Bulk Modulus (GPa) = 39.79204 64.21060 52.00132
# Shear Modulus (GPa) = 24.49174 38.79462 31.64318
#
# Velocity S-wave (km/s) = 3.13889 3.95050 3.56785
# Velocity P-wave (km/s) = 5.39857 6.82931 6.15565
#
# Compressibility (1/GPa) = 0.02513065
#
# Stress axis : x y z
#
# Youngs Moduli (GPa) = 40.41563 61.87442 142.99772
#
# Poissons Ratio (x) = 0.37516 0.24837
# Poissons Ratio (y) = 0.24505 0.51243
# Poissons Ratio (z) = 0.07020 0.22173
#
# Static dielectric constant tensor:
#      x y z
#    x 2.181960 -0.000450 0.002790 
#    y -0.000450 2.082510 0.046690 
#    z 0.002790 0.046690 1.971880 
# 
# From -- ./inp_files/430813.got.cif
#   From: 2010.05.17/outbox.cif.g08.bks.cpg/sg2_216_cif.got.tgz:430813.got - 2010.06.03 11:33:40.
