data_PCOD9056121
_publ_section_title
;
Structure prediction by ZEFSAII (Michael W. Deem and Ramdas Pophale) SiO2 
 PCOD9056121
Probable space group: P -1
;
_chemical_formula_sum "Si O2"
_cell_formula_units_Z 15
_cell_length_a 14.157578
_cell_length_b 10.031130
_cell_length_c 14.109257
_cell_angle_alpha 80.224484
_cell_angle_beta 33.080339
_cell_angle_gamma 105.093829
_cell_volume 714.594422
_symmetry_space_group_name_H-M "P -1"
_symmetry_group_IT_number 2
_symmetry_cell_setting 'triclinic'
loop_
_space_group_symop_operation_xyz
x,y,z
-x,-y,-z
loop_
_atom_site_type_symbol
_atom_site_label
_atom_site_fract_x
_atom_site_fract_y
_atom_site_fract_z
Si Si1 0.522168 0.909855 0.079118
Si Si2 0.785723 0.676176 0.693712
Si Si3 0.979777 0.966200 0.662032
Si Si4 0.787538 0.079737 0.376045
Si Si5 0.140859 0.570139 0.769725
Si Si6 0.273193 0.844935 0.933890
Si Si7 0.267937 0.075050 0.762788
Si Si8 0.000000 0.500000 0.500000
O O1 0.233073 0.680988 0.359747
O O2 0.653439 0.075781 0.030989
O O3 0.500000 0.000000 0.000000
O O4 0.716302 0.899912 0.894852
O O5 0.804242 0.795824 0.578099
O O6 0.881999 0.585516 0.593992
O O7 0.500000 0.500000 0.000000
O O8 0.965266 0.847105 0.604864
O O9 0.023637 0.912247 0.729187
O O10 0.858114 0.279082 0.294621
O O11 0.512008 0.901135 0.681874
O O12 0.752598 0.026552 0.302049
O O13 0.439440 0.692866 0.516116
O O14 0.000000 0.500000 0.000000
O O15 0.986601 0.384286 0.849624
O O16 0.268082 0.983046 0.866281
O O17 0.000000 0.000000 0.000000
#
# Coordination Sequence:
#
# PCOD9056121 Si02
#       8
#     2   2   2   2   2   2   2   1
#     4  12  26  45  70 104 147 189 246 310 368 438
#     4  11  24  45  71 100 140 189 242 300 364 439
#     4  11  25  45  67 106 146 185 243 303 368 433
#     4  11  23  42  72 102 145 186 239 302 364 446
#     4  11  21  46  72 104 142 193 245 292 370 446
#     4  11  24  44  71 101 143 193 241 299 370 439
#     4  11  23  43  70 104 144 184 238 310 366 435
#     4  12  24  46  72 100 140 192 240 302 368 434
#
# _framework density 20.990926999999999
#
# number of rings (size 3 to 8) (size 9 to 14) (size 15 to 20)
#    0.000    0.800    5.333    2.400    1.867    4.800 
#    0.000    0.000    0.000    0.000    0.000    0.000 
#    0.000    0.000    0.000    0.000    0.000    0.000 
#
# Total GULP energy -83502.700607 kJ/mol
# GULP energy per Si atom -5566.846707 kJ/mol
# Density = 2.094315 g / cm^3
# Si number density = 20.990927 Si / 1000 Ang^3
#
#
#
# Elastic Constant Matrix: (Units=GPa)
#
#
# Indices 1 2 3 4 5 6 
#
# 1 127.5305 22.7406 36.1124 2.5721 -11.2928 3.0662
# 2 22.7406 106.5317 51.6778 -5.2101 -13.5109 13.8419
# 3 36.1124 51.6778 107.3052 -12.1119 -19.6097 -1.5592
# 4 2.5721 -5.2101 -12.1119 33.5841 -0.6082 -9.6736
# 5 -11.2928 -13.5109 -19.6097 -0.6082 27.2965 2.8707
# 6 3.0662 13.8419 -1.5592 -9.6736 2.8707 43.9058
#
#
#
# Elastic Compliance Matrix: (Units=1/GPa)
#
#
# Indices 1 2 3 4 5 6 
#
# 1 0.008901 -0.000275 -0.002820 -0.002056 0.001600 -0.001193
# 2 -0.000275 0.013277 -0.006066 -0.001464 0.002580 -0.004873
# 3 -0.002820 -0.006066 0.015073 0.005839 0.006420 0.003511
# 4 -0.002056 -0.001464 0.005839 0.034216 0.002521 0.008186
# 5 0.001600 0.002580 0.006420 0.002521 0.043556 -0.002990
# 6 -0.001193 -0.004873 0.003511 0.008186 -0.002990 0.026519
#
#
# Mechanical properties :
#
#
# Convention : Reuss Voigt Hill
#
# Bulk Modulus (GPa) = 52.83022 62.49213 57.66118
# Shear Modulus (GPa) = 30.08900 36.34641 33.21770
#
# Velocity S-wave (km/s) = 3.79017 4.16568 3.98235
# Velocity P-wave (km/s) = 6.66158 7.27824 6.97673
#
# Compressibility (1/GPa) = 0.01892856
#
# Stress axis : x y z
#
# Youngs Moduli (GPa) = 112.35173 75.31806 66.34339
#
# Poissons Ratio (x) = 0.02068 0.18710
# Poissons Ratio (y) = 0.03085 0.40246
# Poissons Ratio (z) = 0.31685 0.45691
#
# Static dielectric constant tensor:
#      x y z
#    x 1.672780 -0.114290 0.101000 
#    y -0.114290 1.499010 0.220220 
#    z 0.101000 0.220220 1.568080 
# 
# From -- ./inp_files/529762.got.cif
#   From: 2010.05.17/outbox.cif.g08.bks.cpg/sg2_265_cif.got.tgz:529762.got - 2010.06.03 11:33:40.
