data_PCOD9056179
_publ_section_title
;
Structure prediction by ZEFSAII (Michael W. Deem and Ramdas Pophale) SiO2 
 PCOD9056179
Probable space group: P -1
;
_chemical_formula_sum "Si O2"
_cell_formula_units_Z 14
_cell_length_a 16.272699
_cell_length_b 6.201039
_cell_length_c 13.115092
_cell_angle_alpha 95.575278
_cell_angle_beta 33.456689
_cell_angle_gamma 105.810097
_cell_volume 680.546008
_symmetry_space_group_name_H-M "P -1"
_symmetry_group_IT_number 2
_symmetry_cell_setting 'triclinic'
loop_
_space_group_symop_operation_xyz
x,y,z
-x,-y,-z
loop_
_atom_site_type_symbol
_atom_site_label
_atom_site_fract_x
_atom_site_fract_y
_atom_site_fract_z
Si Si1 0.842916 0.342696 0.953255
Si Si2 0.981982 0.970568 0.280201
Si Si3 0.720040 0.467414 0.548916
Si Si4 0.466300 0.544454 0.699558
Si Si5 0.958405 0.373757 0.430572
Si Si6 0.633642 0.881407 0.366905
Si Si7 0.896433 0.261307 0.204602
O O1 0.865701 0.098341 0.906434
O O2 0.925887 0.474254 0.770296
O O3 0.948680 0.503325 0.943491
O O4 0.667188 0.343883 0.139233
O O5 0.840334 0.729891 0.432492
O O6 0.985786 0.131376 0.380474
O O7 0.944961 0.102176 0.228263
O O8 0.547083 0.479139 0.712072
O O9 0.781000 0.353407 0.575158
O O10 0.760689 0.341355 0.401882
O O11 0.598836 0.730036 0.500398
O O12 0.388499 0.310002 0.705144
O O13 0.000000 0.500000 0.500000
O O14 0.500000 0.000000 0.500000
O O15 0.804782 0.085476 0.203485
#
# Coordination Sequence:
#
# PCOD9056179 Si02
#       7
#     2   2   2   2   2   2   2
#     4   9  21  34  55  81 114 139 180 227 274 316
#     4   8  16  34  55  75 105 143 171 222 268 325
#     4   9  17  32  57  77 109 142 180 220 271 324
#     4  11  22  35  52  85 110 147 185 227 269 312
#     4   9  19  36  62  85 101 140 184 218 269 341
#     4  11  22  34  56  77 111 151 194 220 260 322
#     4   9  17  35  54  76 102 150 189 218 264 312
#
# _framework density 20.571718000000001
#
# number of rings (size 3 to 8) (size 9 to 14) (size 15 to 20)
#    0.000    3.143    2.857    0.000    0.000    5.143 
#    0.000    2.143    0.000    1.714    0.000    0.000 
#    0.000    0.000    0.000    0.000    0.000    0.000 
#
# Total GULP energy -78047.994460 kJ/mol
# GULP energy per Si atom -5574.856747 kJ/mol
# Density = 2.052490 g / cm^3
# Si number density = 20.571718 Si / 1000 Ang^3
#
#
#
# Elastic Constant Matrix: (Units=GPa)
#
#
# Indices 1 2 3 4 5 6 
#
# 1 84.0055 34.4232 44.8505 19.7197 -16.4790 20.6291
# 2 34.4232 130.0410 39.1897 30.8073 -2.2889 5.5195
# 3 44.8505 39.1897 71.4352 21.6224 -23.4840 6.6222
# 4 19.7197 30.8073 21.6224 41.3435 -12.2845 -1.6873
# 5 -16.4790 -2.2889 -23.4840 -12.2845 32.6143 6.3717
# 6 20.6291 5.5195 6.6222 -1.6873 6.3717 27.0290
#
#
#
# Elastic Compliance Matrix: (Units=1/GPa)
#
#
# Indices 1 2 3 4 5 6 
#
# 1 0.024276 -0.001963 -0.008682 -0.003961 0.007924 -0.018116
# 2 -0.001963 0.011177 -0.005322 -0.006575 -0.006853 0.001725
# 3 -0.008682 -0.005322 0.028417 -0.002294 0.015429 -0.003030
# 4 -0.003961 -0.006575 -0.002294 0.034753 0.007955 0.005222
# 5 0.007924 -0.006853 0.015429 0.007955 0.052247 -0.020249
# 6 -0.018116 0.001725 -0.003030 0.005222 -0.020249 0.056313
#
#
# Mechanical properties :
#
#
# Convention : Reuss Voigt Hill
#
# Bulk Modulus (GPa) = 31.31191 58.04540 44.67865
# Shear Modulus (GPa) = 20.01908 31.33190 25.67549
#
# Velocity S-wave (km/s) = 3.12290 3.90687 3.53667
# Velocity P-wave (km/s) = 5.31575 6.97344 6.20025
#
# Compressibility (1/GPa) = 0.03193673
#
# Stress axis : x y z
#
# Youngs Moduli (GPa) = 41.19226 89.46785 35.19055
#
# Poissons Ratio (x) = 0.17565 0.30551
# Poissons Ratio (y) = 0.08087 0.18728
# Poissons Ratio (z) = 0.35761 0.47615
#
# Static dielectric constant tensor:
#      x y z
#    x 1.770860 -0.018530 -0.011210 
#    y -0.018530 1.784070 -0.002730 
#    z -0.011210 -0.002730 1.773490 
# 
# From -- ./inp_files/30621.got.cif
#   From: 2010.05.17/outbox.cif.g08.bks.cpg/sg2_16_cif.got.tgz:30621.got - 2010.06.03 11:33:40.
