data_PCOD9056721
_publ_section_title
;
Structure prediction by ZEFSAII (Michael W. Deem and Ramdas Pophale) SiO2 
 PCOD9056721
Probable space group: P -1
;
_chemical_formula_sum "Si O2"
_cell_formula_units_Z 16
_cell_length_a 12.636575
_cell_length_b 8.275290
_cell_length_c 13.193534
_cell_angle_alpha 69.216813
_cell_angle_beta 41.227806
_cell_angle_gamma 49.956125
_cell_volume 672.943396
_symmetry_space_group_name_H-M "P -1"
_symmetry_group_IT_number 2
_symmetry_cell_setting 'triclinic'
loop_
_space_group_symop_operation_xyz
x,y,z
-x,-y,-z
loop_
_atom_site_type_symbol
_atom_site_label
_atom_site_fract_x
_atom_site_fract_y
_atom_site_fract_z
Si Si1 0.178269 0.757844 0.228533
Si Si2 0.747018 0.949075 0.446210
Si Si3 0.504405 0.998182 0.119059
Si Si4 0.099686 0.096277 0.348161
Si Si5 0.632701 0.305133 0.299061
Si Si6 0.319703 0.327339 0.775866
Si Si7 0.447085 0.674591 0.875486
Si Si8 0.208551 0.432374 0.618426
O O1 0.346095 0.571323 0.225359
O O2 0.963244 0.805667 0.378425
O O3 0.149113 0.976030 0.230971
O O4 0.284324 0.678912 0.060088
O O5 0.727278 0.780863 0.440552
O O6 0.766541 0.092888 0.319550
O O7 0.539069 0.126666 0.614983
O O8 0.299038 0.024435 0.278348
O O9 0.493934 0.192328 0.134933
O O10 0.687921 0.781500 0.092750
O O11 0.500000 0.000000 0.000000
O O12 0.965572 0.350780 0.362918
O O13 0.000000 0.000000 0.500000
O O14 0.686429 0.469369 0.233072
O O15 0.635587 0.240650 0.195438
O O16 0.402086 0.433196 0.476553
O O17 0.172248 0.405108 0.767950
#
# Coordination Sequence:
#
# PCOD9056721 Si02
#       8
#     2   2   2   2   2   2   2   2
#     4  11  23  40  61  91 130 172 215 265 320 386
#     4  11  22  41  67  97 130 165 221 274 322 386
#     4  12  24  43  65  95 133 173 217 266 327 388
#     4  12  24  42  69 101 132 169 221 273 326 385
#     4  11  22  40  67  95 130 171 214 268 330 390
#     4  11  23  41  68  97 128 174 216 271 332 385
#     4  11  24  41  63  89 132 174 216 258 327 392
#     4  11  22  41  67  99 132 166 217 275 327 386
#
# _framework density 23.776146000000001
#
# number of rings (size 3 to 8) (size 9 to 14) (size 15 to 20)
#    0.000    0.750    1.250    9.750    1.750    0.500 
#    0.000    4.375    0.000    0.000    0.000    0.000 
#    0.000    0.000    0.000    0.000    0.000    0.000 
#
# Total GULP energy -89509.973691 kJ/mol
# GULP energy per Si atom -5594.373356 kJ/mol
# Density = 2.372203 g / cm^3
# Si number density = 23.776146 Si / 1000 Ang^3
#
#
#
# Elastic Constant Matrix: (Units=GPa)
#
#
# Indices 1 2 3 4 5 6 
#
# 1 79.0135 15.4819 21.0426 3.1775 19.7628 9.2027
# 2 15.4819 123.4303 18.3611 -8.1069 17.3905 8.6860
# 3 21.0426 18.3611 63.2109 -3.2674 16.8713 -11.4161
# 4 3.1775 -8.1069 -3.2674 30.3409 -8.0663 3.4577
# 5 19.7628 17.3905 16.8713 -8.0663 40.5004 -4.4689
# 6 9.2027 8.6860 -11.4161 3.4577 -4.4689 47.7078
#
#
#
# Elastic Compliance Matrix: (Units=1/GPa)
#
#
# Indices 1 2 3 4 5 6 
#
# 1 0.016398 -0.000290 -0.004456 -0.003682 -0.007261 -0.004590
# 2 -0.000290 0.009152 -0.002177 0.001783 -0.002805 -0.002523
# 3 -0.004456 -0.002177 0.020205 0.000182 -0.004649 0.005642
# 4 -0.003682 0.001783 0.000182 0.036129 0.007992 -0.001441
# 5 -0.007261 -0.002805 -0.004649 0.007992 0.033336 0.003342
# 6 -0.004590 -0.002523 0.005642 -0.001441 0.003342 0.024073
#
#
# Mechanical properties :
#
#
# Convention : Reuss Voigt Hill
#
# Bulk Modulus (GPa) = 31.33838 41.71398 36.52618
# Shear Modulus (GPa) = 30.52963 37.76109 34.14536
#
# Velocity S-wave (km/s) = 3.58724 3.98954 3.79373
# Velocity P-wave (km/s) = 5.51062 6.22932 5.88096
#
# Compressibility (1/GPa) = 0.03190975
#
# Stress axis : x y z
#
# Youngs Moduli (GPa) = 60.98174 109.26876 49.49278
#
# Poissons Ratio (x) = 0.03166 0.22054
# Poissons Ratio (y) = 0.01767 0.10774
# Poissons Ratio (z) = 0.27174 0.23785
#
# Static dielectric constant tensor:
#      x y z
#    x 1.874040 -0.023870 0.032800 
#    y -0.023870 1.859680 -0.021740 
#    z 0.032800 -0.021740 2.058940 
# 
# From -- ./inp_files/419287.got.cif
#   From: 2010.05.17/outbox.cif.g08.bks.cpg/sg2_210_cif.got.tgz:419287.got - 2010.06.03 11:33:40.
