data_PCOD9056542
_publ_section_title
;
Structure prediction by ZEFSAII (Michael W. Deem and Ramdas Pophale) SiO2 
 PCOD9056542
Probable space group: P -1
;
_chemical_formula_sum "Si O2"
_cell_formula_units_Z 16
_cell_length_a 18.064567
_cell_length_b 12.559093
_cell_length_c 9.510976
_cell_angle_alpha 38.871184
_cell_angle_beta 38.467440
_cell_angle_gamma 39.222712
_cell_volume 763.339258
_symmetry_space_group_name_H-M "P -1"
_symmetry_group_IT_number 2
_symmetry_cell_setting 'triclinic'
loop_
_space_group_symop_operation_xyz
x,y,z
-x,-y,-z
loop_
_atom_site_type_symbol
_atom_site_label
_atom_site_fract_x
_atom_site_fract_y
_atom_site_fract_z
Si Si1 0.253430 0.152656 0.188371
Si Si2 0.381510 0.074590 0.782070
Si Si3 0.674991 0.968513 0.484466
Si Si4 0.907907 0.594792 0.407149
Si Si5 0.230775 0.509259 0.501007
Si Si6 0.125361 0.583398 0.890218
Si Si7 0.752198 0.145622 0.966175
Si Si8 0.047343 0.989751 0.601823
O O1 0.315466 0.046979 0.347165
O O2 0.347702 0.074429 0.996311
O O3 0.216010 0.375213 0.026129
O O4 0.123611 0.118042 0.385166
O O5 0.536815 0.976750 0.631376
O O6 0.327139 0.292385 0.596385
O O7 0.302015 0.978541 0.916946
O O8 0.794849 0.785004 0.435727
O O9 0.696858 0.140577 0.208176
O O10 0.844681 0.470438 0.554675
O O11 0.000000 0.500000 0.500000
O O12 0.986670 0.628522 0.124193
O O13 0.138735 0.562335 0.722706
O O14 0.295302 0.653795 0.243188
O O15 0.143879 0.770408 0.708601
O O16 0.910971 0.057018 0.820144
O O17 0.000000 0.000000 0.500000
#
# Coordination Sequence:
#
# PCOD9056542 Si02
#       8
#     2   2   2   2   2   2   2   2
#     4  11  25  43  68  96 132 172 220 272 330 391
#     4  11  24  48  68  92 131 180 227 262 315 401
#     4  12  26  44  65  96 140 178 210 271 334 391
#     4  12  24  40  63 100 138 169 210 275 336 384
#     4  11  24  41  69  97 123 176 222 268 324 386
#     4  11  22  39  67  94 130 167 217 270 325 385
#     4  12  24  41  69  98 129 169 224 276 322 386
#     4  12  22  38  67 103 128 165 222 275 326 381
#
# _framework density 20.960535
#
# number of rings (size 3 to 8) (size 9 to 14) (size 15 to 20)
#    0.000    0.500    6.250    1.875    1.750    2.000 
#    0.000    0.000    0.000    4.500    0.000    0.000 
#    0.000    0.000    0.000    0.000    0.000    0.000 
#
# Total GULP energy -89387.836853 kJ/mol
# GULP energy per Si atom -5586.739803 kJ/mol
# Density = 2.091283 g / cm^3
# Si number density = 20.960535 Si / 1000 Ang^3
#
#
#
# Elastic Constant Matrix: (Units=GPa)
#
#
# Indices 1 2 3 4 5 6 
#
# 1 88.4673 27.1877 45.9867 -1.4700 21.0748 -11.2224
# 2 27.1877 76.2475 44.3997 -12.6799 0.8043 -7.7615
# 3 45.9867 44.3997 132.5978 -13.4463 14.3889 -6.2227
# 4 -1.4700 -12.6799 -13.4463 37.3871 -0.0842 -10.9279
# 5 21.0748 0.8043 14.3889 -0.0842 30.4222 7.8497
# 6 -11.2224 -7.7615 -6.2227 -10.9279 7.8497 16.7140
#
#
#
# Elastic Compliance Matrix: (Units=1/GPa)
#
#
# Indices 1 2 3 4 5 6 
#
# 1 0.021816 -0.002102 -0.002618 0.007073 -0.020788 0.027085
# 2 -0.002102 0.018756 -0.004271 0.007888 0.000226 0.010760
# 3 -0.002618 -0.004271 0.011003 0.003864 -0.004563 0.005024
# 4 0.007073 0.007888 0.003864 0.045220 -0.019323 0.048492
# 5 -0.020788 0.000226 -0.004563 -0.019323 0.064454 -0.058457
# 6 0.027085 0.010760 0.005024 0.048492 -0.058457 0.144043
#
#
# Mechanical properties :
#
#
# Convention : Reuss Voigt Hill
#
# Bulk Modulus (GPa) = 29.76821 59.16234 44.46527
# Shear Modulus (GPa) = 14.94892 28.88721 21.91806
#
# Velocity S-wave (km/s) = 2.67347 3.71640 3.23721
# Velocity P-wave (km/s) = 4.87470 6.83391 5.93570
#
# Compressibility (1/GPa) = 0.03359289
#
# Stress axis : x y z
#
# Youngs Moduli (GPa) = 45.83767 53.31493 90.88789
#
# Poissons Ratio (x) = 0.11205 0.23796
# Poissons Ratio (y) = 0.09634 0.38821
# Poissons Ratio (z) = 0.12001 0.22772
#
# Static dielectric constant tensor:
#      x y z
#    x 1.744210 -0.001320 0.023190 
#    y -0.001320 1.785790 -0.023900 
#    z 0.023190 -0.023900 1.795210 
# 
# From -- ./inp_files/332686.got.cif
#   From: 2010.05.17/outbox.cif.g08.bks.cpg/sg2_167_cif.got.tgz:332686.got - 2010.06.03 11:33:40.
