data_PCOD9056983
_publ_section_title
;
Structure prediction by ZEFSAII (Michael W. Deem and Ramdas Pophale) SiO2 
 PCOD9056983
Probable space group: P -1
;
_chemical_formula_sum "Si O2"
_cell_formula_units_Z 16
_cell_length_a 12.184737
_cell_length_b 9.835883
_cell_length_c 11.905456
_cell_angle_alpha 46.749303
_cell_angle_beta 53.353005
_cell_angle_gamma 82.113433
_cell_volume 738.173961
_symmetry_space_group_name_H-M "P -1"
_symmetry_group_IT_number 2
_symmetry_cell_setting 'triclinic'
loop_
_space_group_symop_operation_xyz
x,y,z
-x,-y,-z
loop_
_atom_site_type_symbol
_atom_site_label
_atom_site_fract_x
_atom_site_fract_y
_atom_site_fract_z
Si Si1 0.698934 0.040558 0.256788
Si Si2 0.628744 0.356862 0.259248
Si Si3 0.143319 0.214152 0.692301
Si Si4 0.332832 0.873262 0.229624
Si Si5 0.170694 0.763439 0.154801
Si Si6 0.338197 0.512045 0.588058
Si Si7 0.721614 0.547667 0.747277
Si Si8 0.366755 0.269986 0.107451
O O1 0.544675 0.830444 0.504570
O O2 0.843650 0.997775 0.216712
O O3 0.704555 0.237397 0.209463
O O4 0.702090 0.077827 0.100002
O O5 0.699423 0.448356 0.285365
O O6 0.631904 0.549518 0.077360
O O7 0.215066 0.302343 0.720017
O O8 0.252185 0.373915 0.440107
O O9 0.980171 0.208771 0.782388
O O10 0.220334 0.787817 0.239978
O O11 0.339602 0.697955 0.404640
O O12 0.500000 0.000000 0.000000
O O13 0.301698 0.042579 0.221271
O O14 0.156188 0.537752 0.254255
O O15 0.500000 0.500000 0.500000
O O16 0.548465 0.355112 0.976094
O O17 0.723570 0.723036 0.730350
#
# Coordination Sequence:
#
# PCOD9056983 Si02
#       8
#     2   2   2   2   2   2   2   2
#     4  11  24  42  67  98 128 176 219 268 327 386
#     4  11  23  41  67  96 134 165 219 276 326 377
#     4  12  25  44  68  94 136 176 214 265 330 390
#     4  12  24  40  67  99 129 169 223 271 320 381
#     4  12  25  45  66  96 133 175 221 264 320 399
#     4  12  24  41  65 100 131 170 217 272 325 383
#     4  11  22  41  67  94 128 173 218 264 328 382
#     4  11  23  40  68  99 131 167 218 279 320 377
#
# _framework density 21.675108000000002
#
# number of rings (size 3 to 8) (size 9 to 14) (size 15 to 20)
#    0.000    0.500    6.250    2.250    3.500    0.000 
#    0.000    2.500    0.000    0.000    0.000    0.000 
#    0.000    0.000    0.000    0.000    0.000    0.000 
#
# Total GULP energy -89476.202403 kJ/mol
# GULP energy per Si atom -5592.262650 kJ/mol
# Density = 2.162577 g / cm^3
# Si number density = 21.675108 Si / 1000 Ang^3
#
#
#
# Elastic Constant Matrix: (Units=GPa)
#
#
# Indices 1 2 3 4 5 6 
#
# 1 134.8739 78.1085 29.4580 13.1952 15.2331 -18.8615
# 2 78.1085 202.9966 45.0889 11.0667 13.7164 -14.4533
# 3 29.4580 45.0889 42.4518 6.2806 10.5316 -1.9064
# 4 13.1952 11.0667 6.2806 29.1991 -4.8700 12.4207
# 5 15.2331 13.7164 10.5316 -4.8700 25.8450 2.5820
# 6 -18.8615 -14.4533 -1.9064 12.4207 2.5820 44.0491
#
#
#
# Elastic Compliance Matrix: (Units=1/GPa)
#
#
# Indices 1 2 3 4 5 6 
#
# 1 0.011986 -0.002738 -0.002226 -0.007929 -0.006875 0.006776
# 2 -0.002738 0.007410 -0.005695 -0.000949 -0.000306 0.001298
# 3 -0.002226 -0.005695 0.035030 -0.006808 -0.011350 0.001279
# 4 -0.007929 -0.000949 -0.006808 0.051256 0.019568 -0.019601
# 5 -0.006875 -0.000306 -0.011350 0.019568 0.052431 -0.012127
# 6 0.006776 0.001298 0.001279 -0.019601 -0.012127 0.032323
#
#
# Mechanical properties :
#
#
# Convention : Reuss Voigt Hill
#
# Bulk Modulus (GPa) = 30.20483 76.18146 53.19315
# Shear Modulus (GPa) = 22.44261 34.99643 28.71952
#
# Velocity S-wave (km/s) = 3.22127 4.02256 3.64400
# Velocity P-wave (km/s) = 5.27266 7.53644 6.50380
#
# Compressibility (1/GPa) = 0.03310729
#
# Stress axis : x y z
#
# Youngs Moduli (GPa) = 83.42899 134.95939 28.54690
#
# Poissons Ratio (x) = 0.36956 0.06354
# Poissons Ratio (y) = 0.22845 0.16258
# Poissons Ratio (z) = 0.18571 0.76861
#
# Static dielectric constant tensor:
#      x y z
#    x 1.791790 -0.014640 0.009150 
#    y -0.014640 1.809540 -0.008940 
#    z 0.009150 -0.008940 1.816820 
# 
# From -- ./inp_files/261645.got.cif
#   From: 2010.05.17/outbox.cif.g08.bks.cpg/sg2_131_cif.got.tgz:261645.got - 2010.06.03 11:33:40.
