data_PCOD9056490
_publ_section_title
;
Structure prediction by ZEFSAII (Michael W. Deem and Ramdas Pophale) SiO2 
 PCOD9056490
Probable space group: P -1
;
_chemical_formula_sum "Si O2"
_cell_formula_units_Z 16
_cell_length_a 14.495025
_cell_length_b 10.753177
_cell_length_c 8.519510
_cell_angle_alpha 110.622355
_cell_angle_beta 55.041604
_cell_angle_gamma 140.840364
_cell_volume 676.289990
_symmetry_space_group_name_H-M "P -1"
_symmetry_group_IT_number 2
_symmetry_cell_setting 'triclinic'
loop_
_space_group_symop_operation_xyz
x,y,z
-x,-y,-z
loop_
_atom_site_type_symbol
_atom_site_label
_atom_site_fract_x
_atom_site_fract_y
_atom_site_fract_z
Si Si1 0.060386 0.455952 0.647450
Si Si2 0.167860 0.105622 0.800951
Si Si3 0.277778 0.901033 0.625879
Si Si4 0.332914 0.915021 0.213852
Si Si5 0.349330 0.190220 0.120303
Si Si6 0.413781 0.710084 0.324435
Si Si7 0.524143 0.476226 0.642734
Si Si8 0.017442 0.123054 0.678074
O O1 0.147097 0.672315 0.716042
O O2 0.214380 0.560138 0.420040
O O3 0.862075 0.306375 0.731127
O O4 0.053251 0.308631 0.681994
O O5 0.332110 0.305425 0.816080
O O6 0.150311 0.169077 0.682027
O O7 0.188722 0.965053 0.710745
O O8 0.000000 0.000000 0.000000
O O9 0.345577 0.924037 0.394412
O O10 0.432498 0.056624 0.666300
O O11 0.334227 0.065713 0.214687
O O12 0.500000 0.000000 0.000000
O O13 0.373194 0.346558 0.257941
O O14 0.171214 0.033881 0.134878
O O15 0.505696 0.291983 0.903196
O O16 0.412136 0.616537 0.440373
O O17 0.500000 0.500000 0.500000
O O18 0.000000 0.000000 0.500000
#
# Coordination Sequence:
#
# PCOD9056490 Si02
#       8
#     2   2   2   2   2   2   2   2
#     4  11  24  42  70  98 129 178 225 275 343 403
#     4  11  24  42  65  98 133 173 221 274 335 398
#     4  11  24  45  68  97 138 179 224 281 335 402
#     4  11  25  44  66  96 132 173 224 278 338 406
#     4  11  23  41  64  94 131 172 223 281 335 400
#     4  11  23  42  65  96 133 176 223 278 338 400
#     4  11  22  39  64  95 130 173 221 274 336 396
#     4  11  22  41  66  96 134 176 226 279 332 399
#
# _framework density 23.658491000000001
#
# number of rings (size 3 to 8) (size 9 to 14) (size 15 to 20)
#    0.000    1.000    0.000    8.625    0.000    3.000 
#    0.000    8.750    0.000    0.000    0.000    0.000 
#    0.000    0.000    0.000    0.000    0.000    0.000 
#
# Total GULP energy -89131.686753 kJ/mol
# GULP energy per Si atom -5570.730422 kJ/mol
# Density = 2.360464 g / cm^3
# Si number density = 23.658491 Si / 1000 Ang^3
#
#
#
# Elastic Constant Matrix: (Units=GPa)
#
#
# Indices 1 2 3 4 5 6 
#
# 1 135.6442 63.7942 20.4707 -15.7975 -5.9609 -11.1798
# 2 63.7942 157.4801 39.2171 -23.7503 -11.1635 -1.1571
# 3 20.4707 39.2171 113.2465 -27.5200 -25.3868 15.4695
# 4 -15.7975 -23.7503 -27.5200 35.5328 10.3888 -11.2652
# 5 -5.9609 -11.1635 -25.3868 10.3888 50.1905 -15.9838
# 6 -11.1798 -1.1571 15.4695 -11.2652 -15.9838 51.0453
#
#
#
# Elastic Compliance Matrix: (Units=1/GPa)
#
#
# Indices 1 2 3 4 5 6 
#
# 1 0.009545 -0.003368 -0.000174 0.002562 0.000671 0.002843
# 2 -0.003368 0.008625 -0.001656 0.003141 0.000265 0.000736
# 3 -0.000174 -0.001656 0.012101 0.006692 0.004027 -0.001005
# 4 0.002562 0.003141 0.006692 0.039165 -0.001567 0.006757
# 5 0.000671 0.000265 0.004027 -0.001567 0.024408 0.006230
# 6 0.002843 0.000736 -0.001005 0.006757 0.006230 0.023976
#
#
# Mechanical properties :
#
#
# Convention : Reuss Voigt Hill
#
# Bulk Modulus (GPa) = 50.31510 72.59276 61.45393
# Shear Modulus (GPa) = 37.08074 46.21299 41.64686
#
# Velocity S-wave (km/s) = 3.96325 4.42445 4.20019
# Velocity P-wave (km/s) = 6.50050 7.53998 7.03945
#
# Compressibility (1/GPa) = 0.01987475
#
# Stress axis : x y z
#
# Youngs Moduli (GPa) = 104.76893 115.94670 82.63472
#
# Poissons Ratio (x) = 0.39054 0.01438
# Poissons Ratio (y) = 0.35289 0.13682
# Poissons Ratio (z) = 0.01824 0.19197
#
# Static dielectric constant tensor:
#      x y z
#    x 2.070820 -0.146800 -0.018810 
#    y -0.146800 1.998850 -0.035180 
#    z -0.018810 -0.035180 1.972320 
# 
# From -- ./inp_files/305357.got.cif
#   From: 2010.05.17/outbox.cif.g08.bks.cpg/sg2_153_cif.got.tgz:305357.got - 2010.06.03 11:33:40.
