data_PCOD9056221
_publ_section_title
;
Structure prediction by ZEFSAII (Michael W. Deem and Ramdas Pophale) SiO2 
 PCOD9056221
Probable space group: P -1
;
_chemical_formula_sum "Si O2"
_cell_formula_units_Z 16
_cell_length_a 12.253822
_cell_length_b 12.459218
_cell_length_c 11.514051
_cell_angle_alpha 83.370490
_cell_angle_beta 58.420468
_cell_angle_gamma 132.565713
_cell_volume 731.313984
_symmetry_space_group_name_H-M "P -1"
_symmetry_group_IT_number 2
_symmetry_cell_setting 'triclinic'
loop_
_space_group_symop_operation_xyz
x,y,z
-x,-y,-z
loop_
_atom_site_type_symbol
_atom_site_label
_atom_site_fract_x
_atom_site_fract_y
_atom_site_fract_z
Si Si1 0.458937 0.773282 0.924636
Si Si2 0.095187 0.613603 0.808645
Si Si3 0.720395 0.418071 0.726092
Si Si4 0.389294 0.032907 0.652137
Si Si5 0.146125 0.075970 0.757334
Si Si6 0.265369 0.184155 0.406008
Si Si7 0.304677 0.840607 0.324377
Si Si8 0.582286 0.633736 0.226692
O O1 0.565855 0.785949 0.753299
O O2 0.611348 0.997126 0.820036
O O3 0.462614 0.701987 0.045218
O O4 0.157765 0.585489 0.103497
O O5 0.359286 0.755191 0.593957
O O6 0.176544 0.799204 0.741639
O O7 0.000000 0.500000 0.000000
O O8 0.708277 0.282814 0.718146
O O9 0.624516 0.422734 0.674694
O O10 0.021148 0.662892 0.552464
O O11 0.251214 0.041749 0.759084
O O12 0.497953 0.039495 0.695810
O O13 0.194530 0.108792 0.588992
O O14 0.307231 0.284856 0.713082
O O15 0.841204 0.854157 0.982591
O O16 0.442587 0.422523 0.286102
O O17 0.000000 0.000000 0.500000
#
# Coordination Sequence:
#
# PCOD9056221 Si02
#       8
#     2   2   2   2   2   2   2   2
#     4  12  24  41  66 100 132 172 220 273 331 399
#     4  11  22  36  60  95 133 169 212 264 333 393
#     4  11  24  44  67  96 132 177 221 271 330 396
#     4  11  22  40  65  95 133 172 214 274 330 395
#     4  11  25  46  70  99 132 177 230 278 332 394
#     4  12  27  45  69 101 136 177 225 281 334 396
#     4  11  23  42  65  98 135 170 219 270 333 391
#     4  11  25  47  71  96 132 182 229 276 330 397
#
# _framework density 21.878426999999999
#
# number of rings (size 3 to 8) (size 9 to 14) (size 15 to 20)
#    0.000    0.750    3.750    3.750    1.750    4.000 
#    0.000    1.250    0.000    0.000    0.000    0.000 
#    0.000    0.000    0.000    0.000    0.000    0.000 
#
# Total GULP energy -89374.002183 kJ/mol
# GULP energy per Si atom -5585.875136 kJ/mol
# Density = 2.182863 g / cm^3
# Si number density = 21.878427 Si / 1000 Ang^3
#
#
#
# Elastic Constant Matrix: (Units=GPa)
#
#
# Indices 1 2 3 4 5 6 
#
# 1 56.6185 1.9994 11.1808 -9.4397 -6.3251 1.6833
# 2 1.9994 74.1514 11.3014 -17.6753 -5.3256 -6.7637
# 3 11.1808 11.3014 95.5998 -5.9792 2.1154 -2.9042
# 4 -9.4397 -17.6753 -5.9792 40.2493 4.9971 5.9722
# 5 -6.3251 -5.3256 2.1154 4.9971 21.8026 12.2388
# 6 1.6833 -6.7637 -2.9042 5.9722 12.2388 25.9181
#
#
#
# Elastic Compliance Matrix: (Units=1/GPa)
#
#
# Indices 1 2 3 4 5 6 
#
# 1 0.020114 0.000997 -0.002581 0.004642 0.009001 -0.006655
# 2 0.000997 0.015478 -0.001550 0.006347 0.001977 0.001405
# 3 -0.002581 -0.001550 0.011141 0.000441 -0.003838 0.002722
# 4 0.004642 0.006347 0.000441 0.029658 -0.001219 -0.004854
# 5 0.009001 0.001977 -0.003838 -0.001219 0.067673 -0.032173
# 6 -0.006655 0.001405 0.002722 -0.004854 -0.032173 0.055998
#
#
# Mechanical properties :
#
#
# Convention : Reuss Voigt Hill
#
# Bulk Modulus (GPa) = 24.71384 30.59253 27.65318
# Shear Modulus (GPa) = 22.74596 31.05319 26.89957
#
# Velocity S-wave (km/s) = 3.22786 3.77152 3.51023
# Velocity P-wave (km/s) = 5.02122 5.74274 5.39406
#
# Compressibility (1/GPa) = 0.04046316
#
# Stress axis : x y z
#
# Youngs Moduli (GPa) = 49.71674 64.60628 89.76122
#
# Poissons Ratio (x) = -0.06441 0.23170
# Poissons Ratio (y) = -0.04956 0.13917
# Poissons Ratio (z) = 0.12834 0.10017
#
# Static dielectric constant tensor:
#      x y z
#    x 1.803660 0.040480 0.034750 
#    y 0.040480 1.829440 0.041610 
#    z 0.034750 0.041610 1.786610 
# 
# From -- ./inp_files/428117.got.cif
#   From: 2010.05.17/outbox.cif.g08.bks.cpg/sg2_215_cif.got.tgz:428117.got - 2010.06.03 11:33:40.
