data_PCOD9056445
_publ_section_title
;
Structure prediction by ZEFSAII (Michael W. Deem and Ramdas Pophale) SiO2 
 PCOD9056445
Probable space group: P -1
;
_chemical_formula_sum "Si O2"
_cell_formula_units_Z 16
_cell_length_a 6.908605
_cell_length_b 20.596671
_cell_length_c 16.875336
_cell_angle_alpha 18.928670
_cell_angle_beta 111.468040
_cell_angle_gamma 116.683555
_cell_volume 681.519418
_symmetry_space_group_name_H-M "P -1"
_symmetry_group_IT_number 2
_symmetry_cell_setting 'triclinic'
loop_
_space_group_symop_operation_xyz
x,y,z
-x,-y,-z
loop_
_atom_site_type_symbol
_atom_site_label
_atom_site_fract_x
_atom_site_fract_y
_atom_site_fract_z
Si Si1 0.802920 0.982375 0.603988
Si Si2 0.405793 0.773187 0.032232
Si Si3 0.741263 0.776045 0.678456
Si Si4 0.114924 0.914045 0.938188
Si Si5 0.714292 0.528271 0.107124
Si Si6 0.776966 0.673688 0.290664
Si Si7 0.385131 0.339954 0.550116
Si Si8 0.246676 0.877228 0.407605
O O1 0.748700 0.132144 0.485857
O O2 0.698260 0.934460 0.555786
O O3 0.938134 0.021905 0.758661
O O4 0.733742 0.744411 0.905747
O O5 0.194555 0.789743 0.026125
O O6 0.516347 0.965243 0.767819
O O7 0.605473 0.795200 0.099700
O O8 0.367803 0.535382 0.268748
O O9 0.535612 0.618060 0.783381
O O10 0.936354 0.914136 0.492994
O O11 0.821242 0.627832 0.923378
O O12 0.328483 0.114766 0.761776
O O13 0.996408 0.771109 0.160285
O O14 0.808258 0.362728 0.353421
O O15 0.630073 0.436905 0.512768
O O16 0.785078 0.683188 0.375223
#
# Coordination Sequence:
#
# PCOD9056445 Si02
#       8
#     2   2   2   2   2   2   2   2
#     4   9  19  39  59  85 115 143 190 246 284 340
#     4   9  22  40  54  87 121 149 200 232 277 356
#     4   8  18  40  62  86 108 143 199 242 286 343
#     4  11  22  39  58  85 121 158 190 234 290 346
#     4   9  19  39  58  85 114 143 191 243 285 339
#     4   8  19  42  59  91 114 141 210 242 276 346
#     4   9  19  42  61  86 118 150 194 249 283 328
#     4  11  24  37  57  88 119 158 193 228 288 363
#
# _framework density 23.476953999999999
#
# number of rings (size 3 to 8) (size 9 to 14) (size 15 to 20)
#    1.500    1.250    0.000    0.375    1.750    4.000 
#    4.500    0.000    0.000    0.000    0.000    0.000 
#    0.000    0.000    0.000    0.000    0.000    0.000 
#
# Total GULP energy -89131.781788 kJ/mol
# GULP energy per Si atom -5570.736362 kJ/mol
# Density = 2.342352 g / cm^3
# Si number density = 23.476954 Si / 1000 Ang^3
#
#
#
# Elastic Constant Matrix: (Units=GPa)
#
#
# Indices 1 2 3 4 5 6 
#
# 1 40.8160 -11.1142 5.2260 3.6420 4.4741 10.0357
# 2 -11.1142 21.6737 8.9621 -11.1384 -3.4396 7.5828
# 3 5.2260 8.9621 59.6110 -16.0484 -19.3760 -0.6409
# 4 3.6420 -11.1384 -16.0484 32.4874 3.8438 -1.2519
# 5 4.4741 -3.4396 -19.3760 3.8438 19.4272 1.5979
# 6 10.0357 7.5828 -0.6409 -1.2519 1.5979 14.7515
#
#
#
# Elastic Compliance Matrix: (Units=1/GPa)
#
#
# Indices 1 2 3 4 5 6 
#
# 1 0.070905 0.075542 -0.023778 0.005364 -0.020706 -0.085404
# 2 0.075542 0.152663 -0.028029 0.026669 -0.013122 -0.127400
# 3 -0.023778 -0.028029 0.036184 0.008207 0.032566 0.029326
# 4 0.005364 0.026669 0.008207 0.042317 0.004442 -0.013891
# 5 -0.020706 -0.013122 0.032566 0.004442 0.084412 0.013480
# 6 -0.085404 -0.127400 0.029326 -0.013891 0.013480 0.190015
#
#
# Mechanical properties :
#
#
# Convention : Reuss Voigt Hill
#
# Bulk Modulus (GPa) = 3.25498 14.24983 8.75240
# Shear Modulus (GPa) = 7.91849 21.26835 14.59342
#
# Velocity S-wave (km/s) = 1.83853 3.01312 2.49591
# Velocity P-wave (km/s) = 2.42825 4.26475 3.47019
#
# Compressibility (1/GPa) = 0.30722202
#
# Stress axis : x y z
#
# Youngs Moduli (GPa) = 14.10341 6.55038 27.63638
#
# Poissons Ratio (x) = -0.49483 0.65713
# Poissons Ratio (y) = -1.06540 0.77463
# Poissons Ratio (z) = 0.33535 0.18360
#
# Static dielectric constant tensor:
#      x y z
#    x 1.874200 0.048960 0.035740 
#    y 0.048960 1.897650 0.035170 
#    z 0.035740 0.035170 1.912480 
# 
# From -- ./inp_files/562325.got.cif
#   From: 2010.05.17/outbox.cif.g08.bks.cpg/sg2_282_cif.got.tgz:562325.got - 2010.06.03 11:33:40.
