data_PCOD9056133
_publ_section_title
;
Structure prediction by ZEFSAII (Michael W. Deem and Ramdas Pophale) SiO2 
 PCOD9056133
Probable space group: P -1
;
_chemical_formula_sum "Si O2"
_cell_formula_units_Z 16
_cell_length_a 9.050653
_cell_length_b 12.179750
_cell_length_c 9.399349
_cell_angle_alpha 127.000339
_cell_angle_beta 70.639620
_cell_angle_gamma 123.516993
_cell_volume 689.896170
_symmetry_space_group_name_H-M "P -1"
_symmetry_group_IT_number 2
_symmetry_cell_setting 'triclinic'
loop_
_space_group_symop_operation_xyz
x,y,z
-x,-y,-z
loop_
_atom_site_type_symbol
_atom_site_label
_atom_site_fract_x
_atom_site_fract_y
_atom_site_fract_z
Si Si1 0.520073 0.668554 0.611399
Si Si2 0.207604 0.134553 0.540517
Si Si3 0.082275 0.558084 0.171723
Si Si4 0.843884 0.391750 0.361625
Si Si5 0.402629 0.193580 0.006198
Si Si6 0.236220 0.321742 0.950857
Si Si7 0.322283 0.898693 0.265502
Si Si8 0.148896 0.897160 0.009278
O O1 0.500000 0.500000 0.500000
O O2 0.709295 0.781502 0.570017
O O3 0.351932 0.649537 0.558807
O O4 0.493987 0.724234 0.818758
O O5 0.251993 0.272239 0.746614
O O6 0.318859 0.040730 0.459953
O O7 0.000000 0.000000 0.500000
O O8 0.194634 0.741800 0.267013
O O9 0.913821 0.497511 0.280904
O O10 0.199866 0.469340 0.095342
O O11 0.000000 0.500000 0.000000
O O12 0.000000 0.500000 0.500000
O O13 0.838963 0.230452 0.195725
O O14 0.226349 0.056820 0.024331
O O15 0.379086 0.314995 0.006501
O O16 0.499143 0.111077 0.827214
O O17 0.054063 0.173255 0.940080
O O18 0.249050 0.903517 0.131976
#
# Coordination Sequence:
#
# PCOD9056133 Si02
#       8
#     2   2   2   2   2   2   2   2
#     4  12  28  43  73 108 148 193 243 306 372 431
#     4  12  25  46  74 110 145 191 254 303 363 437
#     4  11  22  45  73  94 138 194 238 279 370 438
#     4  11  26  45  71 108 143 189 249 304 358 441
#     4  12  25  46  70 107 146 186 244 310 368 439
#     4  11  26  42  71 107 141 185 239 305 362 436
#     4  12  23  42  77  97 137 198 241 291 363 439
#     4  11  21  46  74  98 138 198 244 285 372 440
#
# _framework density 23.191897000000001
#
# number of rings (size 3 to 8) (size 9 to 14) (size 15 to 20)
#    0.000    0.500    6.250    1.500    8.750    3.000 
#    0.000    0.000    0.000    0.000    0.000    0.000 
#    0.000    0.000    0.000    0.000    0.000    0.000 
#
# Total GULP energy -89418.715281 kJ/mol
# GULP energy per Si atom -5588.669705 kJ/mol
# Density = 2.313911 g / cm^3
# Si number density = 23.191897 Si / 1000 Ang^3
#
#
#
# Elastic Constant Matrix: (Units=GPa)
#
#
# Indices 1 2 3 4 5 6 
#
# 1 77.1892 1.7027 8.2689 -10.5685 -3.7660 -4.6011
# 2 1.7027 96.6603 17.5419 -5.6842 -3.7320 -7.9176
# 3 8.2689 17.5419 51.7938 5.6165 -13.0085 7.0462
# 4 -10.5685 -5.6842 5.6165 33.8404 -1.2812 -9.1786
# 5 -3.7660 -3.7320 -13.0085 -1.2812 35.5801 0.7870
# 6 -4.6011 -7.9176 7.0462 -9.1786 0.7870 31.2421
#
#
#
# Elastic Compliance Matrix: (Units=1/GPa)
#
#
# Indices 1 2 3 4 5 6 
#
# 1 0.014689 0.001394 -0.004267 0.007043 0.000272 0.005541
# 2 0.001394 0.012168 -0.005904 0.005097 -0.000687 0.006135
# 3 -0.004267 -0.005904 0.026685 -0.009448 0.008592 -0.011135
# 4 0.007043 0.005097 -0.009448 0.038409 -0.001140 0.015773
# 5 0.000272 -0.000687 0.008592 -0.001140 0.031233 -0.003193
# 6 0.005541 0.006135 -0.011135 0.015773 -0.003193 0.041605
#
#
# Mechanical properties :
#
#
# Convention : Reuss Voigt Hill
#
# Bulk Modulus (GPa) = 27.78505 31.18558 29.48532
# Shear Modulus (GPa) = 25.72823 33.34118 29.53471
#
# Velocity S-wave (km/s) = 3.33432 3.79571 3.57247
# Velocity P-wave (km/s) = 5.17978 5.71715 5.45509
#
# Compressibility (1/GPa) = 0.03599057
#
# Stress axis : x y z
#
# Youngs Moduli (GPa) = 68.07635 82.18191 37.47392
#
# Poissons Ratio (x) = -0.11457 0.15988
# Poissons Ratio (y) = -0.09491 0.22123
# Poissons Ratio (z) = 0.29045 0.48517
#
# Static dielectric constant tensor:
#      x y z
#    x 1.944400 0.017530 0.007360 
#    y 0.017530 1.872500 -0.025330 
#    z 0.007360 -0.025330 1.920360 
# 
# From -- ./inp_files/189915.got.cif
#   From: 2010.05.17/outbox.cif.g08.bks.cpg/sg2_95_cif.got.tgz:189915.got - 2010.06.03 11:33:40.
