data_PCOD9056223
_publ_section_title
;
Structure prediction by ZEFSAII (Michael W. Deem and Ramdas Pophale) SiO2 
 PCOD9056223
Probable space group: P -1
;
_chemical_formula_sum "Si O2"
_cell_formula_units_Z 10
_cell_length_a 16.265662
_cell_length_b 24.495472
_cell_length_c 8.250664
_cell_angle_alpha 154.680016
_cell_angle_beta 23.877570
_cell_angle_gamma 164.082153
_cell_volume 355.886963
_symmetry_space_group_name_H-M "P -1"
_symmetry_group_IT_number 2
_symmetry_cell_setting 'triclinic'
loop_
_space_group_symop_operation_xyz
x,y,z
-x,-y,-z
loop_
_atom_site_type_symbol
_atom_site_label
_atom_site_fract_x
_atom_site_fract_y
_atom_site_fract_z
Si Si1 0.732392 0.497041 0.782300
Si Si2 0.295026 0.945956 0.570522
Si Si3 0.250029 0.236459 0.720242
Si Si4 0.414047 0.271277 0.069682
Si Si5 0.046343 0.729955 0.133308
O O1 0.607973 0.373433 0.507305
O O2 0.717433 0.639460 0.141775
O O3 0.500506 0.310146 0.826895
O O4 0.054218 0.663100 0.764588
O O5 0.312467 0.872138 0.174637
O O6 0.500000 0.000000 0.500000
O O7 0.930949 0.776478 0.842090
O O8 0.378595 0.130431 0.862899
O O9 0.000000 0.000000 0.500000
O O10 0.731787 0.507696 0.184914
O O11 0.082060 0.190004 0.452142
#
# Coordination Sequence:
#
# PCOD9056223 Si02
#       5
#     2   2   2   2   2
#     4   9  20  36  61  87 108 153 201 244 280 328
#     4  12  24  37  59  92 122 153 190 242 299 348
#     4  11  22  36  61  92 119 142 199 250 287 333
#     4   9  18  35  63  83 107 155 205 234 276 340
#     4   9  18  37  64  82 113 153 211 230 277 350
#
# _framework density 28.098808999999999
#
# number of rings (size 3 to 8) (size 9 to 14) (size 15 to 20)
#    1.200    0.800    2.000    1.800    2.800    0.800 
#    0.000    2.000    0.000    0.000    0.000    0.000 
#    0.000    0.000    0.000    0.000    0.000    0.000 
#
# Total GULP energy -55707.532598 kJ/mol
# GULP energy per Si atom -5570.753260 kJ/mol
# Density = 2.803485 g / cm^3
# Si number density = 28.098809 Si / 1000 Ang^3
#
#
#
# Elastic Constant Matrix: (Units=GPa)
#
#
# Indices 1 2 3 4 5 6 
#
# 1 241.6469 72.3231 60.9808 31.5438 -35.5880 23.4099
# 2 72.3231 138.5227 35.2043 34.3987 -14.6727 8.0231
# 3 60.9808 35.2043 79.9691 24.6195 -29.2939 -5.8110
# 4 31.5438 34.3987 24.6195 46.1647 -11.5825 9.8476
# 5 -35.5880 -14.6727 -29.2939 -11.5825 58.3605 20.2121
# 6 23.4099 8.0231 -5.8110 9.8476 20.2121 76.9243
#
#
#
# Elastic Compliance Matrix: (Units=1/GPa)
#
#
# Indices 1 2 3 4 5 6 
#
# 1 0.006138 -0.002041 -0.003062 0.000173 0.002627 -0.002599
# 2 -0.002041 0.009900 -0.001308 -0.005521 -0.000633 0.000363
# 3 -0.003062 -0.001308 0.019608 -0.006343 0.005746 0.001852
# 4 0.000173 -0.005521 -0.006343 0.030894 0.003321 -0.004784
# 5 0.002627 -0.000633 0.005746 0.003321 0.024612 -0.007191
# 6 -0.002599 0.000363 0.001852 -0.004784 -0.007191 0.016395
#
#
# Mechanical properties :
#
#
# Convention : Reuss Voigt Hill
#
# Bulk Modulus (GPa) = 43.81236 88.57278 66.19257
# Shear Modulus (GPa) = 39.07035 55.73192 47.40114
#
# Velocity S-wave (km/s) = 3.73294 4.45840 4.11170
# Velocity P-wave (km/s) = 5.84858 7.62190 6.79335
#
# Compressibility (1/GPa) = 0.02282461
#
# Stress axis : x y z
#
# Youngs Moduli (GPa) = 162.92589 101.01271 51.00050
#
# Poissons Ratio (x) = 0.20612 0.15615
# Poissons Ratio (y) = 0.33246 0.06671
# Poissons Ratio (z) = 0.49884 0.13212
#
# Static dielectric constant tensor:
#      x y z
#    x 2.209530 0.148620 0.050710 
#    y 0.148620 2.220900 -0.054940 
#    z 0.050710 -0.054940 2.380650 
# 
# From -- ./inp_files/38848.got.cif
#   From: 2010.05.17/outbox.cif.g08.bks.cpg/sg2_20_cif.got.tgz:38848.got - 2010.06.03 11:33:40.
