data_PCOD9056096
_publ_section_title
;
Structure prediction by ZEFSAII (Michael W. Deem and Ramdas Pophale) SiO2 
 PCOD9056096
Probable space group: P -1
;
_chemical_formula_sum "Si O2"
_cell_formula_units_Z 16
_cell_length_a 8.969858
_cell_length_b 10.406607
_cell_length_c 7.553585
_cell_angle_alpha 102.367943
_cell_angle_beta 68.399891
_cell_angle_gamma 90.521332
_cell_volume 638.474718
_symmetry_space_group_name_H-M "P -1"
_symmetry_group_IT_number 2
_symmetry_cell_setting 'triclinic'
loop_
_space_group_symop_operation_xyz
x,y,z
-x,-y,-z
loop_
_atom_site_type_symbol
_atom_site_label
_atom_site_fract_x
_atom_site_fract_y
_atom_site_fract_z
Si Si1 0.995695 0.488275 0.218465
Si Si2 0.136248 0.052786 0.332531
Si Si3 0.619796 0.240542 0.177522
Si Si4 0.274628 0.240816 0.832397
Si Si5 0.284946 0.311830 0.467245
Si Si6 0.520323 0.018837 0.713690
Si Si7 0.316608 0.533218 0.041349
Si Si8 0.024499 0.812581 0.870539
O O1 0.837058 0.566519 0.387237
O O2 0.995357 0.337319 0.230617
O O3 0.157946 0.547136 0.237702
O O4 0.000000 0.500000 0.000000
O O5 0.188935 0.202308 0.378645
O O6 0.298802 0.966109 0.292714
O O7 0.056339 0.069142 0.178337
O O8 0.000000 0.000000 0.500000
O O9 0.460154 0.338938 0.325685
O O10 0.536554 0.103683 0.184560
O O11 0.691405 0.329880 0.021156
O O12 0.784114 0.193196 0.196755
O O13 0.329108 0.237500 0.607930
O O14 0.283893 0.390937 0.929747
O O15 0.401538 0.145258 0.853497
O O16 0.096057 0.192275 0.910068
O O17 0.500000 0.000000 0.500000
O O18 0.500000 0.500000 0.000000
#
# Coordination Sequence:
#
# PCOD9056096 Si02
#       8
#     2   2   2   2   2   2   2   2
#     4  11  21  46  66  98 139 176 218 275 338 407
#     4  11  26  44  65 101 139 172 230 282 327 399
#     4  11  23  43  71 100 134 179 229 273 343 399
#     4  11  23  45  73  95 137 186 220 271 353 398
#     4  11  23  43  73  96 134 181 222 272 346 399
#     4  11  23  45  68  97 139 180 222 282 334 404
#     4  11  25  44  69 102 142 173 230 285 332 402
#     4  11  24  43  69  99 139 174 224 283 334 403
#
# _framework density 25.059723000000002
#
# number of rings (size 3 to 8) (size 9 to 14) (size 15 to 20)
#    0.000    1.000    6.250    0.750    7.000    4.500 
#    2.250    0.000    0.000    0.000    0.000    0.000 
#    0.000    0.000    0.000    0.000    0.000    0.000 
#
# Total GULP energy -89125.009480 kJ/mol
# GULP energy per Si atom -5570.313093 kJ/mol
# Density = 2.500269 g / cm^3
# Si number density = 25.059723 Si / 1000 Ang^3
#
#
#
# Elastic Constant Matrix: (Units=GPa)
#
#
# Indices 1 2 3 4 5 6 
#
# 1 167.3877 38.2218 29.2229 -11.1886 -52.8237 -8.4938
# 2 38.2218 114.8032 23.1033 -5.3204 -7.9048 -20.8953
# 3 29.2229 23.1033 56.7857 -15.4330 -24.6542 9.1666
# 4 -11.1886 -5.3204 -15.4330 31.5380 -3.0923 -13.0015
# 5 -52.8237 -7.9048 -24.6542 -3.0923 52.4544 -4.8924
# 6 -8.4938 -20.8953 9.1666 -13.0015 -4.8924 51.2415
#
#
#
# Elastic Compliance Matrix: (Units=1/GPa)
#
#
# Indices 1 2 3 4 5 6 
#
# 1 0.010512 -0.002132 0.001951 0.006898 0.011907 0.003411
# 2 -0.002132 0.011243 -0.005222 0.000428 -0.002412 0.005044
# 3 0.001951 -0.005222 0.030216 0.015458 0.016128 -0.001749
# 4 0.006898 0.000428 0.015458 0.048821 0.018338 0.012691
# 5 0.011907 -0.002412 0.016128 0.018338 0.039966 0.006574
# 6 0.003411 0.005044 -0.001749 0.012691 0.006574 0.026298
#
#
# Mechanical properties :
#
#
# Convention : Reuss Voigt Hill
#
# Bulk Modulus (GPa) = 24.29213 57.78584 41.03899
# Shear Modulus (GPa) = 26.09826 43.60869 34.85347
#
# Velocity S-wave (km/s) = 3.23064 4.17608 3.73341
# Velocity P-wave (km/s) = 4.86115 6.80898 5.91578
#
# Compressibility (1/GPa) = 0.04116559
#
# Stress axis : x y z
#
# Youngs Moduli (GPa) = 95.12974 88.94371 33.09499
#
# Poissons Ratio (x) = 0.18964 -0.06458
# Poissons Ratio (y) = 0.20283 0.17282
# Poissons Ratio (z) = -0.18563 0.46446
#
# Static dielectric constant tensor:
#      x y z
#    x 0.303920 -1.390110 -0.544980 
#    y -1.390110 1.060300 -0.249410 
#    z -0.544980 -0.249410 1.957560 
# 
# From -- ./inp_files/178718.got.cif
#   From: 2010.05.17/outbox.cif.g08.bks.cpg/sg2_90_cif.got.tgz:178718.got - 2010.06.03 11:33:40.
