data_PCOD9056805
_publ_section_title
;
Structure prediction by ZEFSAII (Michael W. Deem and Ramdas Pophale) SiO2 
 PCOD9056805
Probable space group: P -1
;
_chemical_formula_sum "Si O2"
_cell_formula_units_Z 16
_cell_length_a 9.762068
_cell_length_b 11.506951
_cell_length_c 11.761234
_cell_angle_alpha 52.128103
_cell_angle_beta 64.030218
_cell_angle_gamma 99.149248
_cell_volume 748.063401
_symmetry_space_group_name_H-M "P -1"
_symmetry_group_IT_number 2
_symmetry_cell_setting 'triclinic'
loop_
_space_group_symop_operation_xyz
x,y,z
-x,-y,-z
loop_
_atom_site_type_symbol
_atom_site_label
_atom_site_fract_x
_atom_site_fract_y
_atom_site_fract_z
Si Si1 0.446435 0.139132 0.766325
Si Si2 0.070797 0.835715 0.942338
Si Si3 0.434025 0.354883 0.449940
Si Si4 0.325298 0.008491 0.549603
Si Si5 0.709581 0.772450 0.026969
Si Si6 0.157686 0.993638 0.385293
Si Si7 0.816761 0.235157 0.642985
Si Si8 0.904100 0.627888 0.347124
O O1 0.518635 0.313523 0.551940
O O2 0.399680 0.179619 0.880644
O O3 0.597183 0.098344 0.762698
O O4 0.257304 0.984266 0.859007
O O5 0.151691 0.836873 0.789394
O O6 0.920313 0.875602 0.942681
O O7 0.952686 0.667041 0.173096
O O8 0.365392 0.189809 0.485613
O O9 0.589818 0.551875 0.216824
O O10 0.256307 0.349583 0.565176
O O11 0.283985 0.009666 0.432894
O O12 0.500000 0.000000 0.500000
O O13 0.736810 0.849139 0.844438
O O14 0.073296 0.802778 0.464535
O O15 0.000000 0.000000 0.500000
O O16 0.846388 0.427011 0.513645
O O17 0.901352 0.234217 0.733151
#
# Coordination Sequence:
#
# PCOD9056805 Si02
#       8
#     2   2   2   2   2   2   2   2
#     4  11  22  40  70 102 133 163 220 277 341 390
#     4  11  23  40  71  97 129 179 217 272 328 398
#     4  11  23  44  72  95 136 172 216 277 327 403
#     4  11  26  47  65  95 133 179 228 267 316 390
#     4  12  23  40  70 100 126 177 225 267 335 391
#     4  12  25  45  66  91 134 182 226 262 320 397
#     4  11  25  43  66 101 140 164 210 292 331 385
#     4  11  23  44  69 105 135 163 217 278 351 383
#
# _framework density 21.388560999999999
#
# number of rings (size 3 to 8) (size 9 to 14) (size 15 to 20)
#    0.000    0.750    3.750    4.500    3.500    3.500 
#    2.250    1.250    0.000    0.000    0.000    0.000 
#    0.000    0.000    0.000    0.000    0.000    0.000 
#
# Total GULP energy -89318.920249 kJ/mol
# GULP energy per Si atom -5582.432516 kJ/mol
# Density = 2.133988 g / cm^3
# Si number density = 21.388561 Si / 1000 Ang^3
#
#
#
# Elastic Constant Matrix: (Units=GPa)
#
#
# Indices 1 2 3 4 5 6 
#
# 1 133.3347 -1.9571 44.3708 9.3275 14.9556 5.5508
# 2 -1.9571 42.3626 9.5889 11.3657 -0.1597 -1.4773
# 3 44.3708 9.5889 108.4193 19.4666 17.4244 14.9384
# 4 9.3275 11.3657 19.4666 37.9777 7.9588 2.0345
# 5 14.9556 -0.1597 17.4244 7.9588 37.3718 12.4981
# 6 5.5508 -1.4773 14.9384 2.0345 12.4981 35.9689
#
#
#
# Elastic Compliance Matrix: (Units=1/GPa)
#
#
# Indices 1 2 3 4 5 6 
#
# 1 0.008906 0.001327 -0.003466 -0.000404 -0.002154 0.000891
# 2 0.001327 0.026206 -0.001972 -0.007575 0.001590 0.001567
# 3 -0.003466 -0.001972 0.012458 -0.004267 -0.002289 -0.003683
# 4 -0.000404 -0.007575 -0.004267 0.031889 -0.005181 0.001520
# 5 -0.002154 0.001590 -0.002289 -0.005181 0.033094 -0.009858
# 6 0.000891 0.001567 -0.003683 0.001520 -0.009858 0.032598
#
#
# Mechanical properties :
#
#
# Convention : Reuss Voigt Hill
#
# Bulk Modulus (GPa) = 25.41415 43.12465 34.26940
# Shear Modulus (GPa) = 30.03202 37.73794 33.88498
#
# Velocity S-wave (km/s) = 3.75122 4.20503 3.98459
# Velocity P-wave (km/s) = 5.53806 6.61684 6.10134
#
# Compressibility (1/GPa) = 0.03934815
#
# Stress axis : x y z
#
# Youngs Moduli (GPa) = 112.28855 38.15854 80.27006
#
# Poissons Ratio (x) = -0.05065 0.27822
# Poissons Ratio (y) = -0.14905 0.15831
# Poissons Ratio (z) = 0.38920 0.07526
#
# Static dielectric constant tensor:
#      x y z
#    x 1.795560 0.009720 -0.052250 
#    y 0.009720 1.766340 -0.074210 
#    z -0.052250 -0.074210 1.812580 
# 
# From -- ./inp_files/392034.got.cif
#   From: 2010.05.17/outbox.cif.g08.bks.cpg/sg2_197_cif.got.tgz:392034.got - 2010.06.03 11:33:40.
