data_PCOD9056285
_publ_section_title
;
Structure prediction by ZEFSAII (Michael W. Deem and Ramdas Pophale) SiO2 
 PCOD9056285
Probable space group: P -1
;
_chemical_formula_sum "Si O2"
_cell_formula_units_Z 16
_cell_length_a 15.578151
_cell_length_b 14.016718
_cell_length_c 15.691740
_cell_angle_alpha 28.947488
_cell_angle_beta 30.374872
_cell_angle_gamma 29.640542
_cell_volume 741.689757
_symmetry_space_group_name_H-M "P -1"
_symmetry_group_IT_number 2
_symmetry_cell_setting 'triclinic'
loop_
_space_group_symop_operation_xyz
x,y,z
-x,-y,-z
loop_
_atom_site_type_symbol
_atom_site_label
_atom_site_fract_x
_atom_site_fract_y
_atom_site_fract_z
Si Si1 0.602432 0.011850 0.220659
Si Si2 0.348134 0.495108 0.033216
Si Si3 0.213566 0.448801 0.005964
Si Si4 0.641843 0.055859 0.392735
Si Si5 0.821006 0.822914 0.012296
Si Si6 0.162158 0.054370 0.282849
Si Si7 0.955750 0.796651 0.211562
Si Si8 0.430865 0.351624 0.726740
O O1 0.433706 0.953838 0.440520
O O2 0.671625 0.963561 0.102304
O O3 0.788388 0.846622 0.246468
O O4 0.524807 0.278737 0.093511
O O5 0.373747 0.707552 0.810472
O O6 0.304765 0.396990 0.060804
O O7 0.157837 0.584326 0.185516
O O8 0.136630 0.281676 0.168832
O O9 0.028887 0.688250 0.980855
O O10 0.359156 0.437596 0.816046
O O11 0.500000 0.000000 0.500000
O O12 0.851913 0.854444 0.347311
O O13 0.739774 0.666127 0.162374
O O14 0.847067 0.943817 0.812954
O O15 0.382977 0.886135 0.244483
O O16 0.000000 0.000000 0.500000
O O17 0.000000 0.000000 0.000000
O O18 0.500000 0.500000 0.500000
#
# Coordination Sequence:
#
# PCOD9056285 Si02
#       8
#     2   2   2   2   2   2   2   2
#     4  11  22  41  64  95 126 165 210 261 317 379
#     4  11  22  41  66  93 128 166 210 266 317 374
#     4  11  22  40  61  90 126 165 210 262 316 367
#     4   9  22  41  65  92 125 163 209 260 323 389
#     4  11  22  40  61  89 128 164 209 264 314 369
#     4  11  22  41  60  92 126 168 216 252 315 387
#     4   9  20  41  63  90 125 161 204 263 318 382
#     4  11  22  37  62  88 123 172 204 255 315 372
#
# _framework density 21.572362999999999
#
# number of rings (size 3 to 8) (size 9 to 14) (size 15 to 20)
#    0.000    1.500    1.250    6.000    1.750    5.000 
#    4.500    3.750    0.000    0.000    0.000    0.000 
#    0.000    0.000    0.000    0.000    0.000    0.000 
#
# Total GULP energy -89258.662252 kJ/mol
# GULP energy per Si atom -5578.666391 kJ/mol
# Density = 2.152326 g / cm^3
# Si number density = 21.572363 Si / 1000 Ang^3
#
#
#
# Elastic Constant Matrix: (Units=GPa)
#
#
# Indices 1 2 3 4 5 6 
#
# 1 42.1041 13.1532 12.3808 12.7604 12.9926 4.0816
# 2 13.1532 115.3446 31.3569 15.1952 10.3084 5.6781
# 3 12.3808 31.3569 146.7298 26.9710 16.4250 17.4715
# 4 12.7604 15.1952 26.9710 38.1569 3.5363 8.9835
# 5 12.9926 10.3084 16.4250 3.5363 22.8175 8.8845
# 6 4.0816 5.6781 17.4715 8.9835 8.8845 34.9670
#
#
#
# Elastic Compliance Matrix: (Units=1/GPa)
#
#
# Indices 1 2 3 4 5 6 
#
# 1 0.032177 -0.001152 0.001053 -0.010094 -0.018212 0.003126
# 2 -0.001152 0.009681 -0.001292 -0.002432 -0.002603 0.000494
# 3 0.001053 -0.001292 0.008688 -0.005129 -0.004807 -0.001715
# 4 -0.010094 -0.002432 -0.005129 0.035069 0.007770 -0.006848
# 5 -0.018212 -0.002603 -0.004807 0.007770 0.062679 -0.012971
# 6 0.003126 0.000494 -0.001715 -0.006848 -0.012971 0.034065
#
#
# Mechanical properties :
#
#
# Convention : Reuss Voigt Hill
#
# Bulk Modulus (GPa) = 20.93636 46.44005 33.68820
# Shear Modulus (GPa) = 24.86782 35.67411 30.27096
#
# Velocity S-wave (km/s) = 3.39892 4.07098 3.75003
# Velocity P-wave (km/s) = 5.01296 6.60844 5.86520
#
# Compressibility (1/GPa) = 0.04776380
#
# Stress axis : x y z
#
# Youngs Moduli (GPa) = 31.07789 103.29535 115.10613
#
# Poissons Ratio (x) = 0.11900 -0.12122
# Poissons Ratio (y) = 0.03580 0.14873
# Poissons Ratio (z) = -0.03273 0.13347
#
# Static dielectric constant tensor:
#      x y z
#    x 1.990460 -0.048540 0.045630 
#    y -0.048540 1.818710 -0.002120 
#    z 0.045630 -0.002120 1.791860 
# 
# From -- ./inp_files/534056.got.cif
#   From: 2010.05.17/outbox.cif.g08.bks.cpg/sg2_268_cif.got.tgz:534056.got - 2010.06.03 11:33:40.
