data_PCOD9056415
_publ_section_title
;
Structure prediction by ZEFSAII (Michael W. Deem and Ramdas Pophale) SiO2 
 PCOD9056415
Probable space group: P -1
;
_chemical_formula_sum "Si O2"
_cell_formula_units_Z 16
_cell_length_a 13.233343
_cell_length_b 11.582905
_cell_length_c 6.457219
_cell_angle_alpha 77.874738
_cell_angle_beta 129.810573
_cell_angle_gamma 92.180227
_cell_volume 737.187955
_symmetry_space_group_name_H-M "P -1"
_symmetry_group_IT_number 2
_symmetry_cell_setting 'triclinic'
loop_
_space_group_symop_operation_xyz
x,y,z
-x,-y,-z
loop_
_atom_site_type_symbol
_atom_site_label
_atom_site_fract_x
_atom_site_fract_y
_atom_site_fract_z
Si Si1 0.632135 0.100798 0.707579
Si Si2 0.492488 0.332574 0.608159
Si Si3 0.481999 0.090719 0.135010
Si Si4 0.728681 0.729502 0.423465
Si Si5 0.080557 0.947795 0.828664
Si Si6 0.401869 0.496113 0.063406
Si Si7 0.878898 0.606301 0.305507
Si Si8 0.894942 0.827244 0.931402
O O1 0.524258 0.196169 0.639392
O O2 0.611942 0.112831 0.428167
O O3 0.603772 0.970870 0.786656
O O4 0.772019 0.118143 0.984064
O O5 0.348167 0.361457 0.514209
O O6 0.485335 0.405181 0.362302
O O7 0.603466 0.375248 0.884521
O O8 0.389440 0.207897 0.898330
O O9 0.500000 0.000000 0.000000
O O10 0.851265 0.675004 0.463728
O O11 0.773414 0.820350 0.616721
O O12 0.007732 0.857924 0.906724
O O13 0.000000 0.000000 0.500000
O O14 0.107532 0.062869 0.956276
O O15 0.500000 0.500000 0.000000
O O16 0.259074 0.451587 0.872592
O O17 0.000000 0.500000 0.500000
O O18 0.901284 0.705463 0.121822
#
# Coordination Sequence:
#
# PCOD9056415 Si02
#       8
#     2   2   2   2   2   2   2   2
#     4  11  24  39  65 106 139 172 236 285 346 434
#     4  11  24  41  69 100 135 182 230 300 351 414
#     4  11  22  38  68 106 138 178 226 288 357 415
#     4  12  23  45  71 100 142 181 231 296 359 413
#     4  11  25  47  70 102 144 191 232 287 361 431
#     4  11  24  46  68  98 139 186 237 298 357 412
#     4  12  27  46  72 104 142 194 245 292 361 429
#     4  11  25  46  72  97 142 190 237 288 357 427
#
# _framework density 21.7041
#
# number of rings (size 3 to 8) (size 9 to 14) (size 15 to 20)
#    0.000    0.750    3.750    3.750    1.750    4.500 
#    0.000    0.000    0.000    0.000    0.000    0.000 
#    0.000    0.000    0.000    0.000    0.000    0.000 
#
# Total GULP energy -89231.261708 kJ/mol
# GULP energy per Si atom -5576.953857 kJ/mol
# Density = 2.165470 g / cm^3
# Si number density = 21.704100 Si / 1000 Ang^3
#
#
#
# Elastic Constant Matrix: (Units=GPa)
#
#
# Indices 1 2 3 4 5 6 
#
# 1 129.1252 40.7241 60.8111 -12.9442 -8.3690 13.8536
# 2 40.7241 86.2130 39.5172 10.1990 -4.9182 9.5046
# 3 60.8111 39.5172 125.2992 9.2209 -10.2158 -0.4437
# 4 -12.9442 10.1990 9.2209 43.0074 10.8085 -1.4885
# 5 -8.3690 -4.9182 -10.2158 10.8085 34.8816 -1.5608
# 6 13.8536 9.5046 -0.4437 -1.4885 -1.5608 43.1649
#
#
#
# Elastic Compliance Matrix: (Units=1/GPa)
#
#
# Indices 1 2 3 4 5 6 
#
# 1 0.012280 -0.003806 -0.005295 0.005908 -0.001106 -0.002994
# 2 -0.003806 0.015497 -0.002535 -0.004841 0.001926 -0.002314
# 3 -0.005295 -0.002535 0.011945 -0.004304 0.003309 0.002352
# 4 0.005908 -0.004841 -0.004304 0.029527 -0.009684 -0.000206
# 5 -0.001106 0.001926 0.003309 -0.009684 0.032681 0.000813
# 6 -0.002994 -0.002314 0.002352 -0.000206 0.000813 0.024684
#
#
# Mechanical properties :
#
#
# Convention : Reuss Voigt Hill
#
# Bulk Modulus (GPa) = 60.79099 69.19358 64.99229
# Shear Modulus (GPa) = 32.18124 37.51646 34.84885
#
# Velocity S-wave (km/s) = 3.85480 4.16208 4.01138
# Velocity P-wave (km/s) = 6.91971 7.41936 7.17389
#
# Compressibility (1/GPa) = 0.01644981
#
# Stress axis : x y z
#
# Youngs Moduli (GPa) = 81.43157 64.53041 83.71477
#
# Poissons Ratio (x) = 0.24557 0.44329
# Poissons Ratio (y) = 0.30989 0.21225
# Poissons Ratio (z) = 0.43120 0.16361
#
# Static dielectric constant tensor:
#      x y z
#    x 1.885050 0.023270 -0.034200 
#    y 0.023270 1.870330 0.039670 
#    z -0.034200 0.039670 1.851920 
# 
# From -- ./inp_files/70149.got.cif
#   From: 2010.05.17/outbox.cif.g08.bks.cpg/sg2_36_cif.got.tgz:70149.got - 2010.06.03 11:33:40.
