data_PCOD9056259
_publ_section_title
;
Structure prediction by ZEFSAII (Michael W. Deem and Ramdas Pophale) SiO2 
 PCOD9056259
Probable space group: P -1
;
_chemical_formula_sum "Si O2"
_cell_formula_units_Z 12
_cell_length_a 12.611624
_cell_length_b 7.107892
_cell_length_c 7.591197
_cell_angle_alpha 121.398953
_cell_angle_beta 103.350352
_cell_angle_gamma 51.854450
_cell_volume 452.591224
_symmetry_space_group_name_H-M "P -1"
_symmetry_group_IT_number 2
_symmetry_cell_setting 'triclinic'
loop_
_space_group_symop_operation_xyz
x,y,z
-x,-y,-z
loop_
_atom_site_type_symbol
_atom_site_label
_atom_site_fract_x
_atom_site_fract_y
_atom_site_fract_z
Si Si1 0.001050 0.186978 0.828782
Si Si2 0.274131 0.397570 0.242289
Si Si3 0.875006 0.358543 0.239665
Si Si4 0.644038 0.943989 0.579893
Si Si5 0.554481 0.523376 0.847856
Si Si6 0.283992 0.780934 0.714486
O O1 0.883971 0.411950 0.767965
O O2 0.955905 0.299765 0.064385
O O3 0.021379 0.893087 0.706880
O O4 0.150418 0.087215 0.781764
O O5 0.333371 0.118794 0.232211
O O6 0.351004 0.378941 0.086203
O O7 0.296806 0.568698 0.475194
O O8 0.781014 0.671549 0.419026
O O9 0.763875 0.292112 0.160229
O O10 0.500000 0.000000 0.500000
O O11 0.632540 0.211381 0.656283
O O12 0.425707 0.721961 0.769386
O O13 0.500000 0.500000 0.000000
#
# Coordination Sequence:
#
# PCOD9056259 Si02
#       6
#     2   2   2   2   2   2
#     4   9  17  36  64  91 119 169 202 242 316 365
#     4  11  22  36  69  91 122 164 208 252 308 363
#     4   8  17  33  64  83 122 159 205 237 304 362
#     4  11  22  41  63  91 127 163 206 251 311 367
#     4  12  25  41  62  95 125 159 208 263 306 360
#     4   9  18  36  61  86 121 164 201 243 308 366
#
# _framework density 26.513992999999999
#
# number of rings (size 3 to 8) (size 9 to 14) (size 15 to 20)
#    1.000    1.000    3.333    2.000    0.000    0.667 
#    0.000    0.833    0.000    2.000    0.000    0.000 
#    0.000    0.000    0.000    0.000    0.000    0.000 
#
# Total GULP energy -67040.457863 kJ/mol
# GULP energy per Si atom -5586.704822 kJ/mol
# Density = 2.645365 g / cm^3
# Si number density = 26.513993 Si / 1000 Ang^3
#
#
#
# Elastic Constant Matrix: (Units=GPa)
#
#
# Indices 1 2 3 4 5 6 
#
# 1 61.5994 53.0304 7.5768 13.4194 -13.7645 8.0357
# 2 53.0304 183.2977 16.0844 4.8958 -1.9255 -9.6292
# 3 7.5768 16.0844 77.1505 20.5886 -11.7896 16.2401
# 4 13.4194 4.8958 20.5886 38.9232 5.4794 -6.4938
# 5 -13.7645 -1.9255 -11.7896 5.4794 30.8012 0.7880
# 6 8.0357 -9.6292 16.2401 -6.4938 0.7880 34.2643
#
#
#
# Elastic Compliance Matrix: (Units=1/GPa)
#
#
# Indices 1 2 3 4 5 6 
#
# 1 0.047154 -0.015830 0.020341 -0.035402 0.035002 -0.032663
# 2 -0.015830 0.011077 -0.009015 0.012897 -0.012480 0.013829
# 3 0.020341 -0.009015 0.031172 -0.030886 0.026683 -0.028546
# 4 -0.035402 0.012897 -0.030886 0.064788 -0.039379 0.039750
# 5 0.035002 -0.012480 0.026683 -0.039379 0.065399 -0.033330
# 6 -0.032663 0.013829 -0.028546 0.039750 -0.033330 0.062561
#
#
# Mechanical properties :
#
#
# Convention : Reuss Voigt Hill
#
# Bulk Modulus (GPa) = 12.43829 52.82566 32.63198
# Shear Modulus (GPa) = 15.72538 37.15483 26.44010
#
# Velocity S-wave (km/s) = 2.43800 3.74749 3.16129
# Velocity P-wave (km/s) = 3.55338 6.22028 5.06549
#
# Compressibility (1/GPa) = 0.08039690
#
# Stress axis : x y z
#
# Youngs Moduli (GPa) = 21.20699 90.27425 32.07997
#
# Poissons Ratio (x) = 1.42903 -0.65254
# Poissons Ratio (y) = 0.33570 0.28919
# Poissons Ratio (z) = -0.43137 0.81379
#
# Static dielectric constant tensor:
#      x y z
#    x 2.028850 -0.017390 -0.006260 
#    y -0.017390 2.103960 -0.039020 
#    z -0.006260 -0.039020 2.204960 
# 
# From -- ./inp_files/292973.got.cif
#   From: 2010.05.17/outbox.cif.g08.bks.cpg/sg2_147_cif.got.tgz:292973.got - 2010.06.03 11:33:40.
