data_PCOD9056846
_publ_section_title
;
Structure prediction by ZEFSAII (Michael W. Deem and Ramdas Pophale) SiO2 
 PCOD9056846
Probable space group: P -1
;
_chemical_formula_sum "Si O2"
_cell_formula_units_Z 16
_cell_length_a 17.985476
_cell_length_b 12.485386
_cell_length_c 8.344523
_cell_angle_alpha 135.195248
_cell_angle_beta 42.683506
_cell_angle_gamma 142.782240
_cell_volume 732.322404
_symmetry_space_group_name_H-M "P -1"
_symmetry_group_IT_number 2
_symmetry_cell_setting 'triclinic'
loop_
_space_group_symop_operation_xyz
x,y,z
-x,-y,-z
loop_
_atom_site_type_symbol
_atom_site_label
_atom_site_fract_x
_atom_site_fract_y
_atom_site_fract_z
Si Si1 0.339923 0.003578 0.385436
Si Si2 0.286560 0.871283 0.969237
Si Si3 0.854456 0.921919 0.073751
Si Si4 0.203033 0.467583 0.711370
Si Si5 0.932089 0.094276 0.783568
Si Si6 0.646455 0.536889 0.827639
Si Si7 0.444091 0.623997 0.704726
Si Si8 0.440879 0.820442 0.234852
O O1 0.330262 0.917135 0.135266
O O2 0.350946 0.885123 0.378416
O O3 0.217954 0.017574 0.629710
O O4 0.472525 0.214619 0.389181
O O5 0.188400 0.932829 0.156759
O O6 0.219958 0.654353 0.827102
O O7 0.411775 0.990931 0.777384
O O8 0.745107 0.701287 0.972486
O O9 0.881581 0.019047 0.961386
O O10 0.000000 0.000000 0.000000
O O11 0.269076 0.407727 0.411496
O O12 0.290719 0.507198 0.772317
O O13 0.050415 0.310940 0.822508
O O14 0.000000 0.000000 0.500000
O O15 0.616382 0.339348 0.714613
O O16 0.500000 0.500000 0.000000
O O17 0.500000 0.500000 0.500000
O O18 0.463199 0.723821 0.946950
#
# Coordination Sequence:
#
# PCOD9056846 Si02
#       8
#     2   2   2   2   2   2   2   2
#     4  11  23  45  71 104 141 176 232 289 346 416
#     4  11  24  46  70 103 140 182 228 283 351 428
#     4  12  28  48  70 104 141 186 239 289 344 420
#     4  12  25  45  69  99 143 178 233 282 352 420
#     4  12  27  47  69  98 137 191 230 280 352 416
#     4  12  27  46  70 108 141 182 239 296 349 409
#     4  11  22  40  72 104 135 181 229 284 346 413
#     4  11  23  43  73 104 140 180 229 293 352 410
#
# _framework density 21.848299999999998
#
# number of rings (size 3 to 8) (size 9 to 14) (size 15 to 20)
#    0.000    0.500    3.750    4.875    8.750    0.500 
#    0.000    1.250    0.000    0.000    0.000    0.000 
#    0.000    0.000    0.000    0.000    0.000    0.000 
#
# Total GULP energy -89521.342706 kJ/mol
# GULP energy per Si atom -5595.083919 kJ/mol
# Density = 2.179857 g / cm^3
# Si number density = 21.848300 Si / 1000 Ang^3
#
#
#
# Elastic Constant Matrix: (Units=GPa)
#
#
# Indices 1 2 3 4 5 6 
#
# 1 94.8080 31.0879 1.5089 9.0946 -25.4968 3.2495
# 2 31.0879 129.1900 12.8750 6.9151 -5.5319 2.3261
# 3 1.5089 12.8750 73.5733 9.8083 -13.5816 4.4624
# 4 9.0946 6.9151 9.8083 37.3365 -3.4395 -3.0927
# 5 -25.4968 -5.5319 -13.5816 -3.4395 39.2734 -6.3480
# 6 3.2495 2.3261 4.4624 -3.0927 -6.3480 34.2987
#
#
#
# Elastic Compliance Matrix: (Units=1/GPa)
#
#
# Indices 1 2 3 4 5 6 
#
# 1 0.014334 -0.003138 0.002350 -0.002652 0.009454 0.000060
# 2 -0.003138 0.008631 -0.001621 -0.000580 -0.001498 -0.000407
# 3 0.002350 -0.001621 0.015560 -0.003909 0.006117 -0.001358
# 4 -0.002652 -0.000580 -0.003909 0.028836 -0.000083 0.003384
# 5 0.009454 -0.001498 0.006117 -0.000083 0.034264 0.004744
# 6 0.000060 -0.000407 -0.001358 0.003384 0.004744 0.030537
#
#
# Mechanical properties :
#
#
# Convention : Reuss Voigt Hill
#
# Bulk Modulus (GPa) = 29.66592 43.16830 36.41711
# Shear Modulus (GPa) = 33.73462 38.98833 36.36147
#
# Velocity S-wave (km/s) = 3.93369 4.22892 4.08397
# Velocity P-wave (km/s) = 5.85145 6.60652 6.24042
#
# Compressibility (1/GPa) = 0.03370872
#
# Stress axis : x y z
#
# Youngs Moduli (GPa) = 69.76454 115.85672 64.26790
#
# Poissons Ratio (x) = 0.36354 -0.15105
# Poissons Ratio (y) = 0.21891 0.10416
# Poissons Ratio (z) = -0.16396 0.18776
#
# Static dielectric constant tensor:
#      x y z
#    x 1.787270 0.011520 0.028840 
#    y 0.011520 1.829100 0.021430 
#    z 0.028840 0.021430 1.787720 
# 
# From -- ./inp_files/182601.got.cif
#   From: 2010.05.17/outbox.cif.g08.bks.cpg/sg2_92_cif.got.tgz:182601.got - 2010.06.03 11:33:40.
