data_PCOD9056984
_publ_section_title
;
Structure prediction by ZEFSAII (Michael W. Deem and Ramdas Pophale) SiO2 
 PCOD9056984
Probable space group: P -1
;
_chemical_formula_sum "Si O2"
_cell_formula_units_Z 16
_cell_length_a 8.387010
_cell_length_b 18.515353
_cell_length_c 8.151131
_cell_angle_alpha 134.707544
_cell_angle_beta 50.072547
_cell_angle_gamma 118.493832
_cell_volume 689.103489
_symmetry_space_group_name_H-M "P -1"
_symmetry_group_IT_number 2
_symmetry_cell_setting 'triclinic'
loop_
_space_group_symop_operation_xyz
x,y,z
-x,-y,-z
loop_
_atom_site_type_symbol
_atom_site_label
_atom_site_fract_x
_atom_site_fract_y
_atom_site_fract_z
Si Si1 0.856168 0.444420 0.646309
Si Si2 0.183298 0.751772 0.007839
Si Si3 0.116948 0.272687 0.147345
Si Si4 0.477801 0.719821 0.303931
Si Si5 0.722944 0.127204 0.559495
Si Si6 0.259745 0.081646 0.938251
Si Si7 0.353162 0.215625 0.375668
Si Si8 0.078199 0.405590 0.897292
O O1 0.648654 0.369994 0.658005
O O2 0.000000 0.500000 0.500000
O O3 0.795650 0.535254 0.948070
O O4 0.020126 0.360811 0.459856
O O5 0.147607 0.835097 0.305999
O O6 0.036998 0.751221 0.943737
O O7 0.126161 0.646706 0.968398
O O8 0.421806 0.760269 0.814482
O O9 0.341301 0.310769 0.988632
O O10 0.141746 0.169802 0.065296
O O11 0.321083 0.783454 0.398443
O O12 0.597685 0.791217 0.474267
O O13 0.496341 0.096194 0.735556
O O14 0.806973 0.031762 0.254395
O O15 0.267854 0.114898 0.176262
O O16 0.211424 0.312799 0.599679
O O17 0.000000 0.500000 0.000000
#
# Coordination Sequence:
#
# PCOD9056984 Si02
#       8
#     2   2   2   2   2   2   2   2
#     4  12  23  41  63  93 126 166 217 259 315 379
#     4  11  22  43  63  92 130 168 209 266 316 377
#     4  11  22  42  65  93 132 170 211 264 317 375
#     4  11  22  41  67  94 129 171 209 268 315 378
#     4   9  21  41  67  96 128 169 213 259 324 382
#     4   9  21  41  67  95 129 170 210 263 321 384
#     4  11  22  42  65  90 129 168 210 264 321 371
#     4  12  25  40  62  93 125 164 218 266 312 381
#
# _framework density 23.218572999999999
#
# number of rings (size 3 to 8) (size 9 to 14) (size 15 to 20)
#    0.000    1.250    3.750    1.500    0.000    4.500 
#    0.000    2.500    0.000    0.000    0.000    0.000 
#    0.000    0.000    0.000    0.000    0.000    0.000 
#
# Total GULP energy -89287.158050 kJ/mol
# GULP energy per Si atom -5580.447378 kJ/mol
# Density = 2.316573 g / cm^3
# Si number density = 23.218573 Si / 1000 Ang^3
#
#
#
# Elastic Constant Matrix: (Units=GPa)
#
#
# Indices 1 2 3 4 5 6 
#
# 1 31.5325 0.0616 11.9307 -0.5771 -0.6489 5.5670
# 2 0.0616 50.8710 4.3246 -2.6011 -1.1256 19.5998
# 3 11.9307 4.3246 138.4005 11.8720 -5.4665 18.9297
# 4 -0.5771 -2.6011 11.8720 37.1100 11.0551 -0.0220
# 5 -0.6489 -1.1256 -5.4665 11.0551 44.2312 2.5492
# 6 5.5670 19.5998 18.9297 -0.0220 2.5492 26.3946
#
#
#
# Elastic Compliance Matrix: (Units=1/GPa)
#
#
# Indices 1 2 3 4 5 6 
#
# 1 0.033959 0.003407 -0.001983 0.001245 0.000508 -0.008318
# 2 0.003407 0.028712 0.002083 0.000722 0.002226 -0.023748
# 3 -0.001983 0.002083 0.008765 -0.003408 0.002400 -0.007649
# 4 0.001245 0.000722 -0.003408 0.030539 -0.008159 0.002459
# 5 0.000508 0.002226 0.002400 -0.008159 0.025351 -0.005937
# 6 -0.008318 -0.023748 -0.007649 0.002459 -0.005937 0.063337
#
#
# Mechanical properties :
#
#
# Convention : Reuss Voigt Hill
#
# Bulk Modulus (GPa) = 12.74681 28.15975 20.45328
# Shear Modulus (GPa) = 23.83258 35.17964 29.50611
#
# Velocity S-wave (km/s) = 3.20729 3.89672 3.56869
# Velocity P-wave (km/s) = 4.38377 5.69213 5.08025
#
# Compressibility (1/GPa) = 0.07845103
#
# Stress axis : x y z
#
# Youngs Moduli (GPa) = 29.44747 34.82846 114.09539
#
# Poissons Ratio (x) = -0.11867 0.22623
# Poissons Ratio (y) = -0.10034 -0.23769
# Poissons Ratio (z) = 0.05839 -0.07256
#
# Static dielectric constant tensor:
#      x y z
#    x 1.945140 0.007610 0.045880 
#    y 0.007610 1.866320 -0.009690 
#    z 0.045880 -0.009690 1.929040 
# 
# From -- ./inp_files/215647.got.cif
#   From: 2010.05.17/outbox.cif.g08.bks.cpg/sg2_108_cif.got.tgz:215647.got - 2010.06.03 11:33:40.
