data_PCOD9056888
_publ_section_title
;
Structure prediction by ZEFSAII (Michael W. Deem and Ramdas Pophale) SiO2 
 PCOD9056888
Probable space group: P -1
;
_chemical_formula_sum "Si O2"
_cell_formula_units_Z 16
_cell_length_a 9.142040
_cell_length_b 11.800098
_cell_length_c 17.036305
_cell_angle_alpha 155.034016
_cell_angle_beta 89.284669
_cell_angle_gamma 79.790605
_cell_volume 693.927844
_symmetry_space_group_name_H-M "P -1"
_symmetry_group_IT_number 2
_symmetry_cell_setting 'triclinic'
loop_
_space_group_symop_operation_xyz
x,y,z
-x,-y,-z
loop_
_atom_site_type_symbol
_atom_site_label
_atom_site_fract_x
_atom_site_fract_y
_atom_site_fract_z
Si Si1 0.511226 0.723686 0.776831
Si Si2 0.863259 0.888086 0.577243
Si Si3 0.018037 0.740467 0.898403
Si Si4 0.804268 0.672572 0.601297
Si Si5 0.375922 0.851492 0.401470
Si Si6 0.665406 0.261875 0.070310
Si Si7 0.802979 0.091145 0.401583
Si Si8 0.730244 0.097306 0.237488
O O1 0.685262 0.446910 0.614600
O O2 0.442968 0.809057 0.743726
O O3 0.376306 0.663410 0.789684
O O4 0.500000 0.000000 0.000000
O O5 0.958723 0.549822 0.331341
O O6 0.775454 0.863874 0.641998
O O7 0.006295 0.989239 0.653204
O O8 0.732607 0.068500 0.625233
O O9 0.181002 0.671090 0.903612
O O10 0.000000 0.000000 0.000000
O O11 0.864978 0.855332 0.028836
O O12 0.758653 0.396654 0.422855
O O13 0.000000 0.500000 0.500000
O O14 0.725873 0.920695 0.826366
O O15 0.255894 0.966358 0.550033
O O16 0.500000 0.000000 0.500000
O O17 0.496147 0.494899 0.179515
O O18 0.752882 0.976501 0.250306
#
# Coordination Sequence:
#
# PCOD9056888 Si02
#       8
#     2   2   2   2   2   2   2   2
#     4  11  23  39  63  97 144 176 215 277 350 414
#     4  12  23  44  72  95 139 184 231 280 337 410
#     4  12  20  36  69 101 134 175 224 272 348 410
#     4  12  22  38  72 108 138 170 219 288 350 407
#     4  11  26  48  70  91 132 194 237 282 336 407
#     4  11  22  41  63 101 132 177 232 271 334 414
#     4  11  25  42  65 100 134 178 232 285 337 401
#     4  12  23  39  66 106 142 174 219 281 351 412
#
# _framework density 23.057153
#
# number of rings (size 3 to 8) (size 9 to 14) (size 15 to 20)
#    0.000    0.500    6.250    2.250    1.750    0.500 
#    0.000    0.625    2.750    0.000    0.000    0.000 
#    0.000    0.000    0.000    0.000    0.000    0.000 
#
# Total GULP energy -89472.877210 kJ/mol
# GULP energy per Si atom -5592.054826 kJ/mol
# Density = 2.300467 g / cm^3
# Si number density = 23.057153 Si / 1000 Ang^3
#
#
#
# Elastic Constant Matrix: (Units=GPa)
#
#
# Indices 1 2 3 4 5 6 
#
# 1 73.4009 14.4858 -13.4879 -5.8605 0.6671 -22.2781
# 2 14.4858 129.0391 -4.9135 -25.3709 -10.3651 -22.5021
# 3 -13.4879 -4.9135 69.8888 -8.6133 -15.4628 -3.6663
# 4 -5.8605 -25.3709 -8.6133 31.5555 -1.8504 -2.1656
# 5 0.6671 -10.3651 -15.4628 -1.8504 40.3862 -4.0569
# 6 -22.2781 -22.5021 -3.6663 -2.1656 -4.0569 41.8885
#
#
#
# Elastic Compliance Matrix: (Units=1/GPa)
#
#
# Indices 1 2 3 4 5 6 
#
# 1 0.018815 0.002318 0.006449 0.008246 0.004404 0.012669
# 2 0.002318 0.012379 0.004839 0.012746 0.006540 0.009598
# 3 0.006449 0.004839 0.020130 0.011834 0.010330 0.009404
# 4 0.008246 0.012746 0.011834 0.048463 0.011482 0.015886
# 5 0.004404 0.006540 0.010330 0.011482 0.031896 0.010442
# 6 0.012669 0.009598 0.009404 0.015886 0.010442 0.038423
#
#
# Mechanical properties :
#
#
# Convention : Reuss Voigt Hill
#
# Bulk Modulus (GPa) = 12.73307 29.38861 21.06084
# Shear Modulus (GPa) = 29.57287 41.18234 35.37760
#
# Velocity S-wave (km/s) = 3.58521 4.23081 3.92132
# Velocity P-wave (km/s) = 4.76159 6.05310 5.44576
#
# Compressibility (1/GPa) = 0.07853567
#
# Stress axis : x y z
#
# Youngs Moduli (GPa) = 53.14890 80.78339 49.67603
#
# Poissons Ratio (x) = -0.18723 -0.32037
# Poissons Ratio (y) = -0.12318 -0.24037
# Poissons Ratio (z) = -0.34277 -0.39090
#
# Static dielectric constant tensor:
#      x y z
#    x 1.953030 0.069260 0.008930 
#    y 0.069260 1.975430 -0.006550 
#    z 0.008930 -0.006550 1.861330 
# 
# From -- ./inp_files/501224.got.cif
#   From: 2010.05.17/outbox.cif.g08.bks.cpg/sg2_251_cif.got.tgz:501224.got - 2010.06.03 11:33:40.
