data_PCOD9056637
_publ_section_title
;
Structure prediction by ZEFSAII (Michael W. Deem and Ramdas Pophale) SiO2 
 PCOD9056637
Probable space group: P -1
;
_chemical_formula_sum "Si O2"
_cell_formula_units_Z 12
_cell_length_a 4.917917
_cell_length_b 17.603381
_cell_length_c 12.210320
_cell_angle_alpha 141.046662
_cell_angle_beta 113.632582
_cell_angle_gamma 61.406656
_cell_volume 582.727082
_symmetry_space_group_name_H-M "P -1"
_symmetry_group_IT_number 2
_symmetry_cell_setting 'triclinic'
loop_
_space_group_symop_operation_xyz
x,y,z
-x,-y,-z
loop_
_atom_site_type_symbol
_atom_site_label
_atom_site_fract_x
_atom_site_fract_y
_atom_site_fract_z
Si Si1 0.492672 0.458207 0.074542
Si Si2 0.802608 0.689365 0.002122
Si Si3 0.867093 0.284945 0.571984
Si Si4 0.778242 0.663923 0.526700
Si Si5 0.322223 0.585210 0.667910
Si Si6 0.808247 0.906674 0.397868
O O1 0.266916 0.373849 0.967096
O O2 0.912365 0.683092 0.449887
O O3 0.849117 0.372603 0.053901
O O4 0.500000 0.500000 0.000000
O O5 0.676018 0.414451 0.744953
O O6 0.553731 0.651526 0.839901
O O7 0.762611 0.830050 0.195627
O O8 0.577207 0.251310 0.428644
O O9 0.030393 0.187491 0.582636
O O10 0.779126 0.519514 0.393609
O O11 0.019282 0.683859 0.678637
O O12 0.500000 0.500000 0.500000
O O13 0.500000 0.000000 0.500000
O O14 0.000000 0.000000 0.500000
#
# Coordination Sequence:
#
# PCOD9056637 Si02
#       6
#     2   2   2   2   2   2
#     4  12  23  36  61 105 132 163 208 268 357 408
#     4  12  26  39  68  97 138 172 214 274 337 405
#     4  12  23  42  67  95 140 173 219 275 336 403
#     4  11  23  37  63 102 138 177 201 260 340 416
#     4  11  22  40  64 104 147 166 209 260 348 426
#     4  12  28  49  66  92 130 185 238 276 319 379
#
# _framework density 20.592828999999998
#
# number of rings (size 3 to 8) (size 9 to 14) (size 15 to 20)
#    0.000    0.333    5.000    4.500    4.667    0.000 
#    0.000    0.000    0.000    6.000    0.000    0.000 
#    0.000    0.000    0.000    0.000    0.000    0.000 
#
# Total GULP energy -66931.159947 kJ/mol
# GULP energy per Si atom -5577.596662 kJ/mol
# Density = 2.054596 g / cm^3
# Si number density = 20.592829 Si / 1000 Ang^3
#
#
#
# Elastic Constant Matrix: (Units=GPa)
#
#
# Indices 1 2 3 4 5 6 
#
# 1 158.4908 39.1116 45.6148 12.4366 16.5315 1.3937
# 2 39.1116 104.0498 53.4759 -5.7305 10.3871 -7.7461
# 3 45.6148 53.4759 127.5031 -2.7085 2.8276 -11.3784
# 4 12.4366 -5.7305 -2.7085 25.8907 0.0886 8.8510
# 5 16.5315 10.3871 2.8276 0.0886 27.6558 -0.3988
# 6 1.3937 -7.7461 -11.3784 8.8510 -0.3988 53.1330
#
#
#
# Elastic Compliance Matrix: (Units=1/GPa)
#
#
# Indices 1 2 3 4 5 6 
#
# 1 0.008148 -0.001807 -0.002185 -0.004449 -0.003958 -0.000234
# 2 -0.001807 0.013274 -0.004740 0.003181 -0.003425 0.000412
# 3 -0.002185 -0.004740 0.010721 0.000574 0.002011 0.001582
# 4 -0.004449 0.003181 0.000574 0.043770 0.001171 -0.006579
# 5 -0.003958 -0.003425 0.002011 0.001171 0.039603 0.000137
# 6 -0.000234 0.000412 0.001582 -0.006579 0.000137 0.020323
#
#
# Mechanical properties :
#
#
# Convention : Reuss Voigt Hill
#
# Bulk Modulus (GPa) = 68.12473 74.04979 71.08726
# Shear Modulus (GPa) = 31.60590 38.12532 34.86561
#
# Velocity S-wave (km/s) = 3.92190 4.30744 4.11919
# Velocity P-wave (km/s) = 7.32544 7.79589 7.56432
#
# Compressibility (1/GPa) = 0.01467896
#
# Stress axis : x y z
#
# Youngs Moduli (GPa) = 122.72533 75.33378 93.27121
#
# Poissons Ratio (x) = 0.13616 0.20376
# Poissons Ratio (y) = 0.22182 0.44215
# Poissons Ratio (z) = 0.26811 0.35711
#
# Static dielectric constant tensor:
#      x y z
#    x 1.736980 0.002520 0.048040 
#    y 0.002520 1.842940 -0.142640 
#    z 0.048040 -0.142640 1.820760 
# 
# From -- ./inp_files/484839.got.cif
#   From: 2010.05.17/outbox.cif.g08.bks.cpg/sg2_243_cif.got.tgz:484839.got - 2010.06.03 11:33:40.
