data_PCOD9056312
_publ_section_title
;
Structure prediction by ZEFSAII (Michael W. Deem and Ramdas Pophale) SiO2 
 PCOD9056312
Probable space group: P -1
;
_chemical_formula_sum "Si O2"
_cell_formula_units_Z 16
_cell_length_a 11.570071
_cell_length_b 11.219646
_cell_length_c 15.245349
_cell_angle_alpha 28.423383
_cell_angle_beta 89.525008
_cell_angle_gamma 109.604642
_cell_volume 653.439229
_symmetry_space_group_name_H-M "P -1"
_symmetry_group_IT_number 2
_symmetry_cell_setting 'triclinic'
loop_
_space_group_symop_operation_xyz
x,y,z
-x,-y,-z
loop_
_atom_site_type_symbol
_atom_site_label
_atom_site_fract_x
_atom_site_fract_y
_atom_site_fract_z
Si Si1 0.969558 0.114494 0.014517
Si Si2 0.466230 0.361347 0.849032
Si Si3 0.486255 0.203384 0.147583
Si Si4 0.258546 0.782872 0.102069
Si Si5 0.823227 0.893033 0.521569
Si Si6 0.660730 0.306372 0.361990
Si Si7 0.955125 0.685064 0.427462
Si Si8 0.143219 0.244261 0.207017
O O1 0.155119 0.486244 0.803789
O O2 0.849318 0.162027 0.973487
O O3 0.896062 0.805014 0.284477
O O4 0.000000 0.000000 0.000000
O O5 0.653270 0.766673 0.583285
O O6 0.338273 0.391120 0.828505
O O7 0.446013 0.188502 0.054920
O O8 0.435885 0.162073 0.888279
O O9 0.368625 0.861710 0.433290
O O10 0.500000 0.500000 0.000000
O O11 0.670024 0.365144 0.047538
O O12 0.240755 0.498278 0.233915
O O13 0.176567 0.585060 0.323194
O O14 0.865076 0.969074 0.574636
O O15 0.985351 0.174078 0.277837
O O16 0.500000 0.000000 0.500000
O O17 0.000000 0.500000 0.500000
O O18 0.108897 0.043738 0.247975
#
# Coordination Sequence:
#
# PCOD9056312 Si02
#       8
#     2   2   2   2   2   2   2   2
#     4  12  25  40  62 101 136 170 216 266 336 404
#     4  11  23  42  62  97 130 171 222 267 321 393
#     4  11  24  37  65  95 133 169 207 268 336 391
#     4  11  24  41  67  92 133 174 221 272 320 394
#     4   9  21  43  69  89 126 182 222 262 321 387
#     4  12  25  39  62  98 137 170 212 274 330 391
#     4  11  22  37  65  95 131 170 209 268 332 388
#     4   9  21  42  63  95 125 167 227 260 318 400
#
# _framework density 24.485827
#
# number of rings (size 3 to 8) (size 9 to 14) (size 15 to 20)
#    0.000    1.250    3.750    1.125    7.000    1.000 
#    0.000    6.250    0.000    7.500    0.000    0.000 
#    0.000    0.000    0.000    0.000    0.000    0.000 
#
# Total GULP energy -89485.731874 kJ/mol
# GULP energy per Si atom -5592.858242 kJ/mol
# Density = 2.443010 g / cm^3
# Si number density = 24.485827 Si / 1000 Ang^3
#
#
#
# Elastic Constant Matrix: (Units=GPa)
#
#
# Indices 1 2 3 4 5 6 
#
# 1 102.0558 27.1490 23.7784 16.5102 4.5704 16.8362
# 2 27.1490 105.3017 14.9247 -1.6382 17.3203 8.9662
# 3 23.7784 14.9247 85.7031 27.1763 6.0705 17.4083
# 4 16.5102 -1.6382 27.1763 36.9075 5.6886 -9.4191
# 5 4.5704 17.3203 6.0705 5.6886 41.5081 -4.7422
# 6 16.8362 8.9662 17.4083 -9.4191 -4.7422 37.3325
#
#
#
# Elastic Compliance Matrix: (Units=1/GPa)
#
#
# Indices 1 2 3 4 5 6 
#
# 1 0.013091 -0.003015 0.001455 -0.009136 -0.000078 -0.008173
# 2 -0.003015 0.011407 -0.002170 0.004198 -0.004675 0.000097
# 3 0.001455 -0.002170 0.021183 -0.020026 -0.001349 -0.015237
# 4 -0.009136 0.004198 -0.020026 0.052964 -0.002158 0.025539
# 5 -0.000078 -0.004675 -0.001349 -0.002158 0.027079 0.004682
# 6 -0.008173 0.000097 -0.015237 0.025539 0.004682 0.044592
#
#
# Mechanical properties :
#
#
# Convention : Reuss Voigt Hill
#
# Bulk Modulus (GPa) = 26.16217 47.19609 36.67913
# Shear Modulus (GPa) = 26.24448 38.29684 32.27066
#
# Velocity S-wave (km/s) = 3.27742 3.95909 3.63427
# Velocity P-wave (km/s) = 5.00298 6.34160 5.71164
#
# Compressibility (1/GPa) = 0.03822313
#
# Stress axis : x y z
#
# Youngs Moduli (GPa) = 76.38675 87.66279 47.20793
#
# Poissons Ratio (x) = 0.26429 -0.06871
# Poissons Ratio (y) = 0.23029 0.10243
# Poissons Ratio (z) = -0.11118 0.19021
#
# Static dielectric constant tensor:
#      x y z
#    x 1.996420 -0.019270 -0.047350 
#    y -0.019270 2.073180 -0.093740 
#    z -0.047350 -0.093740 1.992210 
# 
# From -- ./inp_files/464537.got.cif
#   From: 2010.05.17/outbox.cif.g08.bks.cpg/sg2_233_cif.got.tgz:464537.got - 2010.06.03 11:33:40.
