data_PCOD9056768
_publ_section_title
;
Structure prediction by ZEFSAII (Michael W. Deem and Ramdas Pophale) SiO2 
 PCOD9056768
Probable space group: P -1
;
_chemical_formula_sum "Si O2"
_cell_formula_units_Z 14
_cell_length_a 6.902414
_cell_length_b 23.385047
_cell_length_c 14.426903
_cell_angle_alpha 18.237311
_cell_angle_beta 120.691034
_cell_angle_gamma 119.431470
_cell_volume 626.505939
_symmetry_space_group_name_H-M "P -1"
_symmetry_group_IT_number 2
_symmetry_cell_setting 'triclinic'
loop_
_space_group_symop_operation_xyz
x,y,z
-x,-y,-z
loop_
_atom_site_type_symbol
_atom_site_label
_atom_site_fract_x
_atom_site_fract_y
_atom_site_fract_z
Si Si1 0.619812 0.532422 0.153273
Si Si2 0.262498 0.536224 0.502892
Si Si3 0.537223 0.241040 0.934169
Si Si4 0.308204 0.883311 0.186572
Si Si5 0.851894 0.988298 0.856063
Si Si6 0.033519 0.795061 0.783311
Si Si7 0.132200 0.686359 0.766457
O O1 0.632271 0.509974 0.301946
O O2 0.622507 0.318953 0.452370
O O3 0.394138 0.634005 0.914436
O O4 0.833973 0.654422 0.983079
O O5 0.352872 0.393721 0.669750
O O6 0.344060 0.729136 0.182308
O O7 0.000000 0.500000 0.500000
O O8 0.732239 0.259762 0.027925
O O9 0.374977 0.064997 0.173641
O O10 0.235654 0.997083 0.083385
O O11 0.500000 0.000000 0.000000
O O12 0.073292 0.864609 0.099631
O O13 0.927455 0.180395 0.536819
O O14 0.060739 0.778178 0.705186
O O15 0.000000 0.000000 0.500000
O O16 0.000000 0.500000 0.000000
#
# Coordination Sequence:
#
# PCOD9056768 Si02
#       7
#     2   2   2   2   2   2   2
#     4  12  25  44  74 102 140 186 243 291 362 428
#     4  11  22  40  69 101 134 177 222 289 353 417
#     4  11  24  41  67 102 137 175 231 288 356 419
#     4  11  25  46  72 105 139 186 244 297 355 431
#     4  11  26  44  71 102 145 184 237 296 361 423
#     4  12  28  45  70 105 145 188 240 293 361 436
#     4  12  28  49  71 100 147 195 243 294 357 431
#
# _framework density 22.346156000000001
#
# number of rings (size 3 to 8) (size 9 to 14) (size 15 to 20)
#    0.000    0.571    2.857    4.286    4.000   10.286 
#    0.000    0.000    0.000    0.000    0.000    0.000 
#    0.000    0.000    0.000    0.000    0.000    0.000 
#
# Total GULP energy -78220.895301 kJ/mol
# GULP energy per Si atom -5587.206807 kJ/mol
# Density = 2.229529 g / cm^3
# Si number density = 22.346156 Si / 1000 Ang^3
#
#
#
# Elastic Constant Matrix: (Units=GPa)
#
#
# Indices 1 2 3 4 5 6 
#
# 1 134.1096 33.9161 26.5120 -9.8377 -2.4724 2.4075
# 2 33.9161 63.1100 -9.7407 -0.9463 0.1837 16.5080
# 3 26.5120 -9.7407 68.1968 -9.4469 -0.3451 2.3018
# 4 -9.8377 -0.9463 -9.4469 41.3681 5.1016 -6.5551
# 5 -2.4724 0.1837 -0.3451 5.1016 38.3550 0.1488
# 6 2.4075 16.5080 2.3018 -6.5551 0.1488 30.6964
#
#
#
# Elastic Compliance Matrix: (Units=1/GPa)
#
#
# Indices 1 2 3 4 5 6 
#
# 1 0.010351 -0.007312 -0.004958 0.001722 0.000414 0.003858
# 2 -0.007312 0.024240 0.006507 -0.001781 -0.000240 -0.013330
# 3 -0.004958 0.006507 0.017999 0.002522 -0.000509 -0.003919
# 4 0.001722 -0.001781 0.002522 0.026540 -0.003412 0.006318
# 5 0.000414 -0.000240 -0.000509 -0.003412 0.026552 -0.000722
# 6 0.003858 -0.013330 -0.003919 0.006318 -0.000722 0.041089
#
#
# Mechanical properties :
#
#
# Convention : Reuss Voigt Hill
#
# Bulk Modulus (GPa) = 24.35248 40.75457 32.55352
# Shear Modulus (GPa) = 29.07209 36.39916 32.73562
#
# Velocity S-wave (km/s) = 3.61083 4.04031 3.83160
# Velocity P-wave (km/s) = 5.32031 6.32795 5.84588
#
# Compressibility (1/GPa) = 0.04106358
#
# Stress axis : x y z
#
# Youngs Moduli (GPa) = 96.61150 41.25383 55.55751
#
# Poissons Ratio (x) = 0.30167 0.27545
# Poissons Ratio (y) = 0.70647 -0.36152
# Poissons Ratio (z) = 0.47899 -0.26844
#
# Static dielectric constant tensor:
#      x y z
#    x 1.830800 0.005420 -0.012430 
#    y 0.005420 1.863780 -0.068020 
#    z -0.012430 -0.068020 1.924280 
# 
# From -- ./inp_files/78704.got.cif
#   From: 2010.05.17/outbox.cif.g08.bks.cpg/sg2_40_cif.got.tgz:78704.got - 2010.06.03 11:33:40.
