data_PCOD9056361
_publ_section_title
;
Structure prediction by ZEFSAII (Michael W. Deem and Ramdas Pophale) SiO2 
 PCOD9056361
Probable space group: P -1
;
_chemical_formula_sum "Si O2"
_cell_formula_units_Z 16
_cell_length_a 14.523252
_cell_length_b 11.682884
_cell_length_c 11.961258
_cell_angle_alpha 35.231159
_cell_angle_beta 50.615190
_cell_angle_gamma 38.302131
_cell_volume 725.537073
_symmetry_space_group_name_H-M "P -1"
_symmetry_group_IT_number 2
_symmetry_cell_setting 'triclinic'
loop_
_space_group_symop_operation_xyz
x,y,z
-x,-y,-z
loop_
_atom_site_type_symbol
_atom_site_label
_atom_site_fract_x
_atom_site_fract_y
_atom_site_fract_z
Si Si1 0.328265 0.166575 0.394496
Si Si2 0.106971 0.983458 0.025708
Si Si3 0.768126 0.532232 0.543848
Si Si4 0.212502 0.720755 0.657032
Si Si5 0.439490 0.738525 0.932565
Si Si6 0.469923 0.631196 0.647354
Si Si7 0.117024 0.510305 0.079265
Si Si8 0.036737 0.705611 0.612052
O O1 0.473628 0.153419 0.261176
O O2 0.216023 0.336840 0.245720
O O3 0.266498 0.302318 0.452645
O O4 0.365341 0.896040 0.581495
O O5 0.163970 0.737911 0.245321
O O6 0.261422 0.929692 0.909278
O O7 0.000000 0.000000 0.000000
O O8 0.010353 0.221631 0.987345
O O9 0.618303 0.611632 0.533629
O O10 0.888642 0.478105 0.404075
O O11 0.372938 0.661682 0.592224
O O12 0.162368 0.686264 0.604202
O O13 0.204667 0.553193 0.887726
O O14 0.085345 0.009378 0.553972
O O15 0.500000 0.500000 0.000000
O O16 0.486166 0.606276 0.124166
O O17 0.047066 0.380863 0.185318
#
# Coordination Sequence:
#
# PCOD9056361 Si02
#       8
#     2   2   2   2   2   2   2   2
#     4  12  23  41  65 103 129 172 209 253 334 392
#     4  11  22  38  62  98 134 168 205 258 323 388
#     4  11  24  42  62  98 137 164 206 263 327 383
#     4  11  24  46  68  88 128 173 225 266 312 377
#     4  11  22  38  63  92 136 174 203 256 321 389
#     4  11  24  41  67  95 130 171 215 265 314 390
#     4  12  23  42  69  94 128 168 217 265 323 381
#     4  11  26  44  64  95 127 174 218 269 318 371
#
# _framework density 22.052630000000001
#
# number of rings (size 3 to 8) (size 9 to 14) (size 15 to 20)
#    0.000    0.750    7.500    0.750    1.750    1.000 
#    0.000    0.000    0.000    2.250    0.000    0.000 
#    0.000    0.000    0.000    0.000    0.000    0.000 
#
# Total GULP energy -89422.337015 kJ/mol
# GULP energy per Si atom -5588.896063 kJ/mol
# Density = 2.200244 g / cm^3
# Si number density = 22.052630 Si / 1000 Ang^3
#
#
#
# Elastic Constant Matrix: (Units=GPa)
#
#
# Indices 1 2 3 4 5 6 
#
# 1 79.1574 14.9780 11.7396 -9.3371 0.1240 -31.4199
# 2 14.9780 69.5509 13.4561 -9.5243 13.5777 -7.9033
# 3 11.7396 13.4561 86.9017 -13.3338 -2.2090 3.0387
# 4 -9.3371 -9.5243 -13.3338 30.7848 -1.1786 5.1267
# 5 0.1240 13.5777 -2.2090 -1.1786 25.7457 -9.6106
# 6 -31.4199 -7.9033 3.0387 5.1267 -9.6106 30.9371
#
#
#
# Elastic Compliance Matrix: (Units=1/GPa)
#
#
# Indices 1 2 3 4 5 6 
#
# 1 0.025404 -0.003858 -0.003423 0.000692 0.012439 0.028901
# 2 -0.003858 0.017759 -0.001830 0.003640 -0.010480 -0.003061
# 3 -0.003423 -0.001830 0.013258 0.005153 0.000088 -0.006072
# 4 0.000692 0.003640 0.005153 0.036908 -0.001871 -0.005570
# 5 0.012439 -0.010480 0.000088 -0.001871 0.054363 0.027145
# 6 0.028901 -0.003061 -0.006072 -0.005570 0.027145 0.070846
#
#
# Mechanical properties :
#
#
# Convention : Reuss Voigt Hill
#
# Bulk Modulus (GPa) = 26.17707 35.10639 30.64173
# Shear Modulus (GPa) = 20.04062 30.52260 25.28161
#
# Velocity S-wave (km/s) = 3.01784 3.72436 3.38956
# Velocity P-wave (km/s) = 4.90298 5.86927 5.40775
#
# Compressibility (1/GPa) = 0.03820138
#
# Stress axis : x y z
#
# Youngs Moduli (GPa) = 39.36311 56.30808 75.42542
#
# Poissons Ratio (x) = 0.21724 0.25816
# Poissons Ratio (y) = 0.15187 0.13799
# Poissons Ratio (z) = 0.13473 0.10302
#
# Static dielectric constant tensor:
#      x y z
#    x 1.826140 -0.032860 -0.014100 
#    y -0.032860 1.812230 0.015870 
#    z -0.014100 0.015870 1.871960 
# 
# From -- ./inp_files/534107.got.cif
#   From: 2010.05.17/outbox.cif.g08.bks.cpg/sg2_268_cif.got.tgz:534107.got - 2010.06.03 11:33:40.
