data_PCOD9056789
_publ_section_title
;
Structure prediction by ZEFSAII (Michael W. Deem and Ramdas Pophale) SiO2 
 PCOD9056789
Probable space group: P -1
;
_chemical_formula_sum "Si O2"
_cell_formula_units_Z 16
_cell_length_a 8.722426
_cell_length_b 8.895281
_cell_length_c 16.951990
_cell_angle_alpha 70.919062
_cell_angle_beta 141.365197
_cell_angle_gamma 90.970221
_cell_volume 709.901114
_symmetry_space_group_name_H-M "P -1"
_symmetry_group_IT_number 2
_symmetry_cell_setting 'triclinic'
loop_
_space_group_symop_operation_xyz
x,y,z
-x,-y,-z
loop_
_atom_site_type_symbol
_atom_site_label
_atom_site_fract_x
_atom_site_fract_y
_atom_site_fract_z
Si Si1 0.626779 0.568504 0.640921
Si Si2 0.849132 0.088120 0.004799
Si Si3 0.712337 0.615423 0.908334
Si Si4 0.365612 0.374851 0.667027
Si Si5 0.173849 0.257410 0.900174
Si Si6 0.756521 0.512560 0.243092
Si Si7 0.309151 0.153625 0.271247
Si Si8 0.324338 0.232227 0.509108
O O1 0.422423 0.530640 0.622339
O O2 0.739359 0.695153 0.710476
O O3 0.536865 0.666637 0.505262
O O4 0.857284 0.378880 0.751109
O O5 0.045154 0.132678 0.135245
O O6 0.767435 0.944640 0.038606
O O7 0.611316 0.252803 0.843147
O O8 0.000000 0.000000 0.000000
O O9 0.507200 0.525607 0.851502
O O10 0.578985 0.780718 0.770117
O O11 0.747064 0.685241 0.994927
O O12 0.000000 0.500000 0.000000
O O13 0.153800 0.450401 0.640038
O O14 0.356088 0.254972 0.611386
O O15 0.286773 0.329316 0.860470
O O16 0.008799 0.339328 0.345857
O O17 0.529366 0.969074 0.418476
#
# Coordination Sequence:
#
# PCOD9056789 Si02
#       8
#     2   2   2   2   2   2   2   2
#     4  11  22  40  69  97 129 177 228 267 321 397
#     4  12  22  39  71 102 129 167 226 280 320 386
#     4  12  21  41  71  96 126 173 220 272 324 401
#     4  12  22  44  67  94 131 181 224 266 329 396
#     4  11  22  41  65 104 134 167 215 276 335 383
#     4  11  26  41  65  96 136 176 219 268 336 400
#     4  12  22  40  69 101 131 170 226 271 328 381
#     4  11  25  42  62  95 138 174 221 277 324 388
#
# _framework density 22.538350999999999
#
# number of rings (size 3 to 8) (size 9 to 14) (size 15 to 20)
#    0.000    0.500    6.250    2.250    0.000    2.000 
#    0.000    0.000    0.000    0.000    0.000    0.000 
#    0.000    0.000    0.000    0.000    0.000    0.000 
#
# Total GULP energy -89362.760650 kJ/mol
# GULP energy per Si atom -5585.172541 kJ/mol
# Density = 2.248705 g / cm^3
# Si number density = 22.538351 Si / 1000 Ang^3
#
#
#
# Elastic Constant Matrix: (Units=GPa)
#
#
# Indices 1 2 3 4 5 6 
#
# 1 122.0944 39.9928 32.1747 -1.8373 -26.9827 23.3616
# 2 39.9928 103.8008 31.1590 7.7490 9.0932 15.3263
# 3 32.1747 31.1590 59.8788 -10.0342 1.7943 6.4310
# 4 -1.8373 7.7490 -10.0342 49.6795 -2.1430 -9.8740
# 5 -26.9827 9.0932 1.7943 -2.1430 27.8960 -2.3514
# 6 23.3616 15.3263 6.4310 -9.8740 -2.3514 43.5510
#
#
#
# Elastic Compliance Matrix: (Units=1/GPa)
#
#
# Indices 1 2 3 4 5 6 
#
# 1 0.016335 -0.005260 -0.006026 -0.000051 0.017469 -0.005090
# 2 -0.005260 0.014904 -0.005046 -0.004633 -0.010254 -0.003282
# 3 -0.006026 -0.005046 0.023375 0.005574 -0.005044 0.002548
# 4 -0.000051 -0.004633 0.005574 0.023380 0.003432 0.006320
# 5 0.017469 -0.010254 -0.005044 0.003432 0.056575 -0.001185
# 6 -0.005090 -0.003282 0.002548 0.006320 -0.001185 0.027840
#
#
# Mechanical properties :
#
#
# Convention : Reuss Voigt Hill
#
# Bulk Modulus (GPa) = 45.55425 54.71411 50.13418
# Shear Modulus (GPa) = 24.70489 36.38847 30.54668
#
# Velocity S-wave (km/s) = 3.31437 4.02246 3.68546
# Velocity P-wave (km/s) = 5.90783 6.77512 6.35629
#
# Compressibility (1/GPa) = 0.02195185
#
# Stress axis : x y z
#
# Youngs Moduli (GPa) = 61.21821 67.09692 42.78005
#
# Poissons Ratio (x) = 0.35292 0.25777
# Poissons Ratio (y) = 0.32200 0.21586
# Poissons Ratio (z) = 0.36887 0.33855
#
# Static dielectric constant tensor:
#      x y z
#    x 1.919080 -0.050240 0.056170 
#    y -0.050240 1.893830 -0.000160 
#    z 0.056170 -0.000160 1.935450 
# 
# From -- ./inp_files/346085.got.cif
#   From: 2010.05.17/outbox.cif.g08.bks.cpg/sg2_174_cif.got.tgz:346085.got - 2010.06.03 11:33:40.
