data_PCOD9056854
_publ_section_title
;
Structure prediction by ZEFSAII (Michael W. Deem and Ramdas Pophale) SiO2 
 PCOD9056854
Probable space group: P -1
;
_chemical_formula_sum "Si O2"
_cell_formula_units_Z 14
_cell_length_a 9.110554
_cell_length_b 15.142835
_cell_length_c 19.615895
_cell_angle_alpha 161.859549
_cell_angle_beta 53.514550
_cell_angle_gamma 129.974318
_cell_volume 644.253696
_symmetry_space_group_name_H-M "P -1"
_symmetry_group_IT_number 2
_symmetry_cell_setting 'triclinic'
loop_
_space_group_symop_operation_xyz
x,y,z
-x,-y,-z
loop_
_atom_site_type_symbol
_atom_site_label
_atom_site_fract_x
_atom_site_fract_y
_atom_site_fract_z
Si Si1 0.882128 0.544106 0.248030
Si Si2 0.669048 0.895269 0.784008
Si Si3 0.985470 0.214819 0.461924
Si Si4 0.477145 0.516056 0.359823
Si Si5 0.483569 0.097646 0.849358
Si Si6 0.191059 0.277633 0.147453
Si Si7 0.137841 0.486185 0.014665
O O1 0.688506 0.633585 0.354550
O O2 0.962380 0.687196 0.402549
O O3 0.047909 0.613542 0.196593
O O4 0.793128 0.183876 0.003896
O O5 0.517629 0.674851 0.713795
O O6 0.816893 0.732317 0.595465
O O7 0.579788 0.012331 0.829255
O O8 0.864985 0.421414 0.620746
O O9 0.881929 0.861175 0.224752
O O10 0.326017 0.306456 0.196885
O O11 0.410543 0.793276 0.604328
O O12 0.317513 0.231049 0.014964
O O13 0.649974 0.325436 0.927186
O O14 0.000000 0.000000 0.000000
O O15 0.000000 0.500000 0.000000
#
# Coordination Sequence:
#
# PCOD9056854 Si02
#       7
#     2   2   2   2   2   2   2
#     4  11  22  40  73 101 129 181 226 276 338 394
#     4  11  22  41  68 103 133 171 233 283 322 405
#     4  11  25  43  69 102 139 180 222 281 341 392
#     4  12  24  41  73  99 136 181 226 274 351 395
#     4  12  25  43  68 101 137 177 227 284 330 404
#     4  12  28  46  65 102 144 177 221 283 346 406
#     4  11  22  45  68 103 139 169 236 284 319 405
#
# _framework density 21.73057
#
# number of rings (size 3 to 8) (size 9 to 14) (size 15 to 20)
#    0.000    0.571    5.714    2.571    2.000    8.571 
#    0.000    1.429    0.000    0.000    0.000    0.000 
#    0.000    0.000    0.000    0.000    0.000    0.000 
#
# Total GULP energy -78333.720281 kJ/mol
# GULP energy per Si atom -5595.265734 kJ/mol
# Density = 2.168111 g / cm^3
# Si number density = 21.730570 Si / 1000 Ang^3
#
#
#
# Elastic Constant Matrix: (Units=GPa)
#
#
# Indices 1 2 3 4 5 6 
#
# 1 49.7885 32.6946 18.3976 -10.8048 -4.0322 6.0725
# 2 32.6946 133.3452 58.3514 -14.7617 -5.1371 25.3653
# 3 18.3976 58.3514 122.2247 -30.3608 -12.0198 1.3056
# 4 -10.8048 -14.7617 -30.3608 44.9597 4.0761 -4.8504
# 5 -4.0322 -5.1371 -12.0198 4.0761 51.3825 -2.2622
# 6 6.0725 25.3653 1.3056 -4.8504 -2.2622 22.4430
#
#
#
# Elastic Compliance Matrix: (Units=1/GPa)
#
#
# Indices 1 2 3 4 5 6 
#
# 1 0.024712 -0.005801 0.000180 0.004149 0.001111 0.000868
# 2 -0.005801 0.014279 -0.006537 -0.002633 -0.001002 -0.014858
# 3 0.000180 -0.006537 0.013288 0.007576 0.002239 0.008430
# 4 0.004149 -0.002633 0.007576 0.028310 -0.000080 0.007523
# 5 0.001111 -0.001002 0.002239 -0.000080 0.020098 0.002711
# 6 0.000868 -0.014858 0.008430 0.007523 0.002711 0.062524
#
#
# Mechanical properties :
#
#
# Convention : Reuss Voigt Hill
#
# Bulk Modulus (GPa) = 35.76264 58.24951 47.00608
# Shear Modulus (GPa) = 25.40033 36.81801 31.10917
#
# Velocity S-wave (km/s) = 3.42259 4.12065 3.78773
# Velocity P-wave (km/s) = 5.66673 7.03585 6.38808
#
# Compressibility (1/GPa) = 0.02796214
#
# Stress axis : x y z
#
# Youngs Moduli (GPa) = 40.46586 70.03427 75.25761
#
# Poissons Ratio (x) = 0.40627 -0.01357
# Poissons Ratio (y) = 0.23475 0.49199
# Poissons Ratio (z) = -0.00730 0.45784
#
# Static dielectric constant tensor:
#      x y z
#    x 1.843750 0.045900 0.034510 
#    y 0.045900 1.833580 0.029060 
#    z 0.034510 0.029060 1.821170 
# 
# From -- ./inp_files/561299.got.cif
#   From: 2010.05.17/outbox.cif.g08.bks.cpg/sg2_281_cif.got.tgz:561299.got - 2010.06.03 11:33:40.
