data_PCOD9056640
_publ_section_title
;
Structure prediction by ZEFSAII (Michael W. Deem and Ramdas Pophale) SiO2 
 PCOD9056640
Probable space group: P -1
;
_chemical_formula_sum "Si O2"
_cell_formula_units_Z 12
_cell_length_a 8.139994
_cell_length_b 12.621282
_cell_length_c 8.380245
_cell_angle_alpha 116.322142
_cell_angle_beta 80.375588
_cell_angle_gamma 139.108378
_cell_volume 484.021272
_symmetry_space_group_name_H-M "P -1"
_symmetry_group_IT_number 2
_symmetry_cell_setting 'triclinic'
loop_
_space_group_symop_operation_xyz
x,y,z
-x,-y,-z
loop_
_atom_site_type_symbol
_atom_site_label
_atom_site_fract_x
_atom_site_fract_y
_atom_site_fract_z
Si Si1 0.431631 0.326815 0.549313
Si Si2 0.020382 0.382828 0.496403
Si Si3 0.904051 0.661523 0.208886
Si Si4 0.944496 0.049310 0.826811
Si Si5 0.641151 0.003597 0.117170
Si Si6 0.466354 0.708885 0.161524
O O1 0.688972 0.498941 0.524215
O O2 0.311433 0.371243 0.693241
O O3 0.511097 0.276245 0.641426
O O4 0.213082 0.146165 0.353840
O O5 0.994788 0.362144 0.677239
O O6 0.000000 0.500000 0.500000
O O7 0.809639 0.181472 0.318526
O O8 0.093422 0.858574 0.223760
O O9 0.764913 0.504336 0.995665
O O10 0.253050 0.193236 0.871236
O O11 0.834184 0.024214 0.998938
O O12 0.455402 0.822760 0.137855
O O13 0.500000 0.000000 0.000000
#
# Coordination Sequence:
#
# PCOD9056640 Si02
#       6
#     2   2   2   2   2   2
#     4  11  22  40  64  92 121 157 200 248 297 351
#     4  12  25  42  61  88 122 160 200 246 299 358
#     4  11  22  40  64  92 121 157 200 248 297 351
#     4  11  22  40  64  92 121 157 200 248 297 351
#     4  12  25  42  61  88 122 160 200 246 299 358
#     4  11  22  40  64  92 121 157 200 248 297 351
#
# _framework density 24.792299
#
# number of rings (size 3 to 8) (size 9 to 14) (size 15 to 20)
#    0.000    0.667    0.000   12.000    0.000    1.333 
#    0.000    6.667    0.000    0.000    0.000    0.000 
#    0.000    0.000    0.000    0.000    0.000    0.000 
#
# Total GULP energy -67308.685343 kJ/mol
# GULP energy per Si atom -5609.057112 kJ/mol
# Density = 2.473587 g / cm^3
# Si number density = 24.792299 Si / 1000 Ang^3
#
#
#
# Elastic Constant Matrix: (Units=GPa)
#
#
# Indices 1 2 3 4 5 6 
#
# 1 67.9270 2.1929 -9.5878 -7.7356 8.3589 -16.5369
# 2 2.1929 115.2690 15.0911 -14.6940 0.2422 -15.1800
# 3 -9.5878 15.0911 117.6620 15.8470 8.0160 -2.8078
# 4 -7.7356 -14.6940 15.8470 58.9815 -6.9603 2.3200
# 5 8.3589 0.2422 8.0160 -6.9603 33.7369 -9.6290
# 6 -16.5369 -15.1800 -2.8078 2.3200 -9.6290 48.3290
#
#
#
# Elastic Compliance Matrix: (Units=1/GPa)
#
#
# Indices 1 2 3 4 5 6 
#
# 1 0.016692 0.000374 0.001437 0.001371 -0.002681 0.005313
# 2 0.000374 0.009696 -0.001659 0.002992 0.001788 0.003290
# 3 0.001437 -0.001659 0.009475 -0.003154 -0.003238 0.000027
# 4 0.001371 0.002992 -0.003154 0.019234 0.004711 0.001241
# 5 -0.002681 0.001788 -0.003238 0.004711 0.033732 0.005951
# 6 0.005313 0.003290 0.000027 0.001241 0.005951 0.024670
#
#
# Mechanical properties :
#
#
# Convention : Reuss Voigt Hill
#
# Bulk Modulus (GPa) = 27.64977 35.13895 31.39436
# Shear Modulus (GPa) = 39.91956 47.75360 43.83658
#
# Velocity S-wave (km/s) = 4.01703 4.39355 4.20950
# Velocity P-wave (km/s) = 5.71771 6.31995 6.02636
#
# Compressibility (1/GPa) = 0.03616666
#
# Stress axis : x y z
#
# Youngs Moduli (GPa) = 59.90974 103.13066 105.54224
#
# Poissons Ratio (x) = -0.03861 -0.15165
# Poissons Ratio (y) = -0.02243 0.17514
# Poissons Ratio (z) = -0.08608 0.17114
#
# Static dielectric constant tensor:
#      x y z
#    x 2.083990 -0.067920 0.035780 
#    y -0.067920 1.875640 -0.038220 
#    z 0.035780 -0.038220 1.818570 
# 
# From -- ./inp_files/146936.got.cif
#   From: 2010.05.17/outbox.cif.g08.bks.cpg/sg2_74_cif.got.tgz:146936.got - 2010.06.03 11:33:40.
