data_PCOD9056287
_publ_section_title
;
Structure prediction by ZEFSAII (Michael W. Deem and Ramdas Pophale) SiO2 
 PCOD9056287
Probable space group: P -1
;
_chemical_formula_sum "Si O2"
_cell_formula_units_Z 12
_cell_length_a 15.714038
_cell_length_b 15.941721
_cell_length_c 7.869137
_cell_angle_alpha 48.774792
_cell_angle_beta 129.614748
_cell_angle_gamma 160.883752
_cell_volume 484.654253
_symmetry_space_group_name_H-M "P -1"
_symmetry_group_IT_number 2
_symmetry_cell_setting 'triclinic'
loop_
_space_group_symop_operation_xyz
x,y,z
-x,-y,-z
loop_
_atom_site_type_symbol
_atom_site_label
_atom_site_fract_x
_atom_site_fract_y
_atom_site_fract_z
Si Si1 0.431179 0.213170 0.361255
Si Si2 0.006945 0.325682 0.653125
Si Si3 0.501394 0.149994 0.891013
Si Si4 0.711543 0.834528 0.208283
Si Si5 0.275198 0.286121 0.254454
Si Si6 0.970532 0.416009 0.843488
O O1 0.445747 0.152933 0.633529
O O2 0.311012 0.222161 0.247965
O O3 0.726611 0.491913 0.301739
O O4 0.246493 0.977327 0.312737
O O5 0.013409 0.377656 0.783254
O O6 0.002325 0.433549 0.387646
O O7 0.408008 0.158136 0.897021
O O8 0.803281 0.405285 0.973653
O O9 0.313631 0.874179 0.059411
O O10 0.518376 0.591010 0.165691
O O11 0.723999 0.776588 0.478416
O O12 0.001722 0.099706 0.150208
#
# Coordination Sequence:
#
# PCOD9056287 Si02
#       6
#     2   2   2   2   2   2
#     4  11  22  37  62  91 114 145 194 245 282 323
#     4  11  24  41  59  81 116 159 192 227 289 355
#     4  11  22  37  62  91 114 145 194 245 282 323
#     4   9  17  31  53  82 114 145 180 226 281 337
#     4   9  17  31  53  82 114 145 180 226 281 337
#     4  11  24  41  59  81 116 159 192 227 289 355
#
# _framework density 24.759922
#
# number of rings (size 3 to 8) (size 9 to 14) (size 15 to 20)
#    0.000    1.667    0.000    5.000    0.000   12.000 
#    0.000    0.000    0.000   20.000    0.000    0.000 
#    0.000    0.000    0.000    0.000    0.000    0.000 
#
# Total GULP energy -67354.569831 kJ/mol
# GULP energy per Si atom -5612.880819 kJ/mol
# Density = 2.470357 g / cm^3
# Si number density = 24.759922 Si / 1000 Ang^3
#
#
#
# Elastic Constant Matrix: (Units=GPa)
#
#
# Indices 1 2 3 4 5 6 
#
# 1 123.2951 41.5167 8.4442 11.6973 -2.5151 -5.1466
# 2 41.5167 167.2901 14.9217 1.6187 0.0090 -1.7586
# 3 8.4442 14.9217 82.9903 11.3976 -13.3931 -7.8439
# 4 11.6973 1.6187 11.3976 41.3768 1.6670 -2.8622
# 5 -2.5151 0.0090 -13.3931 1.6670 43.8689 -0.1068
# 6 -5.1466 -1.7586 -7.8439 -2.8622 -0.1068 53.3692
#
#
#
# Elastic Compliance Matrix: (Units=1/GPa)
#
#
# Indices 1 2 3 4 5 6 
#
# 1 0.009140 -0.002235 -0.000027 -0.002467 0.000612 0.000673
# 2 -0.002235 0.006627 -0.001155 0.000702 -0.000509 -0.000130
# 3 -0.000027 -0.001155 0.013639 -0.003755 0.004310 0.001771
# 4 -0.002467 0.000702 -0.003755 0.026007 -0.002275 0.000624
# 5 0.000612 -0.000509 0.004310 -0.002275 0.024234 0.000602
# 6 0.000673 -0.000130 0.001771 0.000624 0.000602 0.019093
#
#
# Mechanical properties :
#
#
# Convention : Reuss Voigt Hill
#
# Bulk Modulus (GPa) = 44.30381 55.92676 50.11529
# Shear Modulus (GPa) = 44.20972 48.30252 46.25612
#
# Velocity S-wave (km/s) = 4.23014 4.42162 4.32694
# Velocity P-wave (km/s) = 6.46460 6.97884 6.72664
#
# Compressibility (1/GPa) = 0.02257142
#
# Stress axis : x y z
#
# Youngs Moduli (GPa) = 109.41371 150.89405 73.32120
#
# Poissons Ratio (x) = 0.33723 0.00198
# Poissons Ratio (y) = 0.24453 0.08469
# Poissons Ratio (z) = 0.00296 0.17430
#
# Static dielectric constant tensor:
#      x y z
#    x 1.916620 -0.002800 -0.003840 
#    y -0.002800 1.852060 -0.024030 
#    z -0.003840 -0.024030 1.991990 
# 
# From -- ./inp_files/18365.got.cif
#   From: 2010.05.17/outbox.cif.g08.bks.cpg/sg2_10_cif.got.tgz:18365.got - 2010.06.03 11:33:40.
