data_PCOD9056953
_publ_section_title
;
Structure prediction by ZEFSAII (Michael W. Deem and Ramdas Pophale) SiO2 
 PCOD9056953
Probable space group: P -1
;
_chemical_formula_sum "Si O2"
_cell_formula_units_Z 16
_cell_length_a 10.066385
_cell_length_b 13.783027
_cell_length_c 11.936669
_cell_angle_alpha 51.786401
_cell_angle_beta 115.517078
_cell_angle_gamma 72.603639
_cell_volume 708.548814
_symmetry_space_group_name_H-M "P -1"
_symmetry_group_IT_number 2
_symmetry_cell_setting 'triclinic'
loop_
_space_group_symop_operation_xyz
x,y,z
-x,-y,-z
loop_
_atom_site_type_symbol
_atom_site_label
_atom_site_fract_x
_atom_site_fract_y
_atom_site_fract_z
Si Si1 0.554236 0.191388 0.496631
Si Si2 0.660339 0.285311 0.268319
Si Si3 0.838209 0.944602 0.417704
Si Si4 0.933022 0.615127 0.739178
Si Si5 0.238811 0.326279 0.607390
Si Si6 0.106315 0.246053 0.056741
Si Si7 0.617800 0.884435 0.978417
Si Si8 0.407290 0.435909 0.463256
O O1 0.522915 0.313780 0.301570
O O2 0.326008 0.258959 0.399643
O O3 0.601995 0.233294 0.600475
O O4 0.756684 0.959868 0.691531
O O5 0.729012 0.129194 0.319078
O O6 0.500000 0.500000 0.000000
O O7 0.924284 0.165369 0.483157
O O8 0.940584 0.756392 0.659375
O O9 0.612374 0.046286 0.189623
O O10 0.926913 0.606382 0.606403
O O11 0.109540 0.384695 0.006685
O O12 0.201563 0.304398 0.735381
O O13 0.305079 0.422569 0.538189
O O14 0.497591 0.084040 0.847964
O O15 0.242126 0.169284 0.042596
O O16 0.827060 0.397173 0.823448
O O17 0.500000 0.500000 0.500000
#
# Coordination Sequence:
#
# PCOD9056953 Si02
#       8
#     2   2   2   2   2   2   2   2
#     4  10  21  44  61  88 121 155 209 253 299 369
#     4  11  27  44  63  87 122 161 200 256 320 366
#     4  10  23  43  62  93 124 150 211 258 297 371
#     4   9  20  38  64  95 123 154 208 247 292 364
#     4   8  17  34  56  89 126 149 200 249 285 352
#     4  10  19  37  66  83 124 163 198 253 303 349
#     4  10  17  36  64  86 120 158 200 256 299 344
#     4  10  22  37  54  91 129 162 205 241 292 370
#
# _framework density 22.581367
#
# number of rings (size 3 to 8) (size 9 to 14) (size 15 to 20)
#    0.000    2.500    3.750    0.000    1.750    9.000 
#    6.750    1.250    0.000    0.000    0.000    0.000 
#    0.000    0.000    0.000    0.000    0.000    0.000 
#
# Total GULP energy -89221.620196 kJ/mol
# GULP energy per Si atom -5576.351262 kJ/mol
# Density = 2.252997 g / cm^3
# Si number density = 22.581367 Si / 1000 Ang^3
#
#
#
# Elastic Constant Matrix: (Units=GPa)
#
#
# Indices 1 2 3 4 5 6 
#
# 1 91.7666 27.9597 7.8989 2.9390 -17.6256 3.9797
# 2 27.9597 72.8538 13.8744 -4.4822 -13.6303 6.1868
# 3 7.8989 13.8744 90.6802 -6.9207 -30.3024 7.2227
# 4 2.9390 -4.4822 -6.9207 30.0627 8.3985 -7.8590
# 5 -17.6256 -13.6303 -30.3024 8.3985 41.4019 -3.7645
# 6 3.9797 6.1868 7.2227 -7.8590 -3.7645 32.9859
#
#
#
# Elastic Compliance Matrix: (Units=1/GPa)
#
#
# Indices 1 2 3 4 5 6 
#
# 1 0.013423 -0.004422 0.001274 -0.003635 0.005812 -0.001272
# 2 -0.004422 0.016283 -0.001124 0.001557 0.002189 -0.001653
# 3 0.001274 -0.001124 0.014884 -0.000470 0.010974 -0.002062
# 4 -0.003635 0.001557 -0.000470 0.038284 -0.008380 0.008414
# 5 0.005812 0.002189 0.010974 -0.008380 0.036963 -0.001293
# 6 -0.001272 -0.001653 -0.002062 0.008414 -0.001293 0.033088
#
#
# Mechanical properties :
#
#
# Convention : Reuss Voigt Hill
#
# Bulk Modulus (GPa) = 27.74316 39.41851 33.58084
# Shear Modulus (GPa) = 28.82089 34.59461 31.70775
#
# Velocity S-wave (km/s) = 3.57643 3.91832 3.75127
# Velocity P-wave (km/s) = 5.41913 6.16158 5.80224
#
# Compressibility (1/GPa) = 0.03604492
#
# Stress axis : x y z
#
# Youngs Moduli (GPa) = 74.49986 61.41335 67.18488
#
# Poissons Ratio (x) = 0.27158 -0.08556
# Poissons Ratio (y) = 0.32945 0.07552
# Poissons Ratio (z) = -0.09488 0.06903
#
# Static dielectric constant tensor:
#      x y z
#    x 1.809920 -0.031680 -0.016000 
#    y -0.031680 1.892370 -0.025800 
#    z -0.016000 -0.025800 1.953290 
# 
# From -- ./inp_files/503883.got.cif
#   From: 2010.05.17/outbox.cif.g08.bks.cpg/sg2_252_cif.got.tgz:503883.got - 2010.06.03 11:33:40.
