data_PCOD9056189
_publ_section_title
;
Structure prediction by ZEFSAII (Michael W. Deem and Ramdas Pophale) SiO2 
 PCOD9056189
Probable space group: P -1
;
_chemical_formula_sum "Si O2"
_cell_formula_units_Z 16
_cell_length_a 20.144609
_cell_length_b 16.333542
_cell_length_c 12.887318
_cell_angle_alpha 154.728295
_cell_angle_beta 39.727964
_cell_angle_gamma 151.825317
_cell_volume 846.410737
_symmetry_space_group_name_H-M "P -1"
_symmetry_group_IT_number 2
_symmetry_cell_setting 'triclinic'
loop_
_space_group_symop_operation_xyz
x,y,z
-x,-y,-z
loop_
_atom_site_type_symbol
_atom_site_label
_atom_site_fract_x
_atom_site_fract_y
_atom_site_fract_z
Si Si1 0.836433 0.485475 0.105780
Si Si2 0.326469 0.080269 0.675186
Si Si3 0.910374 0.801416 0.186577
Si Si4 0.439669 0.383611 0.101434
Si Si5 0.166903 0.928077 0.288596
Si Si6 0.862478 0.817885 0.026749
Si Si7 0.623644 0.262803 0.715382
Si Si8 0.761804 0.760893 0.634435
O O1 0.841784 0.550857 0.053790
O O2 0.756493 0.547608 0.339750
O O3 0.001966 0.702697 0.192059
O O4 0.784338 0.208311 0.876482
O O5 0.466625 0.328092 0.730155
O O6 0.309973 0.831212 0.409665
O O7 0.346461 0.180146 0.884865
O O8 0.200716 0.047653 0.741019
O O9 0.837115 0.903984 0.432951
O O10 0.894631 0.777894 0.056190
O O11 0.077508 0.020019 0.263749
O O12 0.346695 0.338047 0.256249
O O13 0.547079 0.344720 0.958615
O O14 0.251602 0.100170 0.282170
O O15 0.737961 0.514439 0.792989
O O16 0.000000 0.000000 0.000000
O O17 0.500000 0.000000 0.500000
#
# Coordination Sequence:
#
# PCOD9056189 Si02
#       8
#     2   2   2   2   2   2   2   2
#     4   8  15  29  47  70 103 138 171 212 262 311
#     4   9  19  35  51  71 106 143 171 210 262 312
#     4   9  18  30  47  74 109 139 165 210 268 314
#     4   9  17  32  54  76 100 135 179 220 257 304
#     4   8  15  29  46  69 102 138 172 210 261 313
#     4  11  22  35  54  82 111 139 174 216 262 312
#     4   9  20  38  55  72 102 144 182 215 256 310
#     4   9  16  28  50  79 104 130 173 221 259 306
#
# _framework density 18.903352999999999
#
# number of rings (size 3 to 8) (size 9 to 14) (size 15 to 20)
#    0.000    3.000    0.000    3.000    0.000    2.500 
#    0.000    8.750    0.000   12.000    0.000   14.000 
#    0.000    0.000    0.000    0.000    0.000    0.000 
#
# Total GULP energy -89127.902477 kJ/mol
# GULP energy per Si atom -5570.493905 kJ/mol
# Density = 1.886033 g / cm^3
# Si number density = 18.903353 Si / 1000 Ang^3
#
#
#
# Elastic Constant Matrix: (Units=GPa)
#
#
# Indices 1 2 3 4 5 6 
#
# 1 82.4528 43.8679 47.3720 0.2019 -22.9216 -26.2449
# 2 43.8679 136.3407 66.1844 -24.5766 -11.8466 -25.8549
# 3 47.3720 66.1844 70.7450 0.1267 -28.1767 -23.3908
# 4 0.2019 -24.5766 0.1267 29.2854 -8.7873 2.5211
# 5 -22.9216 -11.8466 -28.1767 -8.7873 37.8812 6.4001
# 6 -26.2449 -25.8549 -23.3908 2.5211 6.4001 29.0179
#
#
#
# Elastic Compliance Matrix: (Units=1/GPa)
#
#
# Indices 1 2 3 4 5 6 
#
# 1 0.022568 -0.000100 -0.009169 0.000239 0.004860 0.011839
# 2 -0.000100 0.019452 -0.020085 0.014611 -0.005703 0.001040
# 3 -0.009169 -0.020085 0.051694 -0.011411 0.022012 0.011618
# 4 0.000239 0.014611 -0.011411 0.049004 0.007926 -0.001969
# 5 0.004860 -0.005703 0.022012 0.007926 0.044666 0.006517
# 6 0.011839 0.001040 0.011618 -0.001969 0.006517 0.054193
#
#
# Mechanical properties :
#
#
# Convention : Reuss Voigt Hill
#
# Bulk Modulus (GPa) = 28.56672 67.15409 47.86041
# Shear Modulus (GPa) = 16.02806 28.04452 22.03629
#
# Velocity S-wave (km/s) = 2.91502 3.85590 3.41799
# Velocity P-wave (km/s) = 5.14535 7.44486 6.39924
#
# Compressibility (1/GPa) = 0.03500576
#
# Stress axis : x y z
#
# Youngs Moduli (GPa) = 44.31087 51.40838 19.34477
#
# Poissons Ratio (x) = 0.00514 0.17737
# Poissons Ratio (y) = 0.00443 0.38854
# Poissons Ratio (z) = 0.40628 1.03254
#
# Static dielectric constant tensor:
#      x y z
#    x 1.731330 0.024200 0.009540 
#    y 0.024200 1.633560 0.028940 
#    z 0.009540 0.028940 1.660770 
# 
# From -- ./inp_files/471787.got.cif
#   From: 2010.05.17/outbox.cif.g08.bks.cpg/sg2_236_cif.got.tgz:471787.got - 2010.06.03 11:33:40.
