data_PCOD9056824
_publ_section_title
;
Structure prediction by ZEFSAII (Michael W. Deem and Ramdas Pophale) SiO2 
 PCOD9056824
Probable space group: P -1
;
_chemical_formula_sum "Si O2"
_cell_formula_units_Z 16
_cell_length_a 12.031281
_cell_length_b 18.815272
_cell_length_c 8.904426
_cell_angle_alpha 53.379632
_cell_angle_beta 46.129222
_cell_angle_gamma 30.977391
_cell_volume 747.913927
_symmetry_space_group_name_H-M "P -1"
_symmetry_group_IT_number 2
_symmetry_cell_setting 'triclinic'
loop_
_space_group_symop_operation_xyz
x,y,z
-x,-y,-z
loop_
_atom_site_type_symbol
_atom_site_label
_atom_site_fract_x
_atom_site_fract_y
_atom_site_fract_z
Si Si1 0.747588 0.389352 0.816860
Si Si2 0.917662 0.859314 0.615511
Si Si3 0.790441 0.576010 0.486510
Si Si4 0.815448 0.865891 0.055083
Si Si5 0.588007 0.380573 0.671315
Si Si6 0.486415 0.864061 0.488053
Si Si7 0.151365 0.446193 0.070723
Si Si8 0.599735 0.852578 0.742154
O O1 0.774879 0.477518 0.616992
O O2 0.717133 0.346076 0.750532
O O3 0.955517 0.260685 0.894747
O O4 0.500000 0.500000 0.000000
O O5 0.799851 0.830072 0.661020
O O6 0.198413 0.753240 0.460086
O O7 0.777835 0.003600 0.492861
O O8 0.871793 0.862113 0.832539
O O9 0.561693 0.729120 0.569213
O O10 0.000000 0.500000 0.500000
O O11 0.923674 0.564718 0.240256
O O12 0.649719 0.851560 0.240296
O O13 0.645625 0.016020 0.102825
O O14 0.500000 0.500000 0.500000
O O15 0.352668 0.430752 0.876939
O O16 0.538683 0.882397 0.581915
O O17 0.292610 0.293208 0.164576
O O18 0.000000 0.500000 0.000000
#
# Coordination Sequence:
#
# PCOD9056824 Si02
#       8
#     2   2   2   2   2   2   2   2
#     4  12  25  44  70 102 140 184 226 284 347 407
#     4  11  24  43  69 103 139 180 227 285 350 404
#     4  12  23  42  69 104 136 182 235 279 335 403
#     4  11  23  41  69 101 137 182 229 281 343 413
#     4  12  26  47  67 101 140 181 226 285 353 406
#     4  11  22  40  71 100 141 178 234 283 335 414
#     4  12  27  43  72 100 137 177 230 285 337 420
#     4  11  22  42  68 103 131 183 232 283 344 408
#
# _framework density 21.392835999999999
#
# number of rings (size 3 to 8) (size 9 to 14) (size 15 to 20)
#    0.000    0.500    2.500    8.250    5.250    0.000 
#    2.250    1.875    0.000    0.000    0.000    0.000 
#    0.000    0.000    0.000    0.000    0.000    0.000 
#
# Total GULP energy -89188.060173 kJ/mol
# GULP energy per Si atom -5574.253761 kJ/mol
# Density = 2.134414 g / cm^3
# Si number density = 21.392836 Si / 1000 Ang^3
#
#
#
# Elastic Constant Matrix: (Units=GPa)
#
#
# Indices 1 2 3 4 5 6 
#
# 1 69.9205 17.6542 33.2142 0.4573 14.3231 -6.3551
# 2 17.6542 125.8110 11.6572 0.5607 5.6296 -10.6387
# 3 33.2142 11.6572 98.9105 16.6026 18.9531 3.9972
# 4 0.4573 0.5607 16.6026 33.8874 -1.9351 2.5470
# 5 14.3231 5.6296 18.9531 -1.9351 44.0682 -0.3989
# 6 -6.3551 -10.6387 3.9972 2.5470 -0.3989 37.2918
#
#
#
# Elastic Compliance Matrix: (Units=1/GPa)
#
#
# Indices 1 2 3 4 5 6 
#
# 1 0.018428 -0.001646 -0.005902 0.002258 -0.003113 0.003116
# 2 -0.001646 0.008420 -0.000451 -0.000078 -0.000330 0.002172
# 3 -0.005902 -0.000451 0.014269 -0.006992 -0.004488 -0.002234
# 4 0.002258 -0.000078 -0.006992 0.033203 0.003731 -0.001116
# 5 -0.003113 -0.000330 -0.004488 0.003731 0.025839 -0.000122
# 6 0.003116 0.002172 -0.002234 -0.001116 -0.000122 0.028280
#
#
# Mechanical properties :
#
#
# Convention : Reuss Voigt Hill
#
# Bulk Modulus (GPa) = 39.81217 46.63256 43.22237
# Shear Modulus (GPa) = 32.72011 38.52393 35.62202
#
# Velocity S-wave (km/s) = 3.91511 4.24817 4.08504
# Velocity P-wave (km/s) = 6.25203 6.77556 6.51905
#
# Compressibility (1/GPa) = 0.02511795
#
# Stress axis : x y z
#
# Youngs Moduli (GPa) = 54.26650 118.76516 70.08023
#
# Poissons Ratio (x) = 0.19551 0.41364
# Poissons Ratio (y) = 0.08933 0.03160
# Poissons Ratio (z) = 0.32030 0.05355
#
# Static dielectric constant tensor:
#      x y z
#    x 1.745390 0.014450 -0.012950 
#    y 0.014450 1.849400 -0.012090 
#    z -0.012950 -0.012090 1.759310 
# 
# From -- ./inp_files/279199.got.cif
#   From: 2010.05.17/outbox.cif.g08.bks.cpg/sg2_140_cif.got.tgz:279199.got - 2010.06.03 11:33:40.
