data_PCOD9056849
_publ_section_title
;
Structure prediction by ZEFSAII (Michael W. Deem and Ramdas Pophale) SiO2 
 PCOD9056849
Probable space group: P -1
;
_chemical_formula_sum "Si O2"
_cell_formula_units_Z 14
_cell_length_a 12.250714
_cell_length_b 8.821482
_cell_length_c 17.335191
_cell_angle_alpha 50.155877
_cell_angle_beta 148.845874
_cell_angle_gamma 140.331698
_cell_volume 617.751836
_symmetry_space_group_name_H-M "P -1"
_symmetry_group_IT_number 2
_symmetry_cell_setting 'triclinic'
loop_
_space_group_symop_operation_xyz
x,y,z
-x,-y,-z
loop_
_atom_site_type_symbol
_atom_site_label
_atom_site_fract_x
_atom_site_fract_y
_atom_site_fract_z
Si Si1 0.992577 0.731784 0.415812
Si Si2 0.198752 0.611819 0.012459
Si Si3 0.503740 0.180571 0.638287
Si Si4 0.062960 0.883631 0.010253
Si Si5 0.206488 0.317305 0.859806
Si Si6 0.717315 0.886646 0.310960
Si Si7 0.981108 0.581942 0.725616
O O1 0.861904 0.706296 0.263333
O O2 0.836268 0.765116 0.376750
O O3 0.000000 0.500000 0.500000
O O4 0.279848 0.963983 0.524264
O O5 0.467455 0.824333 0.133434
O O6 0.099812 0.658228 0.859303
O O7 0.000000 0.500000 0.000000
O O8 0.193007 0.376539 0.067948
O O9 0.703875 0.128282 0.814299
O O10 0.378046 0.207982 0.629690
O O11 0.681456 0.409930 0.617976
O O12 0.132522 0.056268 0.924565
O O13 0.000000 0.000000 0.000000
O O14 0.062217 0.419855 0.785052
O O15 0.500000 0.500000 0.000000
O O16 0.905435 0.172703 0.330885
#
# Coordination Sequence:
#
# PCOD9056849 Si02
#       7
#     2   2   2   2   2   2   2
#     4  12  29  46  72 106 142 195 240 300 367 430
#     4  11  22  40  72 108 142 183 236 298 359 419
#     4  11  25  49  71 104 151 189 240 297 362 426
#     4  11  22  44  73 104 143 186 233 298 355 413
#     4  12  25  44  74 107 142 187 242 295 356 432
#     4  12  25  45  73 100 145 191 243 295 362 431
#     4  11  24  44  70 106 143 188 238 300 357 428
#
# _framework density 22.662821999999998
#
# number of rings (size 3 to 8) (size 9 to 14) (size 15 to 20)
#    0.000    0.571    5.714    4.286    4.000    1.143 
#    0.000    1.429    0.000    0.000    0.000    0.000 
#    0.000    0.000    0.000    0.000    0.000    0.000 
#
# Total GULP energy -78264.835057 kJ/mol
# GULP energy per Si atom -5590.345361 kJ/mol
# Density = 2.261124 g / cm^3
# Si number density = 22.662822 Si / 1000 Ang^3
#
#
#
# Elastic Constant Matrix: (Units=GPa)
#
#
# Indices 1 2 3 4 5 6 
#
# 1 140.9215 47.5986 50.1546 3.5834 5.3291 2.5925
# 2 47.5986 108.8199 40.4238 19.0918 10.9828 16.6756
# 3 50.1546 40.4238 115.5482 21.4909 -5.9282 4.7784
# 4 3.5834 19.0918 21.4909 50.7809 -5.6801 -0.8953
# 5 5.3291 10.9828 -5.9282 -5.6801 45.6700 2.2968
# 6 2.5925 16.6756 4.7784 -0.8953 2.2968 35.2186
#
#
#
# Elastic Compliance Matrix: (Units=1/GPa)
#
#
# Indices 1 2 3 4 5 6 
#
# 1 0.009368 -0.003371 -0.003344 0.001986 -0.000542 0.001446
# 2 -0.003371 0.013539 -0.002410 -0.004316 -0.003424 -0.005722
# 3 -0.003344 -0.002410 0.011743 -0.003604 0.002067 -0.000433
# 4 0.001986 -0.004316 -0.003604 0.023093 0.003071 0.002773
# 5 -0.000542 -0.003424 0.002067 0.003071 0.023437 -0.000070
# 6 0.001446 -0.005722 -0.000433 0.002773 -0.000070 0.031131
#
#
# Mechanical properties :
#
#
# Convention : Reuss Voigt Hill
#
# Bulk Modulus (GPa) = 60.97139 71.29373 66.13256
# Shear Modulus (GPa) = 36.75746 41.47472 39.11609
#
# Velocity S-wave (km/s) = 4.03169 4.28258 4.15903
# Velocity P-wave (km/s) = 6.97386 7.48203 7.23241
#
# Compressibility (1/GPa) = 0.01640113
#
# Stress axis : x y z
#
# Youngs Moduli (GPa) = 106.74279 73.86225 85.15516
#
# Poissons Ratio (x) = 0.24898 0.28477
# Poissons Ratio (y) = 0.35981 0.20519
# Poissons Ratio (z) = 0.35697 0.17798
#
# Static dielectric constant tensor:
#      x y z
#    x 1.873850 0.044760 0.005270 
#    y 0.044760 1.868740 -0.085600 
#    z 0.005270 -0.085600 1.913250 
# 
# From -- ./inp_files/566607.got.cif
#   From: 2010.05.17/outbox.cif.g08.bks.cpg/sg2_284_cif.got.tgz:566607.got - 2010.06.03 11:33:40.
