data_PCOD9056730
_publ_section_title
;
Structure prediction by ZEFSAII (Michael W. Deem and Ramdas Pophale) SiO2 
 PCOD9056730
Probable space group: P -1
;
_chemical_formula_sum "Si O2"
_cell_formula_units_Z 12
_cell_length_a 19.788591
_cell_length_b 14.629843
_cell_length_c 10.680133
_cell_angle_alpha 26.335957
_cell_angle_beta 146.182301
_cell_angle_gamma 160.115814
_cell_volume 465.069733
_symmetry_space_group_name_H-M "P -1"
_symmetry_group_IT_number 2
_symmetry_cell_setting 'triclinic'
loop_
_space_group_symop_operation_xyz
x,y,z
-x,-y,-z
loop_
_atom_site_type_symbol
_atom_site_label
_atom_site_fract_x
_atom_site_fract_y
_atom_site_fract_z
Si Si1 0.529601 0.120777 0.089581
Si Si2 0.154110 0.671673 0.916974
Si Si3 0.791236 0.100929 0.640023
Si Si4 0.665564 0.077413 0.720005
Si Si5 0.046063 0.886149 0.348765
Si Si6 0.079398 0.199584 0.245345
O O1 0.647978 0.077268 0.377213
O O2 0.428225 0.108108 0.063638
O O3 0.684802 0.473751 0.822469
O O4 0.344999 0.817688 0.088596
O O5 0.199562 0.952086 0.584582
O O6 0.044476 0.391608 0.986012
O O7 0.000000 0.500000 0.000000
O O8 0.699715 0.950811 0.821765
O O9 0.848559 0.979659 0.790689
O O10 0.000000 0.500000 0.500000
O O11 0.847471 0.482609 0.523623
O O12 0.500000 0.000000 0.500000
O O13 0.999604 0.003359 0.232581
O O14 0.000000 0.000000 0.500000
#
# Coordination Sequence:
#
# PCOD9056730 Si02
#       6
#     2   2   2   2   2   2
#     4  11  22  40  67  98 132 172 221 264 329 398
#     4  12  23  43  66  93 136 177 210 270 337 384
#     4   9  20  40  68  90 125 177 215 262 326 381
#     4   9  19  40  68  91 124 178 219 262 321 384
#     4  11  22  42  66  96 132 171 217 273 325 383
#     4  12  25  40  63 103 133 169 219 271 322 399
#
# _framework density 25.802582999999998
#
# number of rings (size 3 to 8) (size 9 to 14) (size 15 to 20)
#    0.000    1.333    5.000    0.500    0.000    0.667 
#    0.000    8.333    0.000    0.000    0.000    0.000 
#    0.000    0.000    0.000    0.000    0.000    0.000 
#
# Total GULP energy -66931.404713 kJ/mol
# GULP energy per Si atom -5577.617059 kJ/mol
# Density = 2.574385 g / cm^3
# Si number density = 25.802583 Si / 1000 Ang^3
#
#
#
# Elastic Constant Matrix: (Units=GPa)
#
#
# Indices 1 2 3 4 5 6 
#
# 1 327.2465 46.4593 58.4966 -22.4963 -13.7175 -21.0199
# 2 46.4593 147.5015 30.1879 15.7151 7.8330 -10.0315
# 3 58.4966 30.1879 49.3588 -4.6827 -2.7767 -10.5900
# 4 -22.4963 15.7151 -4.6827 27.8992 3.8692 -3.8129
# 5 -13.7175 7.8330 -2.7767 3.8692 62.7999 -6.1672
# 6 -21.0199 -10.0315 -10.5900 -3.8129 -6.1672 45.1017
#
#
#
# Elastic Compliance Matrix: (Units=1/GPa)
#
#
# Indices 1 2 3 4 5 6 
#
# 1 0.004200 -0.000843 -0.003839 0.003281 0.000774 0.001252
# 2 -0.000843 0.008816 -0.005136 -0.006394 -0.001150 -0.000336
# 3 -0.003839 -0.005136 0.029502 0.005207 0.001238 0.004605
# 4 0.003281 -0.006394 0.005207 0.043706 -0.000461 0.004961
# 5 0.000774 -0.001150 0.001238 -0.000461 0.016577 0.002623
# 6 0.001252 -0.000336 0.004605 0.004961 0.002623 0.024540
#
#
# Mechanical properties :
#
#
# Convention : Reuss Voigt Hill
#
# Bulk Modulus (GPa) = 43.70152 88.26604 65.98378
# Shear Modulus (GPa) = 32.34065 53.09105 42.71585
#
# Velocity S-wave (km/s) = 3.54416 4.54098 4.07318
# Velocity P-wave (km/s) = 5.80704 7.85980 6.91008
#
# Compressibility (1/GPa) = 0.02288250
#
# Stress axis : x y z
#
# Youngs Moduli (GPa) = 238.09453 113.43474 33.89565
#
# Poissons Ratio (x) = 0.09560 0.13012
# Poissons Ratio (y) = 0.20065 0.17409
# Poissons Ratio (z) = 0.91400 0.58262
#
# Static dielectric constant tensor:
#      x y z
#    x 2.189450 0.000260 -0.007890 
#    y 0.000260 2.022330 0.021640 
#    z -0.007890 0.021640 2.071120 
# 
# From -- ./inp_files/471296.got.cif
#   From: 2010.05.17/outbox.cif.g08.bks.cpg/sg2_236_cif.got.tgz:471296.got - 2010.06.03 11:33:40.
