data_PCOD9056727
_publ_section_title
;
Structure prediction by ZEFSAII (Michael W. Deem and Ramdas Pophale) SiO2 
 PCOD9056727
Probable space group: P -1
;
_chemical_formula_sum "Si O2"
_cell_formula_units_Z 16
_cell_length_a 9.837794
_cell_length_b 19.398680
_cell_length_c 11.932872
_cell_angle_alpha 136.743938
_cell_angle_beta 128.060134
_cell_angle_gamma 28.841528
_cell_volume 751.189365
_symmetry_space_group_name_H-M "P -1"
_symmetry_group_IT_number 2
_symmetry_cell_setting 'triclinic'
loop_
_space_group_symop_operation_xyz
x,y,z
-x,-y,-z
loop_
_atom_site_type_symbol
_atom_site_label
_atom_site_fract_x
_atom_site_fract_y
_atom_site_fract_z
Si Si1 0.733617 0.032262 0.659152
Si Si2 0.153320 0.328080 0.836066
Si Si3 0.316367 0.057166 0.703368
Si Si4 0.239025 0.497405 0.352660
Si Si5 0.193518 0.974574 0.733247
Si Si6 0.165341 0.369184 0.330588
Si Si7 0.167682 0.739618 0.709736
Si Si8 0.854026 0.845759 0.883700
O O1 0.457324 0.202099 0.782385
O O2 0.940015 0.020220 0.695858
O O3 0.645654 0.002261 0.473738
O O4 0.917527 0.890322 0.679169
O O5 0.188721 0.227219 0.829322
O O6 0.947393 0.378361 0.696890
O O7 0.000000 0.500000 0.000000
O O8 0.140910 0.058805 0.690630
O O9 0.606994 0.934218 0.773935
O O10 0.113545 0.455620 0.294093
O O11 0.236108 0.589767 0.549071
O O12 0.552264 0.332324 0.272019
O O13 0.497467 0.779838 0.649934
O O14 0.235604 0.037696 0.927128
O O15 0.073927 0.295328 0.193777
O O16 0.000000 0.500000 0.500000
O O17 0.090248 0.787669 0.856832
#
# Coordination Sequence:
#
# PCOD9056727 Si02
#       8
#     2   2   2   2   2   2   2   2
#     4  12  24  47  71  99 136 186 230 272 339 414
#     4  12  28  41  68 102 140 174 219 290 351 392
#     4  11  23  47  69  96 135 182 227 273 338 418
#     4  11  24  42  65 108 136 171 228 284 336 404
#     4  11  27  44  69 102 133 183 230 281 330 408
#     4  11  22  40  67  97 134 174 225 271 332 403
#     4  11  22  42  73  99 136 178 230 279 332 411
#     4  11  24  43  71  99 134 180 230 277 333 405
#
# _framework density 21.299555999999999
#
# number of rings (size 3 to 8) (size 9 to 14) (size 15 to 20)
#    0.000    0.750    5.000    3.000    7.000    0.500 
#    0.000    0.625    0.000    0.000    0.000    0.000 
#    0.000    0.000    0.000    0.000    0.000    0.000 
#
# Total GULP energy -89467.362638 kJ/mol
# GULP energy per Si atom -5591.710165 kJ/mol
# Density = 2.125108 g / cm^3
# Si number density = 21.299556 Si / 1000 Ang^3
#
#
#
# Elastic Constant Matrix: (Units=GPa)
#
#
# Indices 1 2 3 4 5 6 
#
# 1 116.3474 21.9194 38.1252 15.4719 -15.8311 11.5601
# 2 21.9194 53.2407 19.9199 19.7367 -12.4451 -10.0461
# 3 38.1252 19.9199 75.3927 26.2858 -9.9333 -13.6686
# 4 15.4719 19.7367 26.2858 33.8160 -1.9097 -2.6730
# 5 -15.8311 -12.4451 -9.9333 -1.9097 31.7398 3.5726
# 6 11.5601 -10.0461 -13.6686 -2.6730 3.5726 38.0349
#
#
#
# Elastic Compliance Matrix: (Units=1/GPa)
#
#
# Indices 1 2 3 4 5 6 
#
# 1 0.012543 -0.003666 -0.006658 0.001195 0.003643 -0.007431
# 2 -0.003666 0.028658 0.002234 -0.015715 0.008306 0.007602
# 3 -0.006658 0.002234 0.023674 -0.015725 0.002922 0.009742
# 4 0.001195 -0.015715 -0.015725 0.049558 -0.006825 -0.006041
# 5 0.003643 0.008306 0.002922 -0.006825 0.037291 -0.001846
# 6 -0.007431 0.007602 0.009742 -0.006041 -0.001846 0.033808
#
#
# Mechanical properties :
#
#
# Convention : Reuss Voigt Hill
#
# Bulk Modulus (GPa) = 20.53640 44.98998 32.76319
# Shear Modulus (GPa) = 22.94174 31.71925 27.33049
#
# Velocity S-wave (km/s) = 3.28548 3.86320 3.58599
# Velocity P-wave (km/s) = 4.90460 6.40839 5.70625
#
# Compressibility (1/GPa) = 0.04869403
#
# Stress axis : x y z
#
# Youngs Moduli (GPa) = 79.72888 34.89430 42.24032
#
# Poissons Ratio (x) = 0.12794 0.28123
# Poissons Ratio (y) = 0.29232 -0.09436
# Poissons Ratio (z) = 0.53082 -0.07795
#
# Static dielectric constant tensor:
#      x y z
#    x 1.808890 -0.015450 0.005250 
#    y -0.015450 1.749860 -0.001490 
#    z 0.005250 -0.001490 1.791420 
# 
# From -- ./inp_files/403270.got.cif
#   From: 2010.05.17/outbox.cif.g08.bks.cpg/sg2_202_cif.got.tgz:403270.got - 2010.06.03 11:33:40.
