data_PCOD9056639
_publ_section_title
;
Structure prediction by ZEFSAII (Michael W. Deem and Ramdas Pophale) SiO2 
 PCOD9056639
Probable space group: P -1
;
_chemical_formula_sum "Si O2"
_cell_formula_units_Z 16
_cell_length_a 11.656170
_cell_length_b 9.689116
_cell_length_c 13.234920
_cell_angle_alpha 100.851179
_cell_angle_beta 33.268900
_cell_angle_gamma 91.487861
_cell_volume 780.965719
_symmetry_space_group_name_H-M "P -1"
_symmetry_group_IT_number 2
_symmetry_cell_setting 'triclinic'
loop_
_space_group_symop_operation_xyz
x,y,z
-x,-y,-z
loop_
_atom_site_type_symbol
_atom_site_label
_atom_site_fract_x
_atom_site_fract_y
_atom_site_fract_z
Si Si1 0.816660 0.340571 0.047447
Si Si2 0.656008 0.065940 0.821854
Si Si3 0.961435 0.985423 0.221791
Si Si4 0.923013 0.857668 0.435728
Si Si5 0.953913 0.430450 0.176438
Si Si6 0.610026 0.073787 0.341733
Si Si7 0.710923 0.858415 0.045284
Si Si8 0.638964 0.650746 0.558420
O O1 0.856435 0.389581 0.138051
O O2 0.562021 0.356805 0.223782
O O3 0.939616 0.174272 0.917178
O O4 0.927761 0.439961 0.911245
O O5 0.817458 0.935292 0.625449
O O6 0.818766 0.158283 0.757905
O O7 0.499907 0.152182 0.861535
O O8 0.500000 0.000000 0.000000
O O9 0.846587 0.958936 0.406573
O O10 0.826210 0.078985 0.244058
O O11 0.149917 0.062409 0.118261
O O12 0.823160 0.719669 0.479447
O O13 0.756099 0.496132 0.405354
O O14 0.136960 0.294182 0.058207
O O15 0.657720 0.966159 0.195970
O O16 0.500000 0.000000 0.500000
O O17 0.474077 0.230391 0.427196
#
# Coordination Sequence:
#
# PCOD9056639 Si02
#       8
#     2   2   2   2   2   2   2   2
#     4  11  22  40  64  91 138 182 201 256 329 402
#     4  11  23  43  67  97 126 168 224 282 322 365
#     4  12  20  40  66  99 130 170 214 264 321 399
#     4  11  23  40  68  97 126 165 222 269 322 383
#     4  11  25  41  60  97 139 170 213 260 326 392
#     4  12  21  34  63  97 129 166 213 258 319 391
#     4  12  23  42  66  96 129 170 220 274 320 378
#     4  12  23  41  61  94 132 179 212 254 331 394
#
# _framework density 20.487456000000002
#
# number of rings (size 3 to 8) (size 9 to 14) (size 15 to 20)
#    0.000    0.500    7.500    1.500    1.750    0.000 
#    2.250    0.625    0.000    1.500    0.000    0.000 
#    0.000    0.000    0.000    0.000    0.000    0.000 
#
# Total GULP energy -89334.605596 kJ/mol
# GULP energy per Si atom -5583.412850 kJ/mol
# Density = 2.044083 g / cm^3
# Si number density = 20.487456 Si / 1000 Ang^3
#
#
#
# Elastic Constant Matrix: (Units=GPa)
#
#
# Indices 1 2 3 4 5 6 
#
# 1 77.1577 2.3999 23.8396 0.6421 -24.7159 11.9381
# 2 2.3999 44.3291 9.9959 -1.2939 -15.4214 11.9021
# 3 23.8396 9.9959 96.7433 -12.4654 -7.6554 5.3232
# 4 0.6421 -1.2939 -12.4654 36.5410 0.2453 -7.6237
# 5 -24.7159 -15.4214 -7.6554 0.2453 41.6842 -6.9226
# 6 11.9381 11.9021 5.3232 -7.6237 -6.9226 20.8490
#
#
#
# Elastic Compliance Matrix: (Units=1/GPa)
#
#
# Indices 1 2 3 4 5 6 
#
# 1 0.019702 0.007019 -0.004560 -0.004201 0.011499 -0.011842
# 2 0.007019 0.032239 -0.003590 -0.004248 0.012303 -0.018975
# 3 -0.004560 -0.003590 0.012175 0.004704 -0.001355 0.002822
# 4 -0.004201 -0.004248 0.004704 0.032041 -0.000888 0.015051
# 5 0.011499 0.012303 -0.001355 -0.000888 0.034778 -0.002039
# 6 -0.011842 -0.018975 0.002822 0.015051 -0.002039 0.069682
#
#
# Mechanical properties :
#
#
# Convention : Reuss Voigt Hill
#
# Bulk Modulus (GPa) = 16.16751 32.30011 24.23381
# Shear Modulus (GPa) = 22.37174 31.94781 27.15977
#
# Velocity S-wave (km/s) = 3.30809 3.95319 3.64494
# Velocity P-wave (km/s) = 4.74339 6.05285 5.43768
#
# Compressibility (1/GPa) = 0.06185246
#
# Stress axis : x y z
#
# Youngs Moduli (GPa) = 50.75695 31.01853 82.13629
#
# Poissons Ratio (x) = -0.21771 0.37454
# Poissons Ratio (y) = -0.35625 0.29490
# Poissons Ratio (z) = 0.23145 0.11137
#
# Static dielectric constant tensor:
#      x y z
#    x 1.786560 0.016620 -0.049740 
#    y 0.016620 1.726180 -0.052440 
#    z -0.049740 -0.052440 1.805450 
# 
# From -- ./inp_files/455115.got.cif
#   From: 2010.05.17/outbox.cif.g08.bks.cpg/sg2_228_cif.got.tgz:455115.got - 2010.06.03 11:33:40.
