data_PCOD9056596
_publ_section_title
;
Structure prediction by ZEFSAII (Michael W. Deem and Ramdas Pophale) SiO2 
 PCOD9056596
Probable space group: P -1
;
_chemical_formula_sum "Si O2"
_cell_formula_units_Z 14
_cell_length_a 8.333803
_cell_length_b 12.678206
_cell_length_c 11.337188
_cell_angle_alpha 68.866003
_cell_angle_beta 36.548091
_cell_angle_gamma 63.157626
_cell_volume 636.458446
_symmetry_space_group_name_H-M "P -1"
_symmetry_group_IT_number 2
_symmetry_cell_setting 'triclinic'
loop_
_space_group_symop_operation_xyz
x,y,z
-x,-y,-z
loop_
_atom_site_type_symbol
_atom_site_label
_atom_site_fract_x
_atom_site_fract_y
_atom_site_fract_z
Si Si1 0.115381 0.612854 0.384558
Si Si2 0.249801 0.267314 0.234413
Si Si3 0.660205 0.989107 0.741495
Si Si4 0.117873 0.002842 0.634489
Si Si5 0.097850 0.165359 0.040967
Si Si6 0.078612 0.793655 0.140088
Si Si7 0.235400 0.395608 0.966227
O O1 0.062070 0.675997 0.263873
O O2 0.447262 0.591575 0.229645
O O3 0.000000 0.500000 0.500000
O O4 0.923340 0.700785 0.557490
O O5 0.201601 0.148781 0.259161
O O6 0.586789 0.225724 0.062295
O O7 0.168925 0.378431 0.149651
O O8 0.854138 0.048397 0.679857
O O9 0.645634 0.007616 0.601101
O O10 0.349811 0.044180 0.949627
O O11 0.073662 0.097979 0.726704
O O12 0.141891 0.875276 0.730910
O O13 0.207224 0.273033 0.977781
O O14 0.029717 0.189635 0.934780
O O15 0.000000 0.500000 0.000000
#
# Coordination Sequence:
#
# PCOD9056596 Si02
#       7
#     2   2   2   2   2   2   2
#     4  11  27  49  72  98 136 187 236 281 344 412
#     4  11  23  45  73  96 137 184 228 282 343 409
#     4  11  22  39  70  99 136 181 227 280 339 413
#     4  11  22  40  64 100 139 179 225 273 346 411
#     4  12  25  41  67 103 141 179 222 288 345 404
#     4  11  25  42  67 102 142 180 228 281 347 410
#     4  11  28  48  71 102 137 181 238 284 340 410
#
# _framework density 21.996722999999999
#
# number of rings (size 3 to 8) (size 9 to 14) (size 15 to 20)
#    0.000    0.857    4.286    2.571    6.000    3.429 
#    0.000    0.000    0.000    0.000    0.000    0.000 
#    0.000    0.000    0.000    0.000    0.000    0.000 
#
# Total GULP energy -78152.170053 kJ/mol
# GULP energy per Si atom -5582.297861 kJ/mol
# Density = 2.194666 g / cm^3
# Si number density = 21.996723 Si / 1000 Ang^3
#
#
#
# Elastic Constant Matrix: (Units=GPa)
#
#
# Indices 1 2 3 4 5 6 
#
# 1 95.8117 36.9231 25.9142 -17.7901 20.0325 -7.8664
# 2 36.9231 117.4191 33.7975 -25.2684 -0.4495 1.8675
# 3 25.9142 33.7975 100.2793 -19.4698 19.1228 -5.0497
# 4 -17.7901 -25.2684 -19.4698 34.1980 2.1100 -2.1789
# 5 20.0325 -0.4495 19.1228 2.1100 21.8798 -5.7639
# 6 -7.8664 1.8675 -5.0497 -2.1789 -5.7639 30.2531
#
#
#
# Elastic Compliance Matrix: (Units=1/GPa)
#
#
# Indices 1 2 3 4 5 6 
#
# 1 0.016863 -0.004283 0.002105 0.008031 -0.017553 0.002235
# 2 -0.004283 0.011742 -0.003328 0.004100 0.006446 -0.000870
# 3 0.002105 -0.003328 0.015247 0.008353 -0.015897 0.000870
# 4 0.008031 0.004100 0.008353 0.042493 -0.017909 0.002878
# 5 -0.017553 0.006446 -0.015897 -0.017909 0.079156 0.006175
# 6 0.002235 -0.000870 0.000870 0.002878 0.006175 0.035218
#
#
# Mechanical properties :
#
#
# Convention : Reuss Voigt Hill
#
# Bulk Modulus (GPa) = 30.45018 56.30886 43.37952
# Shear Modulus (GPa) = 22.45402 31.72453 27.08927
#
# Velocity S-wave (km/s) = 3.19845 3.80180 3.51310
# Velocity P-wave (km/s) = 5.24530 6.70268 6.01827
#
# Compressibility (1/GPa) = 0.03284052
#
# Stress axis : x y z
#
# Youngs Moduli (GPa) = 59.30121 85.16434 65.58710
#
# Poissons Ratio (x) = 0.36475 -0.13805
# Poissons Ratio (y) = 0.25398 0.21825
# Poissons Ratio (z) = -0.12482 0.28340
#
# Static dielectric constant tensor:
#      x y z
#    x 1.839160 0.041580 -0.007550 
#    y 0.041580 1.817550 -0.031210 
#    z -0.007550 -0.031210 1.834550 
# 
# From -- ./inp_files/389642.got.cif
#   From: 2010.05.17/outbox.cif.g08.bks.cpg/sg2_195_cif.got.tgz:389642.got - 2010.06.03 11:33:40.
