data_PCOD9056167
_publ_section_title
;
Structure prediction by ZEFSAII (Michael W. Deem and Ramdas Pophale) SiO2 
 PCOD9056167
Probable space group: P -1
;
_chemical_formula_sum "Si O2"
_cell_formula_units_Z 16
_cell_length_a 7.676132
_cell_length_b 6.981814
_cell_length_c 21.833437
_cell_angle_alpha 92.205609
_cell_angle_beta 140.060947
_cell_angle_gamma 100.223429
_cell_volume 710.480846
_symmetry_space_group_name_H-M "P -1"
_symmetry_group_IT_number 2
_symmetry_cell_setting 'triclinic'
loop_
_space_group_symop_operation_xyz
x,y,z
-x,-y,-z
loop_
_atom_site_type_symbol
_atom_site_label
_atom_site_fract_x
_atom_site_fract_y
_atom_site_fract_z
Si Si1 0.134108 0.049137 0.468892
Si Si2 0.976319 0.876718 0.758794
Si Si3 0.887535 0.373458 0.117295
Si Si4 0.282443 0.250906 0.920958
Si Si5 0.759615 0.171732 0.623331
Si Si6 0.606136 0.598960 0.180937
Si Si7 0.830654 0.825477 0.905255
Si Si8 0.372213 0.992778 0.753412
O O1 0.198486 0.882542 0.437492
O O2 0.880810 0.095968 0.364350
O O3 0.459005 0.204961 0.557860
O O4 0.000000 0.000000 0.500000
O O5 0.454196 0.733122 0.963211
O O6 0.230770 0.903961 0.779109
O O7 0.773671 0.977588 0.666638
O O8 0.918334 0.663783 0.775060
O O9 0.904267 0.604552 0.112395
O O10 0.431431 0.339878 0.897581
O O11 0.963854 0.266807 0.077738
O O12 0.403518 0.375506 0.134217
O O13 0.097207 0.030166 0.849074
O O14 0.049933 0.352099 0.719298
O O15 0.550857 0.765242 0.214064
O O16 0.644427 0.926440 0.814692
O O17 0.000000 0.000000 0.000000
#
# Coordination Sequence:
#
# PCOD9056167 Si02
#       8
#     2   2   2   2   2   2   2   2
#     4   9  17  34  66  99 124 160 208 258 315 384
#     4   9  18  36  58  81 115 156 199 250 305 370
#     4  11  22  33  55  85 112 157 211 253 301 366
#     4   9  20  37  55  80 113 159 206 253 305 363
#     4   8  18  37  61  94 126 164 202 258 324 366
#     4   9  20  42  59  81 129 163 206 258 311 375
#     4  12  25  38  58  89 125 169 209 260 314 365
#     4   9  21  39  62  90 123 163 202 254 321 372
#
# _framework density 22.519957999999999
#
# number of rings (size 3 to 8) (size 9 to 14) (size 15 to 20)
#    0.000    3.000    0.000    2.625    1.750    5.000 
#    6.750    0.625    0.000    7.500    0.000    0.875 
#    0.000    0.000    0.000    0.000    0.000    0.000 
#
# Total GULP energy -89115.528939 kJ/mol
# GULP energy per Si atom -5569.720559 kJ/mol
# Density = 2.246870 g / cm^3
# Si number density = 22.519958 Si / 1000 Ang^3
#
#
#
# Elastic Constant Matrix: (Units=GPa)
#
#
# Indices 1 2 3 4 5 6 
#
# 1 128.7860 47.5083 61.4606 -3.1278 9.2635 -9.8203
# 2 47.5083 91.6951 36.8251 -8.8196 14.2771 -7.4604
# 3 61.4606 36.8251 108.7141 -7.4365 17.4033 1.1350
# 4 -3.1278 -8.8196 -7.4365 14.6992 -5.1365 7.4656
# 5 9.2635 14.2771 17.4033 -5.1365 28.2805 -2.9869
# 6 -9.8203 -7.4604 1.1350 7.4656 -2.9869 38.0484
#
#
#
# Elastic Compliance Matrix: (Units=1/GPa)
#
#
# Indices 1 2 3 4 5 6 
#
# 1 0.012296 -0.004294 -0.006059 -0.004276 0.001458 0.003466
# 2 -0.004294 0.014994 -0.001617 0.005598 -0.004103 0.000460
# 3 -0.006059 -0.001617 0.014445 0.004994 -0.005575 -0.003729
# 4 -0.004276 0.005598 0.004994 0.084313 0.009127 -0.015982
# 5 0.001458 -0.004103 -0.005575 0.009127 0.042175 0.001258
# 6 0.003466 0.000460 -0.003729 -0.015982 0.001258 0.030613
#
#
# Mechanical properties :
#
#
# Convention : Reuss Voigt Hill
#
# Bulk Modulus (GPa) = 56.19296 68.97591 62.58443
# Shear Modulus (GPa) = 21.86215 28.43237 25.14726
#
# Velocity S-wave (km/s) = 3.11913 3.55708 3.34528
# Velocity P-wave (km/s) = 6.16268 6.89679 6.54004
#
# Compressibility (1/GPa) = 0.01779582
#
# Stress axis : x y z
#
# Youngs Moduli (GPa) = 81.32851 66.69233 69.23041
#
# Poissons Ratio (x) = 0.28635 0.41947
# Poissons Ratio (y) = 0.34919 0.11193
# Poissons Ratio (z) = 0.49277 0.10782
#
# Static dielectric constant tensor:
#      x y z
#    x 1.884250 0.028350 -0.000830 
#    y 0.028350 1.911550 -0.002020 
#    z -0.000830 -0.002020 1.903470 
# 
# From -- ./inp_files/586767.got.cif
#   From: 2010.05.17/outbox.cif.g08.bks.cpg/sg2_294_cif.got.tgz:586767.got - 2010.06.03 11:33:40.
