data_PCOD9056210
_publ_section_title
;
Structure prediction by ZEFSAII (Michael W. Deem and Ramdas Pophale) SiO2 
 PCOD9056210
Probable space group: P -1
;
_chemical_formula_sum "Si O2"
_cell_formula_units_Z 16
_cell_length_a 16.246024
_cell_length_b 8.091840
_cell_length_c 7.725268
_cell_angle_alpha 123.841423
_cell_angle_beta 128.246534
_cell_angle_gamma 72.379584
_cell_volume 661.077739
_symmetry_space_group_name_H-M "P -1"
_symmetry_group_IT_number 2
_symmetry_cell_setting 'triclinic'
loop_
_space_group_symop_operation_xyz
x,y,z
-x,-y,-z
loop_
_atom_site_type_symbol
_atom_site_label
_atom_site_fract_x
_atom_site_fract_y
_atom_site_fract_z
Si Si1 0.901477 0.869938 0.477891
Si Si2 0.305384 0.272017 0.031153
Si Si3 0.085917 0.678927 0.196770
Si Si4 0.926924 0.159795 0.092303
Si Si5 0.262254 0.055090 0.395035
Si Si6 0.317425 0.689940 0.489901
Si Si7 0.432633 0.169821 0.435441
Si Si8 0.515727 0.578016 0.871756
O O1 0.004239 0.762659 0.610390
O O2 0.942187 0.102354 0.645101
O O3 0.820601 0.857586 0.530351
O O4 0.817508 0.794541 0.182384
O O5 0.314890 0.485263 0.260733
O O6 0.371020 0.128893 0.153384
O O7 0.374662 0.305045 0.966001
O O8 0.202678 0.667296 0.417923
O O9 0.095965 0.693516 0.008634
O O10 0.000000 0.500000 0.000000
O O11 0.813419 0.051705 0.913547
O O12 0.000000 0.000000 0.000000
O O13 0.314973 0.883669 0.475836
O O14 0.343692 0.197405 0.480910
O O15 0.417637 0.697946 0.749637
O O16 0.504796 0.371484 0.628429
O O17 0.500000 0.000000 0.500000
O O18 0.500000 0.500000 0.000000
#
# Coordination Sequence:
#
# PCOD9056210 Si02
#       8
#     2   2   2   2   2   2   2   2
#     4   9  19  35  56  79 106 141 179 221 264 321
#     4  11  22  37  53  81 114 140 177 227 275 321
#     4   9  18  34  57  81 106 141 182 220 263 318
#     4   7  15  31  53  76 101 135 173 213 258 310
#     4   9  17  36  58  77 102 143 184 216 263 324
#     4   9  20  38  56  79 112 145 177 225 274 316
#     4  11  22  36  56  79 108 145 179 223 274 318
#     4  11  23  37  56  80 107 146 185 221 268 324
#
# _framework density 24.202901000000001
#
# number of rings (size 3 to 8) (size 9 to 14) (size 15 to 20)
#    0.000    3.000    0.000    3.750    0.000    9.000 
#    0.000   10.625    0.000    0.000    0.000    0.000 
#    0.000    0.000    0.000    0.000    0.000    0.000 
#
# Total GULP energy -89235.550418 kJ/mol
# GULP energy per Si atom -5577.221901 kJ/mol
# Density = 2.414781 g / cm^3
# Si number density = 24.202901 Si / 1000 Ang^3
#
#
#
# Elastic Constant Matrix: (Units=GPa)
#
#
# Indices 1 2 3 4 5 6 
#
# 1 37.4361 14.0167 -3.1064 1.9169 8.0506 15.2135
# 2 14.0167 59.3294 40.8402 -5.9212 17.4933 9.7047
# 3 -3.1064 40.8402 135.3821 -12.3112 23.0060 9.9197
# 4 1.9169 -5.9212 -12.3112 49.8902 5.3326 10.8123
# 5 8.0506 17.4933 23.0060 5.3326 35.5080 2.9643
# 6 15.2135 9.7047 9.9197 10.8123 2.9643 32.8022
#
#
#
# Elastic Compliance Matrix: (Units=1/GPa)
#
#
# Indices 1 2 3 4 5 6 
#
# 1 0.039192 -0.007810 0.006363 0.003997 -0.008228 -0.018364
# 2 -0.007810 0.025867 -0.006299 0.003124 -0.007151 -0.002509
# 3 0.006363 -0.006299 0.011068 0.003435 -0.005604 -0.005060
# 4 0.003997 0.003124 0.003435 0.024318 -0.007391 -0.011164
# 5 -0.008228 -0.007151 -0.005604 -0.007391 0.037736 0.006652
# 6 -0.018364 -0.002509 -0.005060 -0.011164 0.006652 0.044354
#
#
# Mechanical properties :
#
#
# Convention : Reuss Voigt Hill
#
# Bulk Modulus (GPa) = 16.49256 37.29426 26.89341
# Shear Modulus (GPa) = 22.91037 35.66656 29.28846
#
# Velocity S-wave (km/s) = 3.08002 3.84298 3.48245
# Velocity P-wave (km/s) = 4.41336 5.92737 5.22549
#
# Compressibility (1/GPa) = 0.06063342
#
# Stress axis : x y z
#
# Youngs Moduli (GPa) = 25.51532 38.65910 90.34930
#
# Poissons Ratio (x) = 0.30194 -0.57485
# Poissons Ratio (y) = 0.19928 0.56914
# Poissons Ratio (z) = -0.16234 0.24353
#
# Static dielectric constant tensor:
#      x y z
#    x 1.993800 -0.026480 -0.063510 
#    y -0.026480 1.953150 -0.009720 
#    z -0.063510 -0.009720 2.078080 
# 
# From -- ./inp_files/329351.got.cif
#   From: 2010.05.17/outbox.cif.g08.bks.cpg/sg2_165_cif.got.tgz:329351.got - 2010.06.03 11:33:40.
