data_PCOD9056244
_publ_section_title
;
Structure prediction by ZEFSAII (Michael W. Deem and Ramdas Pophale) SiO2 
 PCOD9056244
Probable space group: P -1
;
_chemical_formula_sum "Si O2"
_cell_formula_units_Z 16
_cell_length_a 5.173216
_cell_length_b 24.685595
_cell_length_c 9.373944
_cell_angle_alpha 67.246668
_cell_angle_beta 102.562674
_cell_angle_gamma 59.917707
_cell_volume 818.519788
_symmetry_space_group_name_H-M "P -1"
_symmetry_group_IT_number 2
_symmetry_cell_setting 'triclinic'
loop_
_space_group_symop_operation_xyz
x,y,z
-x,-y,-z
loop_
_atom_site_type_symbol
_atom_site_label
_atom_site_fract_x
_atom_site_fract_y
_atom_site_fract_z
Si Si1 0.244098 0.736193 0.680922
Si Si2 0.389004 0.993193 0.260632
Si Si3 0.339858 0.865635 0.075275
Si Si4 0.783217 0.352679 0.021850
Si Si5 0.126011 0.421045 0.031522
Si Si6 0.562861 0.779291 0.904723
Si Si7 0.407852 0.927977 0.606817
Si Si8 0.069308 0.138629 0.731234
O O1 0.050267 0.709140 0.761771
O O2 0.599359 0.652683 0.758540
O O3 0.351072 0.763336 0.798609
O O4 0.078462 0.797351 0.473896
O O5 0.477643 0.928697 0.448469
O O6 0.687640 0.945835 0.227196
O O7 0.404378 0.050165 0.297489
O O8 0.000893 0.047359 0.098093
O O9 0.667763 0.860719 0.141900
O O10 0.227465 0.848467 0.222859
O O11 0.425496 0.807256 0.019473
O O12 0.376167 0.396017 0.948566
O O13 0.830949 0.415459 0.976018
O O14 0.028892 0.296701 0.979257
O O15 0.000000 0.500000 0.000000
O O16 0.501546 0.851102 0.751740
O O17 0.000000 0.000000 0.500000
#
# Coordination Sequence:
#
# PCOD9056244 Si02
#       8
#     2   2   2   2   2   2   2   2
#     4   9  23  38  65  88 120 160 199 241 300 354
#     4  11  25  40  56  86 112 163 210 263 310 361
#     4  12  28  40  60  83 123 161 205 258 312 348
#     4   9  20  33  63  88 121 156 189 240 286 349
#     4   9  18  34  60 101 129 145 185 245 300 348
#     4  11  22  41  60  87 117 158 211 251 295 368
#     4  11  22  36  65  84 110 154 216 263 308 349
#     4  12  27  42  59  85 121 161 202 259 308 359
#
# _framework density 19.547481000000001
#
# number of rings (size 3 to 8) (size 9 to 14) (size 15 to 20)
#    0.750    0.750    1.250    3.375   12.250    0.000 
#    0.000    0.000    0.000    0.000    0.000   12.250 
#    0.000    0.000    0.000    0.000    0.000    0.000 
#
# Total GULP energy -89258.498858 kJ/mol
# GULP energy per Si atom -5578.656179 kJ/mol
# Density = 1.950299 g / cm^3
# Si number density = 19.547481 Si / 1000 Ang^3
#
#
#
# Elastic Constant Matrix: (Units=GPa)
#
#
# Indices 1 2 3 4 5 6 
#
# 1 73.6968 9.2095 -0.3645 5.3318 -14.2918 5.8070
# 2 9.2095 95.4811 24.0073 -0.7421 -17.6192 0.3617
# 3 -0.3645 24.0073 42.5749 7.8703 -4.8282 0.3588
# 4 5.3318 -0.7421 7.8703 16.1033 -4.7090 -5.3777
# 5 -14.2918 -17.6192 -4.8282 -4.7090 28.6600 1.9136
# 6 5.8070 0.3617 0.3588 -5.3777 1.9136 29.8553
#
#
#
# Elastic Compliance Matrix: (Units=1/GPa)
#
#
# Indices 1 2 3 4 5 6 
#
# 1 0.015880 -0.000903 0.002610 -0.006047 0.007120 -0.004655
# 2 -0.000903 0.014275 -0.008601 0.007865 0.008102 0.001003
# 3 0.002610 -0.008601 0.031651 -0.018489 -0.001423 -0.004023
# 4 -0.006047 0.007865 -0.018489 0.081878 0.011133 0.015338
# 5 0.007120 0.008102 -0.001423 0.011133 0.045170 -0.002356
# 6 -0.004655 0.001003 -0.004023 0.015338 -0.002356 0.037350
#
#
# Mechanical properties :
#
#
# Convention : Reuss Voigt Hill
#
# Bulk Modulus (GPa) = 20.82577 30.82860 25.82718
# Shear Modulus (GPa) = 19.53138 26.85044 23.19091
#
# Velocity S-wave (km/s) = 3.16440 3.71023 3.44814
# Velocity P-wave (km/s) = 4.90187 5.84464 5.39389
#
# Compressibility (1/GPa) = 0.04801744
#
# Stress axis : x y z
#
# Youngs Moduli (GPa) = 62.97213 70.05089 31.59492
#
# Poissons Ratio (x) = 0.06328 -0.08246
# Poissons Ratio (y) = 0.05689 0.27175
# Poissons Ratio (z) = -0.16436 0.60250
#
# Static dielectric constant tensor:
#      x y z
#    x 1.757780 -0.009500 0.001360 
#    y -0.009500 1.694730 0.016990 
#    z 0.001360 0.016990 1.695990 
# 
# From -- ./inp_files/122592.got.cif
#   From: 2010.05.17/outbox.cif.g08.bks.cpg/sg2_62_cif.got.tgz:122592.got - 2010.06.03 11:33:40.
