data_PCOD9056497
_publ_section_title
;
Structure prediction by ZEFSAII (Michael W. Deem and Ramdas Pophale) SiO2 
 PCOD9056497
Probable space group: P -1
;
_chemical_formula_sum "Si O2"
_cell_formula_units_Z 14
_cell_length_a 15.775477
_cell_length_b 4.954643
_cell_length_c 23.779913
_cell_angle_alpha 80.150055
_cell_angle_beta 161.546686
_cell_angle_gamma 95.314531
_cell_volume 565.018914
_symmetry_space_group_name_H-M "P -1"
_symmetry_group_IT_number 2
_symmetry_cell_setting 'triclinic'
loop_
_space_group_symop_operation_xyz
x,y,z
-x,-y,-z
loop_
_atom_site_type_symbol
_atom_site_label
_atom_site_fract_x
_atom_site_fract_y
_atom_site_fract_z
Si Si1 0.904212 0.033629 0.595887
Si Si2 0.021196 0.296642 0.836383
Si Si3 0.425334 0.517348 0.228550
Si Si4 0.580432 0.159456 0.492049
Si Si5 0.732727 0.539151 0.189404
Si Si6 0.388342 0.722483 0.075274
Si Si7 0.135711 0.657551 0.145747
O O1 0.684966 0.271825 0.416383
O O2 0.752619 0.970625 0.559079
O O3 0.142267 0.194097 0.756692
O O4 0.032816 0.747337 0.655272
O O5 0.780301 0.342859 0.638268
O O6 0.915208 0.183828 0.832450
O O7 0.137435 0.568459 0.912677
O O8 0.272102 0.052371 0.982664
O O9 0.479052 0.660739 0.199053
O O10 0.311796 0.731055 0.201379
O O11 0.162331 0.379715 0.058791
O O12 0.325247 0.360647 0.294786
O O13 0.500000 0.000000 0.500000
O O14 0.610663 0.598871 0.172823
O O15 0.500000 0.500000 0.000000
#
# Coordination Sequence:
#
# PCOD9056497 Si02
#       7
#     2   2   2   2   2   2   2
#     4  11  26  43  68  96 131 168 210 269 317 382
#     4  11  22  39  64  98 129 168 216 263 320 377
#     4   9  21  42  62  95 130 170 217 254 319 382
#     4  11  22  40  66  99 132 168 213 261 323 386
#     4  12  25  46  69  96 128 167 216 270 325 371
#     4  11  24  42  68  92 129 174 216 268 314 378
#     4   9  20  38  63  92 133 172 207 265 316 380
#
# _framework density 24.777932
#
# number of rings (size 3 to 8) (size 9 to 14) (size 15 to 20)
#    0.000    1.429    0.000    5.143    0.000    7.429 
#    0.000    1.429    0.000    0.000    0.000    0.000 
#    0.000    0.000    0.000    0.000    0.000    0.000 
#
# Total GULP energy -78450.028356 kJ/mol
# GULP energy per Si atom -5603.573454 kJ/mol
# Density = 2.472154 g / cm^3
# Si number density = 24.777932 Si / 1000 Ang^3
#
#
#
# Elastic Constant Matrix: (Units=GPa)
#
#
# Indices 1 2 3 4 5 6 
#
# 1 177.7981 17.6328 49.9980 -7.4703 29.6034 0.6224
# 2 17.6328 68.6019 10.8835 -9.9246 6.8633 -4.7468
# 3 49.9980 10.8835 95.7968 -13.6293 6.1753 -3.9942
# 4 -7.4703 -9.9246 -13.6293 17.4376 -8.2975 1.8735
# 5 29.6034 6.8633 6.1753 -8.2975 48.2181 -9.3736
# 6 0.6224 -4.7468 -3.9942 1.8735 -9.3736 37.8054
#
#
#
# Elastic Compliance Matrix: (Units=1/GPa)
#
#
# Indices 1 2 3 4 5 6 
#
# 1 0.007547 -0.001350 -0.003934 -0.002677 -0.004739 -0.001752
# 2 -0.001350 0.016254 0.000156 0.008771 0.000341 0.001729
# 3 -0.003934 0.000156 0.013840 0.010337 0.002732 0.001712
# 4 -0.002677 0.008771 0.010337 0.074944 0.012272 0.001566
# 5 -0.004739 0.000341 0.002732 0.012272 0.026606 0.006398
# 6 -0.001752 0.001729 0.001712 0.001566 0.006398 0.028387
#
#
# Mechanical properties :
#
#
# Convention : Reuss Voigt Hill
#
# Bulk Modulus (GPa) = 36.51661 55.46948 45.99305
# Shear Modulus (GPa) = 26.74352 38.27104 32.50728
#
# Velocity S-wave (km/s) = 3.28888 3.93435 3.62601
# Velocity P-wave (km/s) = 5.40295 6.56309 6.01107
#
# Compressibility (1/GPa) = 0.02738480
#
# Stress axis : x y z
#
# Youngs Moduli (GPa) = 132.49966 61.52508 72.25318
#
# Poissons Ratio (x) = 0.08307 0.28424
# Poissons Ratio (y) = 0.17889 -0.01127
# Poissons Ratio (z) = 0.52126 -0.00960
#
# Static dielectric constant tensor:
#      x y z
#    x 2.015610 -0.009650 0.004690 
#    y -0.009650 1.939820 0.033630 
#    z 0.004690 0.033630 1.951890 
# 
# From -- ./inp_files/611238.got.cif
#   From: 2010.05.17/outbox.cif.g08.bks.cpg/sg2_306_cif.got.tgz:611238.got - 2010.06.03 11:33:40.
