data_PCOD9056603
_publ_section_title
;
Structure prediction by ZEFSAII (Michael W. Deem and Ramdas Pophale) SiO2 
 PCOD9056603
Probable space group: P -1
;
_chemical_formula_sum "Si O2"
_cell_formula_units_Z 16
_cell_length_a 14.849765
_cell_length_b 11.143002
_cell_length_c 10.081401
_cell_angle_alpha 91.250961
_cell_angle_beta 85.394814
_cell_angle_gamma 28.959708
_cell_volume 790.326068
_symmetry_space_group_name_H-M "P -1"
_symmetry_group_IT_number 2
_symmetry_cell_setting 'triclinic'
loop_
_space_group_symop_operation_xyz
x,y,z
-x,-y,-z
loop_
_atom_site_type_symbol
_atom_site_label
_atom_site_fract_x
_atom_site_fract_y
_atom_site_fract_z
Si Si1 0.724707 0.572317 0.718744
Si Si2 0.342246 0.505107 0.017460
Si Si3 0.717613 0.397308 0.468149
Si Si4 0.160338 0.597045 0.786946
Si Si5 0.389131 0.096851 0.651664
Si Si6 0.260000 0.867226 0.104012
Si Si7 0.079805 0.297113 0.571394
Si Si8 0.697866 0.171534 0.592877
O O1 0.719569 0.501556 0.850607
O O2 0.713644 0.494802 0.592559
O O3 0.914346 0.428466 0.677376
O O4 0.545809 0.870650 0.732288
O O5 0.250837 0.744707 0.041227
O O6 0.279872 0.514350 0.890167
O O7 0.569321 0.260749 0.988105
O O8 0.842552 0.306073 0.333197
O O9 0.774314 0.200302 0.509955
O O10 0.505962 0.626565 0.439026
O O11 0.266249 0.354306 0.717977
O O12 0.944677 0.831336 0.865869
O O13 0.247525 0.153519 0.637784
O O14 0.500000 0.000000 0.500000
O O15 0.320736 0.781542 0.248531
O O16 0.000000 0.500000 0.500000
O O17 0.163513 0.100719 0.457135
#
# Coordination Sequence:
#
# PCOD9056603 Si02
#       8
#     2   2   2   2   2   2   2   2
#     4  12  25  44  70 100 141 176 225 293 333 403
#     4  11  27  47  66 102 141 182 226 276 348 404
#     4  11  22  41  70 104 135 174 227 294 347 388
#     4  12  25  45  73  97 136 184 229 281 339 414
#     4  12  24  45  69 100 138 176 227 284 340 403
#     4  11  24  44  71  98 144 180 222 279 344 417
#     4  12  24  40  69 104 136 180 225 279 349 404
#     4  11  22  39  72 104 135 175 231 287 343 408
#
# _framework density 20.244807000000002
#
# number of rings (size 3 to 8) (size 9 to 14) (size 15 to 20)
#    0.000    0.500    6.250    1.875    1.750    3.500 
#    0.000    1.250    0.000    0.000    0.000    0.000 
#    0.000    0.000    0.000    0.000    0.000    0.000 
#
# Total GULP energy -89568.642001 kJ/mol
# GULP energy per Si atom -5598.040125 kJ/mol
# Density = 2.019873 g / cm^3
# Si number density = 20.244807 Si / 1000 Ang^3
#
#
#
# Elastic Constant Matrix: (Units=GPa)
#
#
# Indices 1 2 3 4 5 6 
#
# 1 114.5474 27.5369 40.4592 12.7859 -0.7892 -9.6094
# 2 27.5369 65.4515 5.7302 26.8604 8.6591 1.2788
# 3 40.4592 5.7302 74.0784 11.3070 2.3853 1.7359
# 4 12.7859 26.8604 11.3070 32.2540 2.7450 1.1639
# 5 -0.7892 8.6591 2.3853 2.7450 35.5749 4.3965
# 6 -9.6094 1.2788 1.7359 1.1639 4.3965 32.4700
#
#
#
# Elastic Compliance Matrix: (Units=1/GPa)
#
#
# Indices 1 2 3 4 5 6 
#
# 1 0.012716 -0.005831 -0.006940 0.001972 0.001509 0.004089
# 2 -0.005831 0.026651 0.004527 -0.020978 -0.005107 -0.001574
# 3 -0.006940 0.004527 0.018145 -0.007146 -0.001583 -0.002732
# 4 0.001972 -0.020978 -0.007146 0.050054 0.001797 -0.000246
# 5 0.001509 -0.005107 -0.001583 0.001797 0.029769 -0.003363
# 6 0.004089 -0.001574 -0.002732 -0.000246 -0.003363 0.032680
#
#
# Mechanical properties :
#
#
# Convention : Reuss Voigt Hill
#
# Bulk Modulus (GPa) = 24.37599 44.61445 34.49522
# Shear Modulus (GPa) = 24.97776 32.08320 28.53048
#
# Velocity S-wave (km/s) = 3.51634 3.98523 3.75810
# Velocity P-wave (km/s) = 5.34350 6.57734 5.99226
#
# Compressibility (1/GPa) = 0.04102398
#
# Stress axis : x y z
#
# Youngs Moduli (GPa) = 78.63944 37.52191 55.11153
#
# Poissons Ratio (x) = 0.21880 0.38245
# Poissons Ratio (y) = 0.45857 -0.24947
# Poissons Ratio (z) = 0.54572 -0.16985
#
# Static dielectric constant tensor:
#      x y z
#    x 1.710310 -0.025210 -0.000120 
#    y -0.025210 1.742300 0.003310 
#    z -0.000120 0.003310 1.682770 
# 
# From -- ./inp_files/206735.got.cif
#   From: 2010.05.17/outbox.cif.g08.bks.cpg/sg2_104_cif.got.tgz:206735.got - 2010.06.03 11:33:40.
