data_PCOD9056534
_publ_section_title
;
Structure prediction by ZEFSAII (Michael W. Deem and Ramdas Pophale) SiO2 
 PCOD9056534
Probable space group: P -1
;
_chemical_formula_sum "Si O2"
_cell_formula_units_Z 16
_cell_length_a 12.122138
_cell_length_b 10.164159
_cell_length_c 11.793339
_cell_angle_alpha 114.553030
_cell_angle_beta 99.453011
_cell_angle_gamma 136.831246
_cell_volume 597.115519
_symmetry_space_group_name_H-M "P -1"
_symmetry_group_IT_number 2
_symmetry_cell_setting 'triclinic'
loop_
_space_group_symop_operation_xyz
x,y,z
-x,-y,-z
loop_
_atom_site_type_symbol
_atom_site_label
_atom_site_fract_x
_atom_site_fract_y
_atom_site_fract_z
Si Si1 0.100576 0.276991 0.538780
Si Si2 0.186680 0.591570 0.861776
Si Si3 0.161621 0.880283 0.901954
Si Si4 0.391568 0.868909 0.700489
Si Si5 0.357839 0.146773 0.785605
Si Si6 0.317675 0.500618 0.230542
Si Si7 0.316190 0.001233 0.349796
Si Si8 0.546199 0.637860 0.691220
O O1 0.159360 0.417384 0.719119
O O2 0.208667 0.525511 0.562161
O O3 0.257536 0.315660 0.552583
O O4 0.817395 0.943885 0.341907
O O5 0.120224 0.660883 0.806094
O O6 0.972013 0.333564 0.823946
O O7 0.443098 0.905535 0.080117
O O8 0.911009 0.670817 0.823170
O O9 0.299673 0.101044 0.892875
O O10 0.342682 0.106724 0.119720
O O11 0.274604 0.885866 0.656301
O O12 0.577988 0.022528 0.694430
O O13 0.622679 0.451070 0.876320
O O14 0.309721 0.333551 0.227186
O O15 0.564609 0.849081 0.453052
O O16 0.403372 0.244388 0.383223
#
# Coordination Sequence:
#
# PCOD9056534 Si02
#       8
#     2   2   2   2   2   2   2   2
#     4  11  22  42  68 100 136 178 223 284 346 406
#     4  12  22  41  70 105 135 174 227 288 354 408
#     4  12  25  46  74 102 140 180 228 291 347 407
#     4  11  22  39  67 101 141 172 221 285 354 406
#     4  12  26  42  71 107 140 181 224 288 351 410
#     4  12  28  48  67 102 142 188 234 278 336 410
#     4  11  24  42  70 100 135 184 228 286 342 407
#     4  11  26  49  69  96 139 191 234 278 334 410
#
# _framework density 26.795483999999998
#
# number of rings (size 3 to 8) (size 9 to 14) (size 15 to 20)
#    0.000    0.500    5.000    4.875    3.500    2.000 
#    2.250    0.000    0.000    0.000    0.000    0.000 
#    0.000    0.000    0.000    0.000    0.000    0.000 
#
# Total GULP energy -89585.199417 kJ/mol
# GULP energy per Si atom -5599.074964 kJ/mol
# Density = 2.673450 g / cm^3
# Si number density = 26.795484 Si / 1000 Ang^3
#
#
#
# Elastic Constant Matrix: (Units=GPa)
#
#
# Indices 1 2 3 4 5 6 
#
# 1 113.4043 39.1297 10.3946 18.1643 35.7701 17.2719
# 2 39.1297 141.6332 14.2350 -11.0935 21.8506 19.9074
# 3 10.3946 14.2350 59.0836 -2.0438 12.8130 8.2742
# 4 18.1643 -11.0935 -2.0438 32.1814 10.6964 10.0985
# 5 35.7701 21.8506 12.8130 10.6964 44.0319 6.5288
# 6 17.2719 19.9074 8.2742 10.0985 6.5288 47.3857
#
#
#
# Elastic Compliance Matrix: (Units=1/GPa)
#
#
# Indices 1 2 3 4 5 6 
#
# 1 0.013340 -0.002654 0.000063 -0.005294 -0.008026 -0.001524
# 2 -0.002654 0.009515 -0.000215 0.007248 -0.003666 -0.004032
# 3 0.000063 -0.000215 0.018854 0.004090 -0.005939 -0.003278
# 4 -0.005294 0.007248 0.004090 0.043018 -0.009500 -0.009688
# 5 -0.008026 -0.003666 -0.005939 -0.009500 0.034679 0.002749
# 6 -0.001524 -0.004032 -0.003278 -0.009688 0.002749 0.025611
#
#
# Mechanical properties :
#
#
# Convention : Reuss Voigt Hill
#
# Bulk Modulus (GPa) = 27.70232 49.07107 38.38670
# Shear Modulus (GPa) = 30.73862 41.41059 36.07461
#
# Velocity S-wave (km/s) = 3.39064 3.93546 3.67317
# Velocity P-wave (km/s) = 5.06848 6.24527 5.68740
#
# Compressibility (1/GPa) = 0.03609806
#
# Stress axis : x y z
#
# Youngs Moduli (GPa) = 74.96439 105.09206 53.03828
#
# Poissons Ratio (x) = 0.27891 -0.00337
# Poissons Ratio (y) = 0.19896 0.01141
# Poissons Ratio (z) = -0.00476 0.02261
#
# Static dielectric constant tensor:
#      x y z
#    x 2.084800 0.008620 -0.030140 
#    y 0.008620 2.160280 -0.006990 
#    z -0.030140 -0.006990 2.036700 
# 
# From -- ./inp_files/314604.got.cif
#   From: 2010.05.17/outbox.cif.g08.bks.cpg/sg2_158_cif.got.tgz:314604.got - 2010.06.03 11:33:40.
