data_PCOD9056722
_publ_section_title
;
Structure prediction by ZEFSAII (Michael W. Deem and Ramdas Pophale) SiO2 
 PCOD9056722
Probable space group: P -1
;
_chemical_formula_sum "Si O2"
_cell_formula_units_Z 16
_cell_length_a 17.606144
_cell_length_b 11.934510
_cell_length_c 8.655632
_cell_angle_alpha 116.197411
_cell_angle_beta 33.328012
_cell_angle_gamma 129.292717
_cell_volume 756.738061
_symmetry_space_group_name_H-M "P -1"
_symmetry_group_IT_number 2
_symmetry_cell_setting 'triclinic'
loop_
_space_group_symop_operation_xyz
x,y,z
-x,-y,-z
loop_
_atom_site_type_symbol
_atom_site_label
_atom_site_fract_x
_atom_site_fract_y
_atom_site_fract_z
Si Si1 0.216930 0.321895 0.536570
Si Si2 0.592864 0.288394 0.072504
Si Si3 0.093393 0.678280 0.951782
Si Si4 0.880360 0.256664 0.690094
Si Si5 0.543959 0.150249 0.601401
Si Si6 0.692552 0.922131 0.751616
Si Si7 0.487713 0.622408 0.420924
Si Si8 0.253434 0.425485 0.181909
O O1 0.238320 0.184635 0.430562
O O2 0.349135 0.460459 0.496905
O O3 0.245713 0.377944 0.343504
O O4 0.036166 0.282633 0.862202
O O5 0.434976 0.129437 0.204445
O O6 0.546138 0.356793 0.333877
O O7 0.750545 0.284956 0.848409
O O8 0.636717 0.398427 0.920603
O O9 0.264733 0.758981 0.620629
O O10 0.135910 0.731100 0.089904
O O11 0.000000 0.500000 0.000000
O O12 0.071380 0.369418 0.400216
O O13 0.831510 0.093479 0.625241
O O14 0.525912 0.257683 0.581585
O O15 0.500000 0.000000 0.500000
O O16 0.418654 0.108456 0.927587
O O17 0.660729 0.641549 0.103212
#
# Coordination Sequence:
#
# PCOD9056722 Si02
#       8
#     2   2   2   2   2   2   2   2
#     4  11  23  41  69  99 130 168 221 272 326 378
#     4  12  24  43  68  91 132 180 216 261 327 394
#     4  11  22  40  67  95 133 163 215 277 321 380
#     4  11  25  44  62  99 133 167 219 273 324 384
#     4  12  23  42  67  98 128 171 216 273 327 382
#     4  12  25  43  69  94 135 176 215 266 334 388
#     4  12  22  43  65  99 133 166 226 264 321 395
#     4  11  24  40  69  96 126 169 220 273 321 379
#
# _framework density 21.143377999999998
#
# number of rings (size 3 to 8) (size 9 to 14) (size 15 to 20)
#    0.000    0.500    6.250    2.250    1.750    3.000 
#    2.250    0.625    0.000    0.000    0.000    0.000 
#    0.000    0.000    0.000    0.000    0.000    0.000 
#
# Total GULP energy -89561.196484 kJ/mol
# GULP energy per Si atom -5597.574780 kJ/mol
# Density = 2.109525 g / cm^3
# Si number density = 21.143378 Si / 1000 Ang^3
#
#
#
# Elastic Constant Matrix: (Units=GPa)
#
#
# Indices 1 2 3 4 5 6 
#
# 1 58.1058 7.0660 2.3650 12.5937 -13.1748 9.7571
# 2 7.0660 102.4339 0.7049 20.6760 5.5656 24.9687
# 3 2.3650 0.7049 77.5507 15.3991 -17.7517 0.0189
# 4 12.5937 20.6760 15.3991 35.3519 -3.4740 -4.6555
# 5 -13.1748 5.5656 -17.7517 -3.4740 26.6533 -0.7333
# 6 9.7571 24.9687 0.0189 -4.6555 -0.7333 23.9136
#
#
#
# Elastic Compliance Matrix: (Units=1/GPa)
#
#
# Indices 1 2 3 4 5 6 
#
# 1 0.025723 0.005211 0.005147 -0.015675 0.012500 -0.018609
# 2 0.005211 0.019611 0.002629 -0.018208 -0.002863 -0.026237
# 3 0.005147 0.002629 0.017627 -0.010720 0.012157 -0.006573
# 4 -0.015675 -0.018208 -0.010720 0.053592 -0.003117 0.035754
# 5 0.012500 -0.002863 0.012157 -0.003117 0.051954 -0.001134
# 6 -0.018609 -0.026237 -0.006573 0.035754 -0.001134 0.083736
#
#
# Mechanical properties :
#
#
# Convention : Reuss Voigt Hill
#
# Bulk Modulus (GPa) = 11.24412 28.70692 19.97552
# Shear Modulus (GPa) = 19.53773 32.38071 25.95922
#
# Velocity S-wave (km/s) = 3.04313 3.91766 3.50776
# Velocity P-wave (km/s) = 4.20442 5.83702 5.08665
#
# Compressibility (1/GPa) = 0.08893540
#
# Stress axis : x y z
#
# Youngs Moduli (GPa) = 38.87540 50.99151 56.73108
#
# Poissons Ratio (x) = -0.26572 -0.29197
# Poissons Ratio (y) = -0.20258 -0.14917
# Poissons Ratio (z) = -0.20007 -0.13408
#
# Static dielectric constant tensor:
#      x y z
#    x 1.763800 -0.005360 -0.000350 
#    y -0.005360 1.727980 0.006510 
#    z -0.000350 0.006510 1.769110 
# 
# From -- ./inp_files/257128.got.cif
#   From: 2010.05.17/outbox.cif.g08.bks.cpg/sg2_129_cif.got.tgz:257128.got - 2010.06.03 11:33:40.
