data_PCOD9056883
_publ_section_title
;
Structure prediction by ZEFSAII (Michael W. Deem and Ramdas Pophale) SiO2 
 PCOD9056883
Probable space group: P -1
;
_chemical_formula_sum "Si O2"
_cell_formula_units_Z 14
_cell_length_a 6.956300
_cell_length_b 17.720551
_cell_length_c 5.027508
_cell_angle_alpha 83.947454
_cell_angle_beta 88.926150
_cell_angle_gamma 100.437220
_cell_volume 605.632635
_symmetry_space_group_name_H-M "P -1"
_symmetry_group_IT_number 2
_symmetry_cell_setting 'triclinic'
loop_
_space_group_symop_operation_xyz
x,y,z
-x,-y,-z
loop_
_atom_site_type_symbol
_atom_site_label
_atom_site_fract_x
_atom_site_fract_y
_atom_site_fract_z
Si Si1 0.158518 0.846536 0.301994
Si Si2 0.508858 0.192922 0.330974
Si Si3 0.916866 0.053165 0.241871
Si Si4 0.339091 0.054173 0.003424
Si Si5 0.550879 0.332187 0.960578
Si Si6 0.509146 0.586039 0.564020
Si Si7 0.213363 0.276025 0.637307
O O1 0.086871 0.898648 0.511794
O O2 0.365450 0.835515 0.424499
O O3 0.007320 0.765828 0.320374
O O4 0.145021 0.890808 0.009008
O O5 0.634011 0.265980 0.139226
O O6 0.333121 0.223436 0.476546
O O7 0.440478 0.130318 0.128070
O O8 0.328110 0.288494 0.911606
O O9 0.761983 0.971839 0.270965
O O10 0.131878 0.039427 0.171036
O O11 0.500000 0.000000 0.000000
O O12 0.611107 0.368643 0.657937
O O13 0.272007 0.362250 0.485080
O O14 0.556040 0.401598 0.141105
O O15 0.500000 0.500000 0.500000
#
# Coordination Sequence:
#
# PCOD9056883 Si02
#       7
#     2   2   2   2   2   2   2
#     4  12  25  41  64  87 125 161 210 260 310 367
#     4  11  22  41  62  89 123 167 212 257 308 371
#     4  11  27  43  59  92 119 161 213 269 308 371
#     4  11  23  45  64  88 123 168 212 265 321 354
#     4   9  20  36  61  91 124 161 198 251 297 370
#     4   9  18  35  66  98 120 159 202 244 303 368
#     4   9  22  38  61  90 124 163 199 256 301 373
#
# _framework density 23.116325
#
# number of rings (size 3 to 8) (size 9 to 14) (size 15 to 20)
#    0.857    0.857    2.857    1.286    4.000    4.000 
#    2.571    0.000    0.000    4.286    0.000    0.000 
#    0.000    0.000    0.000    0.000    0.000    0.000 
#
# Total GULP energy -77969.214765 kJ/mol
# GULP energy per Si atom -5569.229626 kJ/mol
# Density = 2.306371 g / cm^3
# Si number density = 23.116325 Si / 1000 Ang^3
#
#
#
# Elastic Constant Matrix: (Units=GPa)
#
#
# Indices 1 2 3 4 5 6 
#
# 1 81.9546 34.9244 8.9152 -0.1773 1.0524 3.8513
# 2 34.9244 155.3549 22.6517 27.6899 4.2151 11.1788
# 3 8.9152 22.6517 110.9227 12.4834 24.7452 0.6389
# 4 -0.1773 27.6899 12.4834 42.3836 -4.5563 4.4074
# 5 1.0524 4.2151 24.7452 -4.5563 23.7772 -1.2503
# 6 3.8513 11.1788 0.6389 4.4074 -1.2503 22.8883
#
#
#
# Elastic Compliance Matrix: (Units=1/GPa)
#
#
# Indices 1 2 3 4 5 6 
#
# 1 0.013820 -0.003432 -0.001097 0.002913 0.001639 -0.001090
# 2 -0.003432 0.008470 -0.000348 -0.005405 -0.002161 -0.002627
# 3 -0.001097 -0.000348 0.012955 -0.005156 -0.014349 0.000202
# 4 0.002913 -0.005405 -0.005156 0.030228 0.011836 -0.002881
# 5 0.001639 -0.002161 -0.014349 0.011836 0.059683 0.002161
# 6 -0.001090 -0.002627 0.000202 -0.002881 0.002161 0.045824
#
#
# Mechanical properties :
#
#
# Convention : Reuss Voigt Hill
#
# Bulk Modulus (GPa) = 39.23125 53.46832 46.34978
# Shear Modulus (GPa) = 26.42256 36.59254 31.50755
#
# Velocity S-wave (km/s) = 3.38453 3.98298 3.69589
# Velocity P-wave (km/s) = 5.68168 6.65826 6.18926
#
# Compressibility (1/GPa) = 0.02548989
#
# Stress axis : x y z
#
# Youngs Moduli (GPa) = 72.35755 118.06141 77.19086
#
# Poissons Ratio (x) = 0.40520 0.08469
# Poissons Ratio (y) = 0.24834 0.02690
# Poissons Ratio (z) = 0.07939 0.04114
#
# Static dielectric constant tensor:
#      x y z
#    x 1.911880 0.013980 -0.004950 
#    y 0.013980 1.921730 -0.055570 
#    z -0.004950 -0.055570 1.954680 
# 
# From -- ./inp_files/38624.got.cif
#   From: 2010.05.17/outbox.cif.g08.bks.cpg/sg2_20_cif.got.tgz:38624.got - 2010.06.03 11:33:40.
