data_PCOD9056840
_publ_section_title
;
Structure prediction by ZEFSAII (Michael W. Deem and Ramdas Pophale) SiO2 
 PCOD9056840
Probable space group: P -1
;
_chemical_formula_sum "Si O2"
_cell_formula_units_Z 16
_cell_length_a 11.498276
_cell_length_b 16.761515
_cell_length_c 11.479122
_cell_angle_alpha 119.024694
_cell_angle_beta 117.153147
_cell_angle_gamma 21.247603
_cell_volume 701.002627
_symmetry_space_group_name_H-M "P -1"
_symmetry_group_IT_number 2
_symmetry_cell_setting 'triclinic'
loop_
_space_group_symop_operation_xyz
x,y,z
-x,-y,-z
loop_
_atom_site_type_symbol
_atom_site_label
_atom_site_fract_x
_atom_site_fract_y
_atom_site_fract_z
Si Si1 0.735674 0.419769 0.489034
Si Si2 0.571737 0.967233 0.721049
Si Si3 0.449977 0.414303 0.991873
Si Si4 0.419346 0.895371 0.490849
Si Si5 0.747726 0.908209 0.114614
Si Si6 0.579650 0.723322 0.688628
Si Si7 0.252399 0.610881 0.800991
Si Si8 0.710966 0.665294 0.235338
O O1 0.500000 0.500000 0.500000
O O2 0.675659 0.556624 0.617468
O O3 0.679157 0.457626 0.350224
O O4 0.088552 0.152970 0.483294
O O5 0.324264 0.079509 0.777751
O O6 0.404546 0.160390 0.725660
O O7 0.651853 0.834615 0.574527
O O8 0.901814 0.794679 0.800650
O O9 0.470557 0.432471 0.878631
O O10 0.420231 0.324301 0.908714
O O11 0.716494 0.299399 0.104424
O O12 0.108848 0.663170 0.066369
O O13 0.420053 0.839833 0.571651
O O14 0.559133 0.743554 0.346848
O O15 0.652044 0.076255 0.185246
O O16 0.500000 0.000000 0.000000
O O17 0.906684 0.574091 0.745700
#
# Coordination Sequence:
#
# PCOD9056840 Si02
#       8
#     2   2   2   2   2   2   2   2
#     4  12  27  48  69 104 142 179 232 296 350 408
#     4  11  22  40  71  99 137 177 229 292 339 409
#     4  11  25  44  69  98 141 189 228 283 343 414
#     4  11  23  43  72 102 135 174 235 291 339 414
#     4  11  22  45  67 101 138 180 237 281 335 417
#     4  11  24  42  74 100 133 183 230 286 352 405
#     4  11  24  46  66  96 142 181 225 289 344 406
#     4  12  21  41  69 104 130 180 232 281 353 403
#
# _framework density 22.824449000000001
#
# number of rings (size 3 to 8) (size 9 to 14) (size 15 to 20)
#    0.000    0.750    5.000    3.000    3.500    1.500 
#    6.750    0.000    0.000    0.000    0.000    0.000 
#    0.000    0.000    0.000    0.000    0.000    0.000 
#
# Total GULP energy -89395.676082 kJ/mol
# GULP energy per Si atom -5587.229755 kJ/mol
# Density = 2.277250 g / cm^3
# Si number density = 22.824449 Si / 1000 Ang^3
#
#
#
# Elastic Constant Matrix: (Units=GPa)
#
#
# Indices 1 2 3 4 5 6 
#
# 1 82.3603 13.9684 25.8949 5.8534 19.4598 -13.5836
# 2 13.9684 47.5618 18.6657 6.4016 18.8915 -8.8373
# 3 25.8949 18.6657 91.4987 7.2338 36.6827 -11.5271
# 4 5.8534 6.4016 7.2338 30.5594 5.5445 1.9313
# 5 19.4598 18.8915 36.6827 5.5445 42.1175 -0.6881
# 6 -13.5836 -8.8373 -11.5271 1.9313 -0.6881 29.8367
#
#
#
# Elastic Compliance Matrix: (Units=1/GPa)
#
#
# Indices 1 2 3 4 5 6 
#
# 1 0.015012 -0.000378 -0.001000 -0.001956 -0.005535 0.006335
# 2 -0.000378 0.027838 0.000725 -0.004236 -0.012250 0.008345
# 3 -0.001000 0.000725 0.018196 -0.001896 -0.015355 0.006558
# 4 -0.001956 -0.004236 -0.001896 0.034796 -0.000209 -0.005135
# 5 -0.005535 -0.012250 -0.015355 -0.000209 0.045016 -0.011028
# 6 0.006335 0.008345 0.006558 -0.005135 -0.011028 0.041483
#
#
# Mechanical properties :
#
#
# Convention : Reuss Voigt Hill
#
# Bulk Modulus (GPa) = 16.73884 37.60875 27.17379
# Shear Modulus (GPa) = 24.56289 31.36219 27.96254
#
# Velocity S-wave (km/s) = 3.28406 3.71085 3.50396
# Velocity P-wave (km/s) = 4.66151 5.90540 5.31994
#
# Compressibility (1/GPa) = 0.05974131
#
# Stress axis : x y z
#
# Youngs Moduli (GPa) = 66.61443 35.92240 54.95694
#
# Poissons Ratio (x) = 0.01357 0.05494
# Poissons Ratio (y) = 0.02516 -0.03985
# Poissons Ratio (z) = 0.06659 -0.02605
#
# Static dielectric constant tensor:
#      x y z
#    x 1.878820 0.007980 -0.007480 
#    y 0.007980 1.860550 -0.009330 
#    z -0.007480 -0.009330 1.922110 
# 
# From -- ./inp_files/437354.got.cif
#   From: 2010.05.17/outbox.cif.g08.bks.cpg/sg2_219_cif.got.tgz:437354.got - 2010.06.03 11:33:40.
