data_PCOD9056243
_publ_section_title
;
Structure prediction by ZEFSAII (Michael W. Deem and Ramdas Pophale) SiO2 
 PCOD9056243
Probable space group: P -1
;
_chemical_formula_sum "Si O2"
_cell_formula_units_Z 14
_cell_length_a 7.653615
_cell_length_b 13.478989
_cell_length_c 14.257546
_cell_angle_alpha 137.110095
_cell_angle_beta 84.788119
_cell_angle_gamma 63.935618
_cell_volume 663.372542
_symmetry_space_group_name_H-M "P -1"
_symmetry_group_IT_number 2
_symmetry_cell_setting 'triclinic'
loop_
_space_group_symop_operation_xyz
x,y,z
-x,-y,-z
loop_
_atom_site_type_symbol
_atom_site_label
_atom_site_fract_x
_atom_site_fract_y
_atom_site_fract_z
Si Si1 0.533292 0.547671 0.288364
Si Si2 0.645558 0.794584 0.415930
Si Si3 0.221207 0.649171 0.534459
Si Si4 0.349265 0.073284 0.291062
Si Si5 0.258778 0.410868 0.145514
Si Si6 0.999322 0.829073 0.875426
Si Si7 0.402425 0.223275 0.205215
O O1 0.541424 0.694326 0.334503
O O2 0.379344 0.666882 0.477292
O O3 0.403902 0.479726 0.202558
O O4 0.833810 0.332138 0.157119
O O5 0.587589 0.877780 0.584116
O O6 0.963351 0.606520 0.256444
O O7 0.500000 0.000000 0.500000
O O8 0.407746 0.391805 0.346573
O O9 0.946276 0.804046 0.599429
O O10 0.129950 0.715942 0.691468
O O11 0.326990 0.192464 0.283978
O O12 0.551808 0.816399 0.079264
O O13 0.229104 0.350586 0.207579
O O14 0.689525 0.986510 0.998476
O O15 0.000000 0.000000 0.000000
#
# Coordination Sequence:
#
# PCOD9056243 Si02
#       7
#     2   2   2   2   2   2   2
#     4  11  24  45  68  99 140 180 223 282 336 404
#     4  12  29  50  71  95 129 184 245 290 331 387
#     4  11  22  37  61  98 143 179 215 259 340 416
#     4  12  23  42  71 101 140 179 223 275 345 406
#     4  11  24  47  68 103 139 177 220 280 345 411
#     4  12  21  35  60 106 145 173 214 259 334 426
#     4  11  22  36  65 102 140 179 208 267 338 419
#
# _framework density 21.104278000000001
#
# number of rings (size 3 to 8) (size 9 to 14) (size 15 to 20)
#    0.000    0.571    7.143    3.000    4.000    1.143 
#    2.571    0.714    0.000    0.000    0.000    0.000 
#    0.000    0.000    0.000    0.000    0.000    0.000 
#
# Total GULP energy -78114.566036 kJ/mol
# GULP energy per Si atom -5579.611860 kJ/mol
# Density = 2.105624 g / cm^3
# Si number density = 21.104278 Si / 1000 Ang^3
#
#
#
# Elastic Constant Matrix: (Units=GPa)
#
#
# Indices 1 2 3 4 5 6 
#
# 1 110.0363 41.1646 25.7856 23.8367 -6.5691 8.2572
# 2 41.1646 81.1080 25.2875 38.6374 -5.6376 13.6784
# 3 25.7856 25.2875 110.3098 19.6275 -6.2617 0.0085
# 4 23.8367 38.6374 19.6275 37.3634 -5.4707 7.0661
# 5 -6.5691 -5.6376 -6.2617 -5.4707 42.1258 7.7332
# 6 8.2572 13.6784 0.0085 7.0661 7.7332 23.9601
#
#
#
# Elastic Compliance Matrix: (Units=1/GPa)
#
#
# Indices 1 2 3 4 5 6 
#
# 1 0.011562 -0.004272 -0.001335 -0.001853 0.001037 -0.001333
# 2 -0.004272 0.027319 -0.001038 -0.023363 0.001200 -0.007621
# 3 -0.001335 -0.001038 0.010316 -0.003844 0.000305 0.002084
# 4 -0.001853 -0.023363 -0.003844 0.055372 0.003865 -0.003600
# 5 0.001037 0.001200 0.000305 0.003865 0.026584 -0.010762
# 6 -0.001333 -0.007621 0.002084 -0.003600 -0.010762 0.051081
#
#
# Mechanical properties :
#
#
# Convention : Reuss Voigt Hill
#
# Bulk Modulus (GPa) = 27.84937 53.99218 40.92078
# Shear Modulus (GPa) = 24.09709 34.63761 29.36735
#
# Velocity S-wave (km/s) = 3.38273 4.05564 3.73438
# Velocity P-wave (km/s) = 5.33685 6.89710 6.16652
#
# Compressibility (1/GPa) = 0.03590746
#
# Stress axis : x y z
#
# Youngs Moduli (GPa) = 86.48734 36.60422 96.93268
#
# Poissons Ratio (x) = 0.15638 0.12937
# Poissons Ratio (y) = 0.36950 0.10065
# Poissons Ratio (z) = 0.11543 0.03801
#
# Static dielectric constant tensor:
#      x y z
#    x 1.956100 0.004290 0.025500 
#    y 0.004290 1.678410 0.021420 
#    z 0.025500 0.021420 1.756250 
# 
# From -- ./inp_files/499396.got.cif
#   From: 2010.05.17/outbox.cif.g08.bks.cpg/sg2_250_cif.got.tgz:499396.got - 2010.06.03 11:33:40.
