data_PCOD9056266
_publ_section_title
;
Structure prediction by ZEFSAII (Michael W. Deem and Ramdas Pophale) SiO2 
 PCOD9056266
Probable space group: P -1
;
_chemical_formula_sum "Si O2"
_cell_formula_units_Z 14
_cell_length_a 9.784889
_cell_length_b 15.465896
_cell_length_c 10.381004
_cell_angle_alpha 138.083008
_cell_angle_beta 71.022715
_cell_angle_gamma 138.287504
_cell_volume 597.315845
_symmetry_space_group_name_H-M "P -1"
_symmetry_group_IT_number 2
_symmetry_cell_setting 'triclinic'
loop_
_space_group_symop_operation_xyz
x,y,z
-x,-y,-z
loop_
_atom_site_type_symbol
_atom_site_label
_atom_site_fract_x
_atom_site_fract_y
_atom_site_fract_z
Si Si1 0.578177 0.663159 0.757722
Si Si2 0.570199 0.469047 0.750225
Si Si3 0.442036 0.066167 0.699177
Si Si4 0.728125 0.520059 0.028435
Si Si5 0.953008 0.623776 0.315828
Si Si6 0.751690 0.243029 0.056000
Si Si7 0.396303 0.128158 0.223986
O O1 0.500000 0.500000 0.500000
O O2 0.695243 0.667846 0.843052
O O3 0.317750 0.529556 0.735553
O O4 0.705415 0.864654 0.859475
O O5 0.727173 0.531629 0.889106
O O6 0.473050 0.284012 0.484540
O O7 0.353733 0.397074 0.802282
O O8 0.534854 0.269814 0.844712
O O9 0.500000 0.000000 0.500000
O O10 0.568880 0.122090 0.856416
O O11 0.156268 0.857907 0.572368
O O12 0.956355 0.640419 0.178041
O O13 0.970998 0.491237 0.217825
O O14 0.632044 0.226199 0.199436
O O15 0.767944 0.104427 0.931955
#
# Coordination Sequence:
#
# PCOD9056266 Si02
#       7
#     2   2   2   2   2   2   2
#     4   8  15  30  57  80 108 147 177 222 279 327
#     4   9  16  32  57  82 113 149 182 228 283 331
#     4  11  22  37  58  83 114 150 191 239 283 332
#     4   9  19  34  56  83 113 148 187 233 282 337
#     4   9  19  36  57  84 115 147 186 233 283 337
#     4   9  19  34  56  83 113 148 187 233 282 337
#     4   9  16  32  57  82 113 149 182 228 283 331
#
# _framework density 23.438185000000001
#
# number of rings (size 3 to 8) (size 9 to 14) (size 15 to 20)
#    0.000    2.857    0.000    1.714    0.000    2.286 
#    0.000   12.857    0.000   72.000    0.000    0.000 
#    0.000    0.000    0.000    0.000    0.000    0.000 
#
# Total GULP energy -78097.395400 kJ/mol
# GULP energy per Si atom -5578.385386 kJ/mol
# Density = 2.338484 g / cm^3
# Si number density = 23.438185 Si / 1000 Ang^3
#
#
#
# Elastic Constant Matrix: (Units=GPa)
#
#
# Indices 1 2 3 4 5 6 
#
# 1 107.6636 72.1292 45.6331 11.7494 -23.1867 -43.2556
# 2 72.1292 97.4012 58.0637 -6.4976 6.0544 -34.2788
# 3 45.6331 58.0637 113.5146 -8.6505 -21.9580 -3.5495
# 4 11.7494 -6.4976 -8.6505 46.1586 10.5042 -11.4987
# 5 -23.1867 6.0544 -21.9580 10.5042 35.6940 -5.6356
# 6 -43.2556 -34.2788 -3.5495 -11.4987 -5.6356 57.7815
#
#
#
# Elastic Compliance Matrix: (Units=1/GPa)
#
#
# Indices 1 2 3 4 5 6 
#
# 1 0.102590 -0.095475 0.027147 -0.056117 0.119576 0.022322
# 2 -0.095475 0.113998 -0.039640 0.059579 -0.124309 -0.006548
# 3 0.027147 -0.039640 0.025518 -0.018222 0.045287 -0.000836
# 4 -0.056117 0.059579 -0.018222 0.057090 -0.075162 -0.003754
# 5 0.119576 -0.124309 0.045287 -0.075162 0.180096 0.021159
# 6 0.022322 -0.006548 -0.000836 -0.003754 0.021159 0.031398
#
#
# Mechanical properties :
#
#
# Convention : Reuss Voigt Hill
#
# Bulk Modulus (GPa) = 38.21341 74.47015 56.34178
# Shear Modulus (GPa) = 6.79949 37.44369 22.12159
#
# Velocity S-wave (km/s) = 1.70509 4.00127 3.07551
# Velocity P-wave (km/s) = 4.49619 7.29307 6.05824
#
# Compressibility (1/GPa) = 0.02616882
#
# Stress axis : x y z
#
# Youngs Moduli (GPa) = 9.74753 8.77211 39.18811
#
# Poissons Ratio (x) = 0.83752 -1.06384
# Poissons Ratio (y) = 0.93065 1.55342
# Poissons Ratio (z) = -0.26462 0.34773
#
# Static dielectric constant tensor:
#      x y z
#    x 1.984780 0.058360 -0.081170 
#    y 0.058360 2.027810 -0.091840 
#    z -0.081170 -0.091840 1.897750 
# 
# From -- ./inp_files/436965.got.cif
#   From: 2010.05.17/outbox.cif.g08.bks.cpg/sg2_219_cif.got.tgz:436965.got - 2010.06.03 11:33:40.
