data_PCOD9056302
_publ_section_title
;
Structure prediction by ZEFSAII (Michael W. Deem and Ramdas Pophale) SiO2 
 PCOD9056302
Probable space group: P -1
;
_chemical_formula_sum "Si O2"
_cell_formula_units_Z 16
_cell_length_a 10.252657
_cell_length_b 8.646577
_cell_length_c 13.554272
_cell_angle_alpha 55.921788
_cell_angle_beta 108.163772
_cell_angle_gamma 72.228014
_cell_volume 749.491912
_symmetry_space_group_name_H-M "P -1"
_symmetry_group_IT_number 2
_symmetry_cell_setting 'triclinic'
loop_
_space_group_symop_operation_xyz
x,y,z
-x,-y,-z
loop_
_atom_site_type_symbol
_atom_site_label
_atom_site_fract_x
_atom_site_fract_y
_atom_site_fract_z
Si Si1 0.466680 0.808495 0.062504
Si Si2 0.697916 0.367735 0.624048
Si Si3 0.272680 0.701388 0.657944
Si Si4 0.932901 0.795646 0.635949
Si Si5 0.973624 0.151560 0.167269
Si Si6 0.186928 0.784147 0.084816
Si Si7 0.837915 0.633819 0.487904
Si Si8 0.320621 0.867901 0.804166
O O1 0.605454 0.572552 0.240619
O O2 0.285653 0.889817 0.035719
O O3 0.457247 0.752241 0.965844
O O4 0.500000 0.000000 0.000000
O O5 0.500000 0.500000 0.500000
O O6 0.712283 0.388960 0.738161
O O7 0.764009 0.490801 0.535242
O O8 0.840631 0.087081 0.736544
O O9 0.362062 0.729439 0.762115
O O10 0.095601 0.752929 0.633493
O O11 0.214844 0.919534 0.496890
O O12 0.993703 0.717090 0.790229
O O13 0.880090 0.674126 0.594125
O O14 0.858140 0.082998 0.217354
O O15 0.855218 0.301867 0.991738
O O16 0.000000 0.000000 0.000000
O O17 0.000000 0.500000 0.500000
O O18 0.712390 0.891018 0.318558
#
# Coordination Sequence:
#
# PCOD9056302 Si02
#       8
#     2   2   2   2   2   2   2   2
#     4  11  23  33  63  93 122 158 212 265 298 360
#     4  11  24  37  62  90 125 169 206 262 315 363
#     4   9  19  34  56  93 129 153 199 259 322 364
#     4   9  20  35  63  92 124 166 204 260 317 374
#     4   9  18  40  62  82 122 169 208 246 318 384
#     4   9  22  42  57  85 128 172 205 245 323 379
#     4  11  22  37  64  94 122 154 218 264 303 373
#     4   9  19  37  57  89 123 160 196 258 319 365
#
# _framework density 21.347795000000001
#
# number of rings (size 3 to 8) (size 9 to 14) (size 15 to 20)
#    0.000    2.250    1.250    1.125    5.250    0.000 
#    0.000    1.250    0.000    3.000    0.000    0.000 
#    0.000    0.000    0.000    0.000    0.000    0.000 
#
# Total GULP energy -89199.771744 kJ/mol
# GULP energy per Si atom -5574.985734 kJ/mol
# Density = 2.129921 g / cm^3
# Si number density = 21.347795 Si / 1000 Ang^3
#
#
#
# Elastic Constant Matrix: (Units=GPa)
#
#
# Indices 1 2 3 4 5 6 
#
# 1 74.1009 13.7149 31.7011 3.7969 -0.1310 7.1380
# 2 13.7149 49.1663 38.3487 14.5707 5.6656 0.6971
# 3 31.7011 38.3487 105.7548 25.6427 8.4773 3.1452
# 4 3.7969 14.5707 25.6427 44.5340 -1.4787 -5.7921
# 5 -0.1310 5.6656 8.4773 -1.4787 24.1252 6.5909
# 6 7.1380 0.6971 3.1452 -5.7921 6.5909 13.3610
#
#
#
# Elastic Compliance Matrix: (Units=1/GPa)
#
#
# Indices 1 2 3 4 5 6 
#
# 1 0.016722 -0.001636 -0.004682 0.000687 0.004851 -0.009842
# 2 -0.001636 0.029471 -0.008831 -0.004337 -0.004583 0.001796
# 3 -0.004682 -0.008831 0.015895 -0.006209 -0.003432 -0.001779
# 4 0.000687 -0.004337 -0.006209 0.029164 0.001360 0.013293
# 5 0.004851 -0.004583 -0.003432 0.001360 0.050973 -0.026099
# 6 -0.009842 0.001796 -0.001779 0.013293 -0.026099 0.099065
#
#
# Mechanical properties :
#
#
# Convention : Reuss Voigt Hill
#
# Bulk Modulus (GPa) = 31.45524 44.06124 37.75824
# Shear Modulus (GPa) = 17.71885 26.08787 21.90336
#
# Velocity S-wave (km/s) = 2.88411 3.49956 3.20664
# Velocity P-wave (km/s) = 5.08502 6.08389 5.60675
#
# Compressibility (1/GPa) = 0.03179120
#
# Stress axis : x y z
#
# Youngs Moduli (GPa) = 59.80025 33.93133 62.91195
#
# Poissons Ratio (x) = 0.05550 0.29457
# Poissons Ratio (y) = 0.09781 0.55558
# Poissons Ratio (z) = 0.28000 0.29965
#
# Static dielectric constant tensor:
#      x y z
#    x 1.747540 -0.025410 0.006320 
#    y -0.025410 1.850460 0.030400 
#    z 0.006320 0.030400 1.824970 
# 
# From -- ./inp_files/243358.got.cif
#   From: 2010.05.17/outbox.cif.g08.bks.cpg/sg2_122_cif.got.tgz:243358.got - 2010.06.03 11:33:40.
