data_PCOD9056978
_publ_section_title
;
Structure prediction by ZEFSAII (Michael W. Deem and Ramdas Pophale) SiO2 
 PCOD9056978
Probable space group: P -1
;
_chemical_formula_sum "Si O2"
_cell_formula_units_Z 9
_cell_length_a 13.128302
_cell_length_b 5.461128
_cell_length_c 13.260508
_cell_angle_alpha 110.478352
_cell_angle_beta 150.425530
_cell_angle_gamma 60.079328
_cell_volume 398.779305
_symmetry_space_group_name_H-M "P -1"
_symmetry_group_IT_number 2
_symmetry_cell_setting 'triclinic'
loop_
_space_group_symop_operation_xyz
x,y,z
-x,-y,-z
loop_
_atom_site_type_symbol
_atom_site_label
_atom_site_fract_x
_atom_site_fract_y
_atom_site_fract_z
Si Si1 0.338146 0.680502 0.976162
Si Si2 0.699630 0.195029 0.655390
Si Si3 0.000000 0.500000 0.000000
Si Si4 0.408612 0.249739 0.599676
Si Si5 0.920490 0.643418 0.178770
O O1 0.191268 0.510366 0.864232
O O2 0.196593 0.011490 0.867743
O O3 0.500000 0.500000 0.000000
O O4 0.492460 0.701813 0.204975
O O5 0.500000 0.500000 0.500000
O O6 0.922063 0.243665 0.867074
O O7 0.616870 0.117839 0.679372
O O8 0.695930 0.983848 0.534381
O O9 0.104114 0.471961 0.970312
O O10 0.190728 0.530199 0.416465
#
# Coordination Sequence:
#
# PCOD9056978 Si02
#       5
#     2   2   1   2   2
#     4  12  29  51  73 105 151 200 252 302 360 442
#     4  11  22  41  67 111 152 187 233 306 372 453
#     4  12  22  42  74 112 148 180 240 302 380 430
#     4  11  26  43  72 107 149 193 244 301 375 431
#     4  12  27  45  76 111 145 194 248 304 373 439
#
# _framework density 22.568874000000001
#
# number of rings (size 3 to 8) (size 9 to 14) (size 15 to 20)
#    0.000    0.444    4.444    3.333    3.111    3.556 
#    0.000    0.000    0.000    0.000    0.000    0.000 
#    0.000    0.000    0.000    0.000    0.000    0.000 
#
# Total GULP energy -50100.461121 kJ/mol
# GULP energy per Si atom -5566.717902 kJ/mol
# Density = 2.251751 g / cm^3
# Si number density = 22.568874 Si / 1000 Ang^3
#
#
#
# Elastic Constant Matrix: (Units=GPa)
#
#
# Indices 1 2 3 4 5 6 
#
# 1 129.3444 34.2075 20.1956 16.9023 22.7943 2.4063
# 2 34.2075 137.2978 52.9419 -6.1493 7.8715 8.9715
# 3 20.1956 52.9419 98.4357 8.4025 7.4244 1.3319
# 4 16.9023 -6.1493 8.4025 50.3882 4.8205 7.4043
# 5 22.7943 7.8715 7.4244 4.8205 31.4675 13.0728
# 6 2.4063 8.9715 1.3319 7.4043 13.0728 45.0756
#
#
#
# Elastic Compliance Matrix: (Units=1/GPa)
#
#
# Indices 1 2 3 4 5 6 
#
# 1 0.010030 -0.002420 0.000040 -0.003356 -0.007233 0.002594
# 2 -0.002420 0.010182 -0.005297 0.003216 0.001030 -0.002568
# 3 0.000040 -0.005297 0.013389 -0.002947 -0.002144 0.001762
# 4 -0.003356 0.003216 -0.002947 0.022417 0.000651 -0.004245
# 5 -0.007233 0.001030 -0.002144 0.000651 0.042193 -0.012099
# 6 0.002594 -0.002568 0.001762 -0.004245 -0.012099 0.026712
#
#
# Mechanical properties :
#
#
# Convention : Reuss Voigt Hill
#
# Bulk Modulus (GPa) = 54.80057 64.41868 59.60963
# Shear Modulus (GPa) = 34.16291 42.56845 38.36568
#
# Velocity S-wave (km/s) = 3.89487 4.34770 4.12750
# Velocity P-wave (km/s) = 6.67540 7.33543 7.01318
#
# Compressibility (1/GPa) = 0.01824798
#
# Stress axis : x y z
#
# Youngs Moduli (GPa) = 99.70241 98.21616 74.68870
#
# Poissons Ratio (x) = 0.23765 -0.00302
# Poissons Ratio (y) = 0.24124 0.39563
# Poissons Ratio (z) = -0.00403 0.52025
#
# Static dielectric constant tensor:
#      x y z
#    x 1.951340 0.152070 -0.024720 
#    y 0.152070 2.158310 -0.183230 
#    z -0.024720 -0.183230 1.907370 
# 
# From -- ./inp_files/1824.got.cif
#   From: 2010.05.17/outbox.cif.g08.bks.cpg/sg2_1_cif.got.tgz:1824.got - 2010.06.03 11:33:40.
