data_PCOD9056434
_publ_section_title
;
Structure prediction by ZEFSAII (Michael W. Deem and Ramdas Pophale) SiO2 
 PCOD9056434
Probable space group: P -1
;
_chemical_formula_sum "Si O2"
_cell_formula_units_Z 16
_cell_length_a 12.227035
_cell_length_b 17.152900
_cell_length_c 14.220860
_cell_angle_alpha 35.183007
_cell_angle_beta 123.195453
_cell_angle_gamma 149.020037
_cell_volume 757.382645
_symmetry_space_group_name_H-M "P -1"
_symmetry_group_IT_number 2
_symmetry_cell_setting 'triclinic'
loop_
_space_group_symop_operation_xyz
x,y,z
-x,-y,-z
loop_
_atom_site_type_symbol
_atom_site_label
_atom_site_fract_x
_atom_site_fract_y
_atom_site_fract_z
Si Si1 0.081341 0.859133 0.983778
Si Si2 0.359661 0.294619 0.559460
Si Si3 0.864460 0.496171 0.880537
Si Si4 0.323083 0.134010 0.029500
Si Si5 0.183952 0.437352 0.585012
Si Si6 0.921586 0.034980 0.509080
Si Si7 0.368980 0.472530 0.810239
Si Si8 0.773249 0.305483 0.814920
O O1 0.062548 0.682218 0.139785
O O2 0.813838 0.693532 0.023763
O O3 0.223513 0.036020 0.971114
O O4 0.236952 0.051030 0.780443
O O5 0.500000 0.500000 0.500000
O O6 0.579930 0.448516 0.442560
O O7 0.139077 0.199664 0.521794
O O8 0.833817 0.429312 0.821443
O O9 0.044147 0.783554 0.688433
O O10 0.592369 0.298138 0.989445
O O11 0.000000 0.500000 0.000000
O O12 0.351666 0.311529 0.908164
O O13 0.098104 0.868209 0.246013
O O14 0.248278 0.491347 0.673599
O O15 0.204502 0.576944 0.381791
O O16 0.647268 0.756353 0.684692
O O17 0.000000 0.000000 0.500000
O O18 0.500000 0.000000 0.000000
#
# Coordination Sequence:
#
# PCOD9056434 Si02
#       8
#     2   2   2   2   2   2   2   2
#     4  11  24  41  69 101 139 180 230 287 337 409
#     4  12  22  40  67  97 133 180 228 280 340 397
#     4  12  28  46  70  99 145 183 222 290 352 407
#     4  11  22  44  68 108 137 174 233 291 342 404
#     4  11  22  38  71  96 136 177 226 283 341 398
#     4  12  25  43  70 102 135 178 236 277 342 415
#     4  11  24  42  69 106 140 174 232 292 347 394
#     4  12  25  45  67 100 136 182 236 270 341 424
#
# _framework density 21.125384
#
# number of rings (size 3 to 8) (size 9 to 14) (size 15 to 20)
#    0.000    0.500    5.000    4.500    3.500    3.500 
#    0.000    3.750    0.000    0.000    0.000    0.000 
#    0.000    0.000    0.000    0.000    0.000    0.000 
#
# Total GULP energy -89227.692252 kJ/mol
# GULP energy per Si atom -5576.730766 kJ/mol
# Density = 2.107730 g / cm^3
# Si number density = 21.125384 Si / 1000 Ang^3
#
#
#
# Elastic Constant Matrix: (Units=GPa)
#
#
# Indices 1 2 3 4 5 6 
#
# 1 119.2313 27.5580 51.0078 -16.3246 -2.3711 23.4000
# 2 27.5580 90.9336 38.8887 -15.2266 1.0157 21.4675
# 3 51.0078 38.8887 135.6337 -0.6857 2.6816 16.9638
# 4 -16.3246 -15.2266 -0.6857 40.4096 12.4291 -4.3655
# 5 -2.3711 1.0157 2.6816 12.4291 40.6263 -7.7742
# 6 23.4000 21.4675 16.9638 -4.3655 -7.7742 38.2533
#
#
#
# Elastic Compliance Matrix: (Units=1/GPa)
#
#
# Indices 1 2 3 4 5 6 
#
# 1 0.011559 0.000082 -0.003658 0.004523 -0.001480 -0.005279
# 2 0.000082 0.015109 -0.003389 0.005927 -0.003306 -0.007021
# 3 -0.003658 -0.003389 0.009772 -0.002623 -0.000068 -0.000507
# 4 0.004523 0.005927 -0.002623 0.031469 -0.009983 -0.003367
# 5 -0.001480 -0.003306 -0.000068 -0.009983 0.029118 0.007569
# 6 -0.005279 -0.007021 -0.000507 -0.003367 0.007569 0.034690
#
#
# Mechanical properties :
#
#
# Convention : Reuss Voigt Hill
#
# Bulk Modulus (GPa) = 44.42827 64.52306 54.47566
# Shear Modulus (GPa) = 32.64761 39.08080 35.86421
#
# Velocity S-wave (km/s) = 3.93545 4.30577 4.12477
# Velocity P-wave (km/s) = 6.45962 7.43833 6.96618
#
# Compressibility (1/GPa) = 0.02250819
#
# Stress axis : x y z
#
# Youngs Moduli (GPa) = 86.51259 66.18718 102.33660
#
# Poissons Ratio (x) = -0.00539 0.37435
# Poissons Ratio (y) = -0.00705 0.34683
# Poissons Ratio (z) = 0.31646 0.22431
#
# Static dielectric constant tensor:
#      x y z
#    x 1.681910 0.016780 0.082800 
#    y 0.016780 1.819120 0.018770 
#    z 0.082800 0.018770 1.699990 
# 
# From -- ./inp_files/523438.got.cif
#   From: 2010.05.17/outbox.cif.g08.bks.cpg/sg2_262_cif.got.tgz:523438.got - 2010.06.03 11:33:40.
