data_PCOD9056358
_publ_section_title
;
Structure prediction by ZEFSAII (Michael W. Deem and Ramdas Pophale) SiO2 
 PCOD9056358
Probable space group: P -1
;
_chemical_formula_sum "Si O2"
_cell_formula_units_Z 16
_cell_length_a 14.379798
_cell_length_b 14.390851
_cell_length_c 9.040411
_cell_angle_alpha 83.585876
_cell_angle_beta 102.947804
_cell_angle_gamma 31.556959
_cell_volume 768.049036
_symmetry_space_group_name_H-M "P -1"
_symmetry_group_IT_number 2
_symmetry_cell_setting 'triclinic'
loop_
_space_group_symop_operation_xyz
x,y,z
-x,-y,-z
loop_
_atom_site_type_symbol
_atom_site_label
_atom_site_fract_x
_atom_site_fract_y
_atom_site_fract_z
Si Si1 0.489292 0.303126 0.381223
Si Si2 0.631559 0.964759 0.471877
Si Si3 0.728693 0.803381 0.207906
Si Si4 0.918324 0.979822 0.781666
Si Si5 0.175089 0.938859 0.924969
Si Si6 0.875696 0.462391 0.285385
Si Si7 0.040912 0.692038 0.337429
Si Si8 0.374624 0.462223 0.986293
O O1 0.264874 0.517435 0.358616
O O2 0.458530 0.378462 0.198478
O O3 0.514829 0.168625 0.396857
O O4 0.709882 0.144867 0.571314
O O5 0.671004 0.895325 0.331574
O O6 0.880699 0.756252 0.665527
O O7 0.500000 0.000000 0.500000
O O8 0.824131 0.614232 0.283843
O O9 0.915495 0.709966 0.230411
O O10 0.500000 0.000000 0.000000
O O11 0.991102 0.023492 0.807577
O O12 0.141974 0.726030 0.855883
O O13 0.849419 0.014057 0.919232
O O14 0.422628 0.681092 0.018263
O O15 0.127994 0.071864 0.786006
O O16 0.894938 0.384737 0.456069
O O17 0.689759 0.582545 0.093243
#
# Coordination Sequence:
#
# PCOD9056358 Si02
#       8
#     2   2   2   2   2   2   2   2
#     4  12  24  43  69  99 139 174 228 285 332 408
#     4  11  22  38  62  94 131 173 222 274 330 391
#     4  11  23  40  63  95 134 179 226 269 337 406
#     4  11  26  49  68 102 136 178 229 280 345 399
#     4  11  25  47  72  98 137 179 224 284 340 406
#     4  11  22  42  65  94 136 177 222 273 335 401
#     4  11  23  43  68  98 135 182 226 276 346 400
#     4  12  24  46  70 103 134 178 228 279 341 400
#
# _framework density 20.832003
#
# number of rings (size 3 to 8) (size 9 to 14) (size 15 to 20)
#    0.000    0.750    2.500    7.125    0.000    3.000 
#    2.250    2.500    0.000    0.000    0.000    0.000 
#    0.000    0.000    0.000    0.000    0.000    0.000 
#
# Total GULP energy -89511.104176 kJ/mol
# GULP energy per Si atom -5594.444011 kJ/mol
# Density = 2.078459 g / cm^3
# Si number density = 20.832003 Si / 1000 Ang^3
#
#
#
# Elastic Constant Matrix: (Units=GPa)
#
#
# Indices 1 2 3 4 5 6 
#
# 1 64.4970 4.0660 35.2889 7.6113 11.7920 -6.1084
# 2 4.0660 83.7353 20.6899 -8.6646 8.6602 -16.8389
# 3 35.2889 20.6899 113.5296 -6.6785 21.3119 -3.6177
# 4 7.6113 -8.6646 -6.6785 21.8664 0.5318 6.3057
# 5 11.7920 8.6602 21.3119 0.5318 31.9066 -4.1206
# 6 -6.1084 -16.8389 -3.6177 6.3057 -4.1206 40.6405
#
#
#
# Elastic Compliance Matrix: (Units=1/GPa)
#
#
# Indices 1 2 3 4 5 6 
#
# 1 0.021243 0.000689 -0.006661 -0.010294 -0.002876 0.004191
# 2 0.000689 0.013968 -0.002010 0.003294 -0.002114 0.004987
# 3 -0.006661 -0.002010 0.012629 0.006172 -0.005823 -0.002258
# 4 -0.010294 0.003294 0.006172 0.055036 -0.003227 -0.008499
# 5 -0.002876 -0.002114 -0.005823 -0.003227 0.037238 0.002450
# 6 0.004191 0.004987 -0.002258 -0.008499 0.002450 0.028668
#
#
# Mechanical properties :
#
#
# Convention : Reuss Voigt Hill
#
# Bulk Modulus (GPa) = 31.37068 42.42795 36.89931
# Shear Modulus (GPa) = 25.59234 32.33048 28.96141
#
# Velocity S-wave (km/s) = 3.50881 3.94377 3.73263
# Velocity P-wave (km/s) = 5.61313 6.41472 6.02727
#
# Compressibility (1/GPa) = 0.03187690
#
# Stress axis : x y z
#
# Youngs Moduli (GPa) = 47.07399 71.59246 79.18140
#
# Poissons Ratio (x) = -0.04935 0.52741
# Poissons Ratio (y) = -0.03245 0.15918
# Poissons Ratio (z) = 0.31355 0.14392
#
# Static dielectric constant tensor:
#      x y z
#    x 1.761120 -0.003790 0.006130 
#    y -0.003790 1.754600 -0.019510 
#    z 0.006130 -0.019510 1.741300 
# 
# From -- ./inp_files/315117.got.cif
#   From: 2010.05.17/outbox.cif.g08.bks.cpg/sg2_158_cif.got.tgz:315117.got - 2010.06.03 11:33:40.
