data_PCOD9056626
_publ_section_title
;
Structure prediction by ZEFSAII (Michael W. Deem and Ramdas Pophale) SiO2 
 PCOD9056626
Probable space group: P -1
;
_chemical_formula_sum "Si O2"
_cell_formula_units_Z 16
_cell_length_a 15.014855
_cell_length_b 12.568561
_cell_length_c 18.057179
_cell_angle_alpha 45.801750
_cell_angle_beta 29.240470
_cell_angle_gamma 26.848419
_cell_volume 698.758581
_symmetry_space_group_name_H-M "P -1"
_symmetry_group_IT_number 2
_symmetry_cell_setting 'triclinic'
loop_
_space_group_symop_operation_xyz
x,y,z
-x,-y,-z
loop_
_atom_site_type_symbol
_atom_site_label
_atom_site_fract_x
_atom_site_fract_y
_atom_site_fract_z
Si Si1 0.352346 0.619171 0.629319
Si Si2 0.593075 0.809443 0.800122
Si Si3 0.175384 0.259499 0.569408
Si Si4 0.746705 0.233582 0.987420
Si Si5 0.238072 0.022023 0.499876
Si Si6 0.595921 0.236094 0.253935
Si Si7 0.602759 0.062737 0.950741
Si Si8 0.380200 0.656811 0.287830
O O1 0.500000 0.500000 0.500000
O O2 0.535865 0.391242 0.663789
O O3 0.403075 0.763578 0.534104
O O4 0.981351 0.824815 0.801479
O O5 0.592832 0.961361 0.678865
O O6 0.898507 0.509854 0.699886
O O7 0.302873 0.898760 0.942895
O O8 0.557356 0.851743 0.893944
O O9 0.105374 0.187721 0.590091
O O10 0.311591 0.318360 0.402256
O O11 0.500000 0.000000 0.500000
O O12 0.500000 0.500000 0.000000
O O13 0.682421 0.271338 0.101883
O O14 0.093670 0.057802 0.808044
O O15 0.974653 0.134472 0.580690
O O16 0.530150 0.400706 0.282415
O O17 0.507058 0.280067 0.874226
O O18 0.500000 0.000000 0.000000
#
# Coordination Sequence:
#
# PCOD9056626 Si02
#       8
#     2   2   2   2   2   2   2   2
#     4  11  28  52  78 106 140 198 249 304 372 440
#     4  12  24  46  71 106 152 191 240 307 365 429
#     4  12  24  42  72 110 148 193 246 293 355 447
#     4  11  23  40  63  96 147 187 231 286 359 423
#     4  11  25  45  76 109 149 191 247 302 369 431
#     4  11  22  40  63 100 137 189 231 283 355 428
#     4  11  29  49  75 110 145 190 245 310 375 429
#     4  11  24  48  72 100 147 184 244 297 365 440
#
# _framework density 22.897751
#
# number of rings (size 3 to 8) (size 9 to 14) (size 15 to 20)
#    0.000    0.750    2.500    4.125    3.500    5.500 
#    4.500    0.000    0.000    0.000    0.000    0.000 
#    0.000    0.000    0.000    0.000    0.000    0.000 
#
# Total GULP energy -89380.834875 kJ/mol
# GULP energy per Si atom -5586.302180 kJ/mol
# Density = 2.284563 g / cm^3
# Si number density = 22.897751 Si / 1000 Ang^3
#
#
#
# Elastic Constant Matrix: (Units=GPa)
#
#
# Indices 1 2 3 4 5 6 
#
# 1 112.3439 30.1161 43.7770 -12.7671 23.2850 -4.4851
# 2 30.1161 89.4998 27.0797 -11.8849 5.9937 -9.0197
# 3 43.7770 27.0797 115.6230 -11.5338 5.8175 4.4472
# 4 -12.7671 -11.8849 -11.5338 37.2352 -0.6574 1.1161
# 5 23.2850 5.9937 5.8175 -0.6574 50.9789 -6.6472
# 6 -4.4851 -9.0197 4.4472 1.1161 -6.6472 50.4022
#
#
#
# Elastic Compliance Matrix: (Units=1/GPa)
#
#
# Indices 1 2 3 4 5 6 
#
# 1 0.012207 -0.002367 -0.003615 0.002216 -0.004817 0.000297
# 2 -0.002367 0.013159 -0.002009 0.002700 0.000094 0.002274
# 3 -0.003615 -0.002009 0.010673 0.001481 0.000481 -0.001592
# 4 0.002216 0.002700 0.001481 0.028924 -0.001157 -0.000244
# 5 -0.004817 0.000094 0.000481 -0.001157 0.022059 0.002481
# 6 0.000297 0.002274 -0.001592 -0.000244 0.002481 0.020747
#
#
# Mechanical properties :
#
#
# Convention : Reuss Voigt Hill
#
# Bulk Modulus (GPa) = 49.85842 57.71245 53.78543
# Shear Modulus (GPa) = 38.33335 42.15619 40.24477
#
# Velocity S-wave (km/s) = 4.09603 4.29542 4.19691
# Velocity P-wave (km/s) = 6.64767 7.06116 6.85753
#
# Compressibility (1/GPa) = 0.02005679
#
# Stress axis : x y z
#
# Youngs Moduli (GPa) = 81.92252 75.99515 93.69524
#
# Poissons Ratio (x) = 0.17986 0.33874
# Poissons Ratio (y) = 0.19389 0.18820
# Poissons Ratio (z) = 0.29618 0.15265
#
# Static dielectric constant tensor:
#      x y z
#    x 1.899790 -0.057160 0.018240 
#    y -0.057160 1.943030 -0.025420 
#    z 0.018240 -0.025420 1.899740 
# 
# From -- ./inp_files/573586.got.cif
#   From: 2010.05.17/outbox.cif.g08.bks.cpg/sg2_287_cif.got.tgz:573586.got - 2010.06.03 11:33:40.
