data_PCOD9056575
_publ_section_title
;
Structure prediction by ZEFSAII (Michael W. Deem and Ramdas Pophale) SiO2 
 PCOD9056575
Probable space group: P -1
;
_chemical_formula_sum "Si O2"
_cell_formula_units_Z 16
_cell_length_a 15.436658
_cell_length_b 8.935190
_cell_length_c 11.070085
_cell_angle_alpha 73.732448
_cell_angle_beta 131.548425
_cell_angle_gamma 68.396442
_cell_volume 698.471417
_symmetry_space_group_name_H-M "P -1"
_symmetry_group_IT_number 2
_symmetry_cell_setting 'triclinic'
loop_
_space_group_symop_operation_xyz
x,y,z
-x,-y,-z
loop_
_atom_site_type_symbol
_atom_site_label
_atom_site_fract_x
_atom_site_fract_y
_atom_site_fract_z
Si Si1 0.635180 0.063571 0.387341
Si Si2 0.694774 0.371143 0.386662
Si Si3 0.347199 0.890438 0.992240
Si Si4 0.791464 0.257048 0.234641
Si Si5 0.239435 0.397073 0.947019
Si Si6 0.155460 0.255313 0.121773
Si Si7 0.021540 0.198040 0.807174
Si Si8 0.139426 0.311775 0.534180
O O1 0.632919 0.254405 0.350104
O O2 0.447727 0.176267 0.147195
O O3 0.685492 0.952767 0.592384
O O4 0.787386 0.847875 0.483227
O O5 0.715479 0.398360 0.259133
O O6 0.894511 0.181601 0.672434
O O7 0.556064 0.632024 0.268163
O O8 0.306015 0.799693 0.876424
O O9 0.208541 0.004578 0.947653
O O10 0.281181 0.115860 0.813558
O O11 0.776624 0.402574 0.085203
O O12 0.000000 0.000000 0.500000
O O13 0.216091 0.306832 0.058286
O O14 0.064193 0.546905 0.665762
O O15 0.072822 0.190812 0.991957
O O16 0.000000 0.500000 0.000000
O O17 0.900125 0.467795 0.581074
#
# Coordination Sequence:
#
# PCOD9056575 Si02
#       8
#     2   2   2   2   2   2   2   2
#     4  12  23  43  73 100 128 178 234 275 325 404
#     4  12  25  41  69 108 139 175 219 274 342 404
#     4  12  23  40  67 103 144 171 221 269 344 404
#     4  12  20  39  70 103 139 180 211 270 336 411
#     4  11  22  39  69 103 126 171 232 271 325 393
#     4  11  25  49  70  91 130 185 234 278 330 394
#     4  11  26  43  64  99 139 177 221 284 336 389
#     4  11  23  42  68 100 139 178 218 274 335 404
#
# _framework density 22.907164000000002
#
# number of rings (size 3 to 8) (size 9 to 14) (size 15 to 20)
#    0.000    0.500    7.500    1.875    0.000    4.000 
#    2.250    0.625    0.000    0.000    0.000    0.000 
#    0.000    0.000    0.000    0.000    0.000    0.000 
#
# Total GULP energy -89415.791382 kJ/mol
# GULP energy per Si atom -5588.486961 kJ/mol
# Density = 2.285503 g / cm^3
# Si number density = 22.907164 Si / 1000 Ang^3
#
#
#
# Elastic Constant Matrix: (Units=GPa)
#
#
# Indices 1 2 3 4 5 6 
#
# 1 70.6106 21.5202 36.9465 -4.1724 11.3793 9.0937
# 2 21.5202 88.1930 26.6507 -7.2146 13.0019 -15.5583
# 3 36.9465 26.6507 91.4142 -4.7770 13.4359 -8.5689
# 4 -4.1724 -7.2146 -4.7770 46.2320 1.1421 3.4665
# 5 11.3793 13.0019 13.4359 1.1421 42.0305 -4.0168
# 6 9.0937 -15.5583 -8.5689 3.4665 -4.0168 33.3865
#
#
#
# Elastic Compliance Matrix: (Units=1/GPa)
#
#
# Indices 1 2 3 4 5 6 
#
# 1 0.021448 -0.004100 -0.007924 0.001323 -0.003025 -0.010288
# 2 -0.004100 0.014476 -0.001504 0.001258 -0.002245 0.007076
# 3 -0.007924 -0.001504 0.015344 0.000294 -0.001811 0.005147
# 4 0.001323 0.001258 0.000294 0.022182 -0.001655 -0.002201
# 5 -0.003025 -0.002245 -0.001811 -0.001655 0.026181 0.002635
# 6 -0.010288 0.007076 0.005147 -0.002201 0.002635 0.037918
#
#
# Mechanical properties :
#
#
# Convention : Reuss Voigt Hill
#
# Bulk Modulus (GPa) = 41.30118 46.71697 44.00908
# Shear Modulus (GPa) = 28.95572 35.33650 32.14611
#
# Velocity S-wave (km/s) = 3.55920 3.93185 3.75016
# Velocity P-wave (km/s) = 5.91266 6.40710 6.16484
#
# Compressibility (1/GPa) = 0.02421238
#
# Stress axis : x y z
#
# Youngs Moduli (GPa) = 46.62335 69.08018 65.17043
#
# Poissons Ratio (x) = 0.28322 0.51642
# Poissons Ratio (y) = 0.19115 0.09803
# Poissons Ratio (z) = 0.36945 0.10391
#
# Static dielectric constant tensor:
#      x y z
#    x 1.858010 0.025180 0.037760 
#    y 0.025180 1.872030 -0.023230 
#    z 0.037760 -0.023230 1.957600 
# 
# From -- ./inp_files/447211.got.cif
#   From: 2010.05.17/outbox.cif.g08.bks.cpg/sg2_224_cif.got.tgz:447211.got - 2010.06.03 11:33:40.
