data_PCOD9056059
_publ_section_title
;
Structure prediction by ZEFSAII (Michael W. Deem and Ramdas Pophale) SiO2 
 PCOD9056059
Probable space group: P -1
;
_chemical_formula_sum "Si O2"
_cell_formula_units_Z 16
_cell_length_a 16.962729
_cell_length_b 8.483326
_cell_length_c 8.304601
_cell_angle_alpha 92.514244
_cell_angle_beta 34.980243
_cell_angle_gamma 87.882007
_cell_volume 678.879818
_symmetry_space_group_name_H-M "P -1"
_symmetry_group_IT_number 2
_symmetry_cell_setting 'triclinic'
loop_
_space_group_symop_operation_xyz
x,y,z
-x,-y,-z
loop_
_atom_site_type_symbol
_atom_site_label
_atom_site_fract_x
_atom_site_fract_y
_atom_site_fract_z
Si Si1 0.383935 0.197492 0.470130
Si Si2 0.628490 0.732582 0.147221
Si Si3 0.419520 0.542791 0.305513
Si Si4 0.131573 0.900948 0.180951
Si Si5 0.093249 0.108769 0.946574
Si Si6 0.662963 0.020601 0.901211
Si Si7 0.809953 0.276227 0.501163
Si Si8 0.147281 0.558680 0.233604
O O1 0.400624 0.170525 0.633628
O O2 0.410228 0.376834 0.399811
O O3 0.231610 0.173717 0.660168
O O4 0.500742 0.082958 0.174113
O O5 0.499420 0.654635 0.289635
O O6 0.745449 0.591386 0.000820
O O7 0.680057 0.835342 0.916112
O O8 0.271807 0.634337 0.503865
O O9 0.500000 0.500000 0.000000
O O10 0.268826 0.907639 0.053798
O O11 0.119795 0.715250 0.175553
O O12 0.143305 0.995116 0.004638
O O13 0.000000 0.000000 0.500000
O O14 0.975022 0.248097 0.204100
O O15 0.000000 0.000000 0.000000
O O16 0.745540 0.109090 0.631354
O O17 0.790736 0.380424 0.700352
O O18 0.000000 0.500000 0.500000
#
# Coordination Sequence:
#
# PCOD9056059 Si02
#       8
#     2   2   2   2   2   2   2   2
#     4  12  27  48  69 106 142 184 237 290 351 416
#     4  12  25  42  73 109 137 179 236 291 350 406
#     4  12  25  47  70 102 145 180 231 294 348 417
#     4  11  21  45  72  98 143 183 232 288 336 426
#     4  12  28  44  70 106 141 179 233 294 354 404
#     4  11  23  44  78  99 136 188 238 281 341 428
#     4  11  25  47  69 102 142 184 232 285 349 421
#     4  11  22  38  71 103 135 186 235 275 344 417
#
# _framework density 23.568235000000001
#
# number of rings (size 3 to 8) (size 9 to 14) (size 15 to 20)
#    0.000    0.500    6.250    3.000    1.750    4.000 
#    0.000    0.000    0.000    0.000    0.000    0.000 
#    0.000    0.000    0.000    0.000    0.000    0.000 
#
# Total GULP energy -89463.495340 kJ/mol
# GULP energy per Si atom -5591.468459 kJ/mol
# Density = 2.351459 g / cm^3
# Si number density = 23.568235 Si / 1000 Ang^3
#
#
#
# Elastic Constant Matrix: (Units=GPa)
#
#
# Indices 1 2 3 4 5 6 
#
# 1 70.3911 6.5158 16.3719 -1.7074 -16.9480 1.5126
# 2 6.5158 102.2953 23.4391 -10.2975 -11.0263 -13.2240
# 3 16.3719 23.4391 98.2074 0.7356 -29.6884 0.8707
# 4 -1.7074 -10.2975 0.7356 36.8506 1.3701 -8.5973
# 5 -16.9480 -11.0263 -29.6884 1.3701 35.3208 2.9043
# 6 1.5126 -13.2240 0.8707 -8.5973 2.9043 47.8632
#
#
#
# Elastic Compliance Matrix: (Units=1/GPa)
#
#
# Indices 1 2 3 4 5 6 
#
# 1 0.016129 -0.000251 -0.000379 0.000178 0.007416 -0.000990
# 2 -0.000251 0.011364 -0.002471 0.004084 0.000873 0.003873
# 3 -0.000379 -0.002471 0.014277 -0.001868 0.011279 -0.001950
# 4 0.000178 0.004084 -0.001868 0.029947 -0.001918 0.006652
# 5 0.007416 0.000873 0.011279 -0.001918 0.041952 -0.003089
# 6 -0.000990 0.003873 -0.001950 0.006652 -0.003089 0.023412
#
#
# Mechanical properties :
#
#
# Convention : Reuss Voigt Hill
#
# Bulk Modulus (GPa) = 28.11705 40.39416 34.25561
# Shear Modulus (GPa) = 32.22901 38.97804 35.60353
#
# Velocity S-wave (km/s) = 3.70195 4.07115 3.89093
# Velocity P-wave (km/s) = 5.49805 6.26702 5.89509
#
# Compressibility (1/GPa) = 0.03556560
#
# Stress axis : x y z
#
# Youngs Moduli (GPa) = 61.99983 87.99853 70.04427
#
# Poissons Ratio (x) = 0.02210 0.02658
# Poissons Ratio (y) = 0.01557 0.17311
# Poissons Ratio (z) = 0.02353 0.21748
#
# Static dielectric constant tensor:
#      x y z
#    x 1.871930 0.024720 0.026870 
#    y 0.024720 1.943950 0.027700 
#    z 0.026870 0.027700 1.949990 
# 
# From -- ./inp_files/328987.got.cif
#   From: 2010.05.17/outbox.cif.g08.bks.cpg/sg2_165_cif.got.tgz:328987.got - 2010.06.03 11:33:40.
