data_PCOD9056678
_publ_section_title
;
Structure prediction by ZEFSAII (Michael W. Deem and Ramdas Pophale) SiO2 
 PCOD9056678
Probable space group: P -1
;
_chemical_formula_sum "Si O2"
_cell_formula_units_Z 16
_cell_length_a 9.304847
_cell_length_b 10.486509
_cell_length_c 11.557376
_cell_angle_alpha 56.950747
_cell_angle_beta 128.019473
_cell_angle_gamma 106.864834
_cell_volume 742.879439
_symmetry_space_group_name_H-M "P -1"
_symmetry_group_IT_number 2
_symmetry_cell_setting 'triclinic'
loop_
_space_group_symop_operation_xyz
x,y,z
-x,-y,-z
loop_
_atom_site_type_symbol
_atom_site_label
_atom_site_fract_x
_atom_site_fract_y
_atom_site_fract_z
Si Si1 0.835278 0.407051 0.505642
Si Si2 0.465306 0.912343 0.187208
Si Si3 0.130931 0.856562 0.180568
Si Si4 0.603211 0.577498 0.115240
Si Si5 0.654359 0.615626 0.495603
Si Si6 0.927776 0.699489 0.776128
Si Si7 0.091841 0.365530 0.946210
Si Si8 0.693822 0.154796 0.096337
O O1 0.876583 0.231938 0.655338
O O2 0.680901 0.452476 0.309903
O O3 0.791685 0.503963 0.550448
O O4 0.000000 0.500000 0.500000
O O5 0.335204 0.903140 0.237352
O O6 0.573873 0.750174 0.308667
O O7 0.609212 0.039288 0.201167
O O8 0.336168 0.926578 0.002419
O O9 0.080986 0.727289 0.127971
O O10 0.000000 0.000000 0.000000
O O11 0.770840 0.646675 0.090426
O O12 0.500000 0.500000 0.000000
O O13 0.449938 0.696702 0.036138
O O14 0.500000 0.500000 0.500000
O O15 0.753416 0.701279 0.604776
O O16 0.032755 0.538284 0.868442
O O17 0.095452 0.810357 0.797709
O O18 0.848620 0.703464 0.865353
#
# Coordination Sequence:
#
# PCOD9056678 Si02
#       8
#     2   2   2   2   2   2   2   2
#     4  12  25  42  68 109 135 182 240 282 348 417
#     4  11  24  43  69  98 136 184 236 284 353 414
#     4  12  24  44  71 103 146 184 230 290 352 421
#     4  12  24  40  68 102 140 182 225 291 346 414
#     4  12  24  43  71 100 134 176 236 295 340 421
#     4  11  23  41  69  99 135 178 236 290 343 414
#     4  11  22  40  66 101 130 180 232 276 349 406
#     4  11  24  42  66 100 134 185 233 282 351 417
#
# _framework density 21.537814000000001
#
# number of rings (size 3 to 8) (size 9 to 14) (size 15 to 20)
#    0.000    0.500    7.500    0.750    3.500    0.500 
#    0.000    1.250    0.000    3.000    0.000    0.000 
#    0.000    0.000    0.000    0.000    0.000    0.000 
#
# Total GULP energy -89075.783932 kJ/mol
# GULP energy per Si atom -5567.236496 kJ/mol
# Density = 2.148879 g / cm^3
# Si number density = 21.537814 Si / 1000 Ang^3
#
#
#
# Elastic Constant Matrix: (Units=GPa)
#
#
# Indices 1 2 3 4 5 6 
#
# 1 79.1705 10.6601 21.3896 -2.9468 -14.5272 20.0265
# 2 10.6601 80.8314 47.3664 3.2029 -9.8261 30.7925
# 3 21.3896 47.3664 121.0883 -1.8250 -19.0234 12.4858
# 4 -2.9468 3.2029 -1.8250 43.2595 -6.9090 -0.9658
# 5 -14.5272 -9.8261 -19.0234 -6.9090 26.7229 -1.7274
# 6 20.0265 30.7925 12.4858 -0.9658 -1.7274 41.7670
#
#
#
# Elastic Compliance Matrix: (Units=1/GPa)
#
#
# Indices 1 2 3 4 5 6 
#
# 1 0.016872 0.003668 -0.001959 0.002016 0.009014 -0.009789
# 2 0.003668 0.022958 -0.007379 -0.001531 0.003730 -0.016359
# 3 -0.001959 -0.007379 0.012068 0.001867 0.005492 0.003042
# 4 0.002016 -0.001531 0.001867 0.024783 0.008304 0.000520
# 5 0.009014 0.003730 0.005492 0.008304 0.049331 -0.006482
# 6 -0.009789 -0.016359 0.003042 0.000520 -0.006482 0.039531
#
#
# Mechanical properties :
#
#
# Convention : Reuss Voigt Hill
#
# Bulk Modulus (GPa) = 24.65622 48.88028 36.76825
# Shear Modulus (GPa) = 26.26027 35.79481 31.02754
#
# Velocity S-wave (km/s) = 3.49558 4.08113 3.79965
# Velocity P-wave (km/s) = 5.26924 6.70461 6.02979
#
# Compressibility (1/GPa) = 0.04055771
#
# Stress axis : x y z
#
# Youngs Moduli (GPa) = 59.27121 43.55856 82.86285
#
# Poissons Ratio (x) = -0.15977 0.16234
# Poissons Ratio (y) = -0.21740 0.61141
# Poissons Ratio (z) = 0.11612 0.32140
#
# Static dielectric constant tensor:
#      x y z
#    x 1.923850 0.030460 0.078760 
#    y 0.030460 1.786250 0.000490 
#    z 0.078760 0.000490 1.984870 
# 
# From -- ./inp_files/259358.got.cif
#   From: 2010.05.17/outbox.cif.g08.bks.cpg/sg2_130_cif.got.tgz:259358.got - 2010.06.03 11:33:40.
