data_PCOD9056778
_publ_section_title
;
Structure prediction by ZEFSAII (Michael W. Deem and Ramdas Pophale) SiO2 
 PCOD9056778
Probable space group: P -1
;
_chemical_formula_sum "Si O2"
_cell_formula_units_Z 16
_cell_length_a 13.870189
_cell_length_b 5.153593
_cell_length_c 14.315238
_cell_angle_alpha 115.320363
_cell_angle_beta 56.608469
_cell_angle_gamma 135.795442
_cell_volume 594.711675
_symmetry_space_group_name_H-M "P -1"
_symmetry_group_IT_number 2
_symmetry_cell_setting 'triclinic'
loop_
_space_group_symop_operation_xyz
x,y,z
-x,-y,-z
loop_
_atom_site_type_symbol
_atom_site_label
_atom_site_fract_x
_atom_site_fract_y
_atom_site_fract_z
Si Si1 0.028586 0.477921 0.872968
Si Si2 0.287409 0.883956 0.567220
Si Si3 0.279651 0.318855 0.863708
Si Si4 0.772253 0.315119 0.888656
Si Si5 0.307767 0.564318 0.689758
Si Si6 0.231801 0.420955 0.359609
Si Si7 0.060254 0.560548 0.351598
Si Si8 0.534266 0.519940 0.875213
O O1 0.135023 0.383436 0.776435
O O2 0.867121 0.209177 0.870387
O O3 0.128717 0.911411 0.854273
O O4 0.000000 0.500000 0.000000
O O5 0.343522 0.841481 0.628939
O O6 0.323426 0.732105 0.438856
O O7 0.105324 0.610789 0.617033
O O8 0.331104 0.283675 0.592269
O O9 0.358324 0.590681 0.774806
O O10 0.388375 0.268285 0.850164
O O11 0.242868 0.481724 0.990583
O O12 0.874901 0.536894 0.780605
O O13 0.614799 0.953238 0.879800
O O14 0.097857 0.421913 0.398971
O O15 0.347503 0.523635 0.231558
O O16 0.160538 0.009487 0.369988
O O17 0.500000 0.500000 0.000000
#
# Coordination Sequence:
#
# PCOD9056778 Si02
#       8
#     2   2   2   2   2   2   2   2
#     4  12  24  41  70 105 145 188 237 300 355 421
#     4  12  24  43  71 100 144 186 243 297 357 416
#     4  12  25  45  69 107 150 194 234 295 358 430
#     4  11  23  41  72 108 142 184 236 292 363 427
#     4  12  25  43  68 103 141 189 235 292 358 418
#     4  11  25  45  67 104 139 191 239 294 354 431
#     4  11  22  40  69 104 143 183 233 298 366 422
#     4  11  26  47  73 107 147 190 236 294 362 434
#
# _framework density 26.903791999999999
#
# number of rings (size 3 to 8) (size 9 to 14) (size 15 to 20)
#    0.000    0.500    3.750    4.500    3.500    1.000 
#    0.000    1.250    0.000    0.000    0.000    0.000 
#    0.000    0.000    0.000    0.000    0.000    0.000 
#
# Total GULP energy -89563.338007 kJ/mol
# GULP energy per Si atom -5597.708625 kJ/mol
# Density = 2.684256 g / cm^3
# Si number density = 26.903792 Si / 1000 Ang^3
#
#
#
# Elastic Constant Matrix: (Units=GPa)
#
#
# Indices 1 2 3 4 5 6 
#
# 1 134.9865 15.9601 40.3662 -3.9155 -1.0983 -12.2538
# 2 15.9601 58.3543 9.5883 8.2392 -15.2765 -13.5329
# 3 40.3662 9.5883 161.3818 11.6793 -3.2228 -0.0189
# 4 -3.9155 8.2392 11.6793 36.9411 -3.3829 -4.4381
# 5 -1.0983 -15.2765 -3.2228 -3.3829 49.7697 3.0385
# 6 -12.2538 -13.5329 -0.0189 -4.4381 3.0385 46.9927
#
#
#
# Elastic Compliance Matrix: (Units=1/GPa)
#
#
# Indices 1 2 3 4 5 6 
#
# 1 0.008529 -0.001985 -0.002186 0.002217 -0.000528 0.001895
# 2 -0.001985 0.020881 -0.000364 -0.003648 0.005802 0.004776
# 3 -0.002186 -0.000364 0.006945 -0.002440 0.000180 -0.000914
# 4 0.002217 -0.003648 -0.002440 0.029217 0.000620 0.002246
# 5 -0.000528 0.005802 0.000180 0.000620 0.021905 0.000176
# 6 0.001895 0.004776 -0.000914 0.002246 0.000176 0.023350
#
#
# Mechanical properties :
#
#
# Convention : Reuss Voigt Hill
#
# Bulk Modulus (GPa) = 36.65056 54.06132 45.35594
# Shear Modulus (GPa) = 38.76253 45.99457 42.37855
#
# Velocity S-wave (km/s) = 3.79988 4.13921 3.97317
# Velocity P-wave (km/s) = 5.73625 6.55607 6.15981
#
# Compressibility (1/GPa) = 0.02728471
#
# Stress axis : x y z
#
# Youngs Moduli (GPa) = 117.25223 47.89050 143.98976
#
# Poissons Ratio (x) = 0.09507 0.31477
# Poissons Ratio (y) = 0.23276 0.05236
# Poissons Ratio (z) = 0.25632 0.01742
#
# Static dielectric constant tensor:
#      x y z
#    x 2.089560 -0.033010 0.004360 
#    y -0.033010 2.085650 -0.020180 
#    z 0.004360 -0.020180 2.153400 
# 
# From -- ./inp_files/526001.got.cif
#   From: 2010.05.17/outbox.cif.g08.bks.cpg/sg2_264_cif.got.tgz:526001.got - 2010.06.03 11:33:40.
