data_PCOD9056365
_publ_section_title
;
Structure prediction by ZEFSAII (Michael W. Deem and Ramdas Pophale) SiO2 
 PCOD9056365
Probable space group: P -1
;
_chemical_formula_sum "Si O2"
_cell_formula_units_Z 12
_cell_length_a 4.890238
_cell_length_b 11.859517
_cell_length_c 11.689919
_cell_angle_alpha 112.847919
_cell_angle_beta 93.440408
_cell_angle_gamma 65.234140
_cell_volume 563.026175
_symmetry_space_group_name_H-M "P -1"
_symmetry_group_IT_number 2
_symmetry_cell_setting 'triclinic'
loop_
_space_group_symop_operation_xyz
x,y,z
-x,-y,-z
loop_
_atom_site_type_symbol
_atom_site_label
_atom_site_fract_x
_atom_site_fract_y
_atom_site_fract_z
Si Si1 0.446175 0.582421 0.716912
Si Si2 0.677410 0.621470 0.506276
Si Si3 0.314592 0.303318 0.856235
Si Si4 0.978369 0.600183 0.878826
Si Si5 0.054857 0.846574 0.296774
Si Si6 0.402479 0.900805 0.531853
O O1 0.461828 0.647473 0.621427
O O2 0.441981 0.441017 0.623859
O O3 0.739604 0.566180 0.787915
O O4 0.154575 0.655020 0.818481
O O5 0.673168 0.763428 0.527947
O O6 0.000000 0.500000 0.500000
O O7 0.667380 0.212558 0.807641
O O8 0.226862 0.459103 0.882459
O O9 0.124160 0.246195 0.750849
O O10 0.199802 0.306160 0.983530
O O11 0.203718 0.852910 0.424664
O O12 0.808723 0.002026 0.336050
O O13 0.500000 0.000000 0.500000
#
# Coordination Sequence:
#
# PCOD9056365 Si02
#       6
#     2   2   2   2   2   2
#     4  11  23  40  61  96 129 164 205 267 321 378
#     4  11  24  41  67  98 131 170 211 262 322 381
#     4  11  22  38  63  94 128 167 213 265 317 372
#     4  11  22  38  63  94 128 167 213 265 317 372
#     4  11  23  40  61  96 129 164 205 267 321 378
#     4  11  24  41  67  98 131 170 211 262 322 381
#
# _framework density 21.313395
#
# number of rings (size 3 to 8) (size 9 to 14) (size 15 to 20)
#    0.000    1.000    3.333    4.000    0.000    9.333 
#    0.000    0.000    0.000    6.000    0.000    0.000 
#    0.000    0.000    0.000    0.000    0.000    0.000 
#
# Total GULP energy -67060.148031 kJ/mol
# GULP energy per Si atom -5588.345669 kJ/mol
# Density = 2.126488 g / cm^3
# Si number density = 21.313395 Si / 1000 Ang^3
#
#
#
# Elastic Constant Matrix: (Units=GPa)
#
#
# Indices 1 2 3 4 5 6 
#
# 1 105.0248 32.3593 21.7708 1.9422 -22.9015 -3.6873
# 2 32.3593 95.5192 14.8932 27.2351 -17.2205 -3.9381
# 3 21.7708 14.8932 91.9418 9.2965 -38.0731 -6.4741
# 4 1.9422 27.2351 9.2965 16.5377 1.5180 -3.2495
# 5 -22.9015 -17.2205 -38.0731 1.5180 48.9888 -0.9321
# 6 -3.6873 -3.9381 -6.4741 -3.2495 -0.9321 25.4170
#
#
#
# Elastic Compliance Matrix: (Units=1/GPa)
#
#
# Indices 1 2 3 4 5 6 
#
# 1 0.012148 -0.006536 -0.002243 0.010791 0.001335 0.001607
# 2 -0.006536 0.029812 0.008856 -0.054873 0.015998 -0.000502
# 3 -0.002243 0.008856 0.020946 -0.027153 0.019253 0.003617
# 4 0.010791 -0.054873 -0.027153 0.169800 -0.040487 0.006371
# 5 0.001335 0.015998 0.019253 -0.040487 0.042954 0.003976
# 6 0.001607 -0.000502 0.003617 0.006371 0.003976 0.041381
#
#
# Mechanical properties :
#
#
# Convention : Reuss Voigt Hill
#
# Bulk Modulus (GPa) = 15.85774 47.83693 31.84734
# Shear Modulus (GPa) = 14.79704 33.08620 23.94162
#
# Velocity S-wave (km/s) = 2.63774 3.94428 3.35522
# Velocity P-wave (km/s) = 4.09064 6.57544 5.47584
#
# Compressibility (1/GPa) = 0.06306067
#
# Stress axis : x y z
#
# Youngs Moduli (GPa) = 82.31733 33.54399 47.74170
#
# Poissons Ratio (x) = 0.21923 0.10709
# Poissons Ratio (y) = 0.53799 -0.42281
# Poissons Ratio (z) = 0.18465 -0.29707
#
# Static dielectric constant tensor:
#      x y z
#    x 1.814340 -0.021900 -0.033050 
#    y -0.021900 1.792310 -0.006080 
#    z -0.033050 -0.006080 1.805040 
# 
# From -- ./inp_files/362289.got.cif
#   From: 2010.05.17/outbox.cif.g08.bks.cpg/sg2_182_cif.got.tgz:362289.got - 2010.06.03 11:33:40.
