data_PCOD9056046
_publ_section_title
;
Structure prediction by ZEFSAII (Michael W. Deem and Ramdas Pophale) SiO2 
 PCOD9056046
Probable space group: P -1
;
_chemical_formula_sum "Si O2"
_cell_formula_units_Z 16
_cell_length_a 7.754828
_cell_length_b 9.710527
_cell_length_c 9.775704
_cell_angle_alpha 93.175331
_cell_angle_beta 83.081754
_cell_angle_gamma 95.114832
_cell_volume 727.131977
_symmetry_space_group_name_H-M "P -1"
_symmetry_group_IT_number 2
_symmetry_cell_setting 'triclinic'
loop_
_space_group_symop_operation_xyz
x,y,z
-x,-y,-z
loop_
_atom_site_type_symbol
_atom_site_label
_atom_site_fract_x
_atom_site_fract_y
_atom_site_fract_z
Si Si1 0.102352 0.086297 0.374725
Si Si2 0.915870 0.112032 0.105434
Si Si3 0.317228 0.759183 0.691163
Si Si4 0.070189 0.635096 0.083861
Si Si5 0.402665 0.621439 0.231163
Si Si6 0.368343 0.893190 0.420270
Si Si7 0.318765 0.363344 0.416602
Si Si8 0.753995 0.548087 0.268886
O O1 0.165278 0.242305 0.419233
O O2 0.012606 0.101189 0.239559
O O3 0.264271 0.991190 0.340240
O O4 0.000000 0.000000 0.500000
O O5 0.718965 0.127372 0.184005
O O6 0.947850 0.242698 0.012053
O O7 0.000000 0.000000 0.000000
O O8 0.264083 0.813358 0.550657
O O9 0.511605 0.713243 0.649080
O O10 0.214358 0.613731 0.734839
O O11 0.265787 0.634889 0.122839
O O12 0.931431 0.638086 0.221436
O O13 0.000000 0.500000 0.000000
O O14 0.430451 0.768379 0.316476
O O15 0.312975 0.497311 0.328294
O O16 0.597141 0.576004 0.181006
O O17 0.500000 0.000000 0.500000
O O18 0.323567 0.415703 0.574396
#
# Coordination Sequence:
#
# PCOD9056046 Si02
#       8
#     2   2   2   2   2   2   2   2
#     4  12  26  42  72 105 140 190 242 302 369 430
#     4  12  28  48  64 100 151 189 237 298 360 441
#     4  11  21  45  71 101 145 176 233 308 360 425
#     4  12  27  47  70 103 147 201 250 294 362 452
#     4  11  24  44  74 107 143 192 248 302 375 430
#     4  12  22  42  70 109 142 176 234 307 372 432
#     4  11  23  44  75 111 138 181 245 315 369 426
#     4  11  23  44  76 110 145 183 242 317 369 430
#
# _framework density 22.004261
#
# number of rings (size 3 to 8) (size 9 to 14) (size 15 to 20)
#    0.000    0.500    6.250    2.250    3.500    2.000 
#    2.250    0.625    0.000    0.000    0.000    0.000 
#    0.000    0.000    0.000    0.000    0.000    0.000 
#
# Total GULP energy -89252.174974 kJ/mol
# GULP energy per Si atom -5578.260936 kJ/mol
# Density = 2.195418 g / cm^3
# Si number density = 22.004261 Si / 1000 Ang^3
#
#
#
# Elastic Constant Matrix: (Units=GPa)
#
#
# Indices 1 2 3 4 5 6 
#
# 1 69.5739 32.5816 34.9607 -5.0356 12.1896 -12.5333
# 2 32.5816 129.6933 44.8467 -5.8534 21.6717 -20.1307
# 3 34.9607 44.8467 91.4769 -3.2903 6.7001 -15.2429
# 4 -5.0356 -5.8534 -3.2903 49.7600 -12.8356 -0.1600
# 5 12.1896 21.6717 6.7001 -12.8356 40.2340 -1.8996
# 6 -12.5333 -20.1307 -15.2429 -0.1600 -1.8996 33.1829
#
#
#
# Elastic Compliance Matrix: (Units=1/GPa)
#
#
# Indices 1 2 3 4 5 6 
#
# 1 0.019333 -0.001722 -0.005686 0.000440 -0.003680 0.003437
# 2 -0.001722 0.010765 -0.003638 -0.000319 -0.004587 0.003945
# 3 -0.005686 -0.003638 0.015256 0.000373 0.001390 0.002735
# 4 0.000440 -0.000319 0.000373 0.021937 0.007006 0.000651
# 5 -0.003680 -0.004587 0.001390 0.007006 0.030360 -0.001762
# 6 0.003437 0.003945 0.002735 0.000651 -0.001762 0.034986
#
#
# Mechanical properties :
#
#
# Convention : Reuss Voigt Hill
#
# Bulk Modulus (GPa) = 42.98984 57.28026 50.13505
# Shear Modulus (GPa) = 30.77231 36.52571 33.64901
#
# Velocity S-wave (km/s) = 3.74367 4.07865 3.91475
# Velocity P-wave (km/s) = 6.18597 6.94755 6.57779
#
# Compressibility (1/GPa) = 0.02326131
#
# Stress axis : x y z
#
# Youngs Moduli (GPa) = 51.72565 92.88956 65.54993
#
# Poissons Ratio (x) = 0.15999 0.37273
# Poissons Ratio (y) = 0.08909 0.23845
# Poissons Ratio (z) = 0.29412 0.33790
#
# Static dielectric constant tensor:
#      x y z
#    x 1.936780 -0.005420 -0.015970 
#    y -0.005420 1.899910 0.157450 
#    z -0.015970 0.157450 2.011010 
# 
# From -- ./inp_files/158704.got.cif
#   From: 2010.05.17/outbox.cif.g08.bks.cpg/sg2_80_cif.got.tgz:158704.got - 2010.06.03 11:33:40.
