data_PCOD9056501
_publ_section_title
;
Structure prediction by ZEFSAII (Michael W. Deem and Ramdas Pophale) SiO2 
 PCOD9056501
Probable space group: P -1
;
_chemical_formula_sum "Si O2"
_cell_formula_units_Z 14
_cell_length_a 7.914144
_cell_length_b 6.770150
_cell_length_c 19.554980
_cell_angle_alpha 73.335773
_cell_angle_beta 42.137503
_cell_angle_gamma 95.996972
_cell_volume 585.752640
_symmetry_space_group_name_H-M "P -1"
_symmetry_group_IT_number 2
_symmetry_cell_setting 'triclinic'
loop_
_space_group_symop_operation_xyz
x,y,z
-x,-y,-z
loop_
_atom_site_type_symbol
_atom_site_label
_atom_site_fract_x
_atom_site_fract_y
_atom_site_fract_z
Si Si1 0.271805 0.761801 0.385406
Si Si2 0.706632 0.660235 0.070143
Si Si3 0.215893 0.788488 0.165207
Si Si4 0.620299 0.369304 0.431640
Si Si5 0.208153 0.968290 0.515635
Si Si6 0.145888 0.143650 0.841016
Si Si7 0.678965 0.884719 0.776619
O O1 0.188539 0.910896 0.447559
O O2 0.580926 0.773790 0.299851
O O3 0.000000 0.500000 0.500000
O O4 0.325749 0.898413 0.283601
O O5 0.473522 0.729807 0.103204
O O6 0.747491 0.714368 0.133781
O O7 0.589491 0.382506 0.119241
O O8 0.004926 0.862551 0.927119
O O9 0.942749 0.554666 0.298508
O O10 0.103994 0.816661 0.121902
O O11 0.261834 0.014453 0.174197
O O12 0.500000 0.500000 0.500000
O O13 0.622600 0.167341 0.497079
O O14 0.415249 0.243434 0.441441
O O15 0.937672 0.876925 0.657666
#
# Coordination Sequence:
#
# PCOD9056501 Si02
#       7
#     2   2   2   2   2   2   2
#     4  12  26  45  72 108 147 189 243 296 366 434
#     4  11  26  53  70 106 144 188 253 292 362 430
#     4  12  24  46  74 106 144 187 239 305 361 422
#     4  11  22  39  65 102 148 182 238 292 353 436
#     4  11  24  39  65 105 141 193 233 286 366 430
#     4  11  27  48  77 102 145 196 235 308 359 423
#     4  12  25  45  73 103 147 189 234 304 355 434
#
# _framework density 23.900874000000002
#
# number of rings (size 3 to 8) (size 9 to 14) (size 15 to 20)
#    0.000    0.571    4.286    3.429    6.000    1.143 
#    0.000    0.000    0.000    0.000    0.000    0.000 
#    0.000    0.000    0.000    0.000    0.000    0.000 
#
# Total GULP energy -78266.183328 kJ/mol
# GULP energy per Si atom -5590.441666 kJ/mol
# Density = 2.384647 g / cm^3
# Si number density = 23.900874 Si / 1000 Ang^3
#
#
#
# Elastic Constant Matrix: (Units=GPa)
#
#
# Indices 1 2 3 4 5 6 
#
# 1 94.8965 26.0107 14.5536 -6.1078 -4.0524 -8.4537
# 2 26.0107 119.0976 45.2955 -37.0678 -2.7994 15.2883
# 3 14.5536 45.2955 125.5342 -31.6321 -14.3306 13.0568
# 4 -6.1078 -37.0678 -31.6321 38.3648 9.1711 -9.3748
# 5 -4.0524 -2.7994 -14.3306 9.1711 10.1014 -14.9305
# 6 -8.4537 15.2883 13.0568 -9.3748 -14.9305 36.4862
#
#
#
# Elastic Compliance Matrix: (Units=1/GPa)
#
#
# Indices 1 2 3 4 5 6 
#
# 1 0.019450 -0.013990 0.003671 -0.017441 0.080293 0.037430
# 2 -0.013990 0.029048 -0.008101 0.034333 -0.115609 -0.051001
# 3 0.003671 -0.008101 0.013199 -0.003388 0.048170 0.018363
# 4 -0.017441 0.034333 -0.003388 0.078817 -0.175522 -0.068789
# 5 0.080293 -0.115609 0.048170 -0.175522 0.844779 0.350401
# 6 0.037430 -0.051001 0.018363 -0.068789 0.350401 0.176592
#
#
# Mechanical properties :
#
#
# Convention : Reuss Voigt Hill
#
# Bulk Modulus (GPa) = 40.23023 56.80534 48.51778
# Shear Modulus (GPa) = 4.14247 33.90172 19.02209
#
# Velocity S-wave (km/s) = 1.31793 3.77029 2.82419
# Velocity P-wave (km/s) = 4.38002 6.54004 5.56582
#
# Compressibility (1/GPa) = 0.02485693
#
# Stress axis : x y z
#
# Youngs Moduli (GPa) = 51.41393 34.42548 75.76522
#
# Poissons Ratio (x) = 0.48161 -0.27814
# Poissons Ratio (y) = 0.71928 0.61378
# Poissons Ratio (z) = -0.18874 0.27888
#
# Static dielectric constant tensor:
#      x y z
#    x 2.066530 -0.009380 0.018720 
#    y -0.009380 1.893910 -0.001670 
#    z 0.018720 -0.001670 1.878820 
# 
# From -- ./inp_files/27863.got.cif
#   From: 2010.05.17/outbox.cif.g08.bks.cpg/sg2_14_cif.got.tgz:27863.got - 2010.06.03 11:33:40.
