data_PCOD9056874
_publ_section_title
;
Structure prediction by ZEFSAII (Michael W. Deem and Ramdas Pophale) SiO2 
 PCOD9056874
Probable space group: P -1
;
_chemical_formula_sum "Si O2"
_cell_formula_units_Z 10
_cell_length_a 8.939049
_cell_length_b 12.004790
_cell_length_c 15.095956
_cell_angle_alpha 146.039653
_cell_angle_beta 30.635241
_cell_angle_gamma 128.514833
_cell_volume 436.966089
_symmetry_space_group_name_H-M "P -1"
_symmetry_group_IT_number 2
_symmetry_cell_setting 'triclinic'
loop_
_space_group_symop_operation_xyz
x,y,z
-x,-y,-z
loop_
_atom_site_type_symbol
_atom_site_label
_atom_site_fract_x
_atom_site_fract_y
_atom_site_fract_z
Si Si1 0.218454 0.907705 0.582319
Si Si2 0.738598 0.560297 0.324359
Si Si3 0.639233 0.533108 0.710797
Si Si4 0.153927 0.852287 0.907331
Si Si5 0.096018 0.858462 0.272770
O O1 0.371968 0.661547 0.352870
O O2 0.500000 0.000000 0.500000
O O3 0.040598 0.988373 0.637045
O O4 0.973726 0.995992 0.844446
O O5 0.527883 0.483511 0.309102
O O6 0.509504 0.740405 0.622296
O O7 0.918524 0.360648 0.162424
O O8 0.945807 0.670532 0.236523
O O9 0.000000 0.500000 0.500000
O O10 0.454136 0.746300 0.995245
O O11 0.000000 0.000000 0.000000
O O12 0.000000 0.000000 0.500000
#
# Coordination Sequence:
#
# PCOD9056874 Si02
#       5
#     2   2   2   2   2
#     4  12  24  45  78 106 150 197 247 302 376 436
#     4  11  24  46  75 105 148 195 246 298 371 443
#     4  12  27  45  75 112 147 193 251 303 365 442
#     4  11  22  40  77 108 138 190 244 301 370 432
#     4  12  28  49  75 108 151 197 250 305 367 440
#
# _framework density 22.885069999999999
#
# number of rings (size 3 to 8) (size 9 to 14) (size 15 to 20)
#    0.000    0.400    6.000    1.800    2.800    6.400 
#    0.000    0.000    0.000    0.000    0.000    0.000 
#    0.000    0.000    0.000    0.000    0.000    0.000 
#
# Total GULP energy -55897.398044 kJ/mol
# GULP energy per Si atom -5589.739804 kJ/mol
# Density = 2.283298 g / cm^3
# Si number density = 22.885070 Si / 1000 Ang^3
#
#
#
# Elastic Constant Matrix: (Units=GPa)
#
#
# Indices 1 2 3 4 5 6 
#
# 1 124.1016 60.9316 82.4949 4.4022 14.4840 -39.2351
# 2 60.9316 94.2713 7.8376 15.1814 -14.5415 -30.2941
# 3 82.4949 7.8376 167.6155 9.8913 17.1509 -12.6703
# 4 4.4022 15.1814 9.8913 52.8250 -12.4931 -14.3108
# 5 14.4840 -14.5415 17.1509 -12.4931 32.9892 -2.1656
# 6 -39.2351 -30.2941 -12.6703 -14.3108 -2.1656 54.8523
#
#
#
# Elastic Compliance Matrix: (Units=1/GPa)
#
#
# Indices 1 2 3 4 5 6 
#
# 1 0.027520 -0.016518 -0.011203 0.004194 -0.011385 0.008619
# 2 -0.016518 0.024299 0.005922 -0.002614 0.014081 0.002847
# 3 -0.011203 0.005922 0.011171 -0.003675 0.000125 -0.003116
# 4 0.004194 -0.002614 -0.003675 0.024007 0.008488 0.007306
# 5 -0.011385 0.014081 0.000125 0.008488 0.044908 0.003650
# 6 0.008619 0.002847 -0.003116 0.007306 0.003650 0.027299
#
#
# Mechanical properties :
#
#
# Convention : Reuss Voigt Hill
#
# Bulk Modulus (GPa) = 51.56486 76.50185 64.03336
# Shear Modulus (GPa) = 23.89314 43.78157 33.83736
#
# Velocity S-wave (km/s) = 3.23468 4.37865 3.84940
# Velocity P-wave (km/s) = 6.04416 7.68536 6.91363
#
# Compressibility (1/GPa) = 0.01939305
#
# Stress axis : x y z
#
# Youngs Moduli (GPa) = 36.33772 41.15336 89.51449
#
# Poissons Ratio (x) = 0.67975 1.00282
# Poissons Ratio (y) = 0.60021 -0.53009
# Poissons Ratio (z) = 0.40709 -0.24370
#
# Static dielectric constant tensor:
#      x y z
#    x 1.863780 0.065600 0.005690 
#    y 0.065600 1.850940 -0.025630 
#    z 0.005690 -0.025630 1.836340 
# 
# From -- ./inp_files/144325.got.cif
#   From: 2010.05.17/outbox.cif.g08.bks.cpg/sg2_73_cif.got.tgz:144325.got - 2010.06.03 11:33:40.
