data_PCOD9056081
_publ_section_title
;
Structure prediction by ZEFSAII (Michael W. Deem and Ramdas Pophale) SiO2 
 PCOD9056081
Probable space group: P -1
;
_chemical_formula_sum "Si O2"
_cell_formula_units_Z 16
_cell_length_a 17.654030
_cell_length_b 8.407405
_cell_length_c 12.486912
_cell_angle_alpha 92.455513
_cell_angle_beta 51.415381
_cell_angle_gamma 135.711198
_cell_volume 681.078871
_symmetry_space_group_name_H-M "P -1"
_symmetry_group_IT_number 2
_symmetry_cell_setting 'triclinic'
loop_
_space_group_symop_operation_xyz
x,y,z
-x,-y,-z
loop_
_atom_site_type_symbol
_atom_site_label
_atom_site_fract_x
_atom_site_fract_y
_atom_site_fract_z
Si Si1 0.106228 0.980296 0.417244
Si Si2 0.785716 0.104092 0.144456
Si Si3 0.426869 0.202819 0.115552
Si Si4 0.165521 0.195532 0.946326
Si Si5 0.395096 0.000698 0.910813
Si Si6 0.226887 0.660509 0.442275
Si Si7 0.438314 0.060013 0.478841
Si Si8 0.154332 0.340476 0.170328
O O1 0.993809 0.708880 0.419067
O O2 0.015985 0.822554 0.611259
O O3 0.000000 0.000000 0.500000
O O4 0.339785 0.253187 0.217858
O O5 0.687740 0.043018 0.124911
O O6 0.802810 0.945391 0.095068
O O7 0.642063 0.923469 0.368667
O O8 0.000000 0.500000 0.000000
O O9 0.313849 0.924165 0.294357
O O10 0.669488 0.513789 0.924422
O O11 0.369042 0.059603 0.044385
O O12 0.371419 0.593406 0.746887
O O13 0.076376 0.117610 0.137397
O O14 0.000000 0.000000 0.000000
O O15 0.631983 0.291677 0.698427
O O16 0.276656 0.664324 0.021936
O O17 0.264535 0.762041 0.535369
O O18 0.500000 0.000000 0.500000
#
# Coordination Sequence:
#
# PCOD9056081 Si02
#       8
#     2   2   2   2   2   2   2   2
#     4  12  28  41  66 114 145 189 240 299 369 447
#     4  12  28  45  72 111 145 199 249 302 375 444
#     4  11  23  44  75  98 141 191 239 290 372 427
#     4  12  27  49  73 105 146 194 249 313 372 442
#     4  11  21  45  75  98 140 192 240 295 369 438
#     4  11  22  46  71 102 138 189 242 295 367 439
#     4  12  24  48  76 105 144 192 250 306 371 437
#     4  11  23  48  70 103 144 186 240 305 366 441
#
# _framework density 23.492139000000002
#
# number of rings (size 3 to 8) (size 9 to 14) (size 15 to 20)
#    0.000    0.500    6.250    3.000    3.500    3.500 
#    2.250    0.000    0.000    0.000    0.000    0.000 
#    0.000    0.000    0.000    0.000    0.000    0.000 
#
# Total GULP energy -89503.626883 kJ/mol
# GULP energy per Si atom -5593.976680 kJ/mol
# Density = 2.343867 g / cm^3
# Si number density = 23.492139 Si / 1000 Ang^3
#
#
#
# Elastic Constant Matrix: (Units=GPa)
#
#
# Indices 1 2 3 4 5 6 
#
# 1 117.7927 46.9503 43.1739 26.1896 -7.9023 -1.3248
# 2 46.9503 132.7531 38.1377 37.9406 -0.9041 16.2252
# 3 43.1739 38.1377 96.1833 27.2467 -24.0702 13.0404
# 4 26.1896 37.9406 27.2467 37.0365 -2.6302 13.9318
# 5 -7.9023 -0.9041 -24.0702 -2.6302 30.8673 9.3056
# 6 -1.3248 16.2252 13.0404 13.9318 9.3056 43.8851
#
#
#
# Elastic Compliance Matrix: (Units=1/GPa)
#
#
# Indices 1 2 3 4 5 6 
#
# 1 0.011889 -0.002143 -0.004198 -0.004920 -0.002036 0.004393
# 2 -0.002143 0.011307 -0.001367 -0.008971 -0.001869 -0.000595
# 3 -0.004198 -0.001367 0.019378 -0.006280 0.015470 -0.006666
# 4 -0.004920 -0.008971 -0.006280 0.048291 0.000854 -0.010477
# 5 -0.002036 -0.001869 0.015470 0.000854 0.048324 -0.014486
# 6 0.004393 -0.000595 -0.006666 -0.010477 -0.014486 0.031518
#
#
# Mechanical properties :
#
#
# Convention : Reuss Voigt Hill
#
# Bulk Modulus (GPa) = 36.82306 67.02812 51.92559
# Shear Modulus (GPa) = 25.61767 36.92225 31.26996
#
# Velocity S-wave (km/s) = 3.30582 3.96875 3.65236
# Velocity P-wave (km/s) = 5.50272 7.04240 6.31962
#
# Compressibility (1/GPa) = 0.02715690
#
# Stress axis : x y z
#
# Youngs Moduli (GPa) = 84.10960 88.43729 51.60562
#
# Poissons Ratio (x) = 0.18955 0.21666
# Poissons Ratio (y) = 0.18028 0.07055
# Poissons Ratio (z) = 0.35312 0.12090
#
# Static dielectric constant tensor:
#      x y z
#    x 1.900960 -0.017770 0.052600 
#    y -0.017770 1.871940 -0.011940 
#    z 0.052600 -0.011940 1.983400 
# 
# From -- ./inp_files/462217.got.cif
#   From: 2010.05.17/outbox.cif.g08.bks.cpg/sg2_232_cif.got.tgz:462217.got - 2010.06.03 11:33:40.
