data_PCOD9056375
_publ_section_title
;
Structure prediction by ZEFSAII (Michael W. Deem and Ramdas Pophale) SiO2 
 PCOD9056375
Probable space group: P -1
;
_chemical_formula_sum "Si O2"
_cell_formula_units_Z 12
_cell_length_a 9.643750
_cell_length_b 11.657246
_cell_length_c 13.096384
_cell_angle_alpha 121.058074
_cell_angle_beta 32.306568
_cell_angle_gamma 139.291362
_cell_volume 479.190702
_symmetry_space_group_name_H-M "P -1"
_symmetry_group_IT_number 2
_symmetry_cell_setting 'triclinic'
loop_
_space_group_symop_operation_xyz
x,y,z
-x,-y,-z
loop_
_atom_site_type_symbol
_atom_site_label
_atom_site_fract_x
_atom_site_fract_y
_atom_site_fract_z
Si Si1 0.225767 0.409936 0.722584
Si Si2 0.211693 0.250622 0.138248
Si Si3 0.876648 0.914497 0.305232
Si Si4 0.845443 0.555605 0.002720
Si Si5 0.720846 0.277489 0.580009
Si Si6 0.633332 0.063600 0.241124
O O1 0.500000 0.500000 0.500000
O O2 0.042358 0.197387 0.745178
O O3 0.389597 0.494445 0.773464
O O4 0.997321 0.461234 0.873497
O O5 0.598817 0.461437 0.011283
O O6 0.917234 0.232000 0.374273
O O7 0.998453 0.159241 0.123384
O O8 0.218529 0.116751 0.138615
O O9 0.623846 0.805787 0.312016
O O10 0.632385 0.920290 0.534562
O O11 0.178524 0.782976 0.895796
O O12 0.000000 0.500000 0.500000
O O13 0.594678 0.159092 0.709954
#
# Coordination Sequence:
#
# PCOD9056375 Si02
#       6
#     2   2   2   2   2   2
#     4  11  23  40  62  83 125 169 205 251 297 357
#     4   9  19  35  61  91 122 154 200 254 308 365
#     4   9  18  37  60  83 122 164 195 248 308 355
#     4  11  22  38  64  91 119 164 208 248 302 358
#     4   9  17  33  61  92 122 159 197 245 316 370
#     4   9  18  36  62  90 125 157 194 258 307 358
#
# _framework density 25.042221000000001
#
# number of rings (size 3 to 8) (size 9 to 14) (size 15 to 20)
#    0.000    2.333    1.667    3.500    0.000    0.667 
#    0.000   11.667   11.000    0.000    0.000    0.000 
#    0.000    0.000    0.000    0.000    0.000    0.000 
#
# Total GULP energy -66911.056726 kJ/mol
# GULP energy per Si atom -5575.921394 kJ/mol
# Density = 2.498522 g / cm^3
# Si number density = 25.042221 Si / 1000 Ang^3
#
#
#
# Elastic Constant Matrix: (Units=GPa)
#
#
# Indices 1 2 3 4 5 6 
#
# 1 49.5863 26.7203 17.2697 -0.2021 3.6893 -20.9099
# 2 26.7203 150.3195 57.8542 -32.8079 8.8088 -40.5683
# 3 17.2697 57.8542 86.0243 2.2917 17.2400 -12.4576
# 4 -0.2021 -32.8079 2.2917 51.7233 -2.5251 -3.1527
# 5 3.6893 8.8088 17.2400 -2.5251 25.7640 -3.0161
# 6 -20.9099 -40.5683 -12.4576 -3.1527 -3.0161 49.7584
#
#
#
# Elastic Compliance Matrix: (Units=1/GPa)
#
#
# Indices 1 2 3 4 5 6 
#
# 1 0.025669 -0.000612 -0.003370 0.000436 -0.000060 0.009468
# 2 -0.000612 0.015876 -0.010001 0.011373 0.003769 0.011132
# 3 -0.003370 -0.010001 0.020724 -0.008173 -0.011421 -0.005591
# 4 0.000436 0.011373 -0.008173 0.027751 0.005349 0.009492
# 5 -0.000060 0.003769 -0.011421 0.005349 0.046089 0.003321
# 6 0.009468 0.011132 -0.005591 0.009492 0.003321 0.032555
#
#
# Mechanical properties :
#
#
# Convention : Reuss Voigt Hill
#
# Bulk Modulus (GPa) = 29.15123 54.40208 41.77665
# Shear Modulus (GPa) = 24.03111 37.72153 30.87632
#
# Velocity S-wave (km/s) = 3.10114 3.88534 3.51518
# Velocity P-wave (km/s) = 4.94862 6.47295 5.76142
#
# Compressibility (1/GPa) = 0.03430387
#
# Stress axis : x y z
#
# Youngs Moduli (GPa) = 38.95720 62.98862 48.25374
#
# Poissons Ratio (x) = 0.03855 0.16262
# Poissons Ratio (y) = 0.02384 0.48256
# Poissons Ratio (z) = 0.13129 0.62992
#
# Static dielectric constant tensor:
#      x y z
#    x 2.019280 0.033890 0.065840 
#    y 0.033890 2.143410 -0.010290 
#    z 0.065840 -0.010290 1.973670 
# 
# From -- ./inp_files/176982.got.cif
#   From: 2010.05.17/outbox.cif.g08.bks.cpg/sg2_89_cif.got.tgz:176982.got - 2010.06.03 11:33:40.
