data_PCOD9056130
_publ_section_title
;
Structure prediction by ZEFSAII (Michael W. Deem and Ramdas Pophale) SiO2 
 PCOD9056130
Probable space group: P -1
;
_chemical_formula_sum "Si O2"
_cell_formula_units_Z 16
_cell_length_a 13.518819
_cell_length_b 8.468642
_cell_length_c 17.351534
_cell_angle_alpha 43.196734
_cell_angle_beta 137.592208
_cell_angle_gamma 145.121648
_cell_volume 725.896369
_symmetry_space_group_name_H-M "P -1"
_symmetry_group_IT_number 2
_symmetry_cell_setting 'triclinic'
loop_
_space_group_symop_operation_xyz
x,y,z
-x,-y,-z
loop_
_atom_site_type_symbol
_atom_site_label
_atom_site_fract_x
_atom_site_fract_y
_atom_site_fract_z
Si Si1 0.192061 0.309444 0.485613
Si Si2 0.364354 0.458669 0.686900
Si Si3 0.219748 0.234168 0.240823
Si Si4 0.641370 0.018654 0.313047
Si Si5 0.920125 0.575013 0.358381
Si Si6 0.742562 0.360573 0.743326
Si Si7 0.031543 0.261108 0.974674
Si Si8 0.646975 0.089531 0.119682
O O1 0.272555 0.485498 0.548707
O O2 0.170467 0.458249 0.349268
O O3 0.328494 0.226313 0.575110
O O4 0.000000 0.000000 0.500000
O O5 0.585564 0.659536 0.724900
O O6 0.263088 0.473147 0.696420
O O7 0.300213 0.129281 0.774280
O O8 0.255794 0.435199 0.263687
O O9 0.107345 0.266733 0.099976
O O10 0.082614 0.898041 0.307951
O O11 0.833616 0.326181 0.332767
O O12 0.575254 0.038248 0.183859
O O13 0.466798 0.904331 0.306154
O O14 0.000000 0.500000 0.500000
O O15 0.848749 0.241106 0.878324
O O16 0.185989 0.574564 0.914560
O O17 0.000000 0.000000 0.000000
O O18 0.500000 0.000000 0.000000
#
# Coordination Sequence:
#
# PCOD9056130 Si02
#       8
#     2   2   2   2   2   2   2   2
#     4  11  22  43  72 102 135 182 240 288 346 422
#     4  11  25  45  75 104 138 192 237 289 348 426
#     4  12  25  49  72 103 142 188 244 285 348 427
#     4  11  24  42  67 108 138 179 235 292 357 414
#     4  12  28  46  69 108 151 184 229 297 365 418
#     4  12  24  44  74  98 141 184 236 294 345 426
#     4  12  27  44  69 107 140 184 234 293 356 420
#     4  11  21  46  73  98 140 184 241 286 345 423
#
# _framework density 22.041713999999999
#
# number of rings (size 3 to 8) (size 9 to 14) (size 15 to 20)
#    0.000    0.500    3.750    6.000    3.500    2.500 
#    0.000    1.875    0.000    0.000    0.000    0.000 
#    0.000    0.000    0.000    0.000    0.000    0.000 
#
# Total GULP energy -89435.440250 kJ/mol
# GULP energy per Si atom -5589.715016 kJ/mol
# Density = 2.199155 g / cm^3
# Si number density = 22.041714 Si / 1000 Ang^3
#
#
#
# Elastic Constant Matrix: (Units=GPa)
#
#
# Indices 1 2 3 4 5 6 
#
# 1 58.6992 15.3240 10.5586 -13.4905 10.2462 8.6216
# 2 15.3240 110.6636 14.8341 -13.4202 1.4558 8.0222
# 3 10.5586 14.8341 115.5116 3.2329 -14.2148 9.1158
# 4 -13.4905 -13.4202 3.2329 40.5041 6.0461 -2.7442
# 5 10.2462 1.4558 -14.2148 6.0461 33.4545 6.1743
# 6 8.6216 8.0222 9.1158 -2.7442 6.1743 34.1708
#
#
#
# Elastic Compliance Matrix: (Units=1/GPa)
#
#
# Indices 1 2 3 4 5 6 
#
# 1 0.021674 -0.001338 -0.002975 0.008206 -0.008942 -0.002086
# 2 -0.001338 0.009847 -0.001230 0.002956 -0.000843 -0.001256
# 3 -0.002975 -0.001230 0.010230 -0.003398 0.006505 -0.003138
# 4 0.008206 0.002956 -0.003398 0.030328 -0.010007 0.002386
# 5 -0.008942 -0.000843 0.006505 -0.010007 0.038540 -0.007049
# 6 -0.002086 -0.001256 -0.003138 0.002386 -0.007049 0.032388
#
#
# Mechanical properties :
#
#
# Convention : Reuss Voigt Hill
#
# Bulk Modulus (GPa) = 32.60992 40.70086 36.65539
# Shear Modulus (GPa) = 30.42939 37.90305 34.16622
#
# Velocity S-wave (km/s) = 3.71959 4.15131 3.94137
# Velocity P-wave (km/s) = 5.76835 6.44075 6.11380
#
# Compressibility (1/GPa) = 0.03066552
#
# Stress axis : x y z
#
# Youngs Moduli (GPa) = 46.13890 101.55193 97.74991
#
# Poissons Ratio (x) = 0.13593 0.29077
# Poissons Ratio (y) = 0.06176 0.12019
# Poissons Ratio (z) = 0.13725 0.12487
#
# Static dielectric constant tensor:
#      x y z
#    x 1.893490 0.001260 0.008760 
#    y 0.001260 1.848890 0.015680 
#    z 0.008760 0.015680 1.769590 
# 
# From -- ./inp_files/280132.got.cif
#   From: 2010.05.17/outbox.cif.g08.bks.cpg/sg2_141_cif.got.tgz:280132.got - 2010.06.03 11:33:40.
