data_PCOD9056772
_publ_section_title
;
Structure prediction by ZEFSAII (Michael W. Deem and Ramdas Pophale) SiO2 
 PCOD9056772
Probable space group: P -1
;
_chemical_formula_sum "Si O2"
_cell_formula_units_Z 14
_cell_length_a 9.015337
_cell_length_b 17.326865
_cell_length_c 9.403579
_cell_angle_alpha 74.851633
_cell_angle_beta 112.876995
_cell_angle_gamma 149.741265
_cell_volume 673.139215
_symmetry_space_group_name_H-M "P -1"
_symmetry_group_IT_number 2
_symmetry_cell_setting 'triclinic'
loop_
_space_group_symop_operation_xyz
x,y,z
-x,-y,-z
loop_
_atom_site_type_symbol
_atom_site_label
_atom_site_fract_x
_atom_site_fract_y
_atom_site_fract_z
Si Si1 0.111348 0.958224 0.968246
Si Si2 0.100002 0.544937 0.181088
Si Si3 0.854776 0.695279 0.908020
Si Si4 0.194282 0.161605 0.793849
Si Si5 0.153217 0.409689 0.766791
Si Si6 0.140572 0.826076 0.462264
Si Si7 0.810328 0.258529 0.213165
O O1 0.092265 0.870092 0.912277
O O2 0.064058 0.015262 0.823189
O O3 0.843415 0.837724 0.049270
O O4 0.446305 0.107013 0.102715
O O5 0.471380 0.700373 0.223464
O O6 0.994849 0.575943 0.220068
O O7 0.934895 0.395391 0.253524
O O8 0.000000 0.500000 0.000000
O O9 0.516319 0.578467 0.783518
O O10 0.986360 0.676899 0.879272
O O11 0.833996 0.655046 0.080007
O O12 0.028597 0.164302 0.651758
O O13 0.965749 0.291051 0.624552
O O14 0.108142 0.777880 0.631214
O O15 0.500000 0.000000 0.500000
#
# Coordination Sequence:
#
# PCOD9056772 Si02
#       7
#     2   2   2   2   2   2   2
#     4  11  22  40  73 101 129 179 235 281 330 398
#     4  12  23  42  69 102 134 174 231 282 328 396
#     4  11  22  40  69 103 131 174 238 279 328 404
#     4  11  23  41  70  96 135 179 226 276 340 393
#     4  11  24  41  68 100 138 178 224 284 338 396
#     4  12  26  47  67  99 145 180 217 283 352 403
#     4  12  25  42  72  99 138 181 224 280 343 402
#
# _framework density 20.798075999999998
#
# number of rings (size 3 to 8) (size 9 to 14) (size 15 to 20)
#    0.000    0.571    5.714    2.143    2.000    4.000 
#    0.000    2.857    0.000    0.000    0.000    0.000 
#    0.000    0.000    0.000    0.000    0.000    0.000 
#
# Total GULP energy -78113.736319 kJ/mol
# GULP energy per Si atom -5579.552594 kJ/mol
# Density = 2.075074 g / cm^3
# Si number density = 20.798076 Si / 1000 Ang^3
#
#
#
# Elastic Constant Matrix: (Units=GPa)
#
#
# Indices 1 2 3 4 5 6 
#
# 1 130.1857 55.7946 16.4474 22.8114 26.7929 -8.4015
# 2 55.7946 101.2653 26.2323 7.4810 11.8020 -14.5977
# 3 16.4474 26.2323 61.0013 -5.5070 13.0985 -11.5925
# 4 22.8114 7.4810 -5.5070 32.1377 -9.6289 8.8739
# 5 26.7929 11.8020 13.0985 -9.6289 28.0555 -10.1252
# 6 -8.4015 -14.5977 -11.5925 8.8739 -10.1252 41.3898
#
#
#
# Elastic Compliance Matrix: (Units=1/GPa)
#
#
# Indices 1 2 3 4 5 6 
#
# 1 0.017247 -0.006112 0.000797 -0.016726 -0.019910 0.000284
# 2 -0.006112 0.014541 -0.004633 0.000185 0.003145 0.003320
# 3 0.000797 -0.004633 0.020210 0.001265 -0.007020 0.002200
# 4 -0.016726 0.000185 0.001265 0.054523 0.031506 -0.006958
# 5 -0.019910 0.003145 -0.007020 0.031506 0.069341 0.005310
# 6 0.000284 0.003320 0.002200 -0.006958 0.005310 0.028796
#
#
# Mechanical properties :
#
#
# Convention : Reuss Voigt Hill
#
# Bulk Modulus (GPa) = 31.14994 54.37790 42.76392
# Shear Modulus (GPa) = 21.25364 33.24847 27.25105
#
# Velocity S-wave (km/s) = 3.20019 4.00263 3.62369
# Velocity P-wave (km/s) = 5.35395 6.89665 6.17368
#
# Compressibility (1/GPa) = 0.03210279
#
# Stress axis : x y z
#
# Youngs Moduli (GPa) = 57.98214 68.77038 49.48053
#
# Poissons Ratio (x) = 0.42033 -0.03945
# Poissons Ratio (y) = 0.35439 0.22923
# Poissons Ratio (z) = -0.04623 0.31860
#
# Static dielectric constant tensor:
#      x y z
#    x 1.726240 0.003260 -0.070940 
#    y 0.003260 1.692360 -0.087270 
#    z -0.070940 -0.087270 1.079920 
# 
# From -- ./inp_files/157121.got.cif
#   From: 2010.05.17/outbox.cif.g08.bks.cpg/sg2_79_cif.got.tgz:157121.got - 2010.06.03 11:33:40.
