data_PCOD9056181
_publ_section_title
;
Structure prediction by ZEFSAII (Michael W. Deem and Ramdas Pophale) SiO2 
 PCOD9056181
Probable space group: P -1
;
_chemical_formula_sum "Si O2"
_cell_formula_units_Z 12
_cell_length_a 11.814697
_cell_length_b 10.129168
_cell_length_c 7.196828
_cell_angle_alpha 65.489391
_cell_angle_beta 77.552536
_cell_angle_gamma 54.758410
_cell_volume 639.700420
_symmetry_space_group_name_H-M "P -1"
_symmetry_group_IT_number 2
_symmetry_cell_setting 'triclinic'
loop_
_space_group_symop_operation_xyz
x,y,z
-x,-y,-z
loop_
_atom_site_type_symbol
_atom_site_label
_atom_site_fract_x
_atom_site_fract_y
_atom_site_fract_z
Si Si1 0.162913 0.360983 0.825842
Si Si2 0.451486 0.087755 0.765240
Si Si3 0.134292 0.379248 0.265798
Si Si4 0.961809 0.254996 0.865641
Si Si5 0.673035 0.011286 0.443102
Si Si6 0.929441 0.036910 0.302820
O O1 0.312290 0.277039 0.734638
O O2 0.107470 0.237730 0.864432
O O3 0.029920 0.547369 0.702153
O O4 0.168328 0.364485 0.044227
O O5 0.569000 0.091371 0.607219
O O6 0.586439 0.025488 0.283666
O O7 0.500000 0.000000 0.000000
O O8 0.229017 0.195537 0.431735
O O9 0.140902 0.538496 0.247343
O O10 0.981629 0.133400 0.759451
O O11 0.925663 0.189311 0.100855
O O12 0.775959 0.074842 0.350483
O O13 0.000000 0.000000 0.500000
#
# Coordination Sequence:
#
# PCOD9056181 Si02
#       6
#     2   2   2   2   2   2
#     4   9  17  35  59  85 112 153 184 235 296 329
#     4  11  22  35  57  86 124 149 185 239 291 347
#     4   9  18  35  61  86 114 144 198 242 291 323
#     4   9  20  37  54  84 119 148 179 245 288 328
#     4  11  22  37  59  93 110 151 197 238 281 345
#     4  11  22  34  57  87 120 151 192 232 288 347
#
# _framework density 18.758779000000001
#
# number of rings (size 3 to 8) (size 9 to 14) (size 15 to 20)
#    1.000    1.000    3.333    1.000    0.000    2.667 
#    0.000    0.000    0.000    5.000    4.333    0.000 
#    0.000    0.000    0.000    0.000    0.000    0.000 
#
# Total GULP energy -66902.598883 kJ/mol
# GULP energy per Si atom -5575.216574 kJ/mol
# Density = 1.871608 g / cm^3
# Si number density = 18.758779 Si / 1000 Ang^3
#
#
#
# Elastic Constant Matrix: (Units=GPa)
#
#
# Indices 1 2 3 4 5 6 
#
# 1 65.0646 9.3263 46.9719 1.6776 2.0251 -7.3621
# 2 9.3263 69.0998 32.9903 7.8531 -9.6730 -14.0874
# 3 46.9719 32.9903 124.4598 16.4153 -0.1222 -12.4898
# 4 1.6776 7.8531 16.4153 27.3462 -0.2719 -3.4551
# 5 2.0251 -9.6730 -0.1222 -0.2719 41.5109 10.3976
# 6 -7.3621 -14.0874 -12.4898 -3.4551 10.3976 24.4532
#
#
#
# Elastic Compliance Matrix: (Units=1/GPa)
#
#
# Indices 1 2 3 4 5 6 
#
# 1 0.021918 0.001372 -0.008741 0.004029 -0.001818 0.004267
# 2 0.001372 0.018461 -0.004419 -0.001755 0.002317 0.007558
# 3 -0.008741 -0.004419 0.013431 -0.006114 -0.000905 0.001204
# 4 0.004029 -0.001755 -0.006114 0.040909 -0.001200 0.003369
# 5 -0.001818 0.002317 -0.000905 -0.001200 0.027610 -0.011584
# 6 0.004267 0.007558 0.001204 0.003369 -0.011584 0.052550
#
#
# Mechanical properties :
#
#
# Convention : Reuss Voigt Hill
#
# Bulk Modulus (GPa) = 33.07363 48.57791 40.82577
# Shear Modulus (GPa) = 23.97700 29.95112 26.96406
#
# Velocity S-wave (km/s) = 3.57904 4.00014 3.79543
# Velocity P-wave (km/s) = 5.89480 6.87656 6.40452
#
# Compressibility (1/GPa) = 0.03023556
#
# Stress axis : x y z
#
# Youngs Moduli (GPa) = 45.62366 54.16771 74.45288
#
# Poissons Ratio (x) = -0.07434 0.65079
# Poissons Ratio (y) = -0.06262 0.32902
# Poissons Ratio (z) = 0.39879 0.23938
#
# Static dielectric constant tensor:
#      x y z
#    x 1.664880 -0.011850 0.014910 
#    y -0.011850 1.662030 0.025260 
#    z 0.014910 0.025260 1.674090 
# 
# From -- ./inp_files/300504.got.cif
#   From: 2010.05.17/outbox.cif.g08.bks.cpg/sg2_151_cif.got.tgz:300504.got - 2010.06.03 11:33:40.
