data_PCOD9056115
_publ_section_title
;
Structure prediction by ZEFSAII (Michael W. Deem and Ramdas Pophale) SiO2 
 PCOD9056115
Probable space group: P -1
;
_chemical_formula_sum "Si O2"
_cell_formula_units_Z 14
_cell_length_a 14.478204
_cell_length_b 10.135783
_cell_length_c 14.990403
_cell_angle_alpha 48.738948
_cell_angle_beta 142.981743
_cell_angle_gamma 102.338439
_cell_volume 719.366261
_symmetry_space_group_name_H-M "P -1"
_symmetry_group_IT_number 2
_symmetry_cell_setting 'triclinic'
loop_
_space_group_symop_operation_xyz
x,y,z
-x,-y,-z
loop_
_atom_site_type_symbol
_atom_site_label
_atom_site_fract_x
_atom_site_fract_y
_atom_site_fract_z
Si Si1 0.978840 0.293620 0.195190
Si Si2 0.540048 0.786269 0.574725
Si Si3 0.401485 0.559531 0.674380
Si Si4 0.573386 0.069525 0.946692
Si Si5 0.728331 0.465301 0.100438
Si Si6 0.961078 0.160461 0.593295
Si Si7 0.460750 0.027859 0.682807
O O1 0.916546 0.353260 0.225182
O O2 0.212593 0.181227 0.409843
O O3 0.788036 0.541612 0.886721
O O4 0.976765 0.092353 0.254809
O O5 0.414374 0.727579 0.551627
O O6 0.481462 0.868686 0.390667
O O7 0.500000 0.000000 0.500000
O O8 0.471463 0.339525 0.768109
O O9 0.178559 0.705437 0.485715
O O10 0.573388 0.453984 0.933611
O O11 0.502158 0.053023 0.803966
O O12 0.500000 0.000000 0.000000
O O13 0.827168 0.892170 0.221000
O O14 0.819438 0.318581 0.327379
O O15 0.594896 0.746798 0.890073
#
# Coordination Sequence:
#
# PCOD9056115 Si02
#       7
#     2   2   2   2   2   2   2
#     4  11  22  40  72 101 127 176 226 277 332 392
#     4  11  21  46  71 100 134 166 237 282 314 399
#     4  11  24  43  66  98 135 177 223 281 322 399
#     4  12  28  45  63 102 145 173 218 281 341 402
#     4  11  22  39  70 101 130 172 232 278 316 402
#     4  12  23  42  71  98 133 181 225 270 347 387
#     4  12  25  42  70 102 135 180 218 277 341 385
#
# _framework density 19.461573000000001
#
# number of rings (size 3 to 8) (size 9 to 14) (size 15 to 20)
#    0.000    0.571    7.143    3.000    2.000    4.000 
#    0.000    0.714    0.000    0.000    0.000    0.000 
#    0.000    0.000    0.000    0.000    0.000    0.000 
#
# Total GULP energy -78311.958252 kJ/mol
# GULP energy per Si atom -5593.711304 kJ/mol
# Density = 1.941728 g / cm^3
# Si number density = 19.461573 Si / 1000 Ang^3
#
#
#
# Elastic Constant Matrix: (Units=GPa)
#
#
# Indices 1 2 3 4 5 6 
#
# 1 81.8243 -7.6017 7.4025 13.9860 17.1185 3.4793
# 2 -7.6017 37.1833 -7.9843 -0.6293 5.9554 -2.1811
# 3 7.4025 -7.9843 53.5125 -4.6348 7.8728 4.3527
# 4 13.9860 -0.6293 -4.6348 33.9940 -5.3759 2.4574
# 5 17.1185 5.9554 7.8728 -5.3759 41.0022 1.8643
# 6 3.4793 -2.1811 4.3527 2.4574 1.8643 32.7778
#
#
#
# Elastic Compliance Matrix: (Units=1/GPa)
#
#
# Indices 1 2 3 4 5 6 
#
# 1 0.015701 0.004117 -0.001041 -0.007769 -0.007962 -0.000219
# 2 0.004117 0.029966 0.004699 -0.001755 -0.007271 0.001478
# 3 -0.001041 0.004699 0.020515 0.002894 -0.003703 -0.002307
# 4 -0.007769 -0.001755 0.002894 0.034366 0.007571 -0.002683
# 5 -0.007962 -0.007271 -0.003703 0.007571 0.030539 -0.001452
# 6 -0.000219 0.001478 -0.002307 -0.002683 -0.001452 0.031220
#
#
# Mechanical properties :
#
#
# Convention : Reuss Voigt Hill
#
# Bulk Modulus (GPa) = 12.23512 17.35035 14.79273
# Shear Modulus (GPa) = 28.73527 33.60171 31.16849
#
# Velocity S-wave (km/s) = 3.84671 4.15971 4.00627
# Velocity P-wave (km/s) = 5.10196 5.65733 5.38681
#
# Compressibility (1/GPa) = 0.08173194
#
# Stress axis : x y z
#
# Youngs Moduli (GPa) = 63.69049 33.37107 48.74379
#
# Poissons Ratio (x) = -0.13739 0.05076
# Poissons Ratio (y) = -0.26222 -0.22905
# Poissons Ratio (z) = 0.06633 -0.15681
#
# Static dielectric constant tensor:
#      x y z
#    x 1.703860 0.006840 0.012110 
#    y 0.006840 1.649890 -0.006820 
#    z 0.012110 -0.006820 1.666060 
# 
# From -- ./inp_files/177256.got.cif
#   From: 2010.05.17/outbox.cif.g08.bks.cpg/sg2_89_cif.got.tgz:177256.got - 2010.06.03 11:33:40.
