data_PCOD9056474
_publ_section_title
;
Structure prediction by ZEFSAII (Michael W. Deem and Ramdas Pophale) SiO2 
 PCOD9056474
Probable space group: P -1
;
_chemical_formula_sum "Si O2"
_cell_formula_units_Z 12
_cell_length_a 9.586369
_cell_length_b 10.125698
_cell_length_c 9.599094
_cell_angle_alpha 87.181473
_cell_angle_beta 62.281225
_cell_angle_gamma 43.570683
_cell_volume 501.290030
_symmetry_space_group_name_H-M "P -1"
_symmetry_group_IT_number 2
_symmetry_cell_setting 'triclinic'
loop_
_space_group_symop_operation_xyz
x,y,z
-x,-y,-z
loop_
_atom_site_type_symbol
_atom_site_label
_atom_site_fract_x
_atom_site_fract_y
_atom_site_fract_z
Si Si1 0.233641 0.948706 0.889920
Si Si2 0.311788 0.521651 0.160359
Si Si3 0.207501 0.151603 0.134817
Si Si4 0.933000 0.586254 0.183446
Si Si5 0.532442 0.248060 0.500422
Si Si6 0.834854 0.275450 0.490012
O O1 0.487452 0.721810 0.861879
O O2 0.319837 0.909440 0.693086
O O3 0.144944 0.132040 0.013438
O O4 0.000000 0.000000 0.000000
O O5 0.173809 0.681739 0.347329
O O6 0.094207 0.605217 0.157085
O O7 0.500000 0.500000 0.000000
O O8 0.061251 0.383564 0.224945
O O9 0.110074 0.111148 0.294841
O O10 0.500000 0.000000 0.000000
O O11 0.631716 0.757841 0.346861
O O12 0.000000 0.500000 0.000000
O O13 0.719282 0.208140 0.515894
O O14 0.351986 0.488460 0.508932
#
# Coordination Sequence:
#
# PCOD9056474 Si02
#       6
#     2   2   2   2   2   2
#     4  11  22  39  65  91 117 155 197 245 295 347
#     4  11  24  40  61  87 120 159 199 240 296 355
#     4  11  22  39  63  91 119 151 201 248 292 344
#     4  11  24  40  61  86 121 160 197 243 293 353
#     4   9  19  36  60  86 116 156 199 233 290 359
#     4   9  19  36  60  85 117 157 195 238 290 356
#
# _framework density 23.93824
#
# number of rings (size 3 to 8) (size 9 to 14) (size 15 to 20)
#    0.000    1.667    3.333    1.000    7.000    2.000 
#    0.000    3.333    0.000    0.000    0.000    0.000 
#    0.000    0.000    0.000    0.000    0.000    0.000 
#
# Total GULP energy -67085.265900 kJ/mol
# GULP energy per Si atom -5590.438825 kJ/mol
# Density = 2.388376 g / cm^3
# Si number density = 23.938240 Si / 1000 Ang^3
#
#
#
# Elastic Constant Matrix: (Units=GPa)
#
#
# Indices 1 2 3 4 5 6 
#
# 1 247.8383 14.7024 122.6384 -15.2559 -15.3539 -12.2367
# 2 14.7024 56.6040 -4.6004 5.0162 1.8685 2.2136
# 3 122.6384 -4.6004 215.8297 -11.7019 -15.1486 -11.7220
# 4 -15.2559 5.0162 -11.7019 25.7702 -5.8765 4.9758
# 5 -15.3539 1.8685 -15.1486 -5.8765 43.4292 2.7459
# 6 -12.2367 2.2136 -11.7220 4.9758 2.7459 26.9592
#
#
#
# Elastic Compliance Matrix: (Units=1/GPa)
#
#
# Indices 1 2 3 4 5 6 
#
# 1 0.006034 -0.002147 -0.003180 0.002700 0.001426 0.000889
# 2 -0.002147 0.018823 0.001199 -0.004592 -0.001710 -0.000977
# 3 -0.003180 0.001199 0.006661 0.000983 0.001214 0.001049
# 4 0.002700 -0.004592 0.000983 0.044940 0.008024 -0.007082
# 5 0.001426 -0.001710 0.001214 0.008024 0.025286 -0.002741
# 6 0.000889 -0.000977 0.001049 -0.007082 -0.002741 0.039619
#
#
# Mechanical properties :
#
#
# Convention : Reuss Voigt Hill
#
# Bulk Modulus (GPa) = 42.98583 87.30586 65.14585
# Shear Modulus (GPa) = 31.77153 45.06715 38.41934
#
# Velocity S-wave (km/s) = 3.64707 4.34365 4.01051
# Velocity P-wave (km/s) = 5.97752 7.85537 6.97989
#
# Compressibility (1/GPa) = 0.02326348
#
# Stress axis : x y z
#
# Youngs Moduli (GPa) = 165.72618 53.12587 150.12420
#
# Poissons Ratio (x) = 0.11405 0.47735
# Poissons Ratio (y) = 0.35578 -0.18000
# Poissons Ratio (z) = 0.52696 -0.06370
#
# Static dielectric constant tensor:
#      x y z
#    x 7.199300 7.180400 -2.608800 
#    y 7.180400 11.744430 -3.461980 
#    z -2.608800 -3.461980 3.135780 
# 
# From -- ./inp_files/144981.got.cif
#   From: 2010.05.17/outbox.cif.g08.bks.cpg/sg2_73_cif.got.tgz:144981.got - 2010.06.03 11:33:40.
