data_PCOD9056796
_publ_section_title
;
Structure prediction by ZEFSAII (Michael W. Deem and Ramdas Pophale) SiO2 
 PCOD9056796
Probable space group: P -1
;
_chemical_formula_sum "Si O2"
_cell_formula_units_Z 12
_cell_length_a 4.883458
_cell_length_b 12.476074
_cell_length_c 14.278817
_cell_angle_alpha 149.986276
_cell_angle_beta 79.994949
_cell_angle_gamma 110.981157
_cell_volume 388.616589
_symmetry_space_group_name_H-M "P -1"
_symmetry_group_IT_number 2
_symmetry_cell_setting 'triclinic'
loop_
_space_group_symop_operation_xyz
x,y,z
-x,-y,-z
loop_
_atom_site_type_symbol
_atom_site_label
_atom_site_fract_x
_atom_site_fract_y
_atom_site_fract_z
Si Si1 0.319411 0.246652 0.066889
Si Si2 0.260475 0.675668 0.092119
Si Si3 0.247140 0.358878 0.571344
Si Si4 0.320763 0.980930 0.180795
Si Si5 0.099145 0.706484 0.727025
Si Si6 0.111618 0.102826 0.673279
O O1 0.502351 0.538903 0.285311
O O2 0.171423 0.235215 0.173787
O O3 0.574261 0.245007 0.965308
O O4 0.003943 0.149610 0.951481
O O5 0.534555 0.746355 0.201913
O O6 0.924284 0.613804 0.129417
O O7 0.191336 0.916152 0.253840
O O8 0.366759 0.252803 0.397921
O O9 0.211319 0.593594 0.719329
O O10 0.926387 0.155843 0.467628
O O11 0.635098 0.042754 0.138199
O O12 0.000000 0.500000 0.500000
O O13 0.000000 0.000000 0.500000
#
# Coordination Sequence:
#
# PCOD9056796 Si02
#       6
#     2   2   2   2   2   2
#     4   9  21  41  61 102 146 189 249 289 380 445
#     4  11  25  51  75 110 147 198 258 319 388 458
#     4  11  22  40  69  99 150 191 248 310 376 451
#     4   9  22  42  65 108 141 191 254 304 378 452
#     4   9  20  42  62 104 146 193 245 301 372 459
#     4  11  27  48  75 111 147 197 262 317 388 455
#
# _framework density 30.878764
#
# number of rings (size 3 to 8) (size 9 to 14) (size 15 to 20)
#    1.000    1.000    0.000    2.000    7.000    0.667 
#   12.000    0.000    0.000    0.000    0.000    0.000 
#    0.000    0.000    0.000    0.000    0.000    0.000 
#
# Total GULP energy -67082.171530 kJ/mol
# GULP energy per Si atom -5590.180961 kJ/mol
# Density = 3.080848 g / cm^3
# Si number density = 30.878764 Si / 1000 Ang^3
#
#
#
# Elastic Constant Matrix: (Units=GPa)
#
#
# Indices 1 2 3 4 5 6 
#
# 1 273.1993 82.4614 139.2573 1.6415 -4.4694 24.4999
# 2 82.4614 228.0538 48.4243 31.2125 -7.1521 34.0378
# 3 139.2573 48.4243 311.3228 -8.9776 -0.6077 21.8184
# 4 1.6415 31.2125 -8.9776 66.1465 9.7909 7.2497
# 5 -4.4694 -7.1521 -0.6077 9.7909 75.5523 11.8006
# 6 24.4999 34.0378 21.8184 7.2497 11.8006 63.2516
#
#
#
# Elastic Compliance Matrix: (Units=1/GPa)
#
#
# Indices 1 2 3 4 5 6 
#
# 1 0.005179 -0.001374 -0.002050 0.000278 0.000223 -0.000633
# 2 -0.001374 0.005661 -0.000171 -0.002571 0.001158 -0.002376
# 3 -0.002050 -0.000171 0.004223 0.000791 -0.000106 -0.000641
# 4 0.000278 -0.002571 0.000791 0.016830 -0.002325 -0.000492
# 5 0.000223 0.001158 -0.000106 -0.002325 0.014134 -0.003043
# 6 -0.000633 -0.002376 -0.000641 -0.000492 -0.003043 0.018179
#
#
# Mechanical properties :
#
#
# Convention : Reuss Voigt Hill
#
# Bulk Modulus (GPa) = 127.02282 150.31800 138.67041
# Shear Modulus (GPa) = 67.54862 77.15228 72.35045
#
# Velocity S-wave (km/s) = 4.68219 5.00398 4.84576
# Velocity P-wave (km/s) = 8.39380 9.06488 8.73579
#
# Compressibility (1/GPa) = 0.00787260
#
# Stress axis : x y z
#
# Youngs Moduli (GPa) = 193.10020 176.64759 236.78331
#
# Poissons Ratio (x) = 0.24269 0.48540
# Poissons Ratio (y) = 0.26529 0.04057
# Poissons Ratio (z) = 0.39585 0.03027
#
# Static dielectric constant tensor:
#      x y z
#    x 2.504300 -0.065620 -0.122340 
#    y -0.065620 2.592910 0.003020 
#    z -0.122340 0.003020 2.449200 
# 
# From -- ./inp_files/484613.got.cif
#   From: 2010.05.17/outbox.cif.g08.bks.cpg/sg2_243_cif.got.tgz:484613.got - 2010.06.03 11:33:40.
