data_PCOD9056982
_publ_section_title
;
Structure prediction by ZEFSAII (Michael W. Deem and Ramdas Pophale) SiO2 
 PCOD9056982
Probable space group: P -1
;
_chemical_formula_sum "Si O2"
_cell_formula_units_Z 16
_cell_length_a 10.588102
_cell_length_b 14.319510
_cell_length_c 10.624028
_cell_angle_alpha 29.875576
_cell_angle_beta 72.036438
_cell_angle_gamma 54.617912
_cell_volume 574.997133
_symmetry_space_group_name_H-M "P -1"
_symmetry_group_IT_number 2
_symmetry_cell_setting 'triclinic'
loop_
_space_group_symop_operation_xyz
x,y,z
-x,-y,-z
loop_
_atom_site_type_symbol
_atom_site_label
_atom_site_fract_x
_atom_site_fract_y
_atom_site_fract_z
Si Si1 0.682053 0.729076 0.013826
Si Si2 0.135016 0.062327 0.458417
Si Si3 0.255560 0.725949 0.056099
Si Si4 0.962948 0.750763 0.252405
Si Si5 0.072018 0.379411 0.326507
Si Si6 0.268791 0.622888 0.790943
Si Si7 0.584338 0.223679 0.831055
Si Si8 0.582713 0.716866 0.629474
O O1 0.874655 0.642066 0.065637
O O2 0.711444 0.501186 0.202378
O O3 0.571471 0.783687 0.109384
O O4 0.556019 0.987833 0.676298
O O5 0.147680 0.236285 0.337535
O O6 0.932001 0.249251 0.261186
O O7 0.254796 0.857486 0.551871
O O8 0.168863 0.880071 0.774588
O O9 0.349693 0.802248 0.015449
O O10 0.410445 0.439354 0.302645
O O11 0.111596 0.750786 0.154348
O O12 0.000000 0.500000 0.500000
O O13 0.967011 0.743561 0.412159
O O14 0.768086 0.992066 0.982252
O O15 0.223580 0.368420 0.346966
O O16 0.406991 0.398222 0.105570
O O17 0.500000 0.500000 0.500000
#
# Coordination Sequence:
#
# PCOD9056982 Si02
#       8
#     2   2   2   2   2   2   2   2
#     4  11  23  42  65  96 133 172 219 268 329 390
#     4   9  19  38  62  93 123 167 218 268 314 389
#     4  11  22  41  68  91 130 173 217 267 328 392
#     4  12  23  42  68  96 128 176 215 266 333 395
#     4  11  22  41  67  92 133 172 216 268 330 389
#     4   9  21  38  65  94 128 169 219 271 325 382
#     4  12  26  42  65 101 136 169 221 279 327 393
#     4  11  22  44  63  97 133 171 219 271 326 386
#
# _framework density 27.826225999999998
#
# number of rings (size 3 to 8) (size 9 to 14) (size 15 to 20)
#    0.000    1.250    3.750    1.500    3.500    3.000 
#    0.000   10.625    0.000    0.000    0.000    0.000 
#    0.000    0.000    0.000    0.000    0.000    0.000 
#
# Total GULP energy -89593.917974 kJ/mol
# GULP energy per Si atom -5599.619873 kJ/mol
# Density = 2.776289 g / cm^3
# Si number density = 27.826226 Si / 1000 Ang^3
#
#
#
# Elastic Constant Matrix: (Units=GPa)
#
#
# Indices 1 2 3 4 5 6 
#
# 1 85.0333 30.4911 18.2934 -15.5848 -1.9861 -23.4400
# 2 30.4911 97.2123 23.2865 -31.1895 6.5052 -21.1338
# 3 18.2934 23.2865 162.9244 -37.2723 21.8583 -14.8676
# 4 -15.5848 -31.1895 -37.2723 48.7201 -5.0732 2.1695
# 5 -1.9861 6.5052 21.8583 -5.0732 49.2905 -11.1945
# 6 -23.4400 -21.1338 -14.8676 2.1695 -11.1945 62.5549
#
#
#
# Elastic Compliance Matrix: (Units=1/GPa)
#
#
# Indices 1 2 3 4 5 6 
#
# 1 0.014739 -0.002797 -0.000582 0.002533 0.002575 0.004813
# 2 -0.002797 0.014649 0.000633 0.008743 -0.000600 0.003641
# 3 -0.000582 0.000633 0.007955 0.005966 -0.002751 0.001187
# 4 0.002533 0.008743 0.005966 0.031357 0.000512 0.004325
# 5 0.002575 -0.000600 -0.002751 0.000512 0.022686 0.004150
# 6 0.004813 0.003641 0.001187 0.004325 0.004150 0.019894
#
#
# Mechanical properties :
#
#
# Convention : Reuss Voigt Hill
#
# Bulk Modulus (GPa) = 31.39559 54.36800 42.88179
# Shear Modulus (GPa) = 39.24957 50.31970 44.78464
#
# Velocity S-wave (km/s) = 3.75977 4.25709 4.01613
# Velocity P-wave (km/s) = 5.49136 6.61397 6.07864
#
# Compressibility (1/GPa) = 0.03185161
#
# Stress axis : x y z
#
# Youngs Moduli (GPa) = 67.84609 68.26302 125.70980
#
# Poissons Ratio (x) = 0.19093 0.07316
# Poissons Ratio (y) = 0.18977 -0.07960
# Poissons Ratio (z) = 0.03949 -0.04322
#
# Static dielectric constant tensor:
#      x y z
#    x 2.263510 -0.010870 -0.036020 
#    y -0.010870 2.222150 -0.009890 
#    z -0.036020 -0.009890 2.265260 
# 
# From -- ./inp_files/433669.got.cif
#   From: 2010.05.17/outbox.cif.g08.bks.cpg/sg2_217_cif.got.tgz:433669.got - 2010.06.03 11:33:40.
