data_PCOD9056531
_publ_section_title
;
Structure prediction by ZEFSAII (Michael W. Deem and Ramdas Pophale) SiO2 
 PCOD9056531
Probable space group: P -1
;
_chemical_formula_sum "Si O2"
_cell_formula_units_Z 16
_cell_length_a 18.062266
_cell_length_b 8.241547
_cell_length_c 12.576121
_cell_angle_alpha 102.993268
_cell_angle_beta 33.041833
_cell_angle_gamma 77.749511
_cell_volume 653.200618
_symmetry_space_group_name_H-M "P -1"
_symmetry_group_IT_number 2
_symmetry_cell_setting 'triclinic'
loop_
_space_group_symop_operation_xyz
x,y,z
-x,-y,-z
loop_
_atom_site_type_symbol
_atom_site_label
_atom_site_fract_x
_atom_site_fract_y
_atom_site_fract_z
Si Si1 0.880800 0.414284 0.166007
Si Si2 0.738502 0.963571 0.761971
Si Si3 0.253870 0.390028 0.407556
Si Si4 0.218270 0.941145 0.060209
Si Si5 0.324236 0.939121 0.502728
Si Si6 0.194463 0.813663 0.458281
Si Si7 0.522127 0.040948 0.359678
Si Si8 0.398064 0.606551 0.523266
O O1 0.864489 0.475136 0.318517
O O2 0.686883 0.664363 0.370840
O O3 0.822810 0.273781 0.206053
O O4 0.102741 0.235649 0.820371
O O5 0.747391 0.121619 0.701424
O O6 0.814655 0.722170 0.578923
O O7 0.497912 0.148531 0.103618
O O8 0.855804 0.902115 0.719956
O O9 0.240350 0.572843 0.380285
O O10 0.284445 0.022238 0.909543
O O11 0.428803 0.648470 0.792693
O O12 0.054690 0.964640 0.212764
O O13 0.505136 0.906914 0.273609
O O14 0.298656 0.817985 0.430122
O O15 0.368572 0.814618 0.543880
O O16 0.500000 0.000000 0.500000
O O17 0.500000 0.500000 0.500000
#
# Coordination Sequence:
#
# PCOD9056531 Si02
#       8
#     2   2   2   2   2   2   2   2
#     4  11  22  43  66 102 143 185 234 300 355 433
#     4  11  24  49  73 101 145 192 245 305 362 427
#     4  11  24  44  77 103 143 188 248 306 359 427
#     4  11  25  49  67 102 154 182 240 304 366 431
#     4  12  24  41  71 107 140 187 244 286 366 443
#     4  12  26  44  77 110 138 196 246 296 365 439
#     4  11  25  43  67 103 147 192 231 296 369 435
#     4  11  22  39  67 100 139 189 225 291 366 429
#
# _framework density 24.494771
#
# number of rings (size 3 to 8) (size 9 to 14) (size 15 to 20)
#    0.000    0.750    3.750    4.500    5.250    0.500 
#    2.250    0.000    0.000    0.000    0.000    0.000 
#    0.000    0.000    0.000    0.000    0.000    0.000 
#
# Total GULP energy -89420.040296 kJ/mol
# GULP energy per Si atom -5588.752518 kJ/mol
# Density = 2.443902 g / cm^3
# Si number density = 24.494771 Si / 1000 Ang^3
#
#
#
# Elastic Constant Matrix: (Units=GPa)
#
#
# Indices 1 2 3 4 5 6 
#
# 1 133.8491 47.8853 24.1357 -8.5274 13.7376 9.9671
# 2 47.8853 131.4708 4.9037 -16.4066 12.1651 -16.0923
# 3 24.1357 4.9037 32.0352 -15.5242 -4.8704 -3.3715
# 4 -8.5274 -16.4066 -15.5242 37.7424 6.8940 -7.1997
# 5 13.7376 12.1651 -4.8704 6.8940 35.3543 -5.2511
# 6 9.9671 -16.0923 -3.3715 -7.1997 -5.2511 42.9628
#
#
#
# Elastic Compliance Matrix: (Units=1/GPa)
#
#
# Indices 1 2 3 4 5 6 
#
# 1 0.012189 -0.005026 -0.012295 -0.004967 -0.004786 -0.007093
# 2 -0.005026 0.011196 0.006460 0.008007 -0.001528 0.007022
# 3 -0.012295 0.006460 0.053464 0.023382 0.007485 0.014301
# 4 -0.004967 0.008007 0.023382 0.041556 -0.003854 0.012479
# 5 -0.004786 -0.001528 0.007485 -0.003854 0.033126 0.004528
# 6 -0.007093 0.007022 0.014301 0.012479 0.004528 0.031318
#
#
# Mechanical properties :
#
#
# Convention : Reuss Voigt Hill
#
# Bulk Modulus (GPa) = 18.14026 50.13384 34.13705
# Shear Modulus (GPa) = 22.42688 37.90726 30.16707
#
# Velocity S-wave (km/s) = 3.02913 3.93818 3.51318
# Velocity P-wave (km/s) = 4.43351 6.41799 5.51573
#
# Compressibility (1/GPa) = 0.05512601
#
# Stress axis : x y z
#
# Youngs Moduli (GPa) = 82.03998 89.31735 18.70425
#
# Poissons Ratio (x) = 0.44893 0.22997
# Poissons Ratio (y) = 0.41235 -0.12083
# Poissons Ratio (z) = 1.00869 -0.57697
#
# Static dielectric constant tensor:
#      x y z
#    x 1.996580 0.064640 0.032210 
#    y 0.064640 2.045960 -0.014920 
#    z 0.032210 -0.014920 1.992470 
# 
# From -- ./inp_files/461349.got.cif
#   From: 2010.05.17/outbox.cif.g08.bks.cpg/sg2_231_cif.got.tgz:461349.got - 2010.06.03 11:33:40.
