data_PCOD9056586
_publ_section_title
;
Structure prediction by ZEFSAII (Michael W. Deem and Ramdas Pophale) SiO2 
 PCOD9056586
Probable space group: P -1
;
_chemical_formula_sum "Si O2"
_cell_formula_units_Z 16
_cell_length_a 11.475198
_cell_length_b 9.070954
_cell_length_c 26.539663
_cell_angle_alpha 152.418379
_cell_angle_beta 147.713316
_cell_angle_gamma 43.217047
_cell_volume 680.871186
_symmetry_space_group_name_H-M "P -1"
_symmetry_group_IT_number 2
_symmetry_cell_setting 'triclinic'
loop_
_space_group_symop_operation_xyz
x,y,z
-x,-y,-z
loop_
_atom_site_type_symbol
_atom_site_label
_atom_site_fract_x
_atom_site_fract_y
_atom_site_fract_z
Si Si1 0.303528 0.168608 0.789743
Si Si2 0.502472 0.795915 0.553790
Si Si3 0.644728 0.710724 0.472598
Si Si4 0.055640 0.793020 0.879396
Si Si5 0.064749 0.844892 0.152177
Si Si6 0.681445 0.824930 0.828659
Si Si7 0.891591 0.130648 0.276742
Si Si8 0.066390 0.132050 0.508490
O O1 0.214603 0.511442 0.853394
O O2 0.555740 0.127132 0.855782
O O3 0.276840 0.066951 0.807967
O O4 0.145859 0.942920 0.627192
O O5 0.500000 0.500000 0.500000
O O6 0.607028 0.644273 0.497249
O O7 0.675948 0.083186 0.722016
O O8 0.267088 0.932382 0.503168
O O9 0.520715 0.431098 0.311210
O O10 0.898092 0.808883 0.590598
O O11 0.500000 0.000000 0.500000
O O12 0.836343 0.703776 0.805015
O O13 0.000378 0.897854 0.835144
O O14 0.173138 0.087078 0.043121
O O15 0.951541 0.918742 0.186445
O O16 0.000000 0.500000 0.000000
O O17 0.858511 0.488611 0.353086
O O18 0.000000 0.000000 0.500000
#
# Coordination Sequence:
#
# PCOD9056586 Si02
#       8
#     2   2   2   2   2   2   2   2
#     4  12  25  46  72 107 146 179 241 296 357 430
#     4  11  24  43  69 102 135 187 238 291 357 421
#     4  11  22  39  69  98 132 176 233 291 349 413
#     4  11  26  47  69 100 141 193 240 285 354 434
#     4  11  27  48  72 100 147 189 242 295 360 436
#     4  11  25  42  75 100 138 188 240 289 358 423
#     4  11  25  44  68 109 139 179 233 298 363 418
#     4  12  24  41  70 106 146 182 232 303 361 424
#
# _framework density 23.499307000000002
#
# number of rings (size 3 to 8) (size 9 to 14) (size 15 to 20)
#    0.000    0.750    1.250    6.750   10.500    0.000 
#    0.000    1.250    0.000    0.000    0.000    0.000 
#    0.000    0.000    0.000    0.000    0.000    0.000 
#
# Total GULP energy -89523.175691 kJ/mol
# GULP energy per Si atom -5595.198481 kJ/mol
# Density = 2.344582 g / cm^3
# Si number density = 23.499307 Si / 1000 Ang^3
#
#
#
# Elastic Constant Matrix: (Units=GPa)
#
#
# Indices 1 2 3 4 5 6 
#
# 1 70.3656 11.0900 3.0404 -3.4131 -15.0394 7.6220
# 2 11.0900 95.0673 -8.2184 1.0022 -2.1263 -10.2329
# 3 3.0404 -8.2184 103.5417 -1.9838 -15.3234 -5.5992
# 4 -3.4131 1.0022 -1.9838 41.1431 -5.0086 0.4882
# 5 -15.0394 -2.1263 -15.3234 -5.0086 22.4123 -4.7204
# 6 7.6220 -10.2329 -5.5992 0.4882 -4.7204 46.9137
#
#
#
# Elastic Compliance Matrix: (Units=1/GPa)
#
#
# Indices 1 2 3 4 5 6 
#
# 1 0.017525 -0.001895 0.001170 0.003123 0.012683 -0.001877
# 2 -0.001895 0.011209 0.001291 -0.000251 0.001258 0.003036
# 3 0.001170 0.001291 0.011297 0.001741 0.009522 0.002380
# 4 0.003123 -0.000251 0.001741 0.025756 0.009079 0.000291
# 5 0.012683 0.001258 0.009522 0.009079 0.062965 0.005591
# 6 -0.001877 0.003036 0.002380 0.000291 0.005591 0.023127
#
#
# Mechanical properties :
#
#
# Convention : Reuss Voigt Hill
#
# Bulk Modulus (GPa) = 24.29268 31.19982 27.74625
# Shear Modulus (GPa) = 30.40113 39.63132 35.01623
#
# Velocity S-wave (km/s) = 3.60071 4.11114 3.86436
# Velocity P-wave (km/s) = 5.25803 5.98674 5.63418
#
# Compressibility (1/GPa) = 0.04116467
#
# Stress axis : x y z
#
# Youngs Moduli (GPa) = 57.06133 89.21372 88.51676
#
# Poissons Ratio (x) = 0.16902 -0.10359
# Poissons Ratio (y) = 0.10810 -0.11427
# Poissons Ratio (z) = -0.06678 -0.11517
#
# Static dielectric constant tensor:
#      x y z
#    x 1.797520 -0.039000 0.022320 
#    y -0.039000 2.103130 0.080680 
#    z 0.022320 0.080680 1.946670 
# 
# From -- ./inp_files/198395.got.cif
#   From: 2010.05.17/outbox.cif.g08.bks.cpg/sg2_100_cif.got.tgz:198395.got - 2010.06.03 11:33:40.
