data_PCOD9056853
_publ_section_title
;
Structure prediction by ZEFSAII (Michael W. Deem and Ramdas Pophale) SiO2 
 PCOD9056853
Probable space group: P -1
;
_chemical_formula_sum "Si O2"
_cell_formula_units_Z 12
_cell_length_a 9.757327
_cell_length_b 9.235166
_cell_length_c 14.398916
_cell_angle_alpha 149.447660
_cell_angle_beta 120.954947
_cell_angle_gamma 57.046194
_cell_volume 550.216947
_symmetry_space_group_name_H-M "P -1"
_symmetry_group_IT_number 2
_symmetry_cell_setting 'triclinic'
loop_
_space_group_symop_operation_xyz
x,y,z
-x,-y,-z
loop_
_atom_site_type_symbol
_atom_site_label
_atom_site_fract_x
_atom_site_fract_y
_atom_site_fract_z
Si Si1 0.030445 0.492979 0.398908
Si Si2 0.215113 0.253951 0.698499
Si Si3 0.498624 0.851559 0.018228
Si Si4 0.203015 0.880979 0.082803
Si Si5 0.329365 0.745871 0.583921
Si Si6 0.559066 0.195323 0.707285
O O1 0.199620 0.588790 0.496117
O O2 0.000000 0.500000 0.500000
O O3 0.883748 0.705096 0.409438
O O4 0.054744 0.165879 0.186692
O O5 0.403955 0.262529 0.758463
O O6 0.230768 0.930121 0.565434
O O7 0.151141 0.569339 0.900414
O O8 0.329881 0.891461 0.045077
O O9 0.622381 0.995718 0.198905
O O10 0.567634 0.505344 0.838735
O O11 0.500000 0.000000 0.000000
O O12 0.293312 0.920595 0.234358
O O13 0.500000 0.500000 0.500000
O O14 0.500000 0.000000 0.500000
#
# Coordination Sequence:
#
# PCOD9056853 Si02
#       6
#     2   2   2   2   2   2
#     4  12  27  43  69 103 140 179 226 283 353 405
#     4  11  23  44  67  96 138 183 223 283 347 399
#     4  11  24  39  69 106 131 172 238 283 330 397
#     4  11  22  47  68  97 139 181 227 284 337 414
#     4  12  24  47  71  97 138 182 233 280 334 410
#     4  11  22  40  72  99 133 178 232 280 339 408
#
# _framework density 21.80958
#
# number of rings (size 3 to 8) (size 9 to 14) (size 15 to 20)
#    0.000    0.667    5.000    3.000    9.333    0.000 
#    0.000    0.833    0.000    0.000    0.000    0.000 
#    0.000    0.000    0.000    0.000    0.000    0.000 
#
# Total GULP energy -66910.394020 kJ/mol
# GULP energy per Si atom -5575.866168 kJ/mol
# Density = 2.175994 g / cm^3
# Si number density = 21.809580 Si / 1000 Ang^3
#
#
#
# Elastic Constant Matrix: (Units=GPa)
#
#
# Indices 1 2 3 4 5 6 
#
# 1 54.5910 47.7958 9.7794 15.4795 8.2765 11.6940
# 2 47.7958 186.5753 46.7879 12.0594 -15.4290 17.2980
# 3 9.7794 46.7879 125.2812 16.5876 -1.6362 15.0167
# 4 15.4795 12.0594 16.5876 45.2172 2.9772 5.9995
# 5 8.2765 -15.4290 -1.6362 2.9772 26.9520 1.4875
# 6 11.6940 17.2980 15.0167 5.9995 1.4875 35.5411
#
#
#
# Elastic Compliance Matrix: (Units=1/GPa)
#
#
# Indices 1 2 3 4 5 6 
#
# 1 0.030537 -0.008504 0.002216 -0.007474 -0.013007 -0.005039
# 2 -0.008504 0.008807 -0.002570 0.001137 0.007421 -0.000905
# 3 0.002216 -0.002570 0.009517 -0.003105 -0.001069 -0.002930
# 4 -0.007474 0.001137 -0.003105 0.025659 -0.000016 -0.001113
# 5 -0.013007 0.007421 -0.001069 -0.000016 0.045325 -0.000775
# 6 -0.005039 -0.000905 -0.002930 -0.001113 -0.000775 0.031693
#
#
# Mechanical properties :
#
#
# Convention : Reuss Voigt Hill
#
# Bulk Modulus (GPa) = 32.10831 63.90821 48.00826
# Shear Modulus (GPa) = 27.83390 39.01434 33.42412
#
# Velocity S-wave (km/s) = 3.57630 4.23408 3.91902
# Velocity P-wave (km/s) = 5.63980 7.29861 6.52216
#
# Compressibility (1/GPa) = 0.03114459
#
# Stress axis : x y z
#
# Youngs Moduli (GPa) = 32.74707 113.54650 105.07020
#
# Poissons Ratio (x) = 0.96559 -0.23282
# Poissons Ratio (y) = 0.27848 0.27007
# Poissons Ratio (z) = -0.07256 0.29186
#
# Static dielectric constant tensor:
#      x y z
#    x 1.802120 0.043610 -0.032490 
#    y 0.043610 1.927120 0.088990 
#    z -0.032490 0.088990 1.895960 
# 
# From -- ./inp_files/146388.got.cif
#   From: 2010.05.17/outbox.cif.g08.bks.cpg/sg2_74_cif.got.tgz:146388.got - 2010.06.03 11:33:40.
