data_PCOD9056463
_publ_section_title
;
Structure prediction by ZEFSAII (Michael W. Deem and Ramdas Pophale) SiO2 
 PCOD9056463
Probable space group: P -1
;
_chemical_formula_sum "Si O2"
_cell_formula_units_Z 16
_cell_length_a 12.084476
_cell_length_b 13.786655
_cell_length_c 14.048599
_cell_angle_alpha 30.064867
_cell_angle_beta 140.002628
_cell_angle_gamma 120.544473
_cell_volume 660.873415
_symmetry_space_group_name_H-M "P -1"
_symmetry_group_IT_number 2
_symmetry_cell_setting 'triclinic'
loop_
_space_group_symop_operation_xyz
x,y,z
-x,-y,-z
loop_
_atom_site_type_symbol
_atom_site_label
_atom_site_fract_x
_atom_site_fract_y
_atom_site_fract_z
Si Si1 0.344451 0.269587 0.474824
Si Si2 0.493798 0.841544 0.831266
Si Si3 0.242643 0.940279 0.979581
Si Si4 0.599253 0.475413 0.868684
Si Si5 0.038720 0.731950 0.107843
Si Si6 0.026235 0.321772 0.366327
Si Si7 0.078558 0.248507 0.790018
Si Si8 0.381193 0.864629 0.540129
O O1 0.374951 0.449254 0.282954
O O2 0.146727 0.342572 0.339435
O O3 0.353735 0.094597 0.550203
O O4 0.530276 0.140423 0.778164
O O5 0.431120 0.757417 0.768533
O O6 0.486196 0.694744 0.037675
O O7 0.703361 0.825748 0.964429
O O8 0.152397 0.085334 0.702528
O O9 0.117813 0.104910 0.843923
O O10 0.205106 0.732848 0.149535
O O11 0.452325 0.688119 0.653181
O O12 0.813576 0.367972 0.151432
O O13 0.842526 0.950950 0.764115
O O14 0.059236 0.759173 0.211154
O O15 0.009807 0.518185 0.257237
O O16 0.000000 0.500000 0.500000
O O17 0.500000 0.000000 0.500000
#
# Coordination Sequence:
#
# PCOD9056463 Si02
#       8
#     2   2   2   2   2   2   2   2
#     4  11  26  46  64  92 131 169 221 269 306 372
#     4  11  24  41  65  94 131 166 205 264 320 377
#     4  11  26  42  66  96 127 171 214 262 322 377
#     4  12  25  41  70  97 125 172 213 259 328 381
#     4  12  24  41  67  96 132 167 208 262 321 385
#     4  12  25  45  66  93 128 172 220 265 312 372
#     4  11  22  39  62  93 129 162 203 257 317 381
#     4  12  20  41  65  95 132 159 203 263 325 379
#
# _framework density 24.210386
#
# number of rings (size 3 to 8) (size 9 to 14) (size 15 to 20)
#    0.000    0.500    5.000    3.000    3.500    2.000 
#    0.000    0.000    0.000    0.000    0.000    0.000 
#    0.000    0.000    0.000    0.000    0.000    0.000 
#
# Total GULP energy -89562.132584 kJ/mol
# GULP energy per Si atom -5597.633287 kJ/mol
# Density = 2.415528 g / cm^3
# Si number density = 24.210386 Si / 1000 Ang^3
#
#
#
# Elastic Constant Matrix: (Units=GPa)
#
#
# Indices 1 2 3 4 5 6 
#
# 1 114.0945 2.1520 11.6069 -2.3701 -11.2528 7.6685
# 2 2.1520 38.1303 10.9037 11.9960 2.6584 17.3615
# 3 11.6069 10.9037 50.3909 12.4052 -13.8349 4.8319
# 4 -2.3701 11.9960 12.4052 24.3432 4.6537 -8.7986
# 5 -11.2528 2.6584 -13.8349 4.6537 45.5789 -2.5033
# 6 7.6685 17.3615 4.8319 -8.7986 -2.5033 34.9516
#
#
#
# Elastic Compliance Matrix: (Units=1/GPa)
#
#
# Indices 1 2 3 4 5 6 
#
# 1 0.009221 0.000461 -0.001801 0.000670 0.001540 -0.001724
# 2 0.000461 0.057697 0.001917 -0.043772 -0.000401 -0.040074
# 3 -0.001801 0.001917 0.028487 -0.020756 0.009714 -0.009025
# 4 0.000670 -0.043772 -0.020756 0.092251 -0.010422 0.046941
# 5 0.001540 -0.000401 0.009714 -0.010422 0.026234 -0.002226
# 6 -0.001724 -0.040074 -0.009025 0.046941 -0.002226 0.061800
#
#
# Mechanical properties :
#
#
# Convention : Reuss Voigt Hill
#
# Bulk Modulus (GPa) = 10.35625 27.99344 19.17484
# Shear Modulus (GPa) = 16.30154 32.83828 24.56991
#
# Velocity S-wave (km/s) = 2.59767 3.68689 3.18913
# Velocity P-wave (km/s) = 3.64473 5.45086 4.63659
#
# Compressibility (1/GPa) = 0.09656008
#
# Stress axis : x y z
#
# Youngs Moduli (GPa) = 108.45005 17.33203 35.10409
#
# Poissons Ratio (x) = -0.00799 0.06321
# Poissons Ratio (y) = -0.05003 -0.06731
# Poissons Ratio (z) = 0.19528 -0.03323
#
# Static dielectric constant tensor:
#      x y z
#    x 1.957090 0.000670 0.017420 
#    y 0.000670 1.971490 0.079410 
#    z 0.017420 0.079410 2.213460 
# 
# From -- ./inp_files/522216.got.cif
#   From: 2010.05.17/outbox.cif.g08.bks.cpg/sg2_262_cif.got.tgz:522216.got - 2010.06.03 11:33:40.
