data_PCOD9056698
_publ_section_title
;
Structure prediction by ZEFSAII (Michael W. Deem and Ramdas Pophale) SiO2 
 PCOD9056698
Probable space group: P -1
;
_chemical_formula_sum "Si O2"
_cell_formula_units_Z 14
_cell_length_a 13.890517
_cell_length_b 20.774439
_cell_length_c 10.043958
_cell_angle_alpha 151.936931
_cell_angle_beta 53.103723
_cell_angle_gamma 146.161776
_cell_volume 654.838745
_symmetry_space_group_name_H-M "P -1"
_symmetry_group_IT_number 2
_symmetry_cell_setting 'triclinic'
loop_
_space_group_symop_operation_xyz
x,y,z
-x,-y,-z
loop_
_atom_site_type_symbol
_atom_site_label
_atom_site_fract_x
_atom_site_fract_y
_atom_site_fract_z
Si Si1 0.443652 0.760073 0.851831
Si Si2 0.859184 0.759817 0.814609
Si Si3 0.755995 0.141222 0.755011
Si Si4 0.884760 0.980686 0.671611
Si Si5 0.940707 0.584225 0.780037
Si Si6 0.774734 0.969881 0.169498
Si Si7 0.522411 0.792392 0.558633
O O1 0.288344 0.493188 0.474952
O O2 0.522973 0.874936 0.849351
O O3 0.331864 0.787431 0.058063
O O4 0.623480 0.875615 0.006862
O O5 0.737969 0.780659 0.901533
O O6 0.000114 0.826770 0.704577
O O7 0.016726 0.960343 0.160395
O O8 0.753878 0.051824 0.460569
O O9 0.627426 0.950446 0.630016
O O10 0.975533 0.350438 0.020832
O O11 0.646054 0.767178 0.452771
O O12 0.000000 0.000000 0.500000
O O13 0.942102 0.190128 0.981649
O O14 0.711424 0.421774 0.672480
O O15 0.000000 0.500000 0.500000
#
# Coordination Sequence:
#
# PCOD9056698 Si02
#       7
#     2   2   2   2   2   2   2
#     4  12  23  43  70  97 127 178 222 263 333 395
#     4  11  23  44  67  90 134 179 217 268 328 392
#     4  11  25  42  67 102 134 169 219 277 327 389
#     4  11  23  41  64  99 132 166 220 271 324 384
#     4  11  22  40  66  98 132 170 215 264 332 392
#     4  11  26  45  64  94 136 175 221 271 325 389
#     4  11  23  41  70  98 134 170 216 274 332 388
#
# _framework density 21.37931
#
# number of rings (size 3 to 8) (size 9 to 14) (size 15 to 20)
#    0.000    0.857    4.286    3.000    2.000    3.429 
#    2.571    0.000    0.000    0.000    0.000    0.000 
#    0.000    0.000    0.000    0.000    0.000    0.000 
#
# Total GULP energy -78197.376582 kJ/mol
# GULP energy per Si atom -5585.526899 kJ/mol
# Density = 2.133065 g / cm^3
# Si number density = 21.379310 Si / 1000 Ang^3
#
#
#
# Elastic Constant Matrix: (Units=GPa)
#
#
# Indices 1 2 3 4 5 6 
#
# 1 101.7001 24.7552 22.3625 -0.3375 17.5938 15.4460
# 2 24.7552 97.2187 51.1001 -23.9817 3.9751 17.0267
# 3 22.3625 51.1001 68.8063 -14.9849 12.2450 2.5379
# 4 -0.3375 -23.9817 -14.9849 30.8660 4.2173 6.4559
# 5 17.5938 3.9751 12.2450 4.2173 31.0890 5.7634
# 6 15.4460 17.0267 2.5379 6.4559 5.7634 35.5068
#
#
#
# Elastic Compliance Matrix: (Units=1/GPa)
#
#
# Indices 1 2 3 4 5 6 
#
# 1 0.012010 -0.001261 -0.002002 -0.000371 -0.005134 -0.003576
# 2 -0.001261 0.023576 -0.014392 0.013462 0.003917 -0.012812
# 3 -0.002002 -0.014392 0.027780 0.002134 -0.009546 0.006948
# 4 -0.000371 0.013462 0.002134 0.047688 -0.006205 -0.014110
# 5 -0.005134 0.003917 -0.009546 -0.006205 0.039973 -0.004323
# 6 -0.003576 -0.012812 0.006948 -0.014110 -0.004323 0.038633
#
#
# Mechanical properties :
#
#
# Convention : Reuss Voigt Hill
#
# Bulk Modulus (GPa) = 35.64377 51.57341 43.60859
# Shear Modulus (GPa) = 21.33799 30.79284 26.06541
#
# Velocity S-wave (km/s) = 3.16265 3.79926 3.49548
# Velocity P-wave (km/s) = 5.48131 6.58948 6.06077
#
# Compressibility (1/GPa) = 0.02805540
#
# Stress axis : x y z
#
# Youngs Moduli (GPa) = 83.26382 42.41518 35.99698
#
# Poissons Ratio (x) = 0.05350 0.07207
# Poissons Ratio (y) = 0.10502 0.51808
# Poissons Ratio (z) = 0.16669 0.61045
#
# Static dielectric constant tensor:
#      x y z
#    x 1.808710 0.030000 0.034230 
#    y 0.030000 1.804130 0.052600 
#    z 0.034230 0.052600 1.798450 
# 
# From -- ./inp_files/319542.got.cif
#   From: 2010.05.17/outbox.cif.g08.bks.cpg/sg2_160_cif.got.tgz:319542.got - 2010.06.03 11:33:40.
