data_PCOD9056255
_publ_section_title
;
Structure prediction by ZEFSAII (Michael W. Deem and Ramdas Pophale) SiO2 
 PCOD9056255
Probable space group: P -1
;
_chemical_formula_sum "Si O2"
_cell_formula_units_Z 14
_cell_length_a 6.417880
_cell_length_b 11.082190
_cell_length_c 19.519383
_cell_angle_alpha 151.777326
_cell_angle_beta 118.280565
_cell_angle_gamma 62.233672
_cell_volume 574.243697
_symmetry_space_group_name_H-M "P -1"
_symmetry_group_IT_number 2
_symmetry_cell_setting 'triclinic'
loop_
_space_group_symop_operation_xyz
x,y,z
-x,-y,-z
loop_
_atom_site_type_symbol
_atom_site_label
_atom_site_fract_x
_atom_site_fract_y
_atom_site_fract_z
Si Si1 0.483774 0.874012 0.261986
Si Si2 0.499359 0.137349 0.262952
Si Si3 0.935575 0.493868 0.157598
Si Si4 0.340959 0.790940 0.342268
Si Si5 0.221531 0.688706 0.488236
Si Si6 0.804606 0.443554 0.262010
Si Si7 0.709475 0.956517 0.067925
O O1 0.311043 0.827838 0.273992
O O2 0.679255 0.626184 0.159079
O O3 0.385719 0.978190 0.225722
O O4 0.635699 0.107080 0.426242
O O5 0.339872 0.398182 0.347247
O O6 0.723095 0.238981 0.388668
O O7 0.584352 0.965950 0.126508
O O8 0.097259 0.729299 0.306966
O O9 0.902852 0.371829 0.165833
O O10 0.093530 0.284631 0.032600
O O11 0.528132 0.537499 0.256460
O O12 0.500000 0.000000 0.500000
O O13 0.947237 0.676947 0.425031
O O14 0.836722 0.214382 0.205939
O O15 0.500000 0.000000 0.000000
#
# Coordination Sequence:
#
# PCOD9056255 Si02
#       7
#     2   2   2   2   2   2   2
#     4   9  21  42  61  94 129 165 203 262 321 365
#     4   9  22  41  66  92 131 165 208 267 312 376
#     4  11  23  41  62  95 132 164 213 259 308 383
#     4  11  22  36  67  96 127 169 205 263 318 367
#     4   9  19  42  65  94 131 154 213 267 317 362
#     4  11  23  39  67  95 122 168 211 269 310 367
#     4  12  24  42  66  91 126 173 217 253 319 380
#
# _framework density 24.379895000000001
#
# number of rings (size 3 to 8) (size 9 to 14) (size 15 to 20)
#    0.857    0.857    1.429    3.000    2.000    3.429 
#    2.571    0.714    0.000    0.000    0.000    0.000 
#    0.000    0.000    0.000    0.000    0.000    0.000 
#
# Total GULP energy -78225.273755 kJ/mol
# GULP energy per Si atom -5587.519554 kJ/mol
# Density = 2.432441 g / cm^3
# Si number density = 24.379895 Si / 1000 Ang^3
#
#
#
# Elastic Constant Matrix: (Units=GPa)
#
#
# Indices 1 2 3 4 5 6 
#
# 1 57.2088 18.7405 -2.1729 -6.5516 0.5255 2.0842
# 2 18.7405 74.2182 6.7515 14.9701 -17.3348 10.6951
# 3 -2.1729 6.7515 51.0559 8.7134 -12.0556 0.6469
# 4 -6.5516 14.9701 8.7134 34.4786 4.0663 5.7237
# 5 0.5255 -17.3348 -12.0556 4.0663 42.6826 5.7581
# 6 2.0842 10.6951 0.6469 5.7237 5.7581 32.0606
#
#
#
# Elastic Compliance Matrix: (Units=1/GPa)
#
#
# Indices 1 2 3 4 5 6 
#
# 1 0.021032 -0.008044 -0.000489 0.008029 -0.004524 0.000705
# 2 -0.008044 0.021186 0.001489 -0.011325 0.011086 -0.006544
# 3 -0.000489 0.001489 0.022437 -0.007154 0.007770 -0.001036
# 4 0.008029 -0.011325 -0.007154 0.038735 -0.010181 -0.001686
# 5 -0.004524 0.011086 0.007770 -0.010181 0.032166 -0.007520
# 6 0.000705 -0.006544 -0.001036 -0.001686 -0.007520 0.035001
#
#
# Mechanical properties :
#
#
# Convention : Reuss Voigt Hill
#
# Bulk Modulus (GPa) = 19.77514 25.45790 22.61652
# Shear Modulus (GPa) = 24.81413 32.45528 28.63470
#
# Velocity S-wave (km/s) = 3.19378 3.65256 3.43085
# Velocity P-wave (km/s) = 4.66145 5.31537 4.99911
#
# Compressibility (1/GPa) = 0.05056853
#
# Stress axis : x y z
#
# Youngs Moduli (GPa) = 47.54746 47.20144 44.56861
#
# Poissons Ratio (x) = 0.37968 0.02178
# Poissons Ratio (y) = 0.38246 -0.06638
# Poissons Ratio (z) = 0.02323 -0.07030
#
# Static dielectric constant tensor:
#      x y z
#    x 1.903840 -0.027030 0.021090 
#    y -0.027030 1.942240 0.028040 
#    z 0.021090 0.028040 2.030780 
# 
# From -- ./inp_files/459546.got.cif
#   From: 2010.05.17/outbox.cif.g08.bks.cpg/sg2_230_cif.got.tgz:459546.got - 2010.06.03 11:33:40.
