data_PCOD9056787
_publ_section_title
;
Structure prediction by ZEFSAII (Michael W. Deem and Ramdas Pophale) SiO2 
 PCOD9056787
Probable space group: P -1
;
_chemical_formula_sum "Si O2"
_cell_formula_units_Z 16
_cell_length_a 8.898751
_cell_length_b 11.990372
_cell_length_c 13.184861
_cell_angle_alpha 130.996920
_cell_angle_beta 90.193369
_cell_angle_gamma 126.490552
_cell_volume 649.788499
_symmetry_space_group_name_H-M "P -1"
_symmetry_group_IT_number 2
_symmetry_cell_setting 'triclinic'
loop_
_space_group_symop_operation_xyz
x,y,z
-x,-y,-z
loop_
_atom_site_type_symbol
_atom_site_label
_atom_site_fract_x
_atom_site_fract_y
_atom_site_fract_z
Si Si1 0.259099 0.736684 0.691601
Si Si2 0.252320 0.918865 0.408040
Si Si3 0.144626 0.582590 0.818191
Si Si4 0.473684 0.557191 0.783898
Si Si5 0.634000 0.748921 0.693564
Si Si6 0.646095 0.202248 0.856036
Si Si7 0.497464 0.323450 0.793894
Si Si8 0.048070 0.025840 0.359564
O O1 0.207319 0.722994 0.802431
O O2 0.445790 0.741788 0.685397
O O3 0.000000 0.500000 0.500000
O O4 0.388184 0.969010 0.771041
O O5 0.331668 0.893541 0.293534
O O6 0.111596 0.703261 0.357151
O O7 0.464676 0.176052 0.616703
O O8 0.064041 0.895269 0.353162
O O9 0.352984 0.618478 0.848797
O O10 0.157738 0.672980 0.980129
O O11 0.674857 0.745079 0.809584
O O12 0.560255 0.524388 0.858090
O O13 0.251842 0.294834 0.569456
O O14 0.500000 0.500000 0.500000
O O15 0.861722 0.945370 0.735644
O O16 0.662347 0.377799 0.912617
O O17 0.224844 0.126191 0.722609
#
# Coordination Sequence:
#
# PCOD9056787 Si02
#       8
#     2   2   2   2   2   2   2   2
#     4  11  24  42  65  92 121 156 208 255 298 362
#     4  11  20  41  61  89 120 164 210 250 303 353
#     4  11  22  42  63  85 129 166 197 241 318 372
#     4   9  18  35  60  87 114 158 205 249 293 350
#     4   9  19  34  62  90 115 150 199 256 304 339
#     4  12  26  38  60  93 129 162 195 252 315 365
#     4  11  21  37  63  92 119 156 214 259 289 349
#     4  10  17  36  63  87 118 157 209 258 290 352
#
# _framework density 24.623398000000002
#
# number of rings (size 3 to 8) (size 9 to 14) (size 15 to 20)
#    0.000    1.500    3.750    2.625    3.500    0.500 
#    0.000    0.000    0.000    3.000    0.000    0.000 
#    0.000    0.000    0.000    0.000    0.000    0.000 
#
# Total GULP energy -89520.909248 kJ/mol
# GULP energy per Si atom -5595.056828 kJ/mol
# Density = 2.456735 g / cm^3
# Si number density = 24.623398 Si / 1000 Ang^3
#
#
#
# Elastic Constant Matrix: (Units=GPa)
#
#
# Indices 1 2 3 4 5 6 
#
# 1 75.2226 39.4430 21.1404 -17.5905 -6.4614 1.1158
# 2 39.4430 154.0142 17.4455 -32.8377 0.7647 5.9483
# 3 21.1404 17.4455 69.9029 -15.4076 1.3246 -0.4500
# 4 -17.5905 -32.8377 -15.4076 38.2988 5.6710 -2.0751
# 5 -6.4614 0.7647 1.3246 5.6710 18.7258 -3.9579
# 6 1.1158 5.9483 -0.4500 -2.0751 -3.9579 27.2953
#
#
#
# Elastic Compliance Matrix: (Units=1/GPa)
#
#
# Indices 1 2 3 4 5 6 
#
# 1 0.017319 -0.003516 -0.003899 0.002563 0.005838 0.001035
# 2 -0.003516 0.008854 0.000377 0.006619 -0.003998 -0.001856
# 3 -0.003899 0.000377 0.016781 0.005930 -0.004306 0.000181
# 4 0.002563 0.006619 0.005930 0.036972 -0.011053 -0.000241
# 5 0.005838 -0.003998 -0.004306 -0.011053 0.061044 0.008573
# 6 0.001035 -0.001856 0.000181 -0.000241 0.008573 0.038226
#
#
# Mechanical properties :
#
#
# Convention : Reuss Voigt Hill
#
# Bulk Modulus (GPa) = 34.63176 50.57751 42.60464
# Shear Modulus (GPa) = 24.64292 31.60471 28.12381
#
# Velocity S-wave (km/s) = 3.16696 3.58652 3.38325
# Velocity P-wave (km/s) = 5.24099 6.14295 5.70981
#
# Compressibility (1/GPa) = 0.02887523
#
# Stress axis : x y z
#
# Youngs Moduli (GPa) = 57.74062 112.94883 59.59247
#
# Poissons Ratio (x) = 0.39716 0.23236
# Poissons Ratio (y) = 0.20303 -0.02244
# Poissons Ratio (z) = 0.22514 -0.04254
#
# Static dielectric constant tensor:
#      x y z
#    x 1.949080 0.003650 -0.030530 
#    y 0.003650 1.964330 0.001310 
#    z -0.030530 0.001310 2.000540 
# 
# From -- ./inp_files/345549.got.cif
#   From: 2010.05.17/outbox.cif.g08.bks.cpg/sg2_173_cif.got.tgz:345549.got - 2010.06.03 11:33:40.
