data_PCOD9056024
_publ_section_title
;
Structure prediction by ZEFSAII (Michael W. Deem and Ramdas Pophale) SiO2 
 PCOD9056024
Probable space group: P -1
;
_chemical_formula_sum "Si O2"
_cell_formula_units_Z 16
_cell_length_a 18.987995
_cell_length_b 22.089364
_cell_length_c 9.429962
_cell_angle_alpha 144.193985
_cell_angle_beta 36.959329
_cell_angle_gamma 160.801676
_cell_volume 749.536868
_symmetry_space_group_name_H-M "P -1"
_symmetry_group_IT_number 2
_symmetry_cell_setting 'triclinic'
loop_
_space_group_symop_operation_xyz
x,y,z
-x,-y,-z
loop_
_atom_site_type_symbol
_atom_site_label
_atom_site_fract_x
_atom_site_fract_y
_atom_site_fract_z
Si Si1 0.117914 0.078368 0.637839
Si Si2 0.986698 0.480228 0.816952
Si Si3 0.071175 0.878632 0.115093
Si Si4 0.416967 0.336533 0.903251
Si Si5 0.684226 0.070925 0.421842
Si Si6 0.634597 0.285036 0.537411
Si Si7 0.211879 0.512322 0.052934
Si Si8 0.384398 0.327384 0.265368
O O1 0.225158 0.154443 0.762946
O O2 0.121576 0.196331 0.789677
O O3 0.196465 0.049534 0.345818
O O4 0.860458 0.869989 0.667590
O O5 0.870001 0.286679 0.589662
O O6 0.224934 0.666134 0.715656
O O7 0.842062 0.463967 0.953252
O O8 0.000000 0.500000 0.000000
O O9 0.956644 0.705358 0.063479
O O10 0.208500 0.927321 0.861848
O O11 0.570138 0.350247 0.705022
O O12 0.500000 0.500000 0.000000
O O13 0.365049 0.332495 0.138586
O O14 0.500000 0.000000 0.500000
O O15 0.568619 0.926154 0.465420
O O16 0.796150 0.422069 0.670583
O O17 0.456122 0.650726 0.926753
O O18 0.500000 0.500000 0.500000
#
# Coordination Sequence:
#
# PCOD9056024 Si02
#       8
#     2   2   2   2   2   2   2   2
#     4  11  24  43  69 109 145 184 243 299 358 437
#     4  12  28  46  72 108 144 185 239 306 363 416
#     4  11  23  41  74 103 143 185 243 291 366 425
#     4  11  26  44  68 102 148 186 233 302 360 420
#     4  12  25  46  78 102 138 194 242 296 359 427
#     4  11  24  48  73 100 144 190 240 289 358 437
#     4  11  21  45  69 103 141 186 239 295 354 438
#     4  11  23  42  69 103 140 194 235 284 367 434
#
# _framework density 21.346513999999999
#
# number of rings (size 3 to 8) (size 9 to 14) (size 15 to 20)
#    0.000    0.750    3.750    4.500    1.750    3.500 
#    0.000    0.000    0.000    0.000    0.000    0.000 
#    0.000    0.000    0.000    0.000    0.000    0.000 
#
# Total GULP energy -89423.414246 kJ/mol
# GULP energy per Si atom -5588.963390 kJ/mol
# Density = 2.129793 g / cm^3
# Si number density = 21.346514 Si / 1000 Ang^3
#
#
#
# Elastic Constant Matrix: (Units=GPa)
#
#
# Indices 1 2 3 4 5 6 
#
# 1 163.5557 46.7880 61.5387 -0.2373 22.3686 -5.4163
# 2 46.7880 104.6420 55.1665 0.1451 5.7774 -11.8379
# 3 61.5387 55.1665 135.0426 -8.2872 27.2784 -0.4579
# 4 -0.2373 0.1451 -8.2872 33.5612 -1.1924 1.3183
# 5 22.3686 5.7774 27.2784 -1.1924 41.0744 6.8575
# 6 -5.4163 -11.8379 -0.4579 1.3183 6.8575 34.9771
#
#
#
# Elastic Compliance Matrix: (Units=1/GPa)
#
#
# Indices 1 2 3 4 5 6 
#
# 1 0.007974 -0.002105 -0.002255 -0.000630 -0.002743 0.001054
# 2 -0.002105 0.013464 -0.004994 -0.001390 0.001887 0.003848
# 3 -0.002255 -0.004994 0.011784 0.002748 -0.005669 -0.000877
# 4 -0.000630 -0.001390 0.002748 0.030537 -0.000123 -0.001659
# 5 -0.002743 0.001887 -0.005669 -0.000123 0.030304 -0.005797
# 6 0.001054 0.003848 -0.000877 -0.001659 -0.005797 0.031243
#
#
# Mechanical properties :
#
#
# Convention : Reuss Voigt Hill
#
# Bulk Modulus (GPa) = 68.90263 81.13629 75.01946
# Shear Modulus (GPa) = 33.59066 37.90568 35.74817
#
# Velocity S-wave (km/s) = 3.97115 4.21851 4.09670
# Velocity P-wave (km/s) = 7.30582 7.86254 7.58928
#
# Compressibility (1/GPa) = 0.01451323
#
# Stress axis : x y z
#
# Youngs Moduli (GPa) = 125.41024 74.27472 84.86434
#
# Poissons Ratio (x) = 0.15635 0.19134
# Poissons Ratio (y) = 0.26399 0.42382
# Poissons Ratio (z) = 0.28276 0.37094
#
# Static dielectric constant tensor:
#      x y z
#    x 1.768680 -0.046640 -0.017630 
#    y -0.046640 1.824900 0.011260 
#    z -0.017630 0.011260 1.842420 
# 
# From -- ./inp_files/338188.got.cif
#   From: 2010.05.17/outbox.cif.g08.bks.cpg/sg2_170_cif.got.tgz:338188.got - 2010.06.03 11:33:40.
