data_PCOD9056379
_publ_section_title
;
Structure prediction by ZEFSAII (Michael W. Deem and Ramdas Pophale) SiO2 
 PCOD9056379
Probable space group: P -1
;
_chemical_formula_sum "Si O2"
_cell_formula_units_Z 12
_cell_length_a 7.547241
_cell_length_b 16.419428
_cell_length_c 7.295710
_cell_angle_alpha 129.110965
_cell_angle_beta 79.244259
_cell_angle_gamma 128.251972
_cell_volume 519.122831
_symmetry_space_group_name_H-M "P -1"
_symmetry_group_IT_number 2
_symmetry_cell_setting 'triclinic'
loop_
_space_group_symop_operation_xyz
x,y,z
-x,-y,-z
loop_
_atom_site_type_symbol
_atom_site_label
_atom_site_fract_x
_atom_site_fract_y
_atom_site_fract_z
Si Si1 0.872915 0.344044 0.735939
Si Si2 0.128312 0.880317 0.412479
Si Si3 0.064345 0.645209 0.677297
Si Si4 0.465069 0.938164 0.120551
Si Si5 0.413915 0.293984 0.725505
Si Si6 0.422802 0.475353 0.270300
O O1 0.286794 0.940753 0.283483
O O2 0.592658 0.265176 0.661414
O O3 0.914048 0.259300 0.731833
O O4 0.000000 0.500000 0.000000
O O5 0.869027 0.834827 0.391466
O O6 0.484515 0.398091 0.027700
O O7 0.295575 0.983184 0.694416
O O8 0.044091 0.659426 0.486008
O O9 0.000000 0.500000 0.500000
O O10 0.863101 0.628354 0.804840
O O11 0.324276 0.775529 0.884340
O O12 0.500000 0.000000 0.000000
O O13 0.476420 0.385182 0.660076
O O14 0.500000 0.500000 0.500000
#
# Coordination Sequence:
#
# PCOD9056379 Si02
#       6
#     2   2   2   2   2   2
#     4  12  23  41  70 104 140 179 228 286 346 405
#     4  11  24  45  72  95 139 188 226 282 352 410
#     4  12  22  42  69  99 137 176 230 282 338 411
#     4  11  24  45  71  96 137 190 226 281 355 415
#     4  11  23  42  65 104 139 174 232 287 341 408
#     4  11  22  38  64  98 141 177 223 287 347 402
#
# _framework density 23.115915000000001
#
# number of rings (size 3 to 8) (size 9 to 14) (size 15 to 20)
#    0.000    0.667    5.000    5.000    0.000    0.000 
#    0.000    4.167    3.667    0.000    0.000    0.000 
#    0.000    0.000    0.000    0.000    0.000    0.000 
#
# Total GULP energy -67193.639523 kJ/mol
# GULP energy per Si atom -5599.469960 kJ/mol
# Density = 2.306330 g / cm^3
# Si number density = 23.115915 Si / 1000 Ang^3
#
#
#
# Elastic Constant Matrix: (Units=GPa)
#
#
# Indices 1 2 3 4 5 6 
#
# 1 88.9519 44.5540 17.1481 -0.8487 21.2342 21.9446
# 2 44.5540 141.2052 42.3864 -28.4523 12.8991 1.3886
# 3 17.1481 42.3864 131.0816 11.4034 34.2374 -11.4100
# 4 -0.8487 -28.4523 11.4034 46.8681 -1.4878 11.0817
# 5 21.2342 12.8991 34.2374 -1.4878 45.6362 -0.7277
# 6 21.9446 1.3886 -11.4100 11.0817 -0.7277 40.5237
#
#
#
# Elastic Compliance Matrix: (Units=1/GPa)
#
#
# Indices 1 2 3 4 5 6 
#
# 1 0.017752 -0.005238 0.000613 -0.001092 -0.007420 -0.009096
# 2 -0.005238 0.011570 -0.004645 0.008415 0.002908 -0.001117
# 3 0.000613 -0.004645 0.012318 -0.007286 -0.008369 0.005138
# 4 -0.001092 0.008415 -0.007286 0.030720 0.004437 -0.010069
# 5 -0.007420 0.002908 -0.008369 0.004437 0.030980 0.000905
# 6 -0.009096 -0.001117 0.005138 -0.010069 0.000905 0.033857
#
#
# Mechanical properties :
#
#
# Convention : Reuss Voigt Hill
#
# Bulk Modulus (GPa) = 43.29160 63.26841 53.28000
# Shear Modulus (GPa) = 30.59266 43.74895 37.17081
#
# Velocity S-wave (km/s) = 3.64187 4.35511 4.01436
# Velocity P-wave (km/s) = 6.03763 7.26077 6.67727
#
# Compressibility (1/GPa) = 0.02309917
#
# Stress axis : x y z
#
# Youngs Moduli (GPa) = 56.33058 86.43074 81.18473
#
# Poissons Ratio (x) = 0.45274 -0.04974
# Poissons Ratio (y) = 0.29507 0.37710
# Poissons Ratio (z) = -0.03451 0.40147
#
# Static dielectric constant tensor:
#      x y z
#    x 1.914530 -0.034470 0.079040 
#    y -0.034470 1.819790 0.123170 
#    z 0.079040 0.123170 1.803850 
# 
# From -- ./inp_files/406402.got.cif
#   From: 2010.05.17/outbox.cif.g08.bks.cpg/sg2_204_cif.got.tgz:406402.got - 2010.06.03 11:33:40.
