data_PCOD9056291
_publ_section_title
;
Structure prediction by ZEFSAII (Michael W. Deem and Ramdas Pophale) SiO2 
 PCOD9056291
Probable space group: P -1
;
_chemical_formula_sum "Si O2"
_cell_formula_units_Z 12
_cell_length_a 21.279443
_cell_length_b 12.486774
_cell_length_c 18.663693
_cell_angle_alpha 160.553406
_cell_angle_beta 160.471036
_cell_angle_gamma 31.935398
_cell_volume 514.918522
_symmetry_space_group_name_H-M "P -1"
_symmetry_group_IT_number 2
_symmetry_cell_setting 'triclinic'
loop_
_space_group_symop_operation_xyz
x,y,z
-x,-y,-z
loop_
_atom_site_type_symbol
_atom_site_label
_atom_site_fract_x
_atom_site_fract_y
_atom_site_fract_z
Si Si1 0.284470 0.368430 0.722525
Si Si2 0.228311 0.236296 0.112398
Si Si3 0.080317 0.401884 0.775916
Si Si4 0.741087 0.165384 0.370032
Si Si5 0.962589 0.425620 0.313150
Si Si6 0.308291 0.692172 0.349904
O O1 0.233082 0.639226 0.888742
O O2 0.110611 0.267290 0.410998
O O3 0.282828 0.048096 0.566300
O O4 0.500000 0.500000 0.000000
O O5 0.202071 0.481074 0.301456
O O6 0.212174 0.414420 0.132497
O O7 0.458037 0.252728 0.371571
O O8 0.085972 0.839742 0.711966
O O9 0.088329 0.634873 0.862769
O O10 0.852263 0.238916 0.458612
O O11 0.172982 0.106516 0.672814
O O12 0.207374 0.587517 0.098375
O O13 0.500000 0.000000 0.000000
#
# Coordination Sequence:
#
# PCOD9056291 Si02
#       6
#     2   2   2   2   2   2
#     4  11  24  46  68  93 126 175 217 264 319 391
#     4  11  22  41  69  97 126 174 214 262 319 386
#     4  11  24  40  61  99 131 167 213 270 318 376
#     4  11  22  37  62  97 137 165 209 268 324 372
#     4  11  25  43  70  94 129 171 218 263 324 381
#     4  11  23  41  68  96 132 168 217 262 321 380
#
# _framework density 23.304656999999999
#
# number of rings (size 3 to 8) (size 9 to 14) (size 15 to 20)
#    0.000    1.000    3.333    4.000    2.333    4.000 
#    0.000    0.833    0.000    0.000    0.000    0.000 
#    0.000    0.000    0.000    0.000    0.000    0.000 
#
# Total GULP energy -67188.226306 kJ/mol
# GULP energy per Si atom -5599.018859 kJ/mol
# Density = 2.325161 g / cm^3
# Si number density = 23.304657 Si / 1000 Ang^3
#
#
#
# Elastic Constant Matrix: (Units=GPa)
#
#
# Indices 1 2 3 4 5 6 
#
# 1 119.1181 50.4709 18.7912 -30.0969 1.5268 8.0443
# 2 50.4709 136.5235 9.8540 -19.5184 6.0748 -7.2470
# 3 18.7912 9.8540 60.6209 -16.6041 4.6808 -14.6521
# 4 -30.0969 -19.5184 -16.6041 43.9913 -9.0096 3.1880
# 5 1.5268 6.0748 4.6808 -9.0096 37.5494 -7.4222
# 6 8.0443 -7.2470 -14.6521 3.1880 -7.4222 47.5750
#
#
#
# Elastic Compliance Matrix: (Units=1/GPa)
#
#
# Indices 1 2 3 4 5 6 
#
# 1 0.012138 -0.003660 -0.002407 0.006277 0.001196 -0.003585
# 2 -0.003660 0.008972 0.000593 0.001426 -0.000645 0.001972
# 3 -0.002407 0.000593 0.020273 0.005834 0.000134 0.006371
# 4 0.006277 0.001426 0.005834 0.031148 0.006228 -0.000163
# 5 0.001196 -0.000645 0.000134 0.006228 0.028923 0.003836
# 6 -0.003585 0.001972 0.006371 -0.000163 0.003836 0.024498
#
#
# Mechanical properties :
#
#
# Convention : Reuss Voigt Hill
#
# Bulk Modulus (GPa) = 32.85673 52.72166 42.78920
# Shear Modulus (GPa) = 34.00306 41.63288 37.81797
#
# Velocity S-wave (km/s) = 3.82392 4.23124 4.03273
# Velocity P-wave (km/s) = 5.79878 6.82225 6.33123
#
# Compressibility (1/GPa) = 0.03043516
#
# Stress axis : x y z
#
# Youngs Moduli (GPa) = 82.38494 111.45643 49.32613
#
# Poissons Ratio (x) = 0.40790 0.11875
# Poissons Ratio (y) = 0.30151 -0.02925
# Poissons Ratio (z) = 0.19833 -0.06609
#
# Static dielectric constant tensor:
#      x y z
#    x 1.894540 -0.014600 0.006340 
#    y -0.014600 1.867060 0.013110 
#    z 0.006340 0.013110 1.904820 
# 
# From -- ./inp_files/171035.got.cif
#   From: 2010.05.17/outbox.cif.g08.bks.cpg/sg2_86_cif.got.tgz:171035.got - 2010.06.03 11:33:40.
