data_PCOD9056277
_publ_section_title
;
Structure prediction by ZEFSAII (Michael W. Deem and Ramdas Pophale) SiO2 
 PCOD9056277
Probable space group: P -1
;
_chemical_formula_sum "Si O2"
_cell_formula_units_Z 14
_cell_length_a 13.523306
_cell_length_b 14.795977
_cell_length_c 24.778763
_cell_angle_alpha 23.205521
_cell_angle_beta 21.180343
_cell_angle_gamma 36.004437
_cell_volume 664.446849
_symmetry_space_group_name_H-M "P -1"
_symmetry_group_IT_number 2
_symmetry_cell_setting 'triclinic'
loop_
_space_group_symop_operation_xyz
x,y,z
-x,-y,-z
loop_
_atom_site_type_symbol
_atom_site_label
_atom_site_fract_x
_atom_site_fract_y
_atom_site_fract_z
Si Si1 0.094256 0.506516 0.862897
Si Si2 0.915236 0.525338 0.743501
Si Si3 0.318919 0.446602 0.039713
Si Si4 0.675175 0.174667 0.979406
Si Si5 0.817654 0.088817 0.316238
Si Si6 0.481373 0.690251 0.293484
Si Si7 0.984689 0.377211 0.517246
O O1 0.169752 0.755911 0.721000
O O2 0.356831 0.501468 0.693594
O O3 0.806325 0.458591 0.999762
O O4 0.031317 0.284653 0.059035
O O5 0.891325 0.569814 0.793881
O O6 0.820049 0.242995 0.926916
O O7 0.227936 0.635768 0.497013
O O8 0.645418 0.592975 0.816093
O O9 0.354096 0.189786 0.144760
O O10 0.824466 0.405539 0.737915
O O11 0.701967 0.944306 0.062634
O O12 0.500000 0.000000 0.500000
O O13 0.908345 0.852691 0.408462
O O14 0.329704 0.711957 0.302218
O O15 0.000000 0.500000 0.500000
#
# Coordination Sequence:
#
# PCOD9056277 Si02
#       7
#     2   2   2   2   2   2   2
#     4  11  24  39  61  93 123 156 204 248 300 358
#     4   8  20  39  63  85 120 159 204 245 298 361
#     4   9  18  42  62  83 122 160 203 247 292 368
#     4   9  19  37  60  85 116 154 204 241 290 364
#     4  11  24  41  61  87 125 164 200 246 298 359
#     4  11  22  37  60  91 122 155 198 254 301 354
#     4  11  22  37  60  86 120 161 198 246 301 353
#
# _framework density 21.070156999999998
#
# number of rings (size 3 to 8) (size 9 to 14) (size 15 to 20)
#    0.857    1.143    0.000    3.429    0.000    6.857 
#    0.000    0.714    0.000    0.000    0.000    0.000 
#    0.000    0.000    0.000    0.000    0.000    0.000 
#
# Total GULP energy -77967.564238 kJ/mol
# GULP energy per Si atom -5569.111731 kJ/mol
# Density = 2.102220 g / cm^3
# Si number density = 21.070157 Si / 1000 Ang^3
#
#
#
# Elastic Constant Matrix: (Units=GPa)
#
#
# Indices 1 2 3 4 5 6 
#
# 1 67.1976 33.3474 6.6432 -6.9376 -8.8998 19.0706
# 2 33.3474 120.5213 36.5575 -9.7275 -2.5217 24.0044
# 3 6.6432 36.5575 45.1933 -3.1849 -4.9194 7.8895
# 4 -6.9376 -9.7275 -3.1849 28.7511 8.4131 -5.5665
# 5 -8.8998 -2.5217 -4.9194 8.4131 20.1339 8.1318
# 6 19.0706 24.0044 7.8895 -5.5665 8.1318 38.8091
#
#
#
# Elastic Compliance Matrix: (Units=1/GPa)
#
#
# Indices 1 2 3 4 5 6 
#
# 1 0.022470 -0.004928 0.004568 -0.003223 0.017008 -0.012948
# 2 -0.004928 0.013316 -0.009659 0.002477 -0.002724 -0.002925
# 3 0.004568 -0.009659 0.031346 -0.003349 0.012158 -0.005671
# 4 -0.003223 0.002477 -0.003349 0.044332 -0.025478 0.012430
# 5 0.017008 -0.002724 0.012158 -0.025478 0.082622 -0.030110
# 6 -0.012948 -0.002925 -0.005671 0.012430 -0.030110 0.043184
#
#
# Mechanical properties :
#
#
# Convention : Reuss Voigt Hill
#
# Bulk Modulus (GPa) = 21.23376 42.88980 32.06178
# Shear Modulus (GPa) = 18.31461 27.96310 23.13886
#
# Velocity S-wave (km/s) = 2.95145 3.64695 3.31748
# Velocity P-wave (km/s) = 4.65986 6.17524 5.47028
#
# Compressibility (1/GPa) = 0.04709481
#
# Stress axis : x y z
#
# Youngs Moduli (GPa) = 44.50381 75.09689 31.90192
#
# Poissons Ratio (x) = 0.37010 -0.14573
# Poissons Ratio (y) = 0.21933 0.30813
# Poissons Ratio (z) = -0.20330 0.72533
#
# Static dielectric constant tensor:
#      x y z
#    x 1.764670 0.011790 0.004970 
#    y 0.011790 1.791800 0.025410 
#    z 0.004970 0.025410 1.813020 
# 
# From -- ./inp_files/196044.got.cif
#   From: 2010.05.17/outbox.cif.g08.bks.cpg/sg2_99_cif.got.tgz:196044.got - 2010.06.03 11:33:40.
