data_PCOD9056166
_publ_section_title
;
Structure prediction by ZEFSAII (Michael W. Deem and Ramdas Pophale) SiO2 
 PCOD9056166
Probable space group: P -1
;
_chemical_formula_sum "Si O2"
_cell_formula_units_Z 16
_cell_length_a 5.228737
_cell_length_b 11.635942
_cell_length_c 15.304174
_cell_angle_alpha 89.814392
_cell_angle_beta 78.247863
_cell_angle_gamma 66.302647
_cell_volume 831.525358
_symmetry_space_group_name_H-M "P -1"
_symmetry_group_IT_number 2
_symmetry_cell_setting 'triclinic'
loop_
_space_group_symop_operation_xyz
x,y,z
-x,-y,-z
loop_
_atom_site_type_symbol
_atom_site_label
_atom_site_fract_x
_atom_site_fract_y
_atom_site_fract_z
Si Si1 0.295084 0.148130 0.796336
Si Si2 0.474616 0.877948 0.037135
Si Si3 0.694395 0.128370 0.220177
Si Si4 0.564360 0.088235 0.600939
Si Si5 0.778330 0.081350 0.408371
Si Si6 0.756348 0.301764 0.934889
Si Si7 0.222913 0.520966 0.920593
Si Si8 0.129050 0.249150 0.140651
O O1 0.517781 0.116648 0.859844
O O2 0.425428 0.167999 0.696527
O O3 0.029739 0.266265 0.854318
O O4 0.235350 0.021097 0.791373
O O5 0.223035 0.834769 0.035365
O O6 0.736900 0.773046 0.966514
O O7 0.500000 0.000000 0.000000
O O8 0.678356 0.156284 0.325081
O O9 0.397093 0.200790 0.188448
O O10 0.938800 0.169474 0.167340
O O11 0.640199 0.147644 0.509184
O O12 0.340494 0.028201 0.590536
O O13 0.876087 0.980481 0.607753
O O14 0.487273 0.387142 0.893168
O O15 0.689601 0.384482 0.027057
O O16 0.071704 0.601718 0.845997
O O17 0.000000 0.500000 0.000000
#
# Coordination Sequence:
#
# PCOD9056166 Si02
#       8
#     2   2   2   2   2   2   2   2
#     4  11  22  33  55  84 118 151 189 233 292 352
#     4  12  23  34  52  83 124 152 186 230 293 352
#     4  11  23  35  57  85 119 150 190 237 291 361
#     4   9  19  33  57  79 113 154 186 231 283 352
#     4   9  18  36  53  81 114 150 188 230 288 345
#     4  11  23  38  56  79 114 158 202 243 287 330
#     4  11  23  40  57  73 111 161 210 252 271 327
#     4  12  23  37  55  82 112 158 196 230 289 335
#
# _framework density 19.241748000000001
#
# number of rings (size 3 to 8) (size 9 to 14) (size 15 to 20)
#    0.000    1.250    3.750    3.000    5.250    1.000 
#    0.000    0.000    0.000    0.000    0.000    1.750 
#    0.000    0.000    0.000    0.000    0.000    0.000 
#
# Total GULP energy -89124.410736 kJ/mol
# GULP energy per Si atom -5570.275671 kJ/mol
# Density = 1.919795 g / cm^3
# Si number density = 19.241748 Si / 1000 Ang^3
#
#
#
# Elastic Constant Matrix: (Units=GPa)
#
#
# Indices 1 2 3 4 5 6 
#
# 1 84.4713 15.6846 15.6556 -4.0487 2.0429 -7.8610
# 2 15.6846 59.1920 10.5503 -3.7108 3.2427 -11.5734
# 3 15.6556 10.5503 130.1567 -7.6783 4.7806 -4.6971
# 4 -4.0487 -3.7108 -7.6783 12.9467 -5.6715 0.0206
# 5 2.0429 3.2427 4.7806 -5.6715 26.5067 -1.4038
# 6 -7.8610 -11.5734 -4.6971 0.0206 -1.4038 33.0109
#
#
#
# Elastic Compliance Matrix: (Units=1/GPa)
#
#
# Indices 1 2 3 4 5 6 
#
# 1 0.012846 -0.002664 -0.001107 0.002688 0.000215 0.001975
# 2 -0.002664 0.019185 -0.000763 0.003822 -0.000872 0.005944
# 3 -0.001107 -0.000763 0.008156 0.004104 -0.000382 0.000611
# 4 0.002688 0.003822 0.004104 0.089445 0.017896 0.003270
# 5 0.000215 -0.000872 -0.000382 0.017896 0.041792 0.001457
# 6 0.001975 0.005944 0.000611 0.003270 0.001457 0.032994
#
#
# Mechanical properties :
#
#
# Convention : Reuss Voigt Hill
#
# Bulk Modulus (GPa) = 32.13350 39.73347 35.93348
# Shear Modulus (GPa) = 22.33557 29.95483 26.14520
#
# Velocity S-wave (km/s) = 3.41073 3.94986 3.69016
# Velocity P-wave (km/s) = 5.67864 6.44176 6.07220
#
# Compressibility (1/GPa) = 0.03112017
#
# Stress axis : x y z
#
# Youngs Moduli (GPa) = 77.84788 52.12275 122.60566
#
# Poissons Ratio (x) = 0.13883 0.13575
# Poissons Ratio (y) = 0.20735 0.09352
# Poissons Ratio (z) = 0.08620 0.03976
#
# Static dielectric constant tensor:
#      x y z
#    x 1.829950 0.003860 0.027120 
#    y 0.003860 1.764950 0.004090 
#    z 0.027120 0.004090 1.708360 
# 
# From -- ./inp_files/80133.got.cif
#   From: 2010.05.17/outbox.cif.g08.bks.cpg/sg2_41_cif.got.tgz:80133.got - 2010.06.03 11:33:40.
