data_PCOD9056782
_publ_section_title
;
Structure prediction by ZEFSAII (Michael W. Deem and Ramdas Pophale) SiO2 
 PCOD9056782
Probable space group: P -1
;
_chemical_formula_sum "Si O2"
_cell_formula_units_Z 16
_cell_length_a 9.540780
_cell_length_b 9.249936
_cell_length_c 25.516793
_cell_angle_alpha 154.837096
_cell_angle_beta 132.165851
_cell_angle_gamma 47.070895
_cell_volume 690.118423
_symmetry_space_group_name_H-M "P -1"
_symmetry_group_IT_number 2
_symmetry_cell_setting 'triclinic'
loop_
_space_group_symop_operation_xyz
x,y,z
-x,-y,-z
loop_
_atom_site_type_symbol
_atom_site_label
_atom_site_fract_x
_atom_site_fract_y
_atom_site_fract_z
Si Si1 0.853762 0.048063 0.592625
Si Si2 0.729504 0.658721 0.343077
Si Si3 0.093679 0.626692 0.180740
Si Si4 0.354428 0.253937 0.893033
Si Si5 0.259464 0.750700 0.544549
Si Si6 0.403077 0.252369 0.293189
Si Si7 0.471518 0.159775 0.102469
Si Si8 0.881744 0.890654 0.749733
O O1 0.853013 0.114679 0.676380
O O2 0.735678 0.408335 0.655577
O O3 0.764952 0.753571 0.443823
O O4 0.077423 0.955342 0.600446
O O5 0.535796 0.527119 0.242662
O O6 0.901320 0.339093 0.260794
O O7 0.735314 0.993931 0.419456
O O8 0.250058 0.257514 0.099263
O O9 0.873157 0.599553 0.126013
O O10 0.107758 0.792590 0.181427
O O11 0.444798 0.932753 0.772389
O O12 0.389742 0.105152 0.911267
O O13 0.500000 0.500000 0.000000
O O14 0.456486 0.677731 0.602512
O O15 0.206431 0.393673 0.397193
O O16 0.258601 0.028908 0.208688
O O17 0.500000 0.000000 0.000000
#
# Coordination Sequence:
#
# PCOD9056782 Si02
#       8
#     2   2   2   2   2   2   2   2
#     4  11  23  42  72 109 150 190 231 299 367 433
#     4  11  23  45  72 111 156 186 244 297 361 436
#     4  12  27  50  74 110 147 185 242 309 368 425
#     4  12  30  52  73 105 140 195 251 301 362 431
#     4  11  22  40  69 110 152 191 234 290 362 440
#     4  12  23  44  73 106 145 193 244 289 363 438
#     4  12  30  50  74 106 145 195 247 302 358 423
#     4  11  23  41  75 110 145 191 234 290 369 437
#
# _framework density 23.184426999999999
#
# number of rings (size 3 to 8) (size 9 to 14) (size 15 to 20)
#    0.000    0.500    6.250    1.875    5.250    5.500 
#    0.000    0.000    0.000    0.000    0.000    0.000 
#    0.000    0.000    0.000    0.000    0.000    0.000 
#
# Total GULP energy -89521.107246 kJ/mol
# GULP energy per Si atom -5595.069203 kJ/mol
# Density = 2.313166 g / cm^3
# Si number density = 23.184427 Si / 1000 Ang^3
#
#
#
# Elastic Constant Matrix: (Units=GPa)
#
#
# Indices 1 2 3 4 5 6 
#
# 1 111.0866 24.5398 34.7605 -18.4821 -8.1607 -27.8554
# 2 24.5398 67.9505 5.9234 -13.0946 -2.9882 -24.6099
# 3 34.7605 5.9234 55.4204 -13.4752 -3.5636 -2.4632
# 4 -18.4821 -13.0946 -13.4752 22.7333 8.9619 -2.7921
# 5 -8.1607 -2.9882 -3.5636 8.9619 38.6841 2.8379
# 6 -27.8554 -24.6099 -2.4632 -2.7921 2.8379 52.9428
#
#
#
# Elastic Compliance Matrix: (Units=1/GPa)
#
#
# Indices 1 2 3 4 5 6 
#
# 1 0.014486 -0.000185 -0.006603 0.008766 -0.000162 0.007700
# 2 -0.000185 0.021515 0.001978 0.015812 -0.002663 0.010972
# 3 -0.006603 0.001978 0.024458 0.010732 -0.001416 -0.000775
# 4 0.008766 0.015812 0.010732 0.074381 -0.014431 0.017158
# 5 -0.000162 -0.002663 -0.001416 -0.014431 0.029095 -0.003710
# 6 0.007700 0.010972 -0.000775 0.017158 -0.003710 0.029107
#
#
# Mechanical properties :
#
#
# Convention : Reuss Voigt Hill
#
# Bulk Modulus (GPa) = 19.67036 40.54497 30.10766
# Shear Modulus (GPa) = 22.76769 34.15429 28.46099
#
# Velocity S-wave (km/s) = 3.13713 3.84234 3.50750
# Velocity P-wave (km/s) = 4.65025 6.10006 5.42381
#
# Compressibility (1/GPa) = 0.05083792
#
# Stress axis : x y z
#
# Youngs Moduli (GPa) = 69.03053 46.47951 40.88667
#
# Poissons Ratio (x) = 0.00861 0.26997
# Poissons Ratio (y) = 0.01279 -0.08086
# Poissons Ratio (z) = 0.45581 -0.09192
#
# Static dielectric constant tensor:
#      x y z
#    x 1.927910 -0.006360 -0.007880 
#    y -0.006360 1.845420 -0.008700 
#    z -0.007880 -0.008700 1.935620 
# 
# From -- ./inp_files/352411.got.cif
#   From: 2010.05.17/outbox.cif.g08.bks.cpg/sg2_177_cif.got.tgz:352411.got - 2010.06.03 11:33:40.
