data_PCOD9056752
_publ_section_title
;
Structure prediction by ZEFSAII (Michael W. Deem and Ramdas Pophale) SiO2 
 PCOD9056752
Probable space group: P -1
;
_chemical_formula_sum "Si O2"
_cell_formula_units_Z 16
_cell_length_a 11.367798
_cell_length_b 8.971280
_cell_length_c 12.787771
_cell_angle_alpha 51.509392
_cell_angle_beta 132.104311
_cell_angle_gamma 112.972223
_cell_volume 756.513026
_symmetry_space_group_name_H-M "P -1"
_symmetry_group_IT_number 2
_symmetry_cell_setting 'triclinic'
loop_
_space_group_symop_operation_xyz
x,y,z
-x,-y,-z
loop_
_atom_site_type_symbol
_atom_site_label
_atom_site_fract_x
_atom_site_fract_y
_atom_site_fract_z
Si Si1 0.731208 0.496165 0.338622
Si Si2 0.824579 0.486900 0.168605
Si Si3 0.866508 0.880659 0.781660
Si Si4 0.680144 0.951955 0.093785
Si Si5 0.108889 0.707039 0.286558
Si Si6 0.966253 0.112957 0.326275
Si Si7 0.211596 0.728524 0.113871
Si Si8 0.374419 0.423792 0.184124
O O1 0.780576 0.418354 0.287820
O O2 0.712158 0.724979 0.212835
O O3 0.849295 0.431829 0.530299
O O4 0.562309 0.419738 0.304410
O O5 0.938252 0.332360 0.244713
O O6 0.927669 0.671423 0.163557
O O7 0.676461 0.519228 0.989387
O O8 0.709979 0.770774 0.758192
O O9 0.893044 0.918033 0.658875
O O10 0.873325 0.078088 0.760029
O O11 0.024889 0.752088 0.962368
O O12 0.806395 0.040355 0.209637
O O13 0.500000 0.000000 0.000000
O O14 0.715608 0.066965 0.958148
O O15 0.215811 0.672517 0.262232
O O16 0.000000 0.000000 0.500000
O O17 0.299161 0.577517 0.154679
#
# Coordination Sequence:
#
# PCOD9056752 Si02
#       8
#     2   2   2   2   2   2   2   2
#     4  12  27  44  64 104 138 170 214 278 338 383
#     4  12  22  43  69  95 130 174 222 269 322 394
#     4  11  23  43  68  97 129 176 227 267 321 397
#     4  11  22  44  66  95 130 172 219 260 325 398
#     4  12  26  43  69  99 135 172 220 278 330 382
#     4  11  22  40  68  96 126 169 221 273 322 382
#     4  11  22  44  71  97 126 177 227 268 320 400
#     4  12  24  43  68  96 133 174 222 270 326 394
#
# _framework density 21.14967
#
# number of rings (size 3 to 8) (size 9 to 14) (size 15 to 20)
#    0.000    0.500    5.000    5.250    1.750    1.000 
#    2.250    0.000    0.000    0.000    0.000    0.000 
#    0.000    0.000    0.000    0.000    0.000    0.000 
#
# Total GULP energy -89503.014947 kJ/mol
# GULP energy per Si atom -5593.938434 kJ/mol
# Density = 2.110153 g / cm^3
# Si number density = 21.149670 Si / 1000 Ang^3
#
#
#
# Elastic Constant Matrix: (Units=GPa)
#
#
# Indices 1 2 3 4 5 6 
#
# 1 102.2264 24.8270 11.1428 17.1115 -19.4038 1.1909
# 2 24.8270 93.4095 -20.0816 3.7207 8.9663 6.0409
# 3 11.1428 -20.0816 49.7247 14.5834 -23.4575 -11.7590
# 4 17.1115 3.7207 14.5834 16.0106 -6.6091 -10.8948
# 5 -19.4038 8.9663 -23.4575 -6.6091 35.5091 3.4743
# 6 1.1909 6.0409 -11.7590 -10.8948 3.4743 28.9932
#
#
#
# Elastic Compliance Matrix: (Units=1/GPa)
#
#
# Indices 1 2 3 4 5 6 
#
# 1 0.015111 -0.002746 0.003685 -0.020333 0.008304 -0.007189
# 2 -0.002746 0.013853 0.007719 -0.010155 -0.001468 -0.003283
# 3 0.003685 0.007719 0.043340 -0.036509 0.021952 -0.000532
# 4 -0.020333 -0.010155 -0.036509 0.145738 -0.009853 0.044088
# 5 0.008304 -0.001468 0.021952 -0.009853 0.045769 -0.000319
# 6 -0.007189 -0.003283 -0.000532 0.044088 -0.000319 0.051860
#
#
# Mechanical properties :
#
#
# Convention : Reuss Voigt Hill
#
# Bulk Modulus (GPa) = 11.15815 30.79301 20.97558
# Shear Modulus (GPa) = 15.23334 31.40073 23.31704
#
# Velocity S-wave (km/s) = 2.68668 3.85735 3.32396
# Velocity P-wave (km/s) = 3.86156 5.86771 4.96697
#
# Compressibility (1/GPa) = 0.08962060
#
# Stress axis : x y z
#
# Youngs Moduli (GPa) = 66.17714 72.18784 23.07334
#
# Poissons Ratio (x) = 0.19825 -0.08503
# Poissons Ratio (y) = 0.18174 -0.17811
# Poissons Ratio (z) = -0.24388 -0.55725
#
# Static dielectric constant tensor:
#      x y z
#    x 1.760740 -0.015680 -0.030140 
#    y -0.015680 1.770930 -0.020860 
#    z -0.030140 -0.020860 1.760280 
# 
# From -- ./inp_files/419230.got.cif
#   From: 2010.05.17/outbox.cif.g08.bks.cpg/sg2_210_cif.got.tgz:419230.got - 2010.06.03 11:33:40.
