data_PCOD9056447
_publ_section_title
;
Structure prediction by ZEFSAII (Michael W. Deem and Ramdas Pophale) SiO2 
 PCOD9056447
Probable space group: P -1
;
_chemical_formula_sum "Si O2"
_cell_formula_units_Z 16
_cell_length_a 18.794894
_cell_length_b 12.187734
_cell_length_c 9.824253
_cell_angle_alpha 39.059469
_cell_angle_beta 139.550783
_cell_angle_gamma 152.308894
_cell_volume 637.920291
_symmetry_space_group_name_H-M "P -1"
_symmetry_group_IT_number 2
_symmetry_cell_setting 'triclinic'
loop_
_space_group_symop_operation_xyz
x,y,z
-x,-y,-z
loop_
_atom_site_type_symbol
_atom_site_label
_atom_site_fract_x
_atom_site_fract_y
_atom_site_fract_z
Si Si1 0.664902 0.685877 0.891733
Si Si2 0.195767 0.292523 0.189081
Si Si3 0.909609 0.477129 0.677294
Si Si4 0.707359 0.126727 0.490438
Si Si5 0.662382 0.623178 0.413943
Si Si6 0.749475 0.250338 0.131731
Si Si7 0.623258 0.156059 0.763275
Si Si8 0.872787 0.835178 0.284181
O O1 0.788317 0.774824 0.868851
O O2 0.492376 0.463055 0.789432
O O3 0.681517 0.909724 0.728490
O O4 0.717449 0.651546 0.138412
O O5 0.297350 0.306011 0.437995
O O6 0.261589 0.562453 0.018865
O O7 0.015934 0.096715 0.168363
O O8 0.853488 0.381892 0.532208
O O9 0.764942 0.256328 0.776688
O O10 0.930568 0.705193 0.511540
O O11 0.076061 0.576192 0.843019
O O12 0.727896 0.120710 0.364343
O O13 0.549954 0.061828 0.341264
O O14 0.643157 0.389905 0.589643
O O15 0.813554 0.845853 0.328849
O O16 0.633743 0.084901 0.996820
#
# Coordination Sequence:
#
# PCOD9056447 Si02
#       8
#     2   2   2   2   2   2   2   2
#     4  11  22  39  60  86 116 151 190 235 284 338
#     4  11  22  39  60  86 116 151 190 235 284 338
#     4  11  22  39  60  86 116 151 190 235 284 338
#     4  11  22  39  60  86 116 151 190 235 284 338
#     4   9  21  39  61  86 115 147 190 239 286 336
#     4  11  22  39  60  86 116 151 190 235 284 338
#     4   9  21  39  61  86 115 147 190 239 286 336
#     4  11  22  39  60  86 116 151 190 235 284 338
#
# _framework density 25.081503000000001
#
# number of rings (size 3 to 8) (size 9 to 14) (size 15 to 20)
#    0.000    1.500    0.000    5.250    0.000    0.000 
#    0.000   11.250    0.000    0.000    0.000    0.000 
#    0.000    0.000    0.000    0.000    0.000    0.000 
#
# Total GULP energy -89639.384890 kJ/mol
# GULP energy per Si atom -5602.461556 kJ/mol
# Density = 2.502442 g / cm^3
# Si number density = 25.081503 Si / 1000 Ang^3
#
#
#
# Elastic Constant Matrix: (Units=GPa)
#
#
# Indices 1 2 3 4 5 6 
#
# 1 65.8647 8.5603 23.0601 -3.1582 -9.5768 12.0733
# 2 8.5603 64.6980 11.7828 14.8451 10.0963 6.1931
# 3 23.0601 11.7828 58.3711 20.9259 -5.0554 -10.2485
# 4 -3.1582 14.8451 20.9259 32.6005 3.8210 -3.2234
# 5 -9.5768 10.0963 -5.0554 3.8210 32.8740 6.1788
# 6 12.0733 6.1931 -10.2485 -3.2234 6.1788 33.1665
#
#
#
# Elastic Compliance Matrix: (Units=1/GPa)
#
#
# Indices 1 2 3 4 5 6 
#
# 1 0.024799 -0.002952 -0.014945 0.011199 0.007034 -0.013316
# 2 -0.002952 0.018890 -0.000639 -0.008090 -0.005361 -0.002437
# 3 -0.014945 -0.000639 0.033249 -0.021256 0.000869 0.013606
# 4 0.011199 -0.008090 -0.021256 0.048991 -0.002481 -0.003910
# 5 0.007034 -0.005361 0.000869 -0.002481 0.036088 -0.008255
# 6 -0.013316 -0.002437 0.013606 -0.003910 -0.008255 0.040816
#
#
# Mechanical properties :
#
#
# Convention : Reuss Voigt Hill
#
# Bulk Modulus (GPa) = 25.08352 30.63780 27.86066
# Shear Modulus (GPa) = 19.74774 29.43024 24.58899
#
# Velocity S-wave (km/s) = 2.80901 3.42919 3.13447
# Velocity P-wave (km/s) = 4.53246 5.28402 4.92261
#
# Compressibility (1/GPa) = 0.03986681
#
# Stress axis : x y z
#
# Youngs Moduli (GPa) = 40.32358 52.93905 30.07605
#
# Poissons Ratio (x) = 0.15628 0.44948
# Poissons Ratio (y) = 0.11904 0.01921
# Poissons Ratio (z) = 0.60263 0.03382
#
# Static dielectric constant tensor:
#      x y z
#    x 1.923830 0.046730 -0.016560 
#    y 0.046730 1.932520 -0.000640 
#    z -0.016560 -0.000640 1.954260 
# 
# From -- ./inp_files/332959.got.cif
#   From: 2010.05.17/outbox.cif.g08.bks.cpg/sg2_167_cif.got.tgz:332959.got - 2010.06.03 11:33:40.
