data_PCOD9056132
_publ_section_title
;
Structure prediction by ZEFSAII (Michael W. Deem and Ramdas Pophale) SiO2 
 PCOD9056132
Probable space group: P -1
;
_chemical_formula_sum "Si O2"
_cell_formula_units_Z 16
_cell_length_a 8.607622
_cell_length_b 19.091242
_cell_length_c 11.226163
_cell_angle_alpha 53.060399
_cell_angle_beta 138.630046
_cell_angle_gamma 97.159968
_cell_volume 766.282323
_symmetry_space_group_name_H-M "P -1"
_symmetry_group_IT_number 2
_symmetry_cell_setting 'triclinic'
loop_
_space_group_symop_operation_xyz
x,y,z
-x,-y,-z
loop_
_atom_site_type_symbol
_atom_site_label
_atom_site_fract_x
_atom_site_fract_y
_atom_site_fract_z
Si Si1 0.165323 0.421554 0.338379
Si Si2 0.187996 0.085851 0.017462
Si Si3 0.263976 0.679662 0.368329
Si Si4 0.550531 0.329705 0.888033
Si Si5 0.018580 0.337277 0.002651
Si Si6 0.670419 0.115611 0.543083
Si Si7 0.303924 0.900389 0.713355
Si Si8 0.450642 0.519983 0.089660
O O1 0.447854 0.339917 0.500660
O O2 0.290498 0.388317 0.578945
O O3 0.046757 0.547509 0.118348
O O4 0.901415 0.416505 0.163617
O O5 0.442954 0.089649 0.109663
O O6 0.324942 0.977031 0.287776
O O7 0.987007 0.193029 0.876806
O O8 0.963252 0.098902 0.776416
O O9 0.365329 0.599589 0.619812
O O10 0.144200 0.640639 0.240074
O O11 0.465872 0.408672 0.871901
O O12 0.622062 0.215246 0.085984
O O13 0.837821 0.311865 0.010387
O O14 0.366172 0.235283 0.285610
O O15 0.693194 0.097810 0.431898
O O16 0.000000 0.000000 0.500000
O O17 0.500000 0.500000 0.000000
#
# Coordination Sequence:
#
# PCOD9056132 Si02
#       8
#     2   2   2   2   2   2   2   2
#     4  11  24  43  70  99 139 184 227 280 331 403
#     4  11  26  46  72 101 132 179 236 281 333 407
#     4  11  22  43  71 100 136 177 232 278 333 408
#     4  11  26  44  65 104 136 179 229 280 339 406
#     4  11  21  46  74  96 136 181 236 280 328 404
#     4  11  26  46  73 101 129 181 233 284 337 403
#     4  12  28  47  70  99 144 178 223 285 352 405
#     4  12  27  40  66 104 146 182 220 276 352 406
#
# _framework density 20.880032
#
# number of rings (size 3 to 8) (size 9 to 14) (size 15 to 20)
#    0.000    0.750    3.750    3.000   10.500    1.000 
#    0.000    0.000    0.000    0.000    0.000    0.000 
#    0.000    0.000    0.000    0.000    0.000    0.000 
#
# Total GULP energy -89549.593731 kJ/mol
# GULP energy per Si atom -5596.849608 kJ/mol
# Density = 2.083251 g / cm^3
# Si number density = 20.880032 Si / 1000 Ang^3
#
#
#
# Elastic Constant Matrix: (Units=GPa)
#
#
# Indices 1 2 3 4 5 6 
#
# 1 73.0168 27.1830 45.7743 6.9671 -9.8290 -3.9941
# 2 27.1830 50.0074 -0.0408 8.8190 -13.7446 6.8309
# 3 45.7743 -0.0408 81.7688 2.0286 -1.9380 3.1626
# 4 6.9671 8.8190 2.0286 31.8788 -10.3822 -0.5615
# 5 -9.8290 -13.7446 -1.9380 -10.3822 39.5291 0.1408
# 6 -3.9941 6.8309 3.1626 -0.5615 0.1408 36.5937
#
#
#
# Elastic Compliance Matrix: (Units=1/GPa)
#
#
# Indices 1 2 3 4 5 6 
#
# 1 0.033287 -0.019081 -0.018960 -0.000451 0.000563 0.008824
# 2 -0.019081 0.034227 0.011325 -0.004007 0.006693 -0.009538
# 3 -0.018960 0.011325 0.023107 -0.000487 0.000250 -0.006189
# 4 -0.000451 -0.004007 -0.000487 0.035135 0.007694 0.001250
# 5 0.000563 0.006693 0.000250 0.007694 0.029803 -0.001206
# 6 0.008824 -0.009538 -0.006189 0.001250 -0.001206 0.030629
#
#
# Mechanical properties :
#
#
# Convention : Reuss Voigt Hill
#
# Bulk Modulus (GPa) = 26.88906 38.95844 32.92375
# Shear Modulus (GPa) = 19.84011 30.39208 25.11609
#
# Velocity S-wave (km/s) = 3.08587 3.81932 3.47201
# Velocity P-wave (km/s) = 5.05990 6.17643 5.64584
#
# Compressibility (1/GPa) = 0.03718984
#
# Stress axis : x y z
#
# Youngs Moduli (GPa) = 30.04213 29.21634 43.27768
#
# Poissons Ratio (x) = 0.55746 0.82055
# Poissons Ratio (y) = 0.57322 -0.49014
# Poissons Ratio (z) = 0.56960 -0.33089
#
# Static dielectric constant tensor:
#      x y z
#    x 1.775710 -0.010020 0.017290 
#    y -0.010020 1.750840 0.025630 
#    z 0.017290 0.025630 1.723530 
# 
# From -- ./inp_files/306214.got.cif
#   From: 2010.05.17/outbox.cif.g08.bks.cpg/sg2_154_cif.got.tgz:306214.got - 2010.06.03 11:33:40.
