data_PCOD9056290
_publ_section_title
;
Structure prediction by ZEFSAII (Michael W. Deem and Ramdas Pophale) SiO2 
 PCOD9056290
Probable space group: P -1
;
_chemical_formula_sum "Si O2"
_cell_formula_units_Z 14
_cell_length_a 12.854217
_cell_length_b 13.310392
_cell_length_c 15.194239
_cell_angle_alpha 32.075556
_cell_angle_beta 152.211656
_cell_angle_gamma 137.146249
_cell_volume 642.166744
_symmetry_space_group_name_H-M "P -1"
_symmetry_group_IT_number 2
_symmetry_cell_setting 'triclinic'
loop_
_space_group_symop_operation_xyz
x,y,z
-x,-y,-z
loop_
_atom_site_type_symbol
_atom_site_label
_atom_site_fract_x
_atom_site_fract_y
_atom_site_fract_z
Si Si1 0.510064 0.591311 0.163941
Si Si2 0.159236 0.329441 0.785154
Si Si3 0.970590 0.221062 0.287436
Si Si4 0.809751 0.100715 0.085453
Si Si5 0.560527 0.722092 0.800719
Si Si6 0.662939 0.717408 0.358481
Si Si7 0.133140 0.963482 0.276416
O O1 0.660434 0.717821 0.121429
O O2 0.478625 0.409011 0.215562
O O3 0.625789 0.567925 0.363659
O O4 0.272487 0.698308 0.924476
O O5 0.000000 0.500000 0.500000
O O6 0.998728 0.159462 0.800301
O O7 0.301075 0.376559 0.941983
O O8 0.154818 0.331679 0.394188
O O9 0.966039 0.214417 0.183791
O O10 0.000000 0.000000 0.500000
O O11 0.747986 0.902142 0.232991
O O12 0.571071 0.219250 0.816570
O O13 0.949434 0.056918 0.135425
O O14 0.317444 0.821118 0.570073
O O15 0.719708 0.884018 0.770513
#
# Coordination Sequence:
#
# PCOD9056290 Si02
#       7
#     2   2   2   2   2   2   2
#     4  11  22  37  62  93 123 161 212 267 311 366
#     4  12  25  40  66  96 123 167 223 264 309 370
#     4   9  20  32  59  94 124 152 203 268 317 362
#     4   9  18  34  58  89 119 160 203 255 310 371
#     4  11  27  42  61  95 132 173 207 258 323 381
#     4   9  18  34  57  93 120 151 207 265 309 356
#     4  11  24  44  64  91 135 170 207 257 323 385
#
# _framework density 21.801192
#
# number of rings (size 3 to 8) (size 9 to 14) (size 15 to 20)
#    0.000    1.714    2.857    1.714    6.000    0.000 
#    0.000    2.857    0.000    1.714    0.000    0.000 
#    0.000    0.000    0.000    0.000    0.000    0.000 
#
# Total GULP energy -78156.376905 kJ/mol
# GULP energy per Si atom -5582.598350 kJ/mol
# Density = 2.175157 g / cm^3
# Si number density = 21.801192 Si / 1000 Ang^3
#
#
#
# Elastic Constant Matrix: (Units=GPa)
#
#
# Indices 1 2 3 4 5 6 
#
# 1 49.4466 34.1024 28.2066 9.7239 12.7274 -16.7516
# 2 34.1024 136.7726 36.6426 38.0818 -2.3368 -21.9832
# 3 28.2066 36.6426 69.9950 30.6030 -8.7389 -20.0751
# 4 9.7239 38.0818 30.6030 37.1859 -5.0988 -5.5673
# 5 12.7274 -2.3368 -8.7389 -5.0988 21.4509 3.1184
# 6 -16.7516 -21.9832 -20.0751 -5.5673 3.1184 37.0184
#
#
#
# Elastic Compliance Matrix: (Units=1/GPa)
#
#
# Indices 1 2 3 4 5 6 
#
# 1 0.050077 -0.008270 -0.021863 0.009639 -0.038771 0.010609
# 2 -0.008270 0.012518 0.003905 -0.012751 0.004317 0.003528
# 3 -0.021863 0.003905 0.036170 -0.024120 0.021439 0.006607
# 4 0.009639 -0.012751 -0.024120 0.055778 -0.002559 -0.007687
# 5 -0.038771 0.004317 0.021439 -0.002559 0.079738 -0.010456
# 6 0.010609 0.003528 0.006607 -0.007687 -0.010456 0.037218
#
#
# Mechanical properties :
#
#
# Convention : Reuss Voigt Hill
#
# Bulk Modulus (GPa) = 21.59345 50.45748 36.02546
# Shear Modulus (GPa) = 14.73230 29.61522 22.17376
#
# Velocity S-wave (km/s) = 2.60235 3.68968 3.19264
# Velocity P-wave (km/s) = 4.35383 6.43010 5.49100
#
# Compressibility (1/GPa) = 0.04631035
#
# Stress axis : x y z
#
# Youngs Moduli (GPa) = 19.96931 79.88370 27.64712
#
# Poissons Ratio (x) = 0.66061 0.60444
# Poissons Ratio (y) = 0.16514 -0.10796
# Poissons Ratio (z) = 0.43658 -0.31194
#
# Static dielectric constant tensor:
#      x y z
#    x 1.803130 0.002650 -0.023340 
#    y 0.002650 1.847100 0.004160 
#    z -0.023340 0.004160 1.808510 
# 
# From -- ./inp_files/222674.got.cif
#   From: 2010.05.17/outbox.cif.g08.bks.cpg/sg2_112_cif.got.tgz:222674.got - 2010.06.03 11:33:40.
