data_PCOD9056481
_publ_section_title
;
Structure prediction by ZEFSAII (Michael W. Deem and Ramdas Pophale) SiO2 
 PCOD9056481
Probable space group: P -1
;
_chemical_formula_sum "Si O2"
_cell_formula_units_Z 16
_cell_length_a 11.259810
_cell_length_b 8.475439
_cell_length_c 15.978900
_cell_angle_alpha 42.170137
_cell_angle_beta 142.705001
_cell_angle_gamma 126.045048
_cell_volume 620.285649
_symmetry_space_group_name_H-M "P -1"
_symmetry_group_IT_number 2
_symmetry_cell_setting 'triclinic'
loop_
_space_group_symop_operation_xyz
x,y,z
-x,-y,-z
loop_
_atom_site_type_symbol
_atom_site_label
_atom_site_fract_x
_atom_site_fract_y
_atom_site_fract_z
Si Si1 0.511354 0.766023 0.869568
Si Si2 0.825528 0.907647 0.384941
Si Si3 0.461296 0.501646 0.579397
Si Si4 0.160273 0.185991 0.749406
Si Si5 0.882514 0.362244 0.844814
Si Si6 0.453186 0.618698 0.714421
Si Si7 0.967334 0.859719 0.135120
Si Si8 0.854321 0.356284 0.037768
O O1 0.358708 0.910378 0.785316
O O2 0.443964 0.790676 0.723781
O O3 0.500000 0.500000 0.000000
O O4 0.740724 0.830601 0.988059
O O5 0.716398 0.674723 0.443200
O O6 0.923908 0.844617 0.376654
O O7 0.000000 0.000000 0.500000
O O8 0.500000 0.500000 0.500000
O O9 0.676288 0.387949 0.765013
O O10 0.437319 0.673436 0.582508
O O11 0.315327 0.394007 0.745965
O O12 0.020989 0.240546 0.726453
O O13 0.214708 0.911592 0.907764
O O14 0.874967 0.269947 0.782206
O O15 0.002621 0.605035 0.817040
O O16 0.999263 0.137816 0.037291
O O17 0.668722 0.514404 0.887008
O O18 0.000000 0.500000 0.000000
#
# Coordination Sequence:
#
# PCOD9056481 Si02
#       8
#     2   2   2   2   2   2   2   2
#     4  12  23  40  72 104 135 172 220 285 344 402
#     4  11  28  48  66  96 138 184 235 278 337 411
#     4  11  25  47  67  92 136 189 226 275 332 412
#     4  11  24  40  64  95 134 178 224 281 339 401
#     4  11  23  39  63  99 139 168 219 280 343 404
#     4  11  23  41  64 101 133 172 224 282 341 397
#     4  11  22  39  64 103 136 165 218 291 347 395
#     4  12  21  34  65  99 132 173 216 275 347 411
#
# _framework density 25.794567000000001
#
# number of rings (size 3 to 8) (size 9 to 14) (size 15 to 20)
#    0.000    0.750    6.250    1.125    3.500    0.000 
#    2.250    1.875    0.000    0.000    0.000    0.000 
#    0.000    0.000    0.000    0.000    0.000    0.000 
#
# Total GULP energy -89139.832362 kJ/mol
# GULP energy per Si atom -5571.239523 kJ/mol
# Density = 2.573586 g / cm^3
# Si number density = 25.794567 Si / 1000 Ang^3
#
#
#
# Elastic Constant Matrix: (Units=GPa)
#
#
# Indices 1 2 3 4 5 6 
#
# 1 147.0575 15.7886 26.3198 17.3476 -32.8717 -8.7449
# 2 15.7886 90.0702 9.1638 17.9689 2.7103 -8.4140
# 3 26.3198 9.1638 50.3217 11.7908 -13.6899 0.4086
# 4 17.3476 17.9689 11.7908 39.5422 -6.1561 -6.8502
# 5 -32.8717 2.7103 -13.6899 -6.1561 64.1936 12.7432
# 6 -8.7449 -8.4140 0.4086 -6.8502 12.7432 30.4120
#
#
#
# Elastic Compliance Matrix: (Units=1/GPa)
#
#
# Indices 1 2 3 4 5 6 
#
# 1 0.008427 -0.000894 -0.002866 -0.001834 0.003500 0.000335
# 2 -0.000894 0.012729 -0.001405 -0.004790 -0.002391 0.003206
# 3 -0.002866 -0.001405 0.024043 -0.005411 0.004087 -0.004467
# 4 -0.001834 -0.004790 -0.005411 0.030780 0.000042 0.005136
# 5 0.003500 -0.002391 0.004087 0.000042 0.019946 -0.008058
# 6 0.000335 0.003206 -0.004467 0.005136 -0.008058 0.038459
#
#
# Mechanical properties :
#
#
# Convention : Reuss Voigt Hill
#
# Bulk Modulus (GPa) = 28.67748 43.33263 36.00505
# Shear Modulus (GPa) = 31.98214 42.57470 37.27842
#
# Velocity S-wave (km/s) = 3.52501 4.06708 3.80571
# Velocity P-wave (km/s) = 5.26397 6.23622 5.77061
#
# Compressibility (1/GPa) = 0.03487057
#
# Stress axis : x y z
#
# Youngs Moduli (GPa) = 118.65935 78.55997 41.59224
#
# Poissons Ratio (x) = 0.07022 0.11921
# Poissons Ratio (y) = 0.10607 0.05842
# Poissons Ratio (z) = 0.34009 0.11034
#
# Static dielectric constant tensor:
#      x y z
#    x 2.155560 -0.157820 -0.232460 
#    y -0.157820 2.175600 0.165370 
#    z -0.232460 0.165370 2.309940 
# 
# From -- ./inp_files/515124.got.cif
#   From: 2010.05.17/outbox.cif.g08.bks.cpg/sg2_258_cif.got.tgz:515124.got - 2010.06.03 11:33:40.
