data_PCOD9056257
_publ_section_title
;
Structure prediction by ZEFSAII (Michael W. Deem and Ramdas Pophale) SiO2 
 PCOD9056257
Probable space group: P -1
;
_chemical_formula_sum "Si O2"
_cell_formula_units_Z 16
_cell_length_a 18.846478
_cell_length_b 13.012328
_cell_length_c 9.585610
_cell_angle_alpha 63.127124
_cell_angle_beta 103.702681
_cell_angle_gamma 155.969525
_cell_volume 747.037691
_symmetry_space_group_name_H-M "P -1"
_symmetry_group_IT_number 2
_symmetry_cell_setting 'triclinic'
loop_
_space_group_symop_operation_xyz
x,y,z
-x,-y,-z
loop_
_atom_site_type_symbol
_atom_site_label
_atom_site_fract_x
_atom_site_fract_y
_atom_site_fract_z
Si Si1 0.018306 0.494881 0.176288
Si Si2 0.141026 0.198135 0.315056
Si Si3 0.562983 0.586952 0.135011
Si Si4 0.165236 0.585976 0.642460
Si Si5 0.534158 0.807886 0.018927
Si Si6 0.853040 0.068479 0.564933
Si Si7 0.584705 0.274672 0.283350
Si Si8 0.120965 0.126205 0.851554
O O1 0.928264 0.465283 0.252854
O O2 0.919651 0.234416 0.355379
O O3 0.000000 0.500000 0.000000
O O4 0.254717 0.822096 0.105567
O O5 0.361481 0.574874 0.194689
O O6 0.144732 0.067690 0.357518
O O7 0.000000 0.000000 0.500000
O O8 0.025728 0.097547 0.205305
O O9 0.580105 0.740968 0.101371
O O10 0.774521 0.838798 0.088665
O O11 0.381530 0.251423 0.326139
O O12 0.500000 0.500000 0.000000
O O13 0.271010 0.625202 0.728845
O O14 0.994315 0.311625 0.613014
O O15 0.359997 0.922344 0.446530
O O16 0.437149 0.689342 0.894809
O O17 0.699650 0.519727 0.301016
O O18 0.000000 0.000000 0.000000
#
# Coordination Sequence:
#
# PCOD9056257 Si02
#       8
#     2   2   2   2   2   2   2   2
#     4  12  28  46  67 100 141 182 226 278 350 409
#     4  11  26  45  68  99 142 178 222 283 345 403
#     4  11  22  36  68 102 132 167 224 285 332 392
#     4  11  24  41  71  98 134 176 229 290 330 399
#     4  11  24  42  66 100 135 178 227 277 342 405
#     4  11  23  46  69  99 131 183 231 276 337 401
#     4  11  22  40  67 105 129 171 237 282 332 392
#     4  12  22  38  64  97 131 172 226 273 331 398
#
# _framework density 21.417928
#
# number of rings (size 3 to 8) (size 9 to 14) (size 15 to 20)
#    0.000    0.750    5.000    2.625    1.750    4.000 
#    0.000    3.750    0.000    0.000    0.000    0.000 
#    0.000    0.000    0.000    0.000    0.000    0.000 
#
# Total GULP energy -89303.533420 kJ/mol
# GULP energy per Si atom -5581.470839 kJ/mol
# Density = 2.136918 g / cm^3
# Si number density = 21.417928 Si / 1000 Ang^3
#
#
#
# Elastic Constant Matrix: (Units=GPa)
#
#
# Indices 1 2 3 4 5 6 
#
# 1 62.8972 13.0989 17.6286 2.3859 -2.3186 34.4120
# 2 13.0989 58.1579 38.1042 -9.7517 -2.9233 27.1827
# 3 17.6286 38.1042 128.0014 -17.9201 -8.0993 20.0685
# 4 2.3859 -9.7517 -17.9201 41.6561 0.9841 4.8068
# 5 -2.3186 -2.9233 -8.0993 0.9841 36.5458 -3.5575
# 6 34.4120 27.1827 20.0685 4.8068 -3.5575 34.4974
#
#
#
# Elastic Compliance Matrix: (Units=1/GPa)
#
#
# Indices 1 2 3 4 5 6 
#
# 1 0.046670 0.022298 -0.001773 0.009292 -0.002188 -0.064615
# 2 0.022298 0.044014 -0.005768 0.013011 -0.002106 -0.055599
# 3 -0.001773 -0.005768 0.010310 0.003142 0.001631 0.000046
# 4 0.009292 0.013011 0.003142 0.030867 -0.001012 -0.025754
# 5 -0.002188 -0.002106 0.001631 -0.001012 0.028021 0.005924
# 6 -0.064615 -0.055599 0.000046 -0.025754 0.005924 0.141425
#
#
# Mechanical properties :
#
#
# Convention : Reuss Voigt Hill
#
# Bulk Modulus (GPa) = 7.66228 42.96887 25.31557
# Shear Modulus (GPa) = 15.85818 34.55486 25.20652
#
# Velocity S-wave (km/s) = 2.72401 4.02102 3.43430
# Velocity P-wave (km/s) = 3.67136 6.45475 5.25085
#
# Compressibility (1/GPa) = 0.13050952
#
# Stress axis : x y z
#
# Youngs Moduli (GPa) = 21.42686 22.72006 96.99778
#
# Poissons Ratio (x) = -0.50662 0.17193
# Poissons Ratio (y) = -0.47778 0.55949
# Poissons Ratio (z) = 0.03798 0.13105
#
# Static dielectric constant tensor:
#      x y z
#    x 1.811240 -0.023640 -0.020190 
#    y -0.023640 1.756330 -0.064320 
#    z -0.020190 -0.064320 1.833290 
# 
# From -- ./inp_files/208687.got.cif
#   From: 2010.05.17/outbox.cif.g08.bks.cpg/sg2_105_cif.got.tgz:208687.got - 2010.06.03 11:33:40.
