data_PCOD9056049
_publ_section_title
;
Structure prediction by ZEFSAII (Michael W. Deem and Ramdas Pophale) SiO2 
 PCOD9056049
Probable space group: P -1
;
_chemical_formula_sum "Si O2"
_cell_formula_units_Z 16
_cell_length_a 20.489960
_cell_length_b 12.175379
_cell_length_c 10.876157
_cell_angle_alpha 60.845062
_cell_angle_beta 45.043271
_cell_angle_gamma 24.888559
_cell_volume 692.000787
_symmetry_space_group_name_H-M "P -1"
_symmetry_group_IT_number 2
_symmetry_cell_setting 'triclinic'
loop_
_space_group_symop_operation_xyz
x,y,z
-x,-y,-z
loop_
_atom_site_type_symbol
_atom_site_label
_atom_site_fract_x
_atom_site_fract_y
_atom_site_fract_z
Si Si1 0.763847 0.748583 0.029144
Si Si2 0.433443 0.012651 0.456802
Si Si3 0.871481 0.068332 0.230383
Si Si4 0.257508 0.758796 0.222326
Si Si5 0.022546 0.819402 0.416307
Si Si6 0.540594 0.301997 0.409242
Si Si7 0.984302 0.570481 0.619829
Si Si8 0.857898 0.881885 0.990932
O O1 0.780799 0.759139 0.857909
O O2 0.935489 0.430835 0.032680
O O3 0.522810 0.991145 0.244108
O O4 0.796771 0.838443 0.010184
O O5 0.532041 0.752469 0.461080
O O6 0.500000 0.000000 0.500000
O O7 0.177185 0.302626 0.610212
O O8 0.757924 0.087210 0.309959
O O9 0.665628 0.380501 0.414595
O O10 0.040734 0.822330 0.246362
O O11 0.000000 0.000000 0.000000
O O12 0.216112 0.663829 0.302331
O O13 0.191532 0.862953 0.394669
O O14 0.500000 0.500000 0.000000
O O15 0.100030 0.048026 0.189995
O O16 0.992570 0.709525 0.530610
O O17 0.648362 0.177464 0.196460
O O18 0.000000 0.500000 0.500000
#
# Coordination Sequence:
#
# PCOD9056049 Si02
#       8
#     2   2   2   2   2   2   2   2
#     4  11  24  43  72 106 139 188 234 298 352 424
#     4  12  25  42  76 112 137 187 243 300 354 419
#     4  11  26  47  68 101 141 194 237 287 354 437
#     4  11  25  43  69 104 142 180 233 302 360 424
#     4  11  26  43  70  99 142 191 229 287 371 421
#     4  11  24  42  71 105 140 176 244 297 345 419
#     4  12  27  49  69 104 156 188 236 296 359 433
#     4  11  21  45  71 104 143 178 243 299 353 414
#
# _framework density 23.121362000000001
#
# number of rings (size 3 to 8) (size 9 to 14) (size 15 to 20)
#    0.000    0.750    3.750    3.000    5.250    2.500 
#    0.000    0.000    0.000    0.000    0.000    0.000 
#    0.000    0.000    0.000    0.000    0.000    0.000 
#
# Total GULP energy -89235.815532 kJ/mol
# GULP energy per Si atom -5577.238471 kJ/mol
# Density = 2.306874 g / cm^3
# Si number density = 23.121362 Si / 1000 Ang^3
#
#
#
# Elastic Constant Matrix: (Units=GPa)
#
#
# Indices 1 2 3 4 5 6 
#
# 1 144.1501 30.5862 51.4425 -10.9699 12.1267 25.2406
# 2 30.5862 38.4706 5.1558 -12.3580 6.0793 9.2356
# 3 51.4425 5.1558 153.8398 -22.7496 13.6744 3.2707
# 4 -10.9699 -12.3580 -22.7496 40.1371 -2.3709 -2.0738
# 5 12.1267 6.0793 13.6744 -2.3709 44.6813 -7.4789
# 6 25.2406 9.2356 3.2707 -2.0738 -7.4789 27.7834
#
#
#
# Elastic Compliance Matrix: (Units=1/GPa)
#
#
# Indices 1 2 3 4 5 6 
#
# 1 0.011023 -0.006365 -0.003270 -0.001383 -0.002590 -0.008314
# 2 -0.006365 0.036545 0.003052 0.010583 -0.004828 -0.007235
# 3 -0.003270 0.003052 0.008318 0.004707 -0.001677 0.000877
# 4 -0.001383 0.010583 0.004707 0.030359 -0.001033 -0.000827
# 5 -0.002590 -0.004828 -0.001677 -0.001033 0.026055 0.011092
# 6 -0.008314 -0.007235 0.000877 -0.000827 0.011092 0.048771
#
#
# Mechanical properties :
#
#
# Convention : Reuss Voigt Hill
#
# Bulk Modulus (GPa) = 23.40900 56.75883 40.08391
# Shear Modulus (GPa) = 26.52824 39.13876 32.83350
#
# Velocity S-wave (km/s) = 3.39093 4.11877 3.77244
# Velocity P-wave (km/s) = 5.04753 6.87172 6.02902
#
# Compressibility (1/GPa) = 0.04271861
#
# Stress axis : x y z
#
# Youngs Moduli (GPa) = 90.71788 27.36374 120.22200
#
# Poissons Ratio (x) = 0.17417 0.39316
# Poissons Ratio (y) = 0.57741 -0.36686
# Poissons Ratio (z) = 0.29667 -0.08350
#
# Static dielectric constant tensor:
#      x y z
#    x 1.583820 0.189550 0.095980 
#    y 0.189550 1.811210 -0.048570 
#    z 0.095980 -0.048570 1.829730 
# 
# From -- ./inp_files/471169.got.cif
#   From: 2010.05.17/outbox.cif.g08.bks.cpg/sg2_236_cif.got.tgz:471169.got - 2010.06.03 11:33:40.
