data_PCOD9056069
_publ_section_title
;
Structure prediction by ZEFSAII (Michael W. Deem and Ramdas Pophale) SiO2 
 PCOD9056069
Probable space group: P -1
;
_chemical_formula_sum "Si O2"
_cell_formula_units_Z 12
_cell_length_a 19.176552
_cell_length_b 9.297506
_cell_length_c 5.265763
_cell_angle_alpha 94.259954
_cell_angle_beta 111.532360
_cell_angle_gamma 38.608764
_cell_volume 507.118027
_symmetry_space_group_name_H-M "P -1"
_symmetry_group_IT_number 2
_symmetry_cell_setting 'triclinic'
loop_
_space_group_symop_operation_xyz
x,y,z
-x,-y,-z
loop_
_atom_site_type_symbol
_atom_site_label
_atom_site_fract_x
_atom_site_fract_y
_atom_site_fract_z
Si Si1 0.115364 0.497943 0.046070
Si Si2 0.399855 0.038307 0.270935
Si Si3 0.949928 0.999194 0.684400
Si Si4 0.709110 0.248663 0.233159
Si Si5 0.553603 0.217681 0.212202
Si Si6 0.058197 0.292366 0.745161
O O1 0.057697 0.611614 0.262817
O O2 0.256731 0.327068 0.141287
O O3 0.119468 0.317546 0.018894
O O4 0.014297 0.739327 0.762658
O O5 0.412636 0.895108 0.482631
O O6 0.500000 0.000000 0.500000
O O7 0.419945 0.937598 0.004351
O O8 0.795651 0.221894 0.511705
O O9 0.000000 0.000000 0.500000
O O10 0.000000 0.000000 0.000000
O O11 0.637779 0.229356 0.277219
O O12 0.822222 0.997477 0.189399
O O13 0.596724 0.505895 0.969113
O O14 0.000000 0.500000 0.500000
#
# Coordination Sequence:
#
# PCOD9056069 Si02
#       6
#     2   2   2   2   2   2
#     4  11  26  42  76 106 142 189 246 300 373 428
#     4  12  28  49  74 107 151 191 246 298 368 436
#     4  12  29  45  72 106 150 191 234 305 369 433
#     4  11  25  49  76 105 151 189 254 295 368 431
#     4  11  28  48  77 107 144 202 243 301 355 445
#     4  11  21  45  74 108 139 183 243 313 354 436
#
# _framework density 23.663132000000001
#
# number of rings (size 3 to 8) (size 9 to 14) (size 15 to 20)
#    0.000    0.667    3.333    2.500    7.000    5.333 
#    0.000    0.000    0.000    0.000    0.000    0.000 
#    0.000    0.000    0.000    0.000    0.000    0.000 
#
# Total GULP energy -67063.718549 kJ/mol
# GULP energy per Si atom -5588.643212 kJ/mol
# Density = 2.360927 g / cm^3
# Si number density = 23.663132 Si / 1000 Ang^3
#
#
#
# Elastic Constant Matrix: (Units=GPa)
#
#
# Indices 1 2 3 4 5 6 
#
# 1 57.6664 14.6146 14.1798 -6.5431 12.8434 -5.8257
# 2 14.6146 117.0577 28.0905 -13.9311 -1.9328 -22.6169
# 3 14.1798 28.0905 65.1523 -12.1193 6.0944 -13.9611
# 4 -6.5431 -13.9311 -12.1193 49.6989 -4.8783 12.9829
# 5 12.8434 -1.9328 6.0944 -4.8783 58.4189 -7.7865
# 6 -5.8257 -22.6169 -13.9611 12.9829 -7.7865 38.0483
#
#
#
# Elastic Compliance Matrix: (Units=1/GPa)
#
#
# Indices 1 2 3 4 5 6 
#
# 1 0.019488 -0.001714 -0.003002 0.001043 -0.003982 -0.000307
# 2 -0.001714 0.010601 -0.003142 0.000860 0.001788 0.004958
# 3 -0.003002 -0.003142 0.018612 0.002255 -0.000719 0.003585
# 4 0.001043 0.000860 0.002255 0.022711 0.000645 -0.006119
# 5 -0.003982 0.001788 -0.000719 0.000645 0.018687 0.003793
# 6 -0.000307 0.004958 0.003585 -0.006119 0.003793 0.033363
#
#
# Mechanical properties :
#
#
# Convention : Reuss Voigt Hill
#
# Bulk Modulus (GPa) = 30.31724 39.29402 34.80563
# Shear Modulus (GPa) = 33.29531 41.43265 37.36398
#
# Velocity S-wave (km/s) = 3.75514 4.18896 3.97797
# Velocity P-wave (km/s) = 5.62506 6.32757 5.98663
#
# Compressibility (1/GPa) = 0.03298453
#
# Stress axis : x y z
#
# Youngs Moduli (GPa) = 51.31457 94.33346 53.72928
#
# Poissons Ratio (x) = 0.16165 0.16129
# Poissons Ratio (y) = 0.08793 0.16884
# Poissons Ratio (z) = 0.15404 0.29643
#
# Static dielectric constant tensor:
#      x y z
#    x 2.012500 0.144850 0.242700 
#    y 0.144850 2.138130 0.384640 
#    z 0.242700 0.384640 2.543540 
# 
# From -- ./inp_files/42679.got.cif
#   From: 2010.05.17/outbox.cif.g08.bks.cpg/sg2_22_cif.got.tgz:42679.got - 2010.06.03 11:33:40.
