data_PCOD9056739
_publ_section_title
;
Structure prediction by ZEFSAII (Michael W. Deem and Ramdas Pophale) SiO2 
 PCOD9056739
Probable space group: P -1
;
_chemical_formula_sum "Si O2"
_cell_formula_units_Z 16
_cell_length_a 14.752961
_cell_length_b 6.547498
_cell_length_c 22.128958
_cell_angle_alpha 70.236573
_cell_angle_beta 161.616068
_cell_angle_gamma 108.184216
_cell_volume 634.156906
_symmetry_space_group_name_H-M "P -1"
_symmetry_group_IT_number 2
_symmetry_cell_setting 'triclinic'
loop_
_space_group_symop_operation_xyz
x,y,z
-x,-y,-z
loop_
_atom_site_type_symbol
_atom_site_label
_atom_site_fract_x
_atom_site_fract_y
_atom_site_fract_z
Si Si1 0.838032 0.817147 0.452349
Si Si2 0.017794 0.838397 0.868904
Si Si3 0.865494 0.496360 0.600623
Si Si4 0.301333 0.154022 0.452512
Si Si5 0.787721 0.855105 0.193388
Si Si6 0.409387 0.399355 0.792776
Si Si7 0.655776 0.842297 0.883479
Si Si8 0.325105 0.238684 0.233441
O O1 0.971283 0.691700 0.605581
O O2 0.759186 0.637433 0.371789
O O3 0.552115 0.947301 0.280720
O O4 0.000000 0.000000 0.500000
O O5 0.757859 0.847180 0.656195
O O6 0.929984 0.707670 0.886385
O O7 0.285716 0.729108 0.013096
O O8 0.117072 0.069036 0.934262
O O9 0.737825 0.605697 0.569128
O O10 0.598659 0.383264 0.408959
O O11 0.128678 0.321447 0.787996
O O12 0.576292 0.009549 0.661078
O O13 0.043116 0.019186 0.331839
O O14 0.766207 0.713178 0.254447
O O15 0.500000 0.000000 0.000000
O O16 0.480202 0.648568 0.821100
O O17 0.751186 0.761284 0.885478
#
# Coordination Sequence:
#
# PCOD9056739 Si02
#       8
#     2   2   2   2   2   2   2   2
#     4  11  22  40  68 102 140 175 224 283 343 407
#     4  11  26  45  68 100 140 186 230 284 340 406
#     4  11  24  41  73 102 135 179 225 283 346 408
#     4  11  24  47  68 101 138 181 233 277 347 411
#     4  11  24  45  68 100 143 177 221 284 345 418
#     4  11  24  42  67 102 137 180 230 277 350 411
#     4  11  24  44  69 101 140 177 233 285 341 403
#     4  11  24  45  73 100 135 180 239 289 334 400
#
# _framework density 25.230347999999999
#
# number of rings (size 3 to 8) (size 9 to 14) (size 15 to 20)
#    0.000    1.000    3.750    2.250    1.750    6.500 
#    0.000    0.000    0.000    0.000    0.000    0.000 
#    0.000    0.000    0.000    0.000    0.000    0.000 
#
# Total GULP energy -89529.269223 kJ/mol
# GULP energy per Si atom -5595.579326 kJ/mol
# Density = 2.517292 g / cm^3
# Si number density = 25.230348 Si / 1000 Ang^3
#
#
#
# Elastic Constant Matrix: (Units=GPa)
#
#
# Indices 1 2 3 4 5 6 
#
# 1 121.7421 34.5882 4.9363 -0.2599 -3.7938 -8.2226
# 2 34.5882 130.3061 23.7919 -1.9885 -8.0634 -22.4725
# 3 4.9363 23.7919 37.0047 -10.9749 7.5260 -8.8830
# 4 -0.2599 -1.9885 -10.9749 26.5214 -3.6052 8.6759
# 5 -3.7938 -8.0634 7.5260 -3.6052 44.2701 6.8844
# 6 -8.2226 -22.4725 -8.8830 8.6759 6.8844 42.2513
#
#
#
# Elastic Compliance Matrix: (Units=1/GPa)
#
#
# Indices 1 2 3 4 5 6 
#
# 1 0.008903 -0.002325 0.000380 -0.000090 0.000180 0.000565
# 2 -0.002325 0.010250 -0.006630 -0.003012 0.001942 0.003907
# 3 0.000380 -0.006630 0.037173 0.013038 -0.006869 0.002805
# 4 -0.000090 -0.003012 0.013038 0.046041 0.002331 -0.008713
# 5 0.000180 0.001942 -0.006869 0.002331 0.025084 -0.004942
# 6 0.000565 0.003907 0.002805 -0.008713 -0.004942 0.029040
#
#
# Mechanical properties :
#
#
# Convention : Reuss Voigt Hill
#
# Bulk Modulus (GPa) = 25.52714 46.18731 35.85723
# Shear Modulus (GPa) = 26.78076 37.65764 32.21920
#
# Velocity S-wave (km/s) = 3.26152 3.86755 3.57739
# Velocity P-wave (km/s) = 4.93183 6.18788 5.59522
#
# Compressibility (1/GPa) = 0.03917399
#
# Stress axis : x y z
#
# Youngs Moduli (GPa) = 112.32288 97.55959 26.90123
#
# Poissons Ratio (x) = 0.22686 -0.01021
# Poissons Ratio (y) = 0.26119 0.17837
# Poissons Ratio (z) = -0.04265 0.64686
#
# Static dielectric constant tensor:
#      x y z
#    x 1.998480 -0.008720 0.017890 
#    y -0.008720 2.019220 -0.043530 
#    z 0.017890 -0.043530 2.077380 
# 
# From -- ./inp_files/124305.got.cif
#   From: 2010.05.17/outbox.cif.g08.bks.cpg/sg2_63_cif.got.tgz:124305.got - 2010.06.03 11:33:40.
