data_PCOD9056249
_publ_section_title
;
Structure prediction by ZEFSAII (Michael W. Deem and Ramdas Pophale) SiO2 
 PCOD9056249
Probable space group: P -1
;
_chemical_formula_sum "Si O2"
_cell_formula_units_Z 14
_cell_length_a 11.796906
_cell_length_b 11.812443
_cell_length_c 8.527847
_cell_angle_alpha 123.938605
_cell_angle_beta 116.429078
_cell_angle_gamma 42.264713
_cell_volume 661.991229
_symmetry_space_group_name_H-M "P -1"
_symmetry_group_IT_number 2
_symmetry_cell_setting 'triclinic'
loop_
_space_group_symop_operation_xyz
x,y,z
-x,-y,-z
loop_
_atom_site_type_symbol
_atom_site_label
_atom_site_fract_x
_atom_site_fract_y
_atom_site_fract_z
Si Si1 0.475570 0.854671 0.349458
Si Si2 0.729507 0.436908 0.693002
Si Si3 0.302506 0.099373 0.932245
Si Si4 0.597940 0.231737 0.437342
Si Si5 0.831691 0.807139 0.736202
Si Si6 0.080276 0.542560 0.437776
Si Si7 0.785893 0.596487 0.111500
O O1 0.470761 0.766815 0.434223
O O2 0.616830 0.710957 0.200299
O O3 0.500000 0.000000 0.500000
O O4 0.288954 0.997297 0.269838
O O5 0.703058 0.294728 0.569375
O O6 0.549388 0.630584 0.674864
O O7 0.850289 0.403750 0.604621
O O8 0.795979 0.448654 0.907816
O O9 0.228371 0.282343 0.941412
O O10 0.299551 0.969745 0.720732
O O11 0.201181 0.143880 0.063251
O O12 0.500000 0.000000 0.000000
O O13 0.790998 0.670787 0.597730
O O14 0.003753 0.680807 0.643384
O O15 0.934620 0.554424 0.274879
#
# Coordination Sequence:
#
# PCOD9056249 Si02
#       7
#     2   2   2   2   2   2   2
#     4  12  20  38  65  96 116 164 213 265 290 371
#     4  11  24  43  60  95 132 167 198 264 316 379
#     4  12  19  38  66  95 116 164 216 259 288 378
#     4  11  24  41  67  92 127 163 214 257 318 357
#     4  11  22  36  65  94 124 156 221 250 311 348
#     4  11  23  39  63  98 127 165 201 266 308 377
#     4  12  23  37  70  93 127 161 216 251 312 366
#
# _framework density 21.148315
#
# number of rings (size 3 to 8) (size 9 to 14) (size 15 to 20)
#    0.000    0.571    7.143    1.286    2.000    0.571 
#    0.000    3.571    0.000    0.000    0.000    0.000 
#    0.000    0.000    0.000    0.000    0.000    0.000 
#
# Total GULP energy -78117.744564 kJ/mol
# GULP energy per Si atom -5579.838897 kJ/mol
# Density = 2.110018 g / cm^3
# Si number density = 21.148315 Si / 1000 Ang^3
#
#
#
# Elastic Constant Matrix: (Units=GPa)
#
#
# Indices 1 2 3 4 5 6 
#
# 1 118.7316 3.7486 56.5328 16.0278 -5.8838 6.2563
# 2 3.7486 43.4397 -3.8765 -6.8388 13.4988 -2.2312
# 3 56.5328 -3.8765 93.2469 11.0982 -5.2285 0.1137
# 4 16.0278 -6.8388 11.0982 26.7666 0.6441 -2.5197
# 5 -5.8838 13.4988 -5.2285 0.6441 41.9833 4.7729
# 6 6.2563 -2.2312 0.1137 -2.5197 4.7729 26.1188
#
#
#
# Elastic Compliance Matrix: (Units=1/GPa)
#
#
# Indices 1 2 3 4 5 6 
#
# 1 0.013262 -0.003925 -0.007273 -0.006431 0.002839 -0.004619
# 2 -0.003925 0.028597 0.001821 0.009736 -0.010373 0.006210
# 3 -0.007273 0.001821 0.015382 -0.001404 0.000143 0.001669
# 4 -0.006431 0.009736 -0.001404 0.045154 -0.005785 0.007792
# 5 0.002839 -0.010373 0.000143 -0.005785 0.028492 -0.007332
# 6 -0.004619 0.006210 0.001669 0.007792 -0.007332 0.042008
#
#
# Mechanical properties :
#
#
# Convention : Reuss Voigt Hill
#
# Bulk Modulus (GPa) = 25.98386 40.91422 33.44904
# Shear Modulus (GPa) = 24.45247 32.24128 28.34688
#
# Velocity S-wave (km/s) = 3.40404 3.90876 3.66510
# Velocity P-wave (km/s) = 5.26907 6.30552 5.81045
#
# Compressibility (1/GPa) = 0.03848543
#
# Stress axis : x y z
#
# Youngs Moduli (GPa) = 75.40620 34.96881 65.00945
#
# Poissons Ratio (x) = 0.13726 0.47281
# Poissons Ratio (y) = 0.29599 -0.11836
# Poissons Ratio (z) = 0.54843 -0.06366
#
# Static dielectric constant tensor:
#      x y z
#    x 1.741910 -0.076150 0.002280 
#    y -0.076150 1.903790 -0.088760 
#    z 0.002280 -0.088760 1.802550 
# 
# From -- ./inp_files/216438.got.cif
#   From: 2010.05.17/outbox.cif.g08.bks.cpg/sg2_109_cif.got.tgz:216438.got - 2010.06.03 11:33:40.
