data_PCOD9056610
_publ_section_title
;
Structure prediction by ZEFSAII (Michael W. Deem and Ramdas Pophale) SiO2 
 PCOD9056610
Probable space group: P -1
;
_chemical_formula_sum "Si O2"
_cell_formula_units_Z 16
_cell_length_a 16.463463
_cell_length_b 11.274945
_cell_length_c 9.465937
_cell_angle_alpha 81.279572
_cell_angle_beta 120.639404
_cell_angle_gamma 48.341730
_cell_volume 730.338210
_symmetry_space_group_name_H-M "P -1"
_symmetry_group_IT_number 2
_symmetry_cell_setting 'triclinic'
loop_
_space_group_symop_operation_xyz
x,y,z
-x,-y,-z
loop_
_atom_site_type_symbol
_atom_site_label
_atom_site_fract_x
_atom_site_fract_y
_atom_site_fract_z
Si Si1 0.466020 0.266421 0.673413
Si Si2 0.790554 0.071328 0.015540
Si Si3 0.709471 0.211830 0.239359
Si Si4 0.778053 0.959388 0.569591
Si Si5 0.569526 0.548877 0.669845
Si Si6 0.462710 0.006765 0.628272
Si Si7 0.805113 0.453466 0.100684
Si Si8 0.832491 0.311224 0.460454
O O1 0.692681 0.051181 0.911685
O O2 0.389833 0.416227 0.437612
O O3 0.373309 0.428679 0.699792
O O4 0.425459 0.171225 0.647087
O O5 0.654792 0.320202 0.773379
O O6 0.778485 0.121060 0.159714
O O7 0.020456 0.821923 0.255845
O O8 0.835869 0.166541 0.449587
O O9 0.702573 0.092006 0.329141
O O10 0.500000 0.500000 0.000000
O O11 0.006469 0.724315 0.794857
O O12 0.654333 0.179144 0.530325
O O13 0.708738 0.900704 0.539406
O O14 0.693099 0.469551 0.921546
O O15 0.500000 0.000000 0.500000
O O16 0.652223 0.731367 0.908312
O O17 0.852769 0.361674 0.321020
#
# Coordination Sequence:
#
# PCOD9056610 Si02
#       8
#     2   2   2   2   2   2   2   2
#     4  12  27  45  64  98 141 178 223 281 337 385
#     4  12  24  40  71 101 143 172 218 273 344 398
#     4  12  19  40  70 102 134 178 211 273 334 404
#     4  11  22  39  73  98 124 172 236 268 323 395
#     4  11  23  44  68 102 137 176 221 272 337 408
#     4  11  25  50  67  92 134 183 230 277 329 397
#     4  11  23  42  75 100 126 176 234 276 326 403
#     4  12  25  42  70 108 138 171 220 278 339 401
#
# _framework density 21.90766
#
# number of rings (size 3 to 8) (size 9 to 14) (size 15 to 20)
#    0.000    0.500    7.500    2.250    0.000    3.500 
#    0.000    1.250    0.000    0.000    0.000    0.000 
#    0.000    0.000    0.000    0.000    0.000    0.000 
#
# Total GULP energy -89360.285044 kJ/mol
# GULP energy per Si atom -5585.017815 kJ/mol
# Density = 2.185780 g / cm^3
# Si number density = 21.907660 Si / 1000 Ang^3
#
#
#
# Elastic Constant Matrix: (Units=GPa)
#
#
# Indices 1 2 3 4 5 6 
#
# 1 113.0428 20.1639 13.6017 -1.3999 -9.8570 -1.4861
# 2 20.1639 64.7211 0.3396 4.9916 -8.9608 -2.5631
# 3 13.6017 0.3396 65.4574 0.8238 -2.2345 -7.4130
# 4 -1.3999 4.9916 0.8238 23.4548 -2.4838 6.1171
# 5 -9.8570 -8.9608 -2.2345 -2.4838 40.3855 -5.2308
# 6 -1.4861 -2.5631 -7.4130 6.1171 -5.2308 40.1182
#
#
#
# Elastic Compliance Matrix: (Units=1/GPa)
#
#
# Indices 1 2 3 4 5 6 
#
# 1 0.009772 -0.002924 -0.002000 0.001508 0.001692 -0.000204
# 2 -0.002924 0.017202 0.000928 -0.004105 0.003187 0.002204
# 3 -0.002000 0.000928 0.016119 -0.001654 0.000940 0.003339
# 4 0.001508 -0.004105 -0.001654 0.045696 0.001228 -0.007320
# 5 0.001692 0.003187 0.000940 0.001228 0.026489 0.003707
# 6 -0.000204 0.002204 0.003339 -0.007320 0.003707 0.027276
#
#
# Mechanical properties :
#
#
# Convention : Reuss Voigt Hill
#
# Bulk Modulus (GPa) = 28.48812 34.60352 31.54582
# Shear Modulus (GPa) = 30.81750 34.73279 32.77515
#
# Velocity S-wave (km/s) = 3.75467 3.98605 3.87209
# Velocity P-wave (km/s) = 5.64169 6.08393 5.86698
#
# Compressibility (1/GPa) = 0.03510235
#
# Stress axis : x y z
#
# Youngs Moduli (GPa) = 102.33405 58.13194 62.03927
#
# Poissons Ratio (x) = 0.16998 0.12406
# Poissons Ratio (y) = 0.29923 -0.05760
# Poissons Ratio (z) = 0.20463 -0.05397
#
# Static dielectric constant tensor:
#      x y z
#    x 1.852640 -0.028450 0.116040 
#    y -0.028450 1.813450 -0.032450 
#    z 0.116040 -0.032450 2.073560 
# 
# From -- ./inp_files/307103.got.cif
#   From: 2010.05.17/outbox.cif.g08.bks.cpg/sg2_154_cif.got.tgz:307103.got - 2010.06.03 11:33:40.
