data_PCOD9056972
_publ_section_title
;
Structure prediction by ZEFSAII (Michael W. Deem and Ramdas Pophale) SiO2 
 PCOD9056972
Probable space group: P -1
;
_chemical_formula_sum "Si O2"
_cell_formula_units_Z 14
_cell_length_a 12.279904
_cell_length_b 11.819505
_cell_length_c 6.499230
_cell_angle_alpha 115.940582
_cell_angle_beta 60.243993
_cell_angle_gamma 130.734894
_cell_volume 611.219687
_symmetry_space_group_name_H-M "P -1"
_symmetry_group_IT_number 2
_symmetry_cell_setting 'triclinic'
loop_
_space_group_symop_operation_xyz
x,y,z
-x,-y,-z
loop_
_atom_site_type_symbol
_atom_site_label
_atom_site_fract_x
_atom_site_fract_y
_atom_site_fract_z
Si Si1 0.529715 0.795969 0.486835
Si Si2 0.016682 0.270507 0.148851
Si Si3 0.234442 0.184943 0.037002
Si Si4 0.739013 0.131303 0.585328
Si Si5 0.480052 0.378045 0.263522
Si Si6 0.082277 0.920030 0.274315
Si Si7 0.717628 0.399386 0.765917
O O1 0.531345 0.750244 0.682521
O O2 0.373233 0.677245 0.422370
O O3 0.583608 0.970100 0.565350
O O4 0.660751 0.794460 0.236422
O O5 0.092103 0.187562 0.108824
O O6 0.119634 0.444636 0.263878
O O7 0.850301 0.197486 0.337213
O O8 0.017729 0.239561 0.879890
O O9 0.333803 0.316853 0.212610
O O10 0.186885 0.034749 0.086791
O O11 0.827172 0.099048 0.647815
O O12 0.718048 0.264344 0.769079
O O13 0.500000 0.500000 0.500000
O O14 0.616449 0.437296 0.025691
O O15 0.000000 0.000000 0.500000
#
# Coordination Sequence:
#
# PCOD9056972 Si02
#       7
#     2   2   2   2   2   2   2
#     4  11  23  45  70  95 133 177 223 277 326 395
#     4  12  25  43  69  97 141 172 220 280 333 393
#     4  11  22  41  67 103 125 169 229 272 330 389
#     4  12  25  45  69  97 136 178 225 272 330 401
#     4  11  24  42  70  98 135 174 221 278 334 392
#     4  12  24  40  69 101 131 174 224 275 327 394
#     4  11  28  44  65 102 134 180 221 270 339 397
#
# _framework density 22.905023
#
# number of rings (size 3 to 8) (size 9 to 14) (size 15 to 20)
#    0.000    0.571    4.286    3.857    2.000    5.714 
#    0.000    0.000    0.000    0.000    0.000    0.000 
#    0.000    0.000    0.000    0.000    0.000    0.000 
#
# Total GULP energy -78329.115066 kJ/mol
# GULP energy per Si atom -5594.936790 kJ/mol
# Density = 2.285289 g / cm^3
# Si number density = 22.905023 Si / 1000 Ang^3
#
#
#
# Elastic Constant Matrix: (Units=GPa)
#
#
# Indices 1 2 3 4 5 6 
#
# 1 61.8156 -6.1079 13.1902 12.5913 12.6353 -10.4926
# 2 -6.1079 108.2530 13.4891 21.5182 4.8388 2.6444
# 3 13.1902 13.4891 67.9893 11.6758 13.0184 10.2940
# 4 12.5913 21.5182 11.6758 40.5493 -1.1317 0.8561
# 5 12.6353 4.8388 13.0184 -1.1317 28.0854 5.5668
# 6 -10.4926 2.6444 10.2940 0.8561 5.5668 31.3185
#
#
#
# Elastic Compliance Matrix: (Units=1/GPa)
#
#
# Indices 1 2 3 4 5 6 
#
# 1 0.023396 0.003763 -0.003052 -0.008957 -0.012291 0.010954
# 2 0.003763 0.011088 -0.001314 -0.006808 -0.003581 0.001579
# 3 -0.003052 -0.001314 0.018171 -0.003628 -0.005830 -0.005749
# 4 -0.008957 -0.006808 -0.003628 0.032427 0.008926 -0.003706
# 5 -0.012291 -0.003581 -0.005830 0.008926 0.046891 -0.010478
# 6 0.010954 0.001579 -0.005749 -0.003706 -0.010478 0.039320
#
#
# Mechanical properties :
#
#
# Convention : Reuss Voigt Hill
#
# Bulk Modulus (GPa) = 19.43698 31.02228 25.22963
# Shear Modulus (GPa) = 26.36424 34.48974 30.42699
#
# Velocity S-wave (km/s) = 3.39636 3.88464 3.64867
# Velocity P-wave (km/s) = 4.88719 5.80464 5.36556
#
# Compressibility (1/GPa) = 0.05144832
#
# Stress axis : x y z
#
# Youngs Moduli (GPa) = 42.74166 90.18449 55.03317
#
# Poissons Ratio (x) = -0.33934 0.16797
# Poissons Ratio (y) = -0.16083 0.07232
# Poissons Ratio (z) = 0.13046 0.11852
#
# Static dielectric constant tensor:
#      x y z
#    x 1.852130 0.011480 0.003550 
#    y 0.011480 1.945110 0.036840 
#    z 0.003550 0.036840 1.850860 
# 
# From -- ./inp_files/67786.got.cif
#   From: 2010.05.17/outbox.cif.g08.bks.cpg/sg2_34_cif.got.tgz:67786.got - 2010.06.03 11:33:40.
