data_PCOD9056792
_publ_section_title
;
Structure prediction by ZEFSAII (Michael W. Deem and Ramdas Pophale) SiO2 
 PCOD9056792
Probable space group: P -1
;
_chemical_formula_sum "Si O2"
_cell_formula_units_Z 14
_cell_length_a 8.249494
_cell_length_b 11.529961
_cell_length_c 12.006137
_cell_angle_alpha 60.996239
_cell_angle_beta 146.301370
_cell_angle_gamma 123.117219
_cell_volume 529.542584
_symmetry_space_group_name_H-M "P -1"
_symmetry_group_IT_number 2
_symmetry_cell_setting 'triclinic'
loop_
_space_group_symop_operation_xyz
x,y,z
-x,-y,-z
loop_
_atom_site_type_symbol
_atom_site_label
_atom_site_fract_x
_atom_site_fract_y
_atom_site_fract_z
Si Si1 0.166204 0.573960 0.188167
Si Si2 0.997890 0.316297 0.130094
Si Si3 0.236052 0.117934 0.920530
Si Si4 0.584085 0.314889 0.321084
Si Si5 0.577092 0.996541 0.714528
Si Si6 0.980756 0.043598 0.342912
Si Si7 0.148669 0.395826 0.776828
O O1 0.002328 0.607420 0.186315
O O2 0.203826 0.424342 0.297127
O O3 0.289698 0.703726 0.120290
O O4 0.000000 0.500000 0.000000
O O5 0.268060 0.308095 0.204270
O O6 0.880423 0.179211 0.200119
O O7 0.336056 0.284486 0.917049
O O8 0.390271 0.022411 0.125880
O O9 0.899720 0.072463 0.808807
O O10 0.185322 0.070754 0.787421
O O11 0.544368 0.164732 0.316652
O O12 0.658836 0.447704 0.218612
O O13 0.866897 0.352401 0.549943
O O14 0.342765 0.076634 0.504385
O O15 0.000000 0.000000 0.500000
#
# Coordination Sequence:
#
# PCOD9056792 Si02
#       7
#     2   2   2   2   2   2   2
#     4   8  22  40  63  93 133 175 214 275 330 401
#     4   9  21  43  62  93 130 179 214 270 342 386
#     4  11  24  44  71 103 127 180 231 272 345 402
#     4  11  22  40  69  99 133 176 226 282 332 395
#     4  11  24  42  72  97 135 179 226 278 336 407
#     4  12  25  43  70  99 142 175 225 285 339 406
#     4  11  23  39  69 101 133 172 231 277 332 400
#
# _framework density 26.437913999999999
#
# number of rings (size 3 to 8) (size 9 to 14) (size 15 to 20)
#    0.857    0.571    2.857    2.143    4.000    3.429 
#    2.571    1.429    0.000    0.000    0.000    0.000 
#    0.000    0.000    0.000    0.000    0.000    0.000 
#
# Total GULP energy -77962.773348 kJ/mol
# GULP energy per Si atom -5568.769525 kJ/mol
# Density = 2.637774 g / cm^3
# Si number density = 26.437914 Si / 1000 Ang^3
#
#
#
# Elastic Constant Matrix: (Units=GPa)
#
#
# Indices 1 2 3 4 5 6 
#
# 1 77.1683 35.2254 18.5425 -8.2373 -43.0240 -3.4886
# 2 35.2254 112.5480 16.2742 -18.2793 -35.5863 12.9597
# 3 18.5425 16.2742 76.6176 -11.0366 -29.7213 1.7869
# 4 -8.2373 -18.2793 -11.0366 43.4298 8.0384 -5.5662
# 5 -43.0240 -35.5863 -29.7213 8.0384 52.9868 1.9725
# 6 -3.4886 12.9597 1.7869 -5.5662 1.9725 35.1552
#
#
#
# Elastic Compliance Matrix: (Units=1/GPa)
#
#
# Indices 1 2 3 4 5 6 
#
# 1 0.024374 -0.001828 0.002176 0.001051 0.019548 0.002052
# 2 -0.001828 0.012721 0.001207 0.003324 0.007412 -0.004822
# 3 0.002176 0.001207 0.017344 0.002957 0.011906 -0.001310
# 4 0.001051 0.003324 0.002957 0.025585 0.000762 0.002737
# 5 0.019548 0.007412 0.011906 0.000762 0.046430 -0.003882
# 6 0.002052 -0.004822 -0.001310 0.002737 -0.003882 0.031144
#
#
# Mechanical properties :
#
#
# Convention : Reuss Voigt Hill
#
# Bulk Modulus (GPa) = 17.37641 45.15754 31.26698
# Shear Modulus (GPa) = 28.78986 39.40049 34.09518
#
# Velocity S-wave (km/s) = 3.30352 3.86463 3.59504
# Velocity P-wave (km/s) = 4.59759 6.08535 5.39302
#
# Compressibility (1/GPa) = 0.05754927
#
# Stress axis : x y z
#
# Youngs Moduli (GPa) = 41.02736 78.60832 57.65703
#
# Poissons Ratio (x) = 0.14368 -0.12547
# Poissons Ratio (y) = 0.07499 -0.06957
# Poissons Ratio (z) = -0.08928 -0.09485
#
# Static dielectric constant tensor:
#      x y z
#    x 2.046020 0.234470 -0.058270 
#    y 0.234470 1.636910 0.360280 
#    z -0.058270 0.360280 2.074080 
# 
# From -- ./inp_files/392428.got.cif
#   From: 2010.05.17/outbox.cif.g08.bks.cpg/sg2_197_cif.got.tgz:392428.got - 2010.06.03 11:33:40.
