data_PCOD9056999
_publ_section_title
;
Structure prediction by ZEFSAII (Michael W. Deem and Ramdas Pophale) SiO2 
 PCOD9056999
Probable space group: P -1
;
_chemical_formula_sum "Si O2"
_cell_formula_units_Z 14
_cell_length_a 11.773507
_cell_length_b 9.580636
_cell_length_c 7.593475
_cell_angle_alpha 90.748320
_cell_angle_beta 53.440483
_cell_angle_gamma 79.381060
_cell_volume 667.978966
_symmetry_space_group_name_H-M "P -1"
_symmetry_group_IT_number 2
_symmetry_cell_setting 'triclinic'
loop_
_space_group_symop_operation_xyz
x,y,z
-x,-y,-z
loop_
_atom_site_type_symbol
_atom_site_label
_atom_site_fract_x
_atom_site_fract_y
_atom_site_fract_z
Si Si1 0.073801 0.833112 0.867319
Si Si2 0.104164 0.444587 0.237052
Si Si3 0.338814 0.570854 0.195226
Si Si4 0.874653 0.650480 0.219624
Si Si5 0.867286 0.817973 0.576785
Si Si6 0.168311 0.864026 0.377612
Si Si7 0.675123 0.452640 0.375081
O O1 0.110795 0.853877 0.629365
O O2 0.225580 0.707293 0.779771
O O3 0.950051 0.750806 0.033209
O O4 0.000000 0.000000 0.000000
O O5 0.239769 0.510770 0.149276
O O6 0.145784 0.276634 0.242080
O O7 0.000000 0.500000 0.500000
O O8 0.000385 0.518494 0.178162
O O9 0.307441 0.740561 0.208846
O O10 0.304941 0.545853 0.430121
O O11 0.500000 0.500000 0.000000
O O12 0.817009 0.747414 0.448636
O O13 0.750449 0.581459 0.249311
O O14 0.035904 0.826849 0.387988
O O15 0.798051 0.983499 0.678619
O O16 0.500000 0.500000 0.500000
#
# Coordination Sequence:
#
# PCOD9056999 Si02
#       7
#     2   2   2   2   2   2   2
#     4  11  23  40  65  97 126 166 211 257 314 380
#     4  10  17  36  64  90 109 159 211 253 303 350
#     4  11  22  38  61  86 125 161 206 254 310 374
#     4  11  20  40  66  92 124 165 211 263 304 380
#     4  10  18  34  66  87 120 150 205 263 304 346
#     4  10  20  37  59  96 124 156 200 259 315 362
#     4  11  25  42  60  92 131 169 209 258 320 376
#
# _framework density 20.958742000000001
#
# number of rings (size 3 to 8) (size 9 to 14) (size 15 to 20)
#    0.000    1.429    7.143    1.286    2.000    0.000 
#    0.000    1.429    0.000    0.000    0.000    0.000 
#    0.000    0.000    0.000    0.000    0.000    0.000 
#
# Total GULP energy -77980.744733 kJ/mol
# GULP energy per Si atom -5570.053195 kJ/mol
# Density = 2.091104 g / cm^3
# Si number density = 20.958742 Si / 1000 Ang^3
#
#
#
# Elastic Constant Matrix: (Units=GPa)
#
#
# Indices 1 2 3 4 5 6 
#
# 1 111.8106 52.3912 34.8260 10.8718 -8.3889 7.0047
# 2 52.3912 224.9149 51.3199 11.1519 -15.9409 5.0307
# 3 34.8260 51.3199 73.5025 18.3488 -11.2857 -0.5520
# 4 10.8718 11.1519 18.3488 41.8950 -9.9564 0.8240
# 5 -8.3889 -15.9409 -11.2857 -9.9564 42.0957 -1.5490
# 6 7.0047 5.0307 -0.5520 0.8240 -1.5490 24.8490
#
#
#
# Elastic Compliance Matrix: (Units=1/GPa)
#
#
# Indices 1 2 3 4 5 6 
#
# 1 0.011199 -0.001572 -0.004035 -0.000590 0.000309 -0.002889
# 2 -0.001572 0.005593 -0.003142 0.000563 0.001069 -0.000711
# 3 -0.004035 -0.003142 0.019589 -0.006304 0.001860 0.002534
# 4 -0.000590 0.000563 -0.006304 0.027826 0.004961 -0.000701
# 5 0.000309 0.001069 0.001860 0.004961 0.025938 0.001190
# 6 -0.002889 -0.000711 0.002534 -0.000701 0.001190 0.041355
#
#
# Mechanical properties :
#
#
# Convention : Reuss Voigt Hill
#
# Bulk Modulus (GPa) = 52.96116 76.36693 64.66405
# Shear Modulus (GPa) = 32.19722 39.88066 36.03894
#
# Velocity S-wave (km/s) = 3.92372 4.36686 4.15121
# Velocity P-wave (km/s) = 6.77137 7.87032 7.34144
#
# Compressibility (1/GPa) = 0.01888176
#
# Stress axis : x y z
#
# Youngs Moduli (GPa) = 89.29518 178.79455 51.04900
#
# Poissons Ratio (x) = 0.28108 0.20601
# Poissons Ratio (y) = 0.14038 0.16040
# Poissons Ratio (z) = 0.36035 0.56177
#
# Static dielectric constant tensor:
#      x y z
#    x 1.982180 -0.054480 0.225470 
#    y -0.054480 1.801050 -0.012800 
#    z 0.225470 -0.012800 1.952630 
# 
# From -- ./inp_files/238837.got.cif
#   From: 2010.05.17/outbox.cif.g08.bks.cpg/sg2_120_cif.got.tgz:238837.got - 2010.06.03 11:33:40.
