data_PCOD9056381
_publ_section_title
;
Structure prediction by ZEFSAII (Michael W. Deem and Ramdas Pophale) SiO2 
 PCOD9056381
Probable space group: P -1
;
_chemical_formula_sum "Si O2"
_cell_formula_units_Z 16
_cell_length_a 14.434838
_cell_length_b 7.454225
_cell_length_c 8.665697
_cell_angle_alpha 85.832489
_cell_angle_beta 63.736437
_cell_angle_gamma 48.274447
_cell_volume 588.795520
_symmetry_space_group_name_H-M "P -1"
_symmetry_group_IT_number 2
_symmetry_cell_setting 'triclinic'
loop_
_space_group_symop_operation_xyz
x,y,z
-x,-y,-z
loop_
_atom_site_type_symbol
_atom_site_label
_atom_site_fract_x
_atom_site_fract_y
_atom_site_fract_z
Si Si1 0.224609 0.912649 0.852395
Si Si2 0.234975 0.132101 0.284485
Si Si3 0.923019 0.958045 0.385316
Si Si4 0.233666 0.491602 0.461225
Si Si5 0.469637 0.348358 0.812297
Si Si6 0.938978 0.397731 0.132346
Si Si7 0.787466 0.553433 0.932353
Si Si8 0.475417 0.824523 0.565867
O O1 0.345479 0.650891 0.872060
O O2 0.319240 0.975499 0.744972
O O3 0.166066 0.933365 0.720987
O O4 0.079197 0.097375 0.049312
O O5 0.122337 0.155720 0.466447
O O6 0.266762 0.289731 0.329682
O O7 0.186999 0.270269 0.146788
O O8 0.379745 0.831387 0.194802
O O9 0.091481 0.711444 0.232380
O O10 0.871606 0.204138 0.491860
O O11 0.147138 0.485001 0.655298
O O12 0.387499 0.386921 0.411629
O O13 0.515995 0.276834 0.602213
O O14 0.381649 0.291012 0.956158
O O15 0.825421 0.463671 0.087132
O O16 0.000000 0.500000 0.000000
O O17 0.500000 0.000000 0.500000
#
# Coordination Sequence:
#
# PCOD9056381 Si02
#       8
#     2   2   2   2   2   2   2   2
#     4  11  22  38  65 100 127 160 214 281 317 366
#     4  12  26  44  64  95 135 175 210 257 326 395
#     4  11  22  42  66  93 128 169 219 264 320 377
#     4  12  23  40  70  97 124 168 221 271 315 373
#     4  12  22  40  65  92 127 169 214 261 321 376
#     4  11  23  41  68 101 128 163 219 272 320 372
#     4  11  25  43  64  91 136 174 205 260 329 386
#     4  12  20  36  62  97 128 158 211 271 317 371
#
# _framework density 27.174121
#
# number of rings (size 3 to 8) (size 9 to 14) (size 15 to 20)
#    0.000    0.500    5.000    4.875    0.000    2.500 
#    0.000    1.250    0.000    3.000    0.000    0.000 
#    0.000    0.000    0.000    0.000    0.000    0.000 
#
# Total GULP energy -89576.740003 kJ/mol
# GULP energy per Si atom -5598.546250 kJ/mol
# Density = 2.711227 g / cm^3
# Si number density = 27.174121 Si / 1000 Ang^3
#
#
#
# Elastic Constant Matrix: (Units=GPa)
#
#
# Indices 1 2 3 4 5 6 
#
# 1 63.6548 3.5624 27.0298 -1.4082 -6.1950 -1.8136
# 2 3.5624 147.5245 10.9067 -4.2478 5.5572 -9.3738
# 3 27.0298 10.9067 114.0571 -0.9291 -17.2705 -14.0270
# 4 -1.4082 -4.2478 -0.9291 40.2806 1.1671 -17.2922
# 5 -6.1950 5.5572 -17.2705 1.1671 45.2610 -0.3774
# 6 -1.8136 -9.3738 -14.0270 -17.2922 -0.3774 37.7624
#
#
#
# Elastic Compliance Matrix: (Units=1/GPa)
#
#
# Indices 1 2 3 4 5 6 
#
# 1 0.017523 -0.000187 -0.004079 0.000210 0.000854 -0.000616
# 2 -0.000187 0.007062 -0.000494 0.001773 -0.001107 0.002361
# 3 -0.004079 -0.000494 0.010926 0.001957 0.003660 0.004673
# 4 0.000210 0.001773 0.001957 0.031831 -0.000131 0.015752
# 5 0.000854 -0.001107 0.003660 -0.000131 0.023758 0.001303
# 6 -0.000616 0.002361 0.004673 0.015752 0.001303 0.036000
#
#
# Mechanical properties :
#
#
# Convention : Reuss Voigt Hill
#
# Bulk Modulus (GPa) = 38.47446 45.35934 41.91690
# Shear Modulus (GPa) = 34.41525 43.57662 38.99593
#
# Velocity S-wave (km/s) = 3.56261 4.00885 3.79230
# Velocity P-wave (km/s) = 5.57783 6.17707 5.88508
#
# Compressibility (1/GPa) = 0.02599127
#
# Stress axis : x y z
#
# Youngs Moduli (GPa) = 57.06900 141.59606 91.52174
#
# Poissons Ratio (x) = 0.02645 0.37335
# Poissons Ratio (y) = 0.01066 0.04520
# Poissons Ratio (z) = 0.23281 0.06993
#
# Static dielectric constant tensor:
#      x y z
#    x 2.273870 0.007170 0.126040 
#    y 0.007170 2.246920 -0.105130 
#    z 0.126040 -0.105130 2.230360 
# 
# From -- ./inp_files/328848.got.cif
#   From: 2010.05.17/outbox.cif.g08.bks.cpg/sg2_165_cif.got.tgz:328848.got - 2010.06.03 11:33:40.
