data_PCOD9056785
_publ_section_title
;
Structure prediction by ZEFSAII (Michael W. Deem and Ramdas Pophale) SiO2 
 PCOD9056785
Probable space group: P -1
;
_chemical_formula_sum "Si O2"
_cell_formula_units_Z 14
_cell_length_a 21.888495
_cell_length_b 14.937933
_cell_length_c 7.110589
_cell_angle_alpha 111.358115
_cell_angle_beta 96.344501
_cell_angle_gamma 21.200451
_cell_volume 574.084062
_symmetry_space_group_name_H-M "P -1"
_symmetry_group_IT_number 2
_symmetry_cell_setting 'triclinic'
loop_
_space_group_symop_operation_xyz
x,y,z
-x,-y,-z
loop_
_atom_site_type_symbol
_atom_site_label
_atom_site_fract_x
_atom_site_fract_y
_atom_site_fract_z
Si Si1 0.079812 0.371829 0.643626
Si Si2 0.893288 0.865727 0.314318
Si Si3 0.736258 0.700232 0.296851
Si Si4 0.623092 0.152603 0.176785
Si Si5 0.627744 0.399437 0.895226
Si Si6 0.984023 0.162869 0.144039
Si Si7 0.129800 0.816722 0.603466
O O1 0.138555 0.177504 0.589996
O O2 0.256551 0.195145 0.596133
O O3 0.000000 0.500000 0.500000
O O4 0.844821 0.752028 0.968329
O O5 0.713524 0.114068 0.273955
O O6 0.026357 0.878199 0.086367
O O7 0.143929 0.496040 0.018079
O O8 0.916658 0.374405 0.250051
O O9 0.500000 0.000000 0.500000
O O10 0.555628 0.261846 0.018479
O O11 0.384637 0.475555 0.423527
O O12 0.814701 0.078273 0.561734
O O13 0.761771 0.237996 0.993594
O O14 0.500000 0.500000 0.000000
O O15 0.838234 0.330777 0.384043
O O16 0.000000 0.000000 0.500000
#
# Coordination Sequence:
#
# PCOD9056785 Si02
#       7
#     2   2   2   2   2   2   2
#     4  11  25  46  67 100 139 186 238 288 347 429
#     4  11  24  44  71 100 142 183 237 292 351 423
#     4  11  25  44  69  99 138 186 236 293 351 417
#     4  11  22  40  69  95 135 180 234 280 352 410
#     4  12  22  41  69 102 135 177 233 292 352 416
#     4  11  25  42  67 100 144 171 235 290 346 418
#     4  11  24  44  66 101 138 183 224 288 356 422
#
# _framework density 24.386669999999999
#
# number of rings (size 3 to 8) (size 9 to 14) (size 15 to 20)
#    0.000    0.857    1.429    7.286    4.000    1.143 
#    0.000    1.429    0.000    0.000    0.000    0.000 
#    0.000    0.000    0.000    0.000    0.000    0.000 
#
# Total GULP energy -78221.088856 kJ/mol
# GULP energy per Si atom -5587.220633 kJ/mol
# Density = 2.433116 g / cm^3
# Si number density = 24.386670 Si / 1000 Ang^3
#
#
#
# Elastic Constant Matrix: (Units=GPa)
#
#
# Indices 1 2 3 4 5 6 
#
# 1 102.3378 37.5124 39.5649 4.8017 -21.8079 3.3119
# 2 37.5124 118.6883 31.5935 -9.8994 -1.8995 -0.5172
# 3 39.5649 31.5935 126.2728 0.8987 -25.7023 -17.6890
# 4 4.8017 -9.8994 0.8987 40.9029 -5.0610 -2.3342
# 5 -21.8079 -1.8995 -25.7023 -5.0610 56.7697 -3.3191
# 6 3.3119 -0.5172 -17.6890 -2.3342 -3.3191 53.8260
#
#
#
# Elastic Compliance Matrix: (Units=1/GPa)
#
#
# Indices 1 2 3 4 5 6 
#
# 1 0.012963 -0.003493 -0.002713 -0.001983 0.003364 -0.001601
# 2 -0.003493 0.010221 -0.001849 0.002709 -0.001612 -0.000276
# 3 -0.002713 -0.001849 0.010576 0.000348 0.003942 0.003883
# 4 -0.001983 0.002709 0.000348 0.025644 0.001860 0.001489
# 5 0.003364 -0.001612 0.003942 0.001860 0.020947 0.002445
# 6 -0.001601 -0.000276 0.003883 0.001489 0.002445 0.020166
#
#
# Mechanical properties :
#
#
# Convention : Reuss Voigt Hill
#
# Bulk Modulus (GPa) = 56.66005 62.73782 59.69893
# Shear Modulus (GPa) = 40.81346 46.20827 43.51087
#
# Velocity S-wave (km/s) = 4.09540 4.35767 4.22857
# Velocity P-wave (km/s) = 6.75630 7.14851 6.95517
#
# Compressibility (1/GPa) = 0.01764912
#
# Stress axis : x y z
#
# Youngs Moduli (GPa) = 77.14488 97.84196 94.55512
#
# Poissons Ratio (x) = 0.34179 0.25653
# Poissons Ratio (y) = 0.26949 0.17480
# Poissons Ratio (z) = 0.20930 0.18088
#
# Static dielectric constant tensor:
#      x y z
#    x 1.979550 -0.025280 -0.001650 
#    y -0.025280 1.983680 -0.011460 
#    z -0.001650 -0.011460 2.045620 
# 
# From -- ./inp_files/353929.got.cif
#   From: 2010.05.17/outbox.cif.g08.bks.cpg/sg2_177_cif.got.tgz:353929.got - 2010.06.03 11:33:40.
