data_PCOD9056728
_publ_section_title
;
Structure prediction by ZEFSAII (Michael W. Deem and Ramdas Pophale) SiO2 
 PCOD9056728
Probable space group: P -1
;
_chemical_formula_sum "Si O2"
_cell_formula_units_Z 14
_cell_length_a 16.421681
_cell_length_b 12.727947
_cell_length_c 23.209038
_cell_angle_alpha 28.591473
_cell_angle_beta 17.258566
_cell_angle_gamma 27.637852
_cell_volume 649.279724
_symmetry_space_group_name_H-M "P -1"
_symmetry_group_IT_number 2
_symmetry_cell_setting 'triclinic'
loop_
_space_group_symop_operation_xyz
x,y,z
-x,-y,-z
loop_
_atom_site_type_symbol
_atom_site_label
_atom_site_fract_x
_atom_site_fract_y
_atom_site_fract_z
Si Si1 0.270245 0.867468 0.599990
Si Si2 0.454519 0.247330 0.645395
Si Si3 0.191301 0.499862 0.050202
Si Si4 0.228763 0.126806 0.302189
Si Si5 0.709976 0.666196 0.586977
Si Si6 0.701278 0.775889 0.005230
Si Si7 0.272574 0.538195 0.453256
O O1 0.307854 0.899558 0.491025
O O2 0.966918 0.821363 0.836195
O O3 0.548840 0.647817 0.531883
O O4 0.290777 0.076447 0.524210
O O5 0.500000 0.500000 0.500000
O O6 0.512185 0.080138 0.743099
O O7 0.124717 0.314482 0.813789
O O8 0.438548 0.617597 0.823741
O O9 0.167776 0.410176 0.044341
O O10 0.277067 0.279432 0.142270
O O11 0.049684 0.320156 0.376444
O O12 0.000000 0.000000 0.500000
O O13 0.717724 0.591808 0.551151
O O14 0.000000 0.500000 0.500000
O O15 0.474848 0.698722 0.232622
O O16 0.500000 0.000000 0.000000
#
# Coordination Sequence:
#
# PCOD9056728 Si02
#       7
#     2   2   2   2   2   2   2
#     4  12  22  43  69  94 136 178 220 278 327 398
#     4  12  22  41  69 102 136 170 219 282 333 388
#     4  11  24  45  67 100 135 172 223 274 334 395
#     4  12  22  41  71 101 133 173 220 279 334 392
#     4  11  26  48  66  92 137 180 223 273 330 399
#     4  11  22  40  67  98 130 173 223 275 331 390
#     4  11  24  43  66 101 131 172 227 274 335 394
#
# _framework density 21.562355
#
# number of rings (size 3 to 8) (size 9 to 14) (size 15 to 20)
#    0.000    0.571    4.286    5.143    0.000    0.571 
#   12.857    1.429    0.000    0.000    0.000    0.000 
#    0.000    0.000    0.000    0.000    0.000    0.000 
#
# Total GULP energy -78270.290362 kJ/mol
# GULP energy per Si atom -5590.735026 kJ/mol
# Density = 2.151328 g / cm^3
# Si number density = 21.562355 Si / 1000 Ang^3
#
#
#
# Elastic Constant Matrix: (Units=GPa)
#
#
# Indices 1 2 3 4 5 6 
#
# 1 75.1112 17.9875 36.9988 -8.7342 -5.8623 -7.5402
# 2 17.9875 86.1891 17.7834 -4.1819 -9.6813 -13.9180
# 3 36.9988 17.7834 96.4890 0.5278 -19.2021 11.0344
# 4 -8.7342 -4.1819 0.5278 31.2182 -0.1463 -2.0574
# 5 -5.8623 -9.6813 -19.2021 -0.1463 35.7708 -0.3483
# 6 -7.5402 -13.9180 11.0344 -2.0574 -0.3483 49.9031
#
#
#
# Elastic Compliance Matrix: (Units=1/GPa)
#
#
# Indices 1 2 3 4 5 6 
#
# 1 0.018318 -0.001481 -0.007540 0.005327 -0.001383 0.004232
# 2 -0.001481 0.013290 -0.001869 0.001671 0.002397 0.003982
# 3 -0.007540 -0.001869 0.015503 -0.002932 0.006519 -0.005164
# 4 0.005327 0.001671 -0.002932 0.034015 -0.000077 0.003321
# 5 -0.001383 0.002397 0.006519 -0.000077 0.031869 -0.000763
# 6 0.004232 0.003982 -0.005164 0.003321 -0.000763 0.023062
#
#
# Mechanical properties :
#
#
# Convention : Reuss Voigt Hill
#
# Bulk Modulus (GPa) = 39.47474 44.81431 42.14453
# Shear Modulus (GPa) = 30.06940 35.71306 32.89123
#
# Velocity S-wave (km/s) = 3.73839 4.07414 3.90987
# Velocity P-wave (km/s) = 6.08121 6.55441 6.32224
#
# Compressibility (1/GPa) = 0.02533266
#
# Stress axis : x y z
#
# Youngs Moduli (GPa) = 54.58983 75.24211 64.50256
#
# Poissons Ratio (x) = 0.11143 0.48632
# Poissons Ratio (y) = 0.08084 0.12057
# Poissons Ratio (z) = 0.41159 0.14064
#
# Static dielectric constant tensor:
#      x y z
#    x 1.896790 0.027620 0.096120 
#    y 0.027620 1.775390 0.031790 
#    z 0.096120 0.031790 1.811040 
# 
# From -- ./inp_files/597913.got.cif
#   From: 2010.05.17/outbox.cif.g08.bks.cpg/sg2_299_cif.got.tgz:597913.got - 2010.06.03 11:33:40.
