data_PCOD9056931
_publ_section_title
;
Structure prediction by ZEFSAII (Michael W. Deem and Ramdas Pophale) SiO2 
 PCOD9056931
Probable space group: P -1
;
_chemical_formula_sum "Si O2"
_cell_formula_units_Z 14
_cell_length_a 13.438191
_cell_length_b 13.348004
_cell_length_c 6.685371
_cell_angle_alpha 78.431702
_cell_angle_beta 86.140207
_cell_angle_gamma 145.534608
_cell_volume 603.468916
_symmetry_space_group_name_H-M "P -1"
_symmetry_group_IT_number 2
_symmetry_cell_setting 'triclinic'
loop_
_space_group_symop_operation_xyz
x,y,z
-x,-y,-z
loop_
_atom_site_type_symbol
_atom_site_label
_atom_site_fract_x
_atom_site_fract_y
_atom_site_fract_z
Si Si1 0.246666 0.577537 0.002344
Si Si2 0.808266 0.402108 0.546396
Si Si3 0.412844 0.975883 0.218012
Si Si4 0.106101 0.151321 0.605161
Si Si5 0.595402 0.485619 0.878318
Si Si6 0.795232 0.935643 0.057619
Si Si7 0.950118 0.272920 0.890290
O O1 0.236916 0.594515 0.231144
O O2 0.282947 0.486720 0.012837
O O3 0.036638 0.418269 0.999164
O O4 0.430766 0.805671 0.812747
O O5 0.651422 0.180261 0.585362
O O6 0.000000 0.500000 0.500000
O O7 0.856975 0.541906 0.345911
O O8 0.220104 0.856759 0.195685
O O9 0.500000 0.000000 0.000000
O O10 0.273262 0.361028 0.385817
O O11 0.185339 0.140092 0.760518
O O12 0.000000 0.000000 0.500000
O O13 0.942567 0.062468 0.797319
O O14 0.419592 0.261452 0.915327
O O15 0.500000 0.500000 0.000000
O O16 0.863257 0.099057 0.084848
#
# Coordination Sequence:
#
# PCOD9056931 Si02
#       7
#     2   2   2   2   2   2   2
#     4  11  23  42  66  95 134 172 220 280 332 402
#     4   9  21  41  68  94 126 168 216 275 339 400
#     4   9  20  40  63  93 127 162 212 272 329 400
#     4  11  23  42  65  93 130 179 230 285 335 395
#     4  12  24  44  67  98 139 183 230 276 339 405
#     4  11  24  42  67  96 135 180 229 281 339 400
#     4  11  22  41  65  95 130 172 214 274 341 400
#
# _framework density 23.199204999999999
#
# number of rings (size 3 to 8) (size 9 to 14) (size 15 to 20)
#    0.000    1.429    2.857    2.143    2.000    5.714 
#    2.571    4.286    0.000    0.000    0.000    0.000 
#    0.000    0.000    0.000    0.000    0.000    0.000 
#
# Total GULP energy -77940.744511 kJ/mol
# GULP energy per Si atom -5567.196037 kJ/mol
# Density = 2.314640 g / cm^3
# Si number density = 23.199205 Si / 1000 Ang^3
#
#
#
# Elastic Constant Matrix: (Units=GPa)
#
#
# Indices 1 2 3 4 5 6 
#
# 1 50.5205 32.8101 33.2098 -2.2707 1.8142 -9.7499
# 2 32.8101 161.8136 32.1940 -35.9331 20.2753 -17.4786
# 3 33.2098 32.1940 111.1670 -33.7852 21.8997 -4.7032
# 4 -2.2707 -35.9331 -33.7852 45.6988 -6.0461 10.4856
# 5 1.8142 20.2753 21.8997 -6.0461 21.7200 -3.3087
# 6 -9.7499 -17.4786 -4.7032 10.4856 -3.3087 25.0205
#
#
#
# Elastic Compliance Matrix: (Units=1/GPa)
#
#
# Indices 1 2 3 4 5 6 
#
# 1 0.040388 -0.009963 -0.019168 -0.020959 0.021989 0.016867
# 2 -0.009963 0.010870 0.005405 0.010779 -0.011974 -0.001373
# 3 -0.019168 0.005405 0.023295 0.019932 -0.023015 -0.010712
# 4 -0.020959 0.010779 0.019932 0.045867 -0.018468 -0.018555
# 5 0.021989 -0.011974 -0.023015 -0.018468 0.075518 0.013604
# 6 0.016867 -0.001373 -0.010712 -0.018555 0.013604 0.053142
#
#
# Mechanical properties :
#
#
# Convention : Reuss Voigt Hill
#
# Bulk Modulus (GPa) = 36.89941 57.76988 47.33465
# Shear Modulus (GPa) = 16.36302 33.50700 24.93501
#
# Velocity S-wave (km/s) = 2.65868 3.80454 3.28200
# Velocity P-wave (km/s) = 5.03634 6.65245 5.89999
#
# Compressibility (1/GPa) = 0.02710070
#
# Stress axis : x y z
#
# Youngs Moduli (GPa) = 24.75971 91.99248 42.92767
#
# Poissons Ratio (x) = 0.91655 0.82284
# Poissons Ratio (y) = 0.24669 -0.23202
# Poissons Ratio (z) = 0.47460 -0.49722
#
# Static dielectric constant tensor:
#      x y z
#    x 2.136750 -0.063070 0.016280 
#    y -0.063070 1.960340 0.030440 
#    z 0.016280 0.030440 1.921430 
# 
# From -- ./inp_files/97950.got.cif
#   From: 2010.05.17/outbox.cif.g08.bks.cpg/sg2_49_cif.got.tgz:97950.got - 2010.06.03 11:33:40.
