data_PCOD9056107
_publ_section_title
;
Structure prediction by ZEFSAII (Michael W. Deem and Ramdas Pophale) SiO2 
 PCOD9056107
Probable space group: P -1
;
_chemical_formula_sum "Si O2"
_cell_formula_units_Z 15
_cell_length_a 14.204276
_cell_length_b 6.161930
_cell_length_c 9.855211
_cell_angle_alpha 62.123012
_cell_angle_beta 119.737349
_cell_angle_gamma 114.544951
_cell_volume 642.877335
_symmetry_space_group_name_H-M "P -1"
_symmetry_group_IT_number 2
_symmetry_cell_setting 'triclinic'
loop_
_space_group_symop_operation_xyz
x,y,z
-x,-y,-z
loop_
_atom_site_type_symbol
_atom_site_label
_atom_site_fract_x
_atom_site_fract_y
_atom_site_fract_z
Si Si1 0.530298 0.451371 0.691614
Si Si2 0.909278 0.127577 0.963620
Si Si3 0.341653 0.674050 0.588971
Si Si4 0.264833 0.133561 0.287473
Si Si5 0.256073 0.757141 0.792035
Si Si6 0.500000 0.000000 0.000000
Si Si7 0.167438 0.213936 0.472801
Si Si8 0.963369 0.347466 0.214690
O O1 0.500000 0.500000 0.500000
O O2 0.460479 0.607038 0.687330
O O3 0.659386 0.588622 0.760013
O O4 0.494541 0.167425 0.805212
O O5 0.948927 0.416962 0.858228
O O6 0.792885 0.990388 0.853779
O O7 0.915658 0.140839 0.125660
O O8 0.000000 0.000000 0.000000
O O9 0.293375 0.644059 0.714373
O O10 0.258856 0.470574 0.495605
O O11 0.339791 0.950960 0.453100
O O12 0.176416 0.143337 0.340952
O O13 0.145906 0.574028 0.830814
O O14 0.367536 0.853464 0.930174
O O15 0.205796 0.996241 0.645938
O O16 0.044932 0.252241 0.404322
#
# Coordination Sequence:
#
# PCOD9056107 Si02
#       8
#     2   2   2   2   2   1   2   2
#     4  12  25  48  80 106 149 202 246 311 383 437
#     4  11  24  41  65 106 136 180 253 302 366 453
#     4  11  23  46  71 105 142 193 255 298 369 462
#     4  11  23  42  76 104 142 191 247 306 375 442
#     4  11  27  45  69 102 147 193 237 311 380 435
#     4  12  28  50  72 114 154 182 266 312 358 464
#     4  11  21  46  69 104 140 187 250 304 355 464
#     4  11  25  43  71  97 147 192 237 309 374 436
#
# _framework density 23.332601
#
# number of rings (size 3 to 8) (size 9 to 14) (size 15 to 20)
#    0.000    0.800    5.333    1.600    1.867    4.267 
#    0.000    0.000    0.000    0.000    0.000    0.000 
#    0.000    0.000    0.000    0.000    0.000    0.000 
#
# Total GULP energy -83624.704662 kJ/mol
# GULP energy per Si atom -5574.980311 kJ/mol
# Density = 2.327950 g / cm^3
# Si number density = 23.332601 Si / 1000 Ang^3
#
#
#
# Elastic Constant Matrix: (Units=GPa)
#
#
# Indices 1 2 3 4 5 6 
#
# 1 79.1648 -12.5454 20.2458 15.0763 -1.6613 4.0122
# 2 -12.5454 52.3060 15.5796 5.3337 -10.2022 16.1947
# 3 20.2458 15.5796 87.0304 6.1994 4.8709 9.9146
# 4 15.0763 5.3337 6.1994 33.6563 12.2440 0.9984
# 5 -1.6613 -10.2022 4.8709 12.2440 30.3439 2.9168
# 6 4.0122 16.1947 9.9146 0.9984 2.9168 48.2230
#
#
#
# Elastic Compliance Matrix: (Units=1/GPa)
#
#
# Indices 1 2 3 4 5 6 
#
# 1 0.018806 0.011162 -0.005550 -0.013196 0.011439 -0.004591
# 2 0.011162 0.033130 -0.007224 -0.016030 0.020481 -0.011476
# 3 -0.005550 -0.007224 0.014161 0.003335 -0.006380 0.000293
# 4 -0.013196 -0.016030 0.003335 0.046884 -0.026181 0.006409
# 5 0.011439 0.020481 -0.006380 -0.026181 0.052939 -0.009178
# 6 -0.004591 -0.011476 0.000293 0.006409 -0.009178 0.025335
#
#
# Mechanical properties :
#
#
# Convention : Reuss Voigt Hill
#
# Bulk Modulus (GPa) = 15.90551 29.45126 22.67838
# Shear Modulus (GPa) = 23.20868 35.45939 29.33404
#
# Velocity S-wave (km/s) = 3.15729 3.90261 3.54957
# Velocity P-wave (km/s) = 4.48586 5.74081 5.15169
#
# Compressibility (1/GPa) = 0.06287130
#
# Stress axis : x y z
#
# Youngs Moduli (GPa) = 53.17469 30.18425 70.61793
#
# Poissons Ratio (x) = -0.33691 0.39194
# Poissons Ratio (y) = -0.59353 0.51017
# Poissons Ratio (z) = 0.29513 0.21806
#
# Static dielectric constant tensor:
#      x y z
#    x 1.896470 0.026070 -0.022210 
#    y 0.026070 1.881680 -0.050880 
#    z -0.022210 -0.050880 1.919160 
# 
# From -- ./inp_files/47048.got.cif
#   From: 2010.05.17/outbox.cif.g08.bks.cpg/sg2_24_cif.got.tgz:47048.got - 2010.06.03 11:33:40.
