data_PCOD9056741
_publ_section_title
;
Structure prediction by ZEFSAII (Michael W. Deem and Ramdas Pophale) SiO2 
 PCOD9056741
Probable space group: P -1
;
_chemical_formula_sum "Si O2"
_cell_formula_units_Z 14
_cell_length_a 7.955425
_cell_length_b 23.823773
_cell_length_c 9.683283
_cell_angle_alpha 133.507958
_cell_angle_beta 80.552344
_cell_angle_gamma 136.712412
_cell_volume 671.154098
_symmetry_space_group_name_H-M "P -1"
_symmetry_group_IT_number 2
_symmetry_cell_setting 'triclinic'
loop_
_space_group_symop_operation_xyz
x,y,z
-x,-y,-z
loop_
_atom_site_type_symbol
_atom_site_label
_atom_site_fract_x
_atom_site_fract_y
_atom_site_fract_z
Si Si1 0.299609 0.970008 0.796820
Si Si2 0.515524 0.657728 0.428039
Si Si3 0.636150 0.869895 0.767565
Si Si4 0.347531 0.442854 0.268972
Si Si5 0.567011 0.151476 0.501185
Si Si6 0.688788 0.508176 0.078772
Si Si7 0.418352 0.882307 0.255953
O O1 0.460986 0.950440 0.706220
O O2 0.917621 0.807107 0.614923
O O3 0.325948 0.029644 0.753437
O O4 0.485757 0.095821 0.096722
O O5 0.435039 0.714906 0.573389
O O6 0.397942 0.546713 0.364105
O O7 0.374248 0.589372 0.176433
O O8 0.674503 0.894611 0.640750
O O9 0.000000 0.000000 0.000000
O O10 0.500000 0.500000 0.500000
O O11 0.536307 0.455886 0.162975
O O12 0.954124 0.270226 0.014724
O O13 0.550384 0.156063 0.674953
O O14 0.927936 0.319860 0.685204
O O15 0.500000 0.500000 0.000000
O O16 0.500000 0.000000 0.500000
#
# Coordination Sequence:
#
# PCOD9056741 Si02
#       7
#     2   2   2   2   2   2   2
#     4  10  20  38  64  89 122 155 203 253 301 358
#     4  10  20  42  60  86 126 159 200 247 301 373
#     4  10  24  38  57  89 124 164 198 249 309 362
#     4  11  22  37  63  95 124 153 203 260 305 356
#     4  11  19  37  65  88 114 163 207 244 294 367
#     4  10  17  36  63  85 115 151 205 242 297 353
#     4  10  21  36  59  97 120 150 206 260 296 355
#
# _framework density 20.859590000000001
#
# number of rings (size 3 to 8) (size 9 to 14) (size 15 to 20)
#    0.000    1.714    5.714    1.286    2.000    5.143 
#    0.000    5.000    0.000    0.000    0.000    0.000 
#    0.000    0.000    0.000    0.000    0.000    0.000 
#
# Total GULP energy -78007.323871 kJ/mol
# GULP energy per Si atom -5571.951705 kJ/mol
# Density = 2.081211 g / cm^3
# Si number density = 20.859590 Si / 1000 Ang^3
#
#
#
# Elastic Constant Matrix: (Units=GPa)
#
#
# Indices 1 2 3 4 5 6 
#
# 1 41.1757 21.0026 37.7057 0.5648 8.3452 -17.2394
# 2 21.0026 92.8128 45.4215 -6.7120 12.8069 -14.8636
# 3 37.7057 45.4215 139.5210 -8.9338 -6.0135 -19.2354
# 4 0.5648 -6.7120 -8.9338 42.3641 -11.2400 6.8057
# 5 8.3452 12.8069 -6.0135 -11.2400 40.9268 -5.8782
# 6 -17.2394 -14.8636 -19.2354 6.8057 -5.8782 18.2835
#
#
#
# Elastic Compliance Matrix: (Units=1/GPa)
#
#
# Indices 1 2 3 4 5 6 
#
# 1 0.052086 -0.000187 -0.009636 -0.011707 -0.009427 0.040149
# 2 -0.000187 0.014298 -0.003994 -0.000708 -0.004339 0.006114
# 3 -0.009636 -0.003994 0.011620 0.003439 0.005941 0.000523
# 4 -0.011707 -0.000708 0.003439 0.029303 0.008855 -0.016057
# 5 -0.009427 -0.004339 0.005941 0.008855 0.031096 0.000536
# 6 0.040149 0.006114 0.000523 -0.016057 0.000536 0.104220
#
#
# Mechanical properties :
#
#
# Convention : Reuss Voigt Hill
#
# Bulk Modulus (GPa) = 19.85283 53.52990 36.69137
# Shear Modulus (GPa) = 17.41878 31.60685 24.51282
#
# Velocity S-wave (km/s) = 2.89286 3.89680 3.43174
# Velocity P-wave (km/s) = 4.54931 6.77971 5.77324
#
# Compressibility (1/GPa) = 0.05037064
#
# Stress axis : x y z
#
# Youngs Moduli (GPa) = 19.19891 69.94095 86.05838
#
# Poissons Ratio (x) = 0.01307 0.82928
# Poissons Ratio (y) = 0.00359 0.34368
# Poissons Ratio (z) = 0.18501 0.27931
#
# Static dielectric constant tensor:
#      x y z
#    x 1.670760 0.257640 -0.697730 
#    y 0.257640 1.333020 1.107490 
#    z -0.697730 1.107490 -1.006760 
# 
# From -- ./inp_files/209281.got.cif
#   From: 2010.05.17/outbox.cif.g08.bks.cpg/sg2_105_cif.got.tgz:209281.got - 2010.06.03 11:33:40.
