data_PCOD9056689
_publ_section_title
;
Structure prediction by ZEFSAII (Michael W. Deem and Ramdas Pophale) SiO2 
 PCOD9056689
Probable space group: P -1
;
_chemical_formula_sum "Si O2"
_cell_formula_units_Z 16
_cell_length_a 8.989513
_cell_length_b 18.243001
_cell_length_c 12.317004
_cell_angle_alpha 150.568005
_cell_angle_beta 75.115574
_cell_angle_gamma 116.541691
_cell_volume 846.795716
_symmetry_space_group_name_H-M "P -1"
_symmetry_group_IT_number 2
_symmetry_cell_setting 'triclinic'
loop_
_space_group_symop_operation_xyz
x,y,z
-x,-y,-z
loop_
_atom_site_type_symbol
_atom_site_label
_atom_site_fract_x
_atom_site_fract_y
_atom_site_fract_z
Si Si1 0.351025 0.475981 0.155922
Si Si2 0.006011 0.121063 0.058837
Si Si3 0.165362 0.679698 0.727438
Si Si4 0.347821 0.242397 0.660576
Si Si5 0.308538 0.944066 0.420905
Si Si6 0.040715 0.713113 0.029113
Si Si7 0.352266 0.471125 0.403707
Si Si8 0.014072 0.980081 0.641163
O O1 0.499371 0.657221 0.323399
O O2 0.375842 0.443808 0.235971
O O3 0.375116 0.351389 0.905301
O O4 0.152553 0.446029 0.138543
O O5 0.181811 0.300732 0.254054
O O6 0.852790 0.176502 0.152606
O O7 0.003201 0.025846 0.825639
O O8 0.000000 0.000000 0.000000
O O9 0.322005 0.636515 0.625127
O O10 0.000000 0.500000 0.500000
O O11 0.137811 0.712857 0.900265
O O12 0.158068 0.190469 0.578956
O O13 0.341490 0.069069 0.474684
O O14 0.178213 0.757462 0.157996
O O15 0.189683 0.975209 0.571277
O O16 0.500000 0.000000 0.500000
O O17 0.991967 0.867451 0.228746
O O18 0.500000 0.500000 0.500000
#
# Coordination Sequence:
#
# PCOD9056689 Si02
#       8
#     2   2   2   2   2   2   2   2
#     4  11  19  37  63  85 115 153 206 240 296 363
#     4  10  21  38  62  87 117 159 209 244 299 369
#     4   9  18  37  59  84 114 159 197 239 300 358
#     4  10  21  35  63  87 111 154 203 242 292 368
#     4  11  21  36  57  88 119 148 193 250 305 349
#     4  10  17  36  63  78 109 162 193 235 297 363
#     4  11  23  39  61  89 124 159 202 253 307 355
#     4  10  18  38  60  80 117 156 196 239 305 352
#
# _framework density 18.894757999999999
#
# number of rings (size 3 to 8) (size 9 to 14) (size 15 to 20)
#    0.000    1.750    6.250    0.750    1.750    2.000 
#    2.250    1.250    0.000    0.000    0.000    0.000 
#    0.000    0.000    0.000    0.000    0.000    0.000 
#
# Total GULP energy -89114.563407 kJ/mol
# GULP energy per Si atom -5569.660213 kJ/mol
# Density = 1.885175 g / cm^3
# Si number density = 18.894758 Si / 1000 Ang^3
#
#
#
# Elastic Constant Matrix: (Units=GPa)
#
#
# Indices 1 2 3 4 5 6 
#
# 1 139.8940 53.3480 45.5525 -9.1984 19.4841 -7.4404
# 2 53.3480 105.0762 29.5586 8.4190 6.8177 -0.3346
# 3 45.5525 29.5586 75.9456 -14.6295 4.8285 -5.3552
# 4 -9.1984 8.4190 -14.6295 24.9248 -1.7783 6.0855
# 5 19.4841 6.8177 4.8285 -1.7783 27.9708 3.0306
# 6 -7.4404 -0.3346 -5.3552 6.0855 3.0306 21.3216
#
#
#
# Elastic Compliance Matrix: (Units=1/GPa)
#
#
# Indices 1 2 3 4 5 6 
#
# 1 0.011316 -0.004337 -0.004084 0.002015 -0.006337 0.003181
# 2 -0.004337 0.013677 -0.004409 -0.008851 -0.000130 0.000139
# 3 -0.004084 -0.004409 0.019464 0.011518 0.001301 -0.000078
# 4 0.002015 -0.008851 0.011518 0.053902 0.003539 -0.012430
# 5 -0.006337 -0.000130 0.001301 0.003539 0.041146 -0.008745
# 6 0.003181 0.000139 -0.000078 -0.012430 -0.008745 0.052784
#
#
# Mechanical properties :
#
#
# Convention : Reuss Voigt Hill
#
# Bulk Modulus (GPa) = 53.20026 64.20377 58.70201
# Shear Modulus (GPa) = 22.30015 27.67390 24.98702
#
# Velocity S-wave (km/s) = 3.43917 3.83121 3.64047
# Velocity P-wave (km/s) = 6.63233 7.32286 6.98613
#
# Compressibility (1/GPa) = 0.01879690
#
# Stress axis : x y z
#
# Youngs Moduli (GPa) = 88.36858 73.11606 51.37764
#
# Poissons Ratio (x) = 0.31707 0.20985
# Poissons Ratio (y) = 0.38321 0.22653
# Poissons Ratio (z) = 0.36093 0.32237
#
# Static dielectric constant tensor:
#      x y z
#    x 1.775240 0.039320 -0.000730 
#    y 0.039320 1.668200 -0.006080 
#    z -0.000730 -0.006080 1.729630 
# 
# From -- ./inp_files/200138.got.cif
#   From: 2010.05.17/outbox.cif.g08.bks.cpg/sg2_101_cif.got.tgz:200138.got - 2010.06.03 11:33:40.
