data_PCOD9056808
_publ_section_title
;
Structure prediction by ZEFSAII (Michael W. Deem and Ramdas Pophale) SiO2 
 PCOD9056808
Probable space group: P -1
;
_chemical_formula_sum "Si O2"
_cell_formula_units_Z 16
_cell_length_a 8.077159
_cell_length_b 8.853795
_cell_length_c 16.428777
_cell_angle_alpha 105.119652
_cell_angle_beta 50.615025
_cell_angle_gamma 75.878747
_cell_volume 732.823685
_symmetry_space_group_name_H-M "P -1"
_symmetry_group_IT_number 2
_symmetry_cell_setting 'triclinic'
loop_
_space_group_symop_operation_xyz
x,y,z
-x,-y,-z
loop_
_atom_site_type_symbol
_atom_site_label
_atom_site_fract_x
_atom_site_fract_y
_atom_site_fract_z
Si Si1 0.721235 0.071876 0.943202
Si Si2 0.739941 0.425050 0.975062
Si Si3 0.517117 0.889593 0.668444
Si Si4 0.277866 0.281385 0.711588
Si Si5 0.475582 0.564353 0.237017
Si Si6 0.141871 0.835385 0.866407
Si Si7 0.707321 0.846830 0.786119
Si Si8 0.949471 0.588124 0.378380
O O1 0.810859 0.215060 0.941121
O O2 0.723774 0.014255 0.841703
O O3 0.471270 0.163513 0.090451
O O4 0.897638 0.865306 0.900996
O O5 0.996700 0.403288 0.859445
O O6 0.500000 0.500000 0.000000
O O7 0.620699 0.558896 0.109061
O O8 0.288989 0.861232 0.751520
O O9 0.588170 0.909171 0.741939
O O10 0.759486 0.709668 0.527255
O O11 0.410251 0.067184 0.668269
O O12 0.477297 0.328382 0.692011
O O13 0.205932 0.327367 0.645709
O O14 0.649438 0.352011 0.183380
O O15 0.194809 0.608362 0.310965
O O16 0.000000 0.000000 0.000000
O O17 0.945713 0.631559 0.676544
#
# Coordination Sequence:
#
# PCOD9056808 Si02
#       8
#     2   2   2   2   2   2   2   2
#     4  11  22  40  70 102 137 168 228 290 348 397
#     4  12  22  41  69  99 138 179 221 288 350 401
#     4  12  25  44  74  95 135 188 230 282 341 409
#     4  12  27  45  68 104 137 184 234 278 345 412
#     4  12  25  43  70 100 139 183 224 284 346 411
#     4  12  20  42  68  97 130 174 227 282 342 395
#     4  11  23  42  71 103 132 180 228 284 342 415
#     4  12  25  50  66  97 149 180 227 286 344 405
#
# _framework density 21.833355999999998
#
# number of rings (size 3 to 8) (size 9 to 14) (size 15 to 20)
#    0.000    0.250    7.500    1.875    1.750    1.500 
#    2.250    1.250    0.000    0.000    0.000    0.000 
#    0.000    0.000    0.000    0.000    0.000    0.000 
#
# Total GULP energy -89219.961392 kJ/mol
# GULP energy per Si atom -5576.247587 kJ/mol
# Density = 2.178366 g / cm^3
# Si number density = 21.833356 Si / 1000 Ang^3
#
#
#
# Elastic Constant Matrix: (Units=GPa)
#
#
# Indices 1 2 3 4 5 6 
#
# 1 80.5957 14.1433 18.2513 1.2119 21.3861 -21.0646
# 2 14.1433 61.0903 5.1758 8.4177 -0.0260 -19.9935
# 3 18.2513 5.1758 111.9359 10.6896 -2.0339 -4.9177
# 4 1.2119 8.4177 10.6896 22.0912 -9.9541 -3.7798
# 5 21.3861 -0.0260 -2.0339 -9.9541 23.4729 -2.4960
# 6 -21.0646 -19.9935 -4.9177 -3.7798 -2.4960 38.9448
#
#
#
# Elastic Compliance Matrix: (Units=1/GPa)
#
#
# Indices 1 2 3 4 5 6 
#
# 1 0.021467 -0.000801 -0.002712 -0.008144 -0.022330 0.008636
# 2 -0.000801 0.020552 0.000221 -0.006779 -0.001102 0.009417
# 3 -0.002712 0.000221 0.009760 -0.004023 0.001567 -0.000411
# 4 -0.008144 -0.006779 -0.004023 0.066121 0.035133 0.000276
# 5 -0.022330 -0.001102 0.001567 0.035133 0.077548 -0.004066
# 6 0.008636 0.009417 -0.000411 0.000276 -0.004066 0.034897
#
#
# Mechanical properties :
#
#
# Convention : Reuss Voigt Hill
#
# Bulk Modulus (GPa) = 22.12595 36.52921 29.32758
# Shear Modulus (GPa) = 19.84177 31.30522 25.57350
#
# Velocity S-wave (km/s) = 3.01787 3.79070 3.42614
# Velocity P-wave (km/s) = 4.72223 5.99387 5.39564
#
# Compressibility (1/GPa) = 0.04519580
#
# Stress axis : x y z
#
# Youngs Moduli (GPa) = 46.58292 48.65824 102.45715
#
# Poissons Ratio (x) = 0.03898 0.27784
# Poissons Ratio (y) = 0.03732 -0.02269
# Poissons Ratio (z) = 0.12632 -0.01078
#
# Static dielectric constant tensor:
#      x y z
#    x 1.981080 -0.057240 0.032910 
#    y -0.057240 1.935050 -0.015970 
#    z 0.032910 -0.015970 1.767620 
# 
# From -- ./inp_files/495135.got.cif
#   From: 2010.05.17/outbox.cif.g08.bks.cpg/sg2_248_cif.got.tgz:495135.got - 2010.06.03 11:33:40.
