data_PCOD9056882
_publ_section_title
;
Structure prediction by ZEFSAII (Michael W. Deem and Ramdas Pophale) SiO2 
 PCOD9056882
Probable space group: P -1
;
_chemical_formula_sum "Si O2"
_cell_formula_units_Z 16
_cell_length_a 9.738754
_cell_length_b 15.981640
_cell_length_c 8.881570
_cell_angle_alpha 104.889648
_cell_angle_beta 134.956566
_cell_angle_gamma 50.249560
_cell_volume 702.188401
_symmetry_space_group_name_H-M "P -1"
_symmetry_group_IT_number 2
_symmetry_cell_setting 'triclinic'
loop_
_space_group_symop_operation_xyz
x,y,z
-x,-y,-z
loop_
_atom_site_type_symbol
_atom_site_label
_atom_site_fract_x
_atom_site_fract_y
_atom_site_fract_z
Si Si1 0.696584 0.252519 0.520943
Si Si2 0.955271 0.095619 0.356760
Si Si3 0.187984 0.330138 0.050949
Si Si4 0.332519 0.544447 0.116699
Si Si5 0.867696 0.383181 0.575495
Si Si6 0.957600 0.944345 0.077013
Si Si7 0.458720 0.060518 0.158024
Si Si8 0.771175 0.320996 0.187974
O O1 0.811897 0.312826 0.599164
O O2 0.794176 0.183606 0.722503
O O3 0.820122 0.157760 0.438114
O O4 0.391114 0.334721 0.286595
O O5 0.860537 0.197480 0.216129
O O6 0.875701 0.029540 0.193222
O O7 0.263063 0.010267 0.580905
O O8 0.913798 0.413428 0.963816
O O9 0.091581 0.370343 0.822985
O O10 0.321403 0.195055 0.097806
O O11 0.577502 0.509456 0.385888
O O12 0.483648 0.424502 0.084213
O O13 0.231017 0.643032 0.963073
O O14 0.942999 0.326652 0.441297
O O15 0.727409 0.943622 0.884242
O O16 0.000000 0.000000 0.000000
O O17 0.500000 0.000000 0.000000
#
# Coordination Sequence:
#
# PCOD9056882 Si02
#       8
#     2   2   2   2   2   2   2   2
#     4  11  22  41  61  91 126 164 214 258 308 383
#     4  11  22  42  68  86 129 174 210 253 318 385
#     4  12  22  35  69  91 121 164 211 260 316 360
#     4   9  20  39  62  93 121 161 209 263 312 373
#     4   9  19  40  62  88 119 165 205 256 303 378
#     4  12  26  40  60  99 133 160 211 270 311 372
#     4  12  23  41  68  92 127 177 210 250 320 389
#     4   8  19  39  65  87 122 164 206 253 320 374
#
# _framework density 22.785907999999999
#
# number of rings (size 3 to 8) (size 9 to 14) (size 15 to 20)
#    0.750    0.750    3.750    2.250    1.750    2.000 
#    0.000    0.000    0.000    8.250    0.000    0.000 
#    0.000    0.000    0.000    0.000    0.000    0.000 
#
# Total GULP energy -89369.523352 kJ/mol
# GULP energy per Si atom -5585.595210 kJ/mol
# Density = 2.273405 g / cm^3
# Si number density = 22.785908 Si / 1000 Ang^3
#
#
#
# Elastic Constant Matrix: (Units=GPa)
#
#
# Indices 1 2 3 4 5 6 
#
# 1 70.5756 6.4209 46.2415 -8.9037 -3.3212 17.3882
# 2 6.4209 63.8644 25.4831 -7.7727 -3.1783 5.0550
# 3 46.2415 25.4831 122.9620 -18.5435 8.3250 29.7868
# 4 -8.9037 -7.7727 -18.5435 37.8409 10.1840 -7.2717
# 5 -3.3212 -3.1783 8.3250 10.1840 44.4011 -10.7068
# 6 17.3882 5.0550 29.7868 -7.2717 -10.7068 26.9613
#
#
#
# Elastic Compliance Matrix: (Units=1/GPa)
#
#
# Indices 1 2 3 4 5 6 
#
# 1 0.019650 0.001106 -0.006428 0.000329 0.001445 -0.005117
# 2 0.001106 0.017476 -0.004577 0.001412 0.002452 0.002422
# 3 -0.006428 -0.004577 0.016614 0.005088 -0.008824 -0.015483
# 4 0.000329 0.001412 0.005088 0.031327 -0.008235 -0.000920
# 5 0.001445 0.002452 -0.008824 -0.008235 0.030776 0.018358
# 6 -0.005117 0.002422 -0.015483 -0.000920 0.018358 0.064084
#
#
# Mechanical properties :
#
#
# Convention : Reuss Voigt Hill
#
# Bulk Modulus (GPa) = 29.46221 45.96586 37.71403
# Shear Modulus (GPa) = 23.69233 33.79109 28.74171
#
# Velocity S-wave (km/s) = 3.22806 3.85513 3.55545
# Velocity P-wave (km/s) = 5.18188 6.32714 5.78293
#
# Compressibility (1/GPa) = 0.03394179
#
# Stress axis : x y z
#
# Youngs Moduli (GPa) = 50.89028 57.22245 60.19019
#
# Poissons Ratio (x) = -0.06329 0.38688
# Poissons Ratio (y) = -0.05629 0.27551
# Poissons Ratio (z) = 0.32711 0.26193
#
# Static dielectric constant tensor:
#      x y z
#    x 1.845080 0.000850 -0.031540 
#    y 0.000850 1.899870 0.001220 
#    z -0.031540 0.001220 1.867320 
# 
# From -- ./inp_files/215205.got.cif
#   From: 2010.05.17/outbox.cif.g08.bks.cpg/sg2_108_cif.got.tgz:215205.got - 2010.06.03 11:33:40.
