data_PCOD9056612
_publ_section_title
;
Structure prediction by ZEFSAII (Michael W. Deem and Ramdas Pophale) SiO2 
 PCOD9056612
Probable space group: P -1
;
_chemical_formula_sum "Si O2"
_cell_formula_units_Z 16
_cell_length_a 7.751873
_cell_length_b 8.286810
_cell_length_c 11.947558
_cell_angle_alpha 88.428836
_cell_angle_beta 91.076433
_cell_angle_gamma 127.133380
_cell_volume 611.636068
_symmetry_space_group_name_H-M "P -1"
_symmetry_group_IT_number 2
_symmetry_cell_setting 'triclinic'
loop_
_space_group_symop_operation_xyz
x,y,z
-x,-y,-z
loop_
_atom_site_type_symbol
_atom_site_label
_atom_site_fract_x
_atom_site_fract_y
_atom_site_fract_z
Si Si1 0.082574 0.376994 0.552355
Si Si2 0.348388 0.571147 0.928358
Si Si3 0.560716 0.422008 0.623357
Si Si4 0.996089 0.768607 0.200785
Si Si5 0.231743 0.234732 0.208290
Si Si6 0.694884 0.017824 0.436949
Si Si7 0.207751 0.823091 0.810205
Si Si8 0.369687 0.743143 0.155020
O O1 0.310398 0.488176 0.492177
O O2 0.000000 0.500000 0.500000
O O3 0.087513 0.364877 0.685017
O O4 0.908185 0.151209 0.510342
O O5 0.593291 0.699470 0.886803
O O6 0.238976 0.667334 0.868697
O O7 0.206291 0.342717 0.883822
O O8 0.343914 0.602026 0.058563
O O9 0.618119 0.615882 0.690309
O O10 0.353050 0.194584 0.594091
O O11 0.654176 0.347414 0.720020
O O12 0.186767 0.775231 0.145135
O O13 0.103001 0.996713 0.232617
O O14 0.032235 0.242296 0.180710
O O15 0.500000 0.000000 0.500000
O O16 0.737955 0.142699 0.321815
O O17 0.394113 0.043901 0.857893
#
# Coordination Sequence:
#
# PCOD9056612 Si02
#       8
#     2   2   2   2   2   2   2   2
#     4  12  21  43  76 110 146 196 243 307 378 443
#     4  12  28  50  78 110 152 202 254 315 377 444
#     4  11  25  45  72 109 153 195 247 310 378 443
#     4  12  27  47  76 116 150 194 264 307 373 465
#     4  12  29  49  72 114 159 198 251 313 376 449
#     4  11  22  39  79 110 139 202 253 293 377 452
#     4  11  24  49  77 107 158 196 249 312 383 447
#     4  11  24  51  79 111 148 199 260 313 373 457
#
# _framework density 26.159344999999998
#
# number of rings (size 3 to 8) (size 9 to 14) (size 15 to 20)
#    0.000    0.500    5.000    3.000    3.500    1.500 
#    0.000    1.250    0.000    0.000    0.000    0.000 
#    0.000    0.000    0.000    0.000    0.000    0.000 
#
# Total GULP energy -89707.676516 kJ/mol
# GULP energy per Si atom -5606.729782 kJ/mol
# Density = 2.609981 g / cm^3
# Si number density = 26.159345 Si / 1000 Ang^3
#
#
#
# Elastic Constant Matrix: (Units=GPa)
#
#
# Indices 1 2 3 4 5 6 
#
# 1 135.7124 50.6459 53.8116 -9.9980 -11.6458 19.9826
# 2 50.6459 173.3413 41.1211 20.2912 1.2576 16.1603
# 3 53.8116 41.1211 121.2656 10.1322 -8.6676 17.6120
# 4 -9.9980 20.2912 10.1322 29.6819 14.0787 2.2295
# 5 -11.6458 1.2576 -8.6676 14.0787 38.2682 -3.5292
# 6 19.9826 16.1603 17.6120 2.2295 -3.5292 51.6616
#
#
#
# Elastic Compliance Matrix: (Units=1/GPa)
#
#
# Indices 1 2 3 4 5 6 
#
# 1 0.010953 -0.002861 -0.004223 0.007490 -0.000493 -0.002259
# 2 -0.002861 0.007546 -0.000582 -0.006355 0.001022 -0.000711
# 3 -0.004223 -0.000582 0.011331 -0.006454 0.003534 -0.001527
# 4 0.007490 -0.006355 -0.006454 0.051523 -0.018129 -0.002171
# 5 -0.000493 0.001022 0.003534 -0.018129 0.033578 0.001743
# 6 -0.002259 -0.000711 -0.001527 -0.002171 0.001743 0.021186
#
#
# Mechanical properties :
#
#
# Convention : Reuss Voigt Hill
#
# Bulk Modulus (GPa) = 68.97568 80.16406 74.56987
# Shear Modulus (GPa) = 31.99329 42.90506 37.44917
#
# Velocity S-wave (km/s) = 3.50096 4.05426 3.78773
# Velocity P-wave (km/s) = 6.53965 7.25445 6.90631
#
# Compressibility (1/GPa) = 0.01449786
#
# Stress axis : x y z
#
# Youngs Moduli (GPa) = 91.30058 132.52631 88.24964
#
# Poissons Ratio (x) = 0.37915 0.37270
# Poissons Ratio (y) = 0.26121 0.05135
# Poissons Ratio (z) = 0.38558 0.07711
#
# Static dielectric constant tensor:
#      x y z
#    x 2.165340 -0.051240 0.020190 
#    y -0.051240 2.051180 0.018320 
#    z 0.020190 0.018320 2.003110 
# 
# From -- ./inp_files/382610.got.cif
#   From: 2010.05.17/outbox.cif.g08.bks.cpg/sg2_192_cif.got.tgz:382610.got - 2010.06.03 11:33:40.
