data_PCOD9056714
_publ_section_title
;
Structure prediction by ZEFSAII (Michael W. Deem and Ramdas Pophale) SiO2 
 PCOD9056714
Probable space group: P -1
;
_chemical_formula_sum "Si O2"
_cell_formula_units_Z 14
_cell_length_a 5.621447
_cell_length_b 15.645542
_cell_length_c 8.404817
_cell_angle_alpha 133.342473
_cell_angle_beta 99.302638
_cell_angle_gamma 79.623649
_cell_volume 528.060285
_symmetry_space_group_name_H-M "P -1"
_symmetry_group_IT_number 2
_symmetry_cell_setting 'triclinic'
loop_
_space_group_symop_operation_xyz
x,y,z
-x,-y,-z
loop_
_atom_site_type_symbol
_atom_site_label
_atom_site_fract_x
_atom_site_fract_y
_atom_site_fract_z
Si Si1 0.461042 0.894528 0.732742
Si Si2 0.841612 0.703318 0.162920
Si Si3 0.260329 0.044125 0.441979
Si Si4 0.390971 0.655869 0.287761
Si Si5 0.915889 0.674839 0.779366
Si Si6 0.649124 0.491072 0.344178
Si Si7 0.944421 0.936479 0.078083
O O1 0.682266 0.891809 0.635212
O O2 0.390993 0.760762 0.558581
O O3 0.225230 0.965290 0.718850
O O4 0.500000 0.000000 0.000000
O O5 0.862979 0.844764 0.333781
O O6 0.603212 0.681738 0.216070
O O7 0.111826 0.653184 0.193168
O O8 0.798889 0.662162 0.924587
O O9 0.500000 0.000000 0.500000
O O10 0.168375 0.926006 0.207981
O O11 0.507130 0.463406 0.764775
O O12 0.839149 0.589536 0.522744
O O13 0.195689 0.634710 0.798140
O O14 0.857191 0.808665 0.884963
O O15 0.500000 0.500000 0.500000
O O16 0.000000 0.000000 0.000000
#
# Coordination Sequence:
#
# PCOD9056714 Si02
#       7
#     2   2   2   2   2   2   2
#     4  11  22  40  67 106 145 199 250 305 373 455
#     4  11  27  50  78 117 159 204 261 323 399 463
#     4  11  25  41  69 109 155 197 248 309 385 459
#     4  11  27  48  81 111 158 206 264 319 387 469
#     4  11  29  49  76 114 153 204 265 327 396 464
#     4  11  29  51  79 110 154 206 268 330 385 470
#     4  12  25  43  76 109 152 202 253 314 394 471
#
# _framework density 26.512125999999999
#
# number of rings (size 3 to 8) (size 9 to 14) (size 15 to 20)
#    0.000    0.857    2.857    1.714   14.000    3.429 
#    0.000    0.000    0.000    0.000    0.000    0.000 
#    0.000    0.000    0.000    0.000    0.000    0.000 
#
# Total GULP energy -78071.104944 kJ/mol
# GULP energy per Si atom -5576.507496 kJ/mol
# Density = 2.645178 g / cm^3
# Si number density = 26.512126 Si / 1000 Ang^3
#
#
#
# Elastic Constant Matrix: (Units=GPa)
#
#
# Indices 1 2 3 4 5 6 
#
# 1 77.8541 30.9027 8.8540 -3.8530 -9.6054 -4.3200
# 2 30.9027 122.0141 17.6226 6.6708 -11.0641 -7.3666
# 3 8.8540 17.6226 121.8234 3.7295 15.9457 -2.5976
# 4 -3.8530 6.6708 3.7295 47.1376 -5.6957 -4.2814
# 5 -9.6054 -11.0641 15.9457 -5.6957 53.7093 -7.9582
# 6 -4.3200 -7.3666 -2.5976 -4.2814 -7.9582 49.6548
#
#
#
# Elastic Compliance Matrix: (Units=1/GPa)
#
#
# Indices 1 2 3 4 5 6 
#
# 1 0.014824 -0.003411 -0.000973 0.002217 0.002673 0.001352
# 2 -0.003411 0.009552 -0.001307 -0.001197 0.001802 0.001238
# 3 -0.000973 -0.001307 0.008918 -0.001033 -0.003263 -0.000424
# 4 0.002217 -0.001197 -0.001033 0.022247 0.003170 0.002387
# 5 0.002673 0.001802 -0.003263 0.003170 0.021370 0.004027
# 6 0.001352 0.001238 -0.000424 0.002387 0.004027 0.021269
#
#
# Mechanical properties :
#
#
# Convention : Reuss Voigt Hill
#
# Bulk Modulus (GPa) = 45.63607 48.49444 47.06525
# Shear Modulus (GPa) = 42.78449 47.72118 45.25283
#
# Velocity S-wave (km/s) = 4.02153 4.24721 4.13591
# Velocity P-wave (km/s) = 6.23011 6.51022 6.37170
#
# Compressibility (1/GPa) = 0.02191249
#
# Stress axis : x y z
#
# Youngs Moduli (GPa) = 67.45971 104.68999 112.13227
#
# Poissons Ratio (x) = 0.35711 0.10908
# Poissons Ratio (y) = 0.23011 0.14652
# Poissons Ratio (z) = 0.06562 0.13680
#
# Static dielectric constant tensor:
#      x y z
#    x 2.867470 -0.136610 0.213200 
#    y -0.136610 2.191290 -0.131580 
#    z 0.213200 -0.131580 2.265990 
# 
# From -- ./inp_files/139722.got.cif
#   From: 2010.05.17/outbox.cif.g08.bks.cpg/sg2_70_cif.got.tgz:139722.got - 2010.06.03 11:33:40.
