data_PCOD9056336
_publ_section_title
;
Structure prediction by ZEFSAII (Michael W. Deem and Ramdas Pophale) SiO2 
 PCOD9056336
Probable space group: P -1
;
_chemical_formula_sum "Si O2"
_cell_formula_units_Z 16
_cell_length_a 10.327458
_cell_length_b 17.067372
_cell_length_c 13.977899
_cell_angle_alpha 121.255179
_cell_angle_beta 132.944121
_cell_angle_gamma 27.878742
_cell_volume 817.942185
_symmetry_space_group_name_H-M "P -1"
_symmetry_group_IT_number 2
_symmetry_cell_setting 'triclinic'
loop_
_space_group_symop_operation_xyz
x,y,z
-x,-y,-z
loop_
_atom_site_type_symbol
_atom_site_label
_atom_site_fract_x
_atom_site_fract_y
_atom_site_fract_z
Si Si1 0.324478 0.480394 0.387197
Si Si2 0.977087 0.834863 0.810524
Si Si3 0.577910 0.298729 0.896713
Si Si4 0.104551 0.424265 0.608894
Si Si5 0.939470 0.075733 0.415806
Si Si6 0.150974 0.945608 0.850727
Si Si7 0.582906 0.875840 0.524742
Si Si8 0.393127 0.197442 0.856568
O O1 0.500000 0.500000 0.500000
O O2 0.614638 0.282926 0.378969
O O3 0.176345 0.501603 0.423168
O O4 0.999739 0.639721 0.257481
O O5 0.896321 0.775775 0.679165
O O6 0.076482 0.875424 0.813159
O O7 0.639635 0.016113 0.812767
O O8 0.272657 0.695418 0.949129
O O9 0.260441 0.439749 0.756975
O O10 0.490949 0.248854 0.886065
O O11 0.881574 0.132513 0.878564
O O12 0.362420 0.230146 0.589673
O O13 0.000000 0.500000 0.500000
O O14 0.885720 0.036598 0.270166
O O15 0.000000 0.000000 0.500000
O O16 0.276904 0.983666 0.506183
O O17 0.495875 0.832484 0.997481
O O18 0.500000 0.000000 0.500000
#
# Coordination Sequence:
#
# PCOD9056336 Si02
#       8
#     2   2   2   2   2   2   2   2
#     4  11  23  37  55  84 120 146 184 244 291 321
#     4   9  16  30  61  88 105 134 201 253 264 311
#     4   8  15  32  56  84 107 144 190 235 278 329
#     4  11  22  38  59  83 115 156 189 225 286 351
#     4  12  24  36  55  86 123 152 184 228 291 350
#     4   9  16  32  58  81 110 148 192 232 275 340
#     4  12  20  36  63  89 103 145 206 241 265 326
#     4   8  16  32  55  85 110 144 189 237 284 327
#
# _framework density 19.561285999999999
#
# number of rings (size 3 to 8) (size 9 to 14) (size 15 to 20)
#    0.000    2.000    2.500    5.250    0.000    0.500 
#    0.000    0.625    2.750    2.250    0.000    0.000 
#    0.000    0.000    0.000    0.000    0.000    0.000 
#
# Total GULP energy -89085.807345 kJ/mol
# GULP energy per Si atom -5567.862959 kJ/mol
# Density = 1.951676 g / cm^3
# Si number density = 19.561286 Si / 1000 Ang^3
#
#
#
# Elastic Constant Matrix: (Units=GPa)
#
#
# Indices 1 2 3 4 5 6 
#
# 1 9.5264 -50.8406 -38.6707 48.9626 10.4931 -14.0818
# 2 -50.8406 -32.9845 -86.0011 59.0517 26.9071 -10.7932
# 3 -38.6707 -86.0011 56.2020 69.0753 19.9497 -8.2635
# 4 48.9626 59.0517 69.0753 -35.9921 -21.4546 -2.0084
# 5 10.4931 26.9071 19.9497 -21.4546 26.5527 -6.3262
# 6 -14.0818 -10.7932 -8.2635 -2.0084 -6.3262 24.0684
#
#
#
# Elastic Compliance Matrix: (Units=1/GPa)
#
#
# Indices 1 2 3 4 5 6 
#
# 1 0.023345 -0.004787 -0.004214 0.009377 0.009551 0.013358
# 2 -0.004787 0.020468 -0.000674 0.023593 0.002831 0.008859
# 3 -0.004214 -0.000674 0.006838 0.005305 0.001603 0.000444
# 4 0.009377 0.023593 0.005305 0.032821 -0.000177 0.020580
# 5 0.009551 0.002831 0.001603 -0.000177 0.033531 0.016207
# 6 0.013358 0.008859 0.000444 0.020580 0.016207 0.059466
#
#
# Mechanical properties :
#
#
# Convention : Reuss Voigt Hill
#
# Bulk Modulus (GPa) = 31.94840 -35.36453 -1.70806
# Shear Modulus (GPa) = 24.24209 16.80954 20.52582
#
# Velocity S-wave (km/s) = 3.52417 2.93461 3.24282
# Velocity P-wave (km/s) = 5.73826 2.57595 3.62575
#
# Compressibility (1/GPa) = 0.03130047
#
# Stress axis : x y z
#
# Youngs Moduli (GPa) = 42.83532 48.85780 146.23740
#
# Poissons Ratio (x) = 0.23390 0.61625
# Poissons Ratio (y) = 0.20507 0.09854
# Poissons Ratio (z) = 0.18051 0.03292
#
# Static dielectric constant tensor:
#      x y z
#    x 1.639170 0.027410 -0.034690 
#    y 0.027410 1.770940 -0.056900 
#    z -0.034690 -0.056900 1.810910 
# 
# From -- ./inp_files/402097.got.cif
#   From: 2010.05.17/outbox.cif.g08.bks.cpg/sg2_202_cif.got.tgz:402097.got - 2010.06.03 11:33:40.
