data_PCOD9056507
_publ_section_title
;
Structure prediction by ZEFSAII (Michael W. Deem and Ramdas Pophale) SiO2 
 PCOD9056507
Probable space group: P -1
;
_chemical_formula_sum "Si O2"
_cell_formula_units_Z 16
_cell_length_a 16.142026
_cell_length_b 10.689249
_cell_length_c 9.738364
_cell_angle_alpha 44.884599
_cell_angle_beta 123.915507
_cell_angle_gamma 147.737485
_cell_volume 629.170191
_symmetry_space_group_name_H-M "P -1"
_symmetry_group_IT_number 2
_symmetry_cell_setting 'triclinic'
loop_
_space_group_symop_operation_xyz
x,y,z
-x,-y,-z
loop_
_atom_site_type_symbol
_atom_site_label
_atom_site_fract_x
_atom_site_fract_y
_atom_site_fract_z
Si Si1 0.341835 0.101923 0.272747
Si Si2 0.355608 0.563845 0.154809
Si Si3 0.152038 0.329921 0.885846
Si Si4 0.215454 0.654441 0.324711
Si Si5 0.184168 0.230013 0.513714
Si Si6 0.289258 0.884898 0.924790
Si Si7 0.693903 0.675819 0.177508
Si Si8 0.877305 0.294439 0.371718
O O1 0.511167 0.395025 0.249379
O O2 0.343901 0.917570 0.337022
O O3 0.227235 0.929421 0.429730
O O4 0.286744 0.156998 0.057254
O O5 0.272538 0.329508 0.374782
O O6 0.541031 0.795531 0.145526
O O7 0.272587 0.428601 0.037470
O O8 0.323487 0.725810 0.037247
O O9 0.233215 0.402801 0.759476
O O10 0.114197 0.482561 0.763912
O O11 0.000000 0.000000 0.000000
O O12 0.249551 0.505145 0.419713
O O13 0.048981 0.446783 0.406057
O O14 0.204529 0.750021 0.097226
O O15 0.219969 0.153837 0.734922
O O16 0.000000 0.000000 0.500000
O O17 0.197250 0.833333 0.748745
#
# Coordination Sequence:
#
# PCOD9056507 Si02
#       8
#     2   2   2   2   2   2   2   2
#     4  11  25  43  65  96 131 170 215 267 324 383
#     4   9  19  36  60  92 121 158 212 260 314 377
#     4  11  22  39  65  94 128 169 212 266 324 384
#     4  11  23  41  64  94 128 166 214 265 323 387
#     4  11  24  42  66  95 129 170 215 266 322 384
#     4   9  19  37  62  89 122 160 206 264 314 373
#     4  11  25  44  65  93 132 171 215 270 323 378
#     4  11  23  40  65  95 128 170 217 262 318 387
#
# _framework density 25.430319999999998
#
# number of rings (size 3 to 8) (size 9 to 14) (size 15 to 20)
#    0.000    1.500    0.000    4.500    0.000    9.000 
#    0.000    0.000    0.000    6.000    0.000    0.000 
#    0.000    0.000    0.000    0.000    0.000    0.000 
#
# Total GULP energy -89730.410247 kJ/mol
# GULP energy per Si atom -5608.150640 kJ/mol
# Density = 2.537244 g / cm^3
# Si number density = 25.430320 Si / 1000 Ang^3
#
#
#
# Elastic Constant Matrix: (Units=GPa)
#
#
# Indices 1 2 3 4 5 6 
#
# 1 67.6914 13.8157 17.5793 -4.6021 -5.0809 -8.5210
# 2 13.8157 139.5287 55.6457 19.3700 -20.9720 -1.6112
# 3 17.5793 55.6457 147.2993 6.4725 -31.7970 7.1156
# 4 -4.6021 19.3700 6.4725 48.9570 -2.1998 -3.0202
# 5 -5.0809 -20.9720 -31.7970 -2.1998 52.0138 -2.8423
# 6 -8.5210 -1.6112 7.1156 -3.0202 -2.8423 47.4857
#
#
#
# Elastic Compliance Matrix: (Units=1/GPa)
#
#
# Indices 1 2 3 4 5 6 
#
# 1 0.016044 -0.001169 -0.001658 0.002408 0.000362 0.003263
# 2 -0.001169 0.009118 -0.002809 -0.003243 0.001731 0.000418
# 3 -0.001658 -0.002809 0.009019 -0.000144 0.004130 -0.001506
# 4 0.002408 -0.003243 -0.000144 0.022056 -0.000133 0.001738
# 5 0.000362 0.001731 0.004130 -0.000133 0.022524 0.000845
# 6 0.003263 0.000418 -0.001506 0.001738 0.000845 0.022045
#
#
# Mechanical properties :
#
#
# Convention : Reuss Voigt Hill
#
# Bulk Modulus (GPa) = 43.65449 58.73343 51.19396
# Shear Modulus (GPa) = 41.76571 47.52319 44.64445
#
# Velocity S-wave (km/s) = 4.05700 4.32761 4.19449
# Velocity P-wave (km/s) = 6.25694 6.93663 6.60553
#
# Compressibility (1/GPa) = 0.02290715
#
# Stress axis : x y z
#
# Youngs Moduli (GPa) = 62.32940 109.67061 110.88072
#
# Poissons Ratio (x) = 0.12825 0.18386
# Poissons Ratio (y) = 0.07289 0.31148
# Poissons Ratio (z) = 0.10335 0.30808
#
# Static dielectric constant tensor:
#      x y z
#    x 2.031820 -0.060500 0.091830 
#    y -0.060500 1.939900 -0.004110 
#    z 0.091830 -0.004110 2.058670 
# 
# From -- ./inp_files/332938.got.cif
#   From: 2010.05.17/outbox.cif.g08.bks.cpg/sg2_167_cif.got.tgz:332938.got - 2010.06.03 11:33:40.
