data_PCOD9056103
_publ_section_title
;
Structure prediction by ZEFSAII (Michael W. Deem and Ramdas Pophale) SiO2 
 PCOD9056103
Probable space group: P -1
;
_chemical_formula_sum "Si O2"
_cell_formula_units_Z 16
_cell_length_a 11.798013
_cell_length_b 8.856764
_cell_length_c 8.202631
_cell_angle_alpha 87.951361
_cell_angle_beta 90.837615
_cell_angle_gamma 135.821016
_cell_volume 596.866022
_symmetry_space_group_name_H-M "P -1"
_symmetry_group_IT_number 2
_symmetry_cell_setting 'triclinic'
loop_
_space_group_symop_operation_xyz
x,y,z
-x,-y,-z
loop_
_atom_site_type_symbol
_atom_site_label
_atom_site_fract_x
_atom_site_fract_y
_atom_site_fract_z
Si Si1 0.635651 0.820959 0.049459
Si Si2 0.094089 0.390346 0.354885
Si Si3 0.866484 0.304090 0.118375
Si Si4 0.342505 0.244672 0.488290
Si Si5 0.597410 0.252417 0.204593
Si Si6 0.164118 0.171527 0.158951
Si Si7 0.865016 0.742742 0.313551
Si Si8 0.530300 0.183801 0.652979
O O1 0.542384 0.799219 0.893832
O O2 0.713314 0.736853 0.993891
O O3 0.516067 0.744278 0.200914
O O4 0.791279 0.073040 0.078599
O O5 0.055185 0.261294 0.524680
O O6 0.276188 0.629760 0.373625
O O7 0.951623 0.367461 0.295663
O O8 0.116412 0.294057 0.208124
O O9 0.719194 0.278531 0.088717
O O10 0.000000 0.500000 0.000000
O O11 0.500000 0.500000 0.500000
O O12 0.217065 0.180962 0.626383
O O13 0.415621 0.149362 0.514639
O O14 0.261321 0.203382 0.317665
O O15 0.717915 0.490195 0.276324
O O16 0.531709 0.043067 0.306860
O O17 0.999551 0.911997 0.174275
#
# Coordination Sequence:
#
# PCOD9056103 Si02
#       8
#     2   2   2   2   2   2   2   2
#     4  11  25  44  68 101 134 180 228 277 335 401
#     4  11  24  44  70 103 134 179 226 278 347 397
#     4  11  23  44  65  94 142 182 222 278 340 403
#     4  11  21  46  68  99 139 181 226 275 338 397
#     4  11  25  44  68 101 134 180 228 277 335 401
#     4  11  25  43  70 102 138 179 224 281 336 406
#     4  11  25  43  70 102 138 179 224 281 336 406
#     4  11  24  43  71 101 135 181 224 281 335 405
#
# _framework density 26.806685000000002
#
# number of rings (size 3 to 8) (size 9 to 14) (size 15 to 20)
#    0.000    1.000    2.500    6.000    7.000    2.000 
#    4.500    0.000    0.000    0.000    0.000    0.000 
#    0.000    0.000    0.000    0.000    0.000    0.000 
#
# Total GULP energy -89629.889072 kJ/mol
# GULP energy per Si atom -5601.868067 kJ/mol
# Density = 2.674567 g / cm^3
# Si number density = 26.806685 Si / 1000 Ang^3
#
#
#
# Elastic Constant Matrix: (Units=GPa)
#
#
# Indices 1 2 3 4 5 6 
#
# 1 100.7159 13.1488 19.0335 1.9569 11.3971 9.2701
# 2 13.1488 132.3417 15.1932 -8.6640 13.3795 13.8560
# 3 19.0335 15.1932 53.8546 -1.6839 1.8342 -2.5102
# 4 1.9569 -8.6640 -1.6839 44.6386 9.2102 -1.2484
# 5 11.3971 13.3795 1.8342 9.2102 66.3171 8.5901
# 6 9.2701 13.8560 -2.5102 -1.2484 8.5901 39.3121
#
#
#
# Elastic Compliance Matrix: (Units=1/GPa)
#
#
# Indices 1 2 3 4 5 6 
#
# 1 0.011100 -0.000286 -0.003927 -0.000481 -0.001352 -0.002487
# 2 -0.000286 0.008392 -0.002284 0.001787 -0.001485 -0.002655
# 3 -0.003927 -0.002284 0.020758 0.000580 0.000085 0.003056
# 4 -0.000481 0.001787 0.000580 0.023588 -0.003710 0.001080
# 5 -0.001352 -0.001485 0.000085 -0.003710 0.016496 -0.002875
# 6 -0.002487 -0.002655 0.003056 0.001080 -0.002875 0.027817
#
#
# Mechanical properties :
#
#
# Convention : Reuss Voigt Hill
#
# Bulk Modulus (GPa) = 36.68908 42.40704 39.54806
# Shear Modulus (GPa) = 38.39350 46.02267 42.20808
#
# Velocity S-wave (km/s) = 3.78859 4.14797 3.97235
# Velocity P-wave (km/s) = 5.73186 6.22854 5.98535
#
# Compressibility (1/GPa) = 0.02725606
#
# Stress axis : x y z
#
# Youngs Moduli (GPa) = 90.09243 119.16233 48.17344
#
# Poissons Ratio (x) = 0.03412 0.18918
# Poissons Ratio (y) = 0.02580 0.11001
# Poissons Ratio (z) = 0.35380 0.27211
#
# Static dielectric constant tensor:
#      x y z
#    x 2.106410 -0.038190 -0.055710 
#    y -0.038190 2.059790 0.017550 
#    z -0.055710 0.017550 2.220710 
# 
# From -- ./inp_files/244073.got.cif
#   From: 2010.05.17/outbox.cif.g08.bks.cpg/sg2_123_cif.got.tgz:244073.got - 2010.06.03 11:33:40.
