data_PCOD9056402
_publ_section_title
;
Structure prediction by ZEFSAII (Michael W. Deem and Ramdas Pophale) SiO2 
 PCOD9056402
Probable space group: P -1
;
_chemical_formula_sum "Si O2"
_cell_formula_units_Z 16
_cell_length_a 9.838640
_cell_length_b 12.116057
_cell_length_c 9.907281
_cell_angle_alpha 52.531716
_cell_angle_beta 96.196750
_cell_angle_gamma 121.074248
_cell_volume 765.074691
_symmetry_space_group_name_H-M "P -1"
_symmetry_group_IT_number 2
_symmetry_cell_setting 'triclinic'
loop_
_space_group_symop_operation_xyz
x,y,z
-x,-y,-z
loop_
_atom_site_type_symbol
_atom_site_label
_atom_site_fract_x
_atom_site_fract_y
_atom_site_fract_z
Si Si1 0.354661 0.656805 0.501744
Si Si2 0.168955 0.840989 0.957896
Si Si3 0.092631 0.370267 0.482429
Si Si4 0.297137 0.217294 0.659001
Si Si5 0.393502 0.266799 0.945191
Si Si6 0.786113 0.574783 0.091116
Si Si7 0.269331 0.892056 0.237407
Si Si8 0.774020 0.427433 0.911465
O O1 0.208546 0.525663 0.481111
O O2 0.521474 0.671371 0.471308
O O3 0.292608 0.582201 0.698330
O O4 0.385961 0.837774 0.345775
O O5 0.258276 0.874225 0.087442
O O6 0.215245 0.732713 0.956728
O O7 0.970679 0.724347 0.047522
O O8 0.220749 0.020407 0.773036
O O9 0.179986 0.271103 0.554034
O O10 0.095861 0.449744 0.280577
O O11 0.910912 0.243382 0.618126
O O12 0.320282 0.245905 0.802195
O O13 0.330645 0.357486 0.961338
O O14 0.591836 0.366810 0.884299
O O15 0.326516 0.081241 0.131914
O O16 0.801509 0.519975 0.985828
#
# Coordination Sequence:
#
# PCOD9056402 Si02
#       8
#     2   2   2   2   2   2   2   2
#     4  12  21  39  63  93 120 152 209 246 292 353
#     4  11  22  41  62  91 124 155 200 248 305 349
#     4  12  21  39  63  93 120 152 209 246 292 353
#     4  11  22  38  66  94 116 154 203 260 293 341
#     4  11  22  41  62  91 124 155 200 248 305 349
#     4  12  25  41  61  89 126 163 195 242 303 364
#     4  11  22  38  66  94 116 154 203 260 293 341
#     4  12  25  41  61  89 126 163 195 242 303 364
#
# _framework density 20.912991999999999
#
# number of rings (size 3 to 8) (size 9 to 14) (size 15 to 20)
#    0.000    0.500    5.000    4.500    0.000    4.000 
#    0.000    7.500    0.000    0.000    0.000    0.000 
#    0.000    0.000    0.000    0.000    0.000    0.000 
#
# Total GULP energy -89595.585536 kJ/mol
# GULP energy per Si atom -5599.724096 kJ/mol
# Density = 2.086539 g / cm^3
# Si number density = 20.912992 Si / 1000 Ang^3
#
#
#
# Elastic Constant Matrix: (Units=GPa)
#
#
# Indices 1 2 3 4 5 6 
#
# 1 77.8568 3.3594 5.4765 -3.4814 8.4313 -2.2648
# 2 3.3594 32.6447 17.9416 -0.7943 4.7315 -17.0528
# 3 5.4765 17.9416 81.0938 -12.3943 14.7378 -15.2764
# 4 -3.4814 -0.7943 -12.3943 16.1021 -4.5147 -3.4778
# 5 8.4313 4.7315 14.7378 -4.5147 37.4504 -3.0656
# 6 -2.2648 -17.0528 -15.2764 -3.4778 -3.0656 24.0956
#
#
#
# Elastic Compliance Matrix: (Units=1/GPa)
#
#
# Indices 1 2 3 4 5 6 
#
# 1 0.013279 -0.000500 0.000299 0.002577 -0.002641 0.001119
# 2 -0.000500 0.051087 -0.003423 0.006918 -0.001315 0.034769
# 3 0.000299 -0.003423 0.018133 0.015032 -0.004078 0.010752
# 4 0.002577 0.006918 0.015032 0.081735 0.004699 0.027063
# 5 -0.002641 -0.001315 -0.004078 0.004699 0.029691 0.000691
# 6 0.001119 0.034769 0.010752 0.027063 0.000691 0.077024
#
#
# Mechanical properties :
#
#
# Convention : Reuss Voigt Hill
#
# Bulk Modulus (GPa) = 13.28922 27.23892 20.26407
# Shear Modulus (GPa) = 16.48643 26.51748 21.50196
#
# Velocity S-wave (km/s) = 2.81078 3.56475 3.20998
# Velocity P-wave (km/s) = 4.11124 5.47690 4.84245
#
# Compressibility (1/GPa) = 0.07524895
#
# Stress axis : x y z
#
# Youngs Moduli (GPa) = 75.30951 19.57452 55.14911
#
# Poissons Ratio (x) = 0.00980 -0.01648
# Poissons Ratio (y) = 0.03769 0.18877
# Poissons Ratio (z) = -0.02250 0.06700
#
# Static dielectric constant tensor:
#      x y z
#    x 1.747830 0.001440 0.018660 
#    y 0.001440 1.739390 -0.015420 
#    z 0.018660 -0.015420 1.730610 
# 
# From -- ./inp_files/311393.got.cif
#   From: 2010.05.17/outbox.cif.g08.bks.cpg/sg2_156_cif.got.tgz:311393.got - 2010.06.03 11:33:40.
