data_PCOD9056428
_publ_section_title
;
Structure prediction by ZEFSAII (Michael W. Deem and Ramdas Pophale) SiO2 
 PCOD9056428
Probable space group: P -1
;
_chemical_formula_sum "Si O2"
_cell_formula_units_Z 16
_cell_length_a 21.477364
_cell_length_b 5.866591
_cell_length_c 11.888752
_cell_angle_alpha 106.990145
_cell_angle_beta 150.636931
_cell_angle_gamma 78.161065
_cell_volume 698.534206
_symmetry_space_group_name_H-M "P -1"
_symmetry_group_IT_number 2
_symmetry_cell_setting 'triclinic'
loop_
_space_group_symop_operation_xyz
x,y,z
-x,-y,-z
loop_
_atom_site_type_symbol
_atom_site_label
_atom_site_fract_x
_atom_site_fract_y
_atom_site_fract_z
Si Si1 0.394222 0.619316 0.045959
Si Si2 0.433669 0.106479 0.806493
Si Si3 0.613267 0.940996 0.747340
Si Si4 0.846131 0.885771 0.549173
Si Si5 0.572104 0.335125 0.433704
Si Si6 0.050399 0.558574 0.212610
Si Si7 0.127611 0.365575 0.663088
Si Si8 0.799737 0.639174 0.961474
O O1 0.457797 0.695911 0.040160
O O2 0.513011 0.512850 0.279581
O O3 0.361299 0.853924 0.093745
O O4 0.255270 0.476625 0.813570
O O5 0.301736 0.175405 0.657055
O O6 0.408008 0.907704 0.637678
O O7 0.500000 0.000000 0.000000
O O8 0.548432 0.714497 0.680303
O O9 0.736714 0.881544 0.867370
O O10 0.500000 0.000000 0.500000
O O11 0.905836 0.685216 0.694781
O O12 0.900757 0.849818 0.502395
O O13 0.865696 0.180214 0.632657
O O14 0.696150 0.436724 0.714318
O O15 0.000000 0.500000 0.000000
O O16 0.932820 0.616249 0.112170
O O17 0.000000 0.500000 0.500000
O O18 0.179034 0.341245 0.867626
#
# Coordination Sequence:
#
# PCOD9056428 Si02
#       8
#     2   2   2   2   2   2   2   2
#     4  11  25  45  75 107 156 196 269 320 405 465
#     4  11  28  46  78 111 154 208 267 338 401 474
#     4  11  22  38  70 111 146 193 248 332 395 474
#     4  12  30  53  79 118 161 212 277 326 403 487
#     4  11  23  45  70 112 146 198 263 329 397 465
#     4  12  30  54  83 115 159 216 271 334 404 482
#     4  12  27  49  76 113 158 217 258 328 401 490
#     4  12  25  45  77 110 159 202 265 331 402 480
#
# _framework density 22.905106
#
# number of rings (size 3 to 8) (size 9 to 14) (size 15 to 20)
#    0.000    0.500    3.750    3.000    8.750    2.500 
#    0.000    0.000    0.000    0.000    0.000    0.000 
#    0.000    0.000    0.000    0.000    0.000    0.000 
#
# Total GULP energy -89149.622338 kJ/mol
# GULP energy per Si atom -5571.851396 kJ/mol
# Density = 2.285297 g / cm^3
# Si number density = 22.905106 Si / 1000 Ang^3
#
#
#
# Elastic Constant Matrix: (Units=GPa)
#
#
# Indices 1 2 3 4 5 6 
#
# 1 125.6251 32.3352 33.7814 -10.5657 1.3446 -13.6084
# 2 32.3352 74.4491 26.6136 -3.5132 -1.0624 -1.2611
# 3 33.7814 26.6136 97.2494 -22.7147 3.3667 1.5143
# 4 -10.5657 -3.5132 -22.7147 45.3394 -8.4522 -6.4510
# 5 1.3446 -1.0624 3.3667 -8.4522 47.3745 -5.3715
# 6 -13.6084 -1.2611 1.5143 -6.4510 -5.3715 47.4549
#
#
#
# Elastic Compliance Matrix: (Units=1/GPa)
#
#
# Indices 1 2 3 4 5 6 
#
# 1 0.009874 -0.003364 -0.002237 0.001430 0.000405 0.003054
# 2 -0.003364 0.016096 -0.003550 -0.001318 0.000411 -0.000556
# 3 -0.002237 -0.003550 0.013408 0.005877 0.000039 -0.000360
# 4 0.001430 -0.001318 0.005877 0.026743 0.004778 0.004364
# 5 0.000405 0.000411 0.000039 0.004778 0.022330 0.003303
# 6 0.003054 -0.000556 -0.000360 0.004364 0.003303 0.022912
#
#
# Mechanical properties :
#
#
# Convention : Reuss Voigt Hill
#
# Bulk Modulus (GPa) = 47.44442 53.64267 50.54355
# Shear Modulus (GPa) = 36.57867 41.67333 39.12600
#
# Velocity S-wave (km/s) = 4.00054 4.27006 4.13749
# Velocity P-wave (km/s) = 6.48826 6.91242 6.70370
#
# Compressibility (1/GPa) = 0.02107729
#
# Stress axis : x y z
#
# Youngs Moduli (GPa) = 101.27266 62.12625 74.58043
#
# Poissons Ratio (x) = 0.20899 0.16684
# Poissons Ratio (y) = 0.34068 0.26474
# Poissons Ratio (z) = 0.22655 0.22053
#
# Static dielectric constant tensor:
#      x y z
#    x 1.845780 -0.052140 -0.072780 
#    y -0.052140 2.022380 0.114160 
#    z -0.072780 0.114160 1.934130 
# 
# From -- ./inp_files/468415.got.cif
#   From: 2010.05.17/outbox.cif.g08.bks.cpg/sg2_235_cif.got.tgz:468415.got - 2010.06.03 11:33:40.
