data_PCOD9056476
_publ_section_title
;
Structure prediction by ZEFSAII (Michael W. Deem and Ramdas Pophale) SiO2 
 PCOD9056476
Probable space group: P -1
;
_chemical_formula_sum "Si O2"
_cell_formula_units_Z 16
_cell_length_a 14.805228
_cell_length_b 16.742459
_cell_length_c 15.461036
_cell_angle_alpha 25.297707
_cell_angle_beta 151.412057
_cell_angle_gamma 150.768715
_cell_volume 723.142633
_symmetry_space_group_name_H-M "P -1"
_symmetry_group_IT_number 2
_symmetry_cell_setting 'triclinic'
loop_
_space_group_symop_operation_xyz
x,y,z
-x,-y,-z
loop_
_atom_site_type_symbol
_atom_site_label
_atom_site_fract_x
_atom_site_fract_y
_atom_site_fract_z
Si Si1 0.363461 0.292999 0.240382
Si Si2 0.677343 0.143429 0.944740
Si Si3 0.611291 0.251901 0.220679
Si Si4 0.765678 0.417462 0.362671
Si Si5 0.209802 0.137341 0.086142
Si Si6 0.232112 0.522588 0.183601
Si Si7 0.361824 0.884137 0.811965
Si Si8 0.124804 0.140197 0.366511
O O1 0.595550 0.316099 0.391895
O O2 0.231422 0.134686 0.210457
O O3 0.264906 0.221841 0.319636
O O4 0.365142 0.519094 0.008391
O O5 0.703605 0.369916 0.774563
O O6 0.574236 0.064980 0.842143
O O7 0.894371 0.120399 0.167339
O O8 0.500000 0.000000 0.000000
O O9 0.737431 0.282515 0.385422
O O10 0.387070 0.112489 0.202805
O O11 0.658549 0.161308 0.262011
O O12 0.000000 0.500000 0.500000
O O13 0.735120 0.623012 0.113123
O O14 0.000000 0.000000 0.000000
O O15 0.224315 0.304343 0.365207
O O16 0.351900 0.686151 0.050528
O O17 0.000000 0.500000 0.000000
O O18 0.170415 0.942370 0.621839
#
# Coordination Sequence:
#
# PCOD9056476 Si02
#       8
#     2   2   2   2   2   2   2   2
#     4   9  19  38  56  81 121 160 200 241 302 353
#     4   9  22  41  61  88 121 156 195 252 309 365
#     4   9  19  38  56  80 123 161 194 247 303 348
#     4   9  19  37  56  82 120 161 202 242 293 364
#     4   9  19  33  58  80 114 166 188 241 304 342
#     4   9  20  41  63  84 121 160 188 251 311 358
#     4  11  22  39  63  93 121 155 204 250 299 365
#     4  11  22  39  65  91 120 160 203 251 302 363
#
# _framework density 22.125648000000002
#
# number of rings (size 3 to 8) (size 9 to 14) (size 15 to 20)
#    0.000    2.500    1.250    1.500    1.750    7.000 
#    4.500    6.250    0.000    0.000    0.000    0.000 
#    0.000    0.000    0.000    0.000    0.000    0.000 
#
# Total GULP energy -89199.190514 kJ/mol
# GULP energy per Si atom -5574.949407 kJ/mol
# Density = 2.207529 g / cm^3
# Si number density = 22.125648 Si / 1000 Ang^3
#
#
#
# Elastic Constant Matrix: (Units=GPa)
#
#
# Indices 1 2 3 4 5 6 
#
# 1 107.5471 65.5077 26.6615 6.9815 5.5102 -18.5011
# 2 65.5077 155.3258 28.3811 19.9305 21.6028 -14.1900
# 3 26.6615 28.3811 56.1419 -1.4752 19.1333 -4.4968
# 4 6.9815 19.9305 -1.4752 43.9540 0.2600 13.2553
# 5 5.5102 21.6028 19.1333 0.2600 29.9299 -12.9523
# 6 -18.5011 -14.1900 -4.4968 13.2553 -12.9523 28.6942
#
#
#
# Elastic Compliance Matrix: (Units=1/GPa)
#
#
# Indices 1 2 3 4 5 6 
#
# 1 0.016978 -0.005302 -0.008693 -0.005244 0.012882 0.015200
# 2 -0.005302 0.010178 -0.000813 -0.004042 -0.005424 0.000906
# 3 -0.008693 -0.000813 0.029229 0.007503 -0.023215 -0.015372
# 4 -0.005244 -0.004042 0.007503 0.033281 -0.012024 -0.025006
# 5 0.012882 -0.005424 -0.023215 -0.012024 0.066069 0.037363
# 6 0.015200 0.000906 -0.015372 -0.025006 0.037363 0.071107
#
#
# Mechanical properties :
#
#
# Convention : Reuss Voigt Hill
#
# Bulk Modulus (GPa) = 37.35543 62.23505 49.79524
# Shear Modulus (GPa) = 18.84083 33.74658 26.29371
#
# Velocity S-wave (km/s) = 2.92128 3.90965 3.45103
# Velocity P-wave (km/s) = 5.31963 6.96919 6.19952
#
# Compressibility (1/GPa) = 0.02676987
#
# Stress axis : x y z
#
# Youngs Moduli (GPa) = 58.89954 98.24689 34.21268
#
# Poissons Ratio (x) = 0.52091 0.29741
# Poissons Ratio (y) = 0.31229 0.02781
# Poissons Ratio (z) = 0.51201 0.07985
#
# Static dielectric constant tensor:
#      x y z
#    x 1.820070 -0.020820 -0.055850 
#    y -0.020820 1.889010 -0.082960 
#    z -0.055850 -0.082960 1.833480 
# 
# From -- ./inp_files/214937.got.cif
#   From: 2010.05.17/outbox.cif.g08.bks.cpg/sg2_108_cif.got.tgz:214937.got - 2010.06.03 11:33:40.
