data_PCOD9056850
_publ_section_title
;
Structure prediction by ZEFSAII (Michael W. Deem and Ramdas Pophale) SiO2 
 PCOD9056850
Probable space group: P -1
;
_chemical_formula_sum "Si O2"
_cell_formula_units_Z 11
_cell_length_a 9.720163
_cell_length_b 8.360735
_cell_length_c 11.956102
_cell_angle_alpha 127.662915
_cell_angle_beta 137.637673
_cell_angle_gamma 75.543224
_cell_volume 479.748180
_symmetry_space_group_name_H-M "P -1"
_symmetry_group_IT_number 2
_symmetry_cell_setting 'triclinic'
loop_
_space_group_symop_operation_xyz
x,y,z
-x,-y,-z
loop_
_atom_site_type_symbol
_atom_site_label
_atom_site_fract_x
_atom_site_fract_y
_atom_site_fract_z
Si Si1 0.129651 0.877941 0.386137
Si Si2 0.042374 0.214144 0.335144
Si Si3 0.492649 0.737539 0.601238
Si Si4 0.646482 0.303440 0.247820
Si Si5 0.672130 0.725660 0.150842
Si Si6 0.000000 0.000000 0.000000
O O1 0.298490 0.759724 0.419618
O O2 0.903100 0.722629 0.242169
O O3 0.069494 0.989718 0.290094
O O4 0.251354 0.084033 0.629324
O O5 0.254948 0.431593 0.577876
O O6 0.985318 0.188046 0.160010
O O7 0.849119 0.239499 0.304016
O O8 0.500000 0.500000 0.500000
O O9 0.437756 0.772885 0.711699
O O10 0.731818 0.903136 0.782939
O O11 0.453764 0.221807 0.006733
O O12 0.500000 0.500000 0.000000
#
# Coordination Sequence:
#
# PCOD9056850 Si02
#       6
#     2   2   2   2   2   1
#     4  11  25  43  70 105 143 179 240 288 352 414
#     4  11  24  45  75 108 137 188 232 292 347 429
#     4  12  27  48  69 102 144 189 235 294 347 418
#     4  11  23  46  75 102 146 183 233 284 362 413
#     4  11  22  40  72 110 138 181 232 296 345 420
#     4  12  26  48  74 100 142 188 238 284 366 406
#
# _framework density 22.928695999999999
#
# number of rings (size 3 to 8) (size 9 to 14) (size 15 to 20)
#    0.000    0.727    3.636    4.364    2.545    4.364 
#    0.000    1.818    0.000    0.000    0.000    0.000 
#    0.000    0.000    0.000    0.000    0.000    0.000 
#
# Total GULP energy -61327.135427 kJ/mol
# GULP energy per Si atom -5575.194130 kJ/mol
# Density = 2.287651 g / cm^3
# Si number density = 22.928696 Si / 1000 Ang^3
#
#
#
# Elastic Constant Matrix: (Units=GPa)
#
#
# Indices 1 2 3 4 5 6 
#
# 1 103.2149 17.3964 9.2293 8.4385 26.9141 -4.1096
# 2 17.3964 91.0137 7.2696 0.5326 34.9241 -12.9751
# 3 9.2293 7.2696 92.3466 16.9744 31.7977 0.7526
# 4 8.4385 0.5326 16.9744 30.9441 -6.3891 6.1542
# 5 26.9141 34.9241 31.7977 -6.3891 51.2085 -0.3174
# 6 -4.1096 -12.9751 0.7526 6.1542 -0.3174 33.5842
#
#
#
# Elastic Compliance Matrix: (Units=1/GPa)
#
#
# Indices 1 2 3 4 5 6 
#
# 1 0.013096 0.002660 0.004589 -0.009588 -0.012717 0.004164
# 2 0.002660 0.019004 0.007079 -0.010932 -0.020060 0.009323
# 3 0.004589 0.007079 0.020980 -0.018744 -0.022568 0.006048
# 4 -0.009588 -0.010932 -0.018744 0.054700 0.030867 -0.014708
# 5 -0.012717 -0.020060 -0.022568 0.030867 0.057671 -0.013912
# 6 0.004164 0.009323 0.006048 -0.014708 -0.013912 0.036315
#
#
# Mechanical properties :
#
#
# Convention : Reuss Voigt Hill
#
# Bulk Modulus (GPa) = 12.23465 39.37399 25.80432
# Shear Modulus (GPa) = 24.95560 39.99269 32.47414
#
# Velocity S-wave (km/s) = 3.30267 4.18092 3.76747
# Velocity P-wave (km/s) = 4.45994 6.36525 5.49579
#
# Compressibility (1/GPa) = 0.08173506
#
# Stress axis : x y z
#
# Youngs Moduli (GPa) = 76.36197 52.61990 47.66460
#
# Poissons Ratio (x) = -0.13996 -0.21873
# Poissons Ratio (y) = -0.20310 -0.33741
# Poissons Ratio (z) = -0.35042 -0.37249
#
# Static dielectric constant tensor:
#      x y z
#    x 1.882100 0.046750 -0.043280 
#    y 0.046750 1.950600 -0.019900 
#    z -0.043280 -0.019900 1.836270 
# 
# From -- ./inp_files/154417.got.cif
#   From: 2010.05.17/outbox.cif.g08.bks.cpg/sg2_78_cif.got.tgz:154417.got - 2010.06.03 11:33:40.
