data_PCOD9056025
_publ_section_title
;
Structure prediction by ZEFSAII (Michael W. Deem and Ramdas Pophale) SiO2 
 PCOD9056025
Probable space group: P -1
;
_chemical_formula_sum "Si O2"
_cell_formula_units_Z 16
_cell_length_a 9.274204
_cell_length_b 17.300086
_cell_length_c 8.985719
_cell_angle_alpha 36.499363
_cell_angle_beta 72.541414
_cell_angle_gamma 62.196551
_cell_volume 750.813970
_symmetry_space_group_name_H-M "P -1"
_symmetry_group_IT_number 2
_symmetry_cell_setting 'triclinic'
loop_
_space_group_symop_operation_xyz
x,y,z
-x,-y,-z
loop_
_atom_site_type_symbol
_atom_site_label
_atom_site_fract_x
_atom_site_fract_y
_atom_site_fract_z
Si Si1 0.292887 0.332610 0.658810
Si Si2 0.279662 0.067375 0.591697
Si Si3 0.471334 0.368445 0.141107
Si Si4 0.654765 0.223193 0.566410
Si Si5 0.692868 0.932647 0.077201
Si Si6 0.442724 0.233590 0.077000
Si Si7 0.954289 0.299615 0.341938
Si Si8 0.112246 0.464881 0.231876
O O1 0.477896 0.295049 0.592882
O O2 0.238906 0.203255 0.836916
O O3 0.162919 0.455740 0.404877
O O4 0.328498 0.321587 0.840458
O O5 0.296679 0.108221 0.692370
O O6 0.351528 0.151006 0.327568
O O7 0.083008 0.138420 0.525984
O O8 0.387163 0.898722 0.814549
O O9 0.602834 0.232866 0.394546
O O10 0.484016 0.339660 0.007627
O O11 0.288154 0.392509 0.207092
O O12 0.500000 0.500000 0.000000
O O13 0.775301 0.302860 0.424551
O O14 0.747199 0.060991 0.837243
O O15 0.500000 0.000000 0.000000
O O16 0.005444 0.379924 0.336050
O O17 0.959308 0.382689 0.060388
#
# Coordination Sequence:
#
# PCOD9056025 Si02
#       8
#     2   2   2   2   2   2   2   2
#     4  10  20  38  64  96 122 164 211 261 306 360
#     4  11  21  36  62  92 129 161 208 245 320 366
#     4  11  21  41  67  88 114 170 220 255 303 374
#     4  10  21  35  64  91 125 162 210 251 305 376
#     4  10  17  36  59  92 123 161 209 245 303 376
#     4  11  22  37  64  96 123 161 212 266 306 370
#     4  11  21  38  65  94 124 171 209 249 307 385
#     4  10  21  40  66  89 121 167 222 243 304 385
#
# _framework density 21.310203999999999
#
# number of rings (size 3 to 8) (size 9 to 14) (size 15 to 20)
#    0.000    1.500    6.250    1.500    1.750    0.500 
#    0.000    3.750    2.750    0.000    0.000    0.000 
#    0.000    0.000    0.000    0.000    0.000    0.000 
#
# Total GULP energy -89150.493997 kJ/mol
# GULP energy per Si atom -5571.905875 kJ/mol
# Density = 2.126170 g / cm^3
# Si number density = 21.310204 Si / 1000 Ang^3
#
#
#
# Elastic Constant Matrix: (Units=GPa)
#
#
# Indices 1 2 3 4 5 6 
#
# 1 107.0044 24.2274 36.2314 6.4979 -0.1560 15.1782
# 2 24.2274 67.1617 30.0026 9.6263 9.7762 26.0160
# 3 36.2314 30.0026 105.6420 18.8838 26.5818 20.3175
# 4 6.4979 9.6263 18.8838 29.9436 11.0035 11.7774
# 5 -0.1560 9.7762 26.5818 11.0035 41.9096 2.2088
# 6 15.1782 26.0160 20.3175 11.7774 2.2088 29.8637
#
#
#
# Elastic Compliance Matrix: (Units=1/GPa)
#
#
# Indices 1 2 3 4 5 6 
#
# 1 0.011335 -0.002300 -0.003719 0.000115 0.002986 -0.001493
# 2 -0.002300 0.024351 -0.001805 0.003168 -0.004335 -0.019746
# 3 -0.003719 -0.001805 0.014696 -0.003145 -0.007840 -0.004716
# 4 0.000115 0.003168 -0.003145 0.044790 -0.009574 -0.017635
# 5 0.002986 -0.004335 -0.007840 -0.009574 0.031895 0.009010
# 6 -0.001493 -0.019746 -0.004716 -0.017635 0.009010 0.060942
#
#
# Mechanical properties :
#
#
# Convention : Reuss Voigt Hill
#
# Bulk Modulus (GPa) = 28.79060 51.19232 39.99146
# Shear Modulus (GPa) = 23.23048 32.96649 28.09849
#
# Velocity S-wave (km/s) = 3.30526 3.93744 3.63512
# Velocity P-wave (km/s) = 5.30150 6.68923 6.03538
#
# Compressibility (1/GPa) = 0.03473356
#
# Stress axis : x y z
#
# Youngs Moduli (GPa) = 88.22582 41.06585 68.04754
#
# Poissons Ratio (x) = 0.09446 0.25306
# Poissons Ratio (y) = 0.20294 0.12281
# Poissons Ratio (z) = 0.32810 0.07412
#
# Static dielectric constant tensor:
#      x y z
#    x 1.839750 -0.024720 0.076240 
#    y -0.024720 1.830120 -0.045650 
#    z 0.076240 -0.045650 1.941380 
# 
# From -- ./inp_files/216478.got.cif
#   From: 2010.05.17/outbox.cif.g08.bks.cpg/sg2_109_cif.got.tgz:216478.got - 2010.06.03 11:33:40.
