data_PCOD9056957
_publ_section_title
;
Structure prediction by ZEFSAII (Michael W. Deem and Ramdas Pophale) SiO2 
 PCOD9056957
Probable space group: P -1
;
_chemical_formula_sum "Si O2"
_cell_formula_units_Z 16
_cell_length_a 18.051127
_cell_length_b 8.463281
_cell_length_c 12.497156
_cell_angle_alpha 105.694149
_cell_angle_beta 133.978650
_cell_angle_gamma 41.337988
_cell_volume 770.745128
_symmetry_space_group_name_H-M "P -1"
_symmetry_group_IT_number 2
_symmetry_cell_setting 'triclinic'
loop_
_space_group_symop_operation_xyz
x,y,z
-x,-y,-z
loop_
_atom_site_type_symbol
_atom_site_label
_atom_site_fract_x
_atom_site_fract_y
_atom_site_fract_z
Si Si1 0.027589 0.183524 0.221473
Si Si2 0.337129 0.613994 0.303642
Si Si3 0.606656 0.021765 0.146270
Si Si4 0.717680 0.350306 0.991552
Si Si5 0.833306 0.926404 0.190065
Si Si6 0.483095 0.057349 0.368508
Si Si7 0.166805 0.345434 0.492990
Si Si8 0.131106 0.367229 0.012172
O O1 0.101141 0.247750 0.370959
O O2 0.876163 0.276525 0.144007
O O3 0.176233 0.870050 0.267206
O O4 0.932618 0.383214 0.059719
O O5 0.500000 0.500000 0.500000
O O6 0.395771 0.348899 0.317694
O O7 0.288182 0.717191 0.148439
O O8 0.689604 0.011062 0.128167
O O9 0.758352 0.772162 0.334739
O O10 0.469333 0.317829 0.122606
O O11 0.500000 0.000000 0.000000
O O12 0.750761 0.190177 0.097427
O O13 0.012671 0.682932 0.395609
O O14 0.897413 0.738153 0.119532
O O15 0.338703 0.113387 0.194735
O O16 0.500000 0.000000 0.500000
O O17 0.668927 0.816406 0.448550
O O18 0.000000 0.500000 0.000000
#
# Coordination Sequence:
#
# PCOD9056957 Si02
#       8
#     2   2   2   2   2   2   2   2
#     4  11  22  41  66  94 133 175 217 267 344 397
#     4  12  24  41  64 100 137 182 216 274 340 397
#     4  12  24  49  72  94 130 177 229 276 337 399
#     4  12  25  44  67 100 135 173 228 279 334 398
#     4  11  26  41  71  98 130 175 224 279 334 390
#     4  12  24  38  62  96 138 172 228 263 335 399
#     4  11  23  47  66  98 133 177 221 277 334 400
#     4  11  23  42  63  97 131 177 219 272 330 404
#
# _framework density 20.759132999999999
#
# number of rings (size 3 to 8) (size 9 to 14) (size 15 to 20)
#    0.000    0.500    3.750    5.625    5.250    0.000 
#    0.000    3.750    0.000    0.000    0.000    0.000 
#    0.000    0.000    0.000    0.000    0.000    0.000 
#
# Total GULP energy -89359.922166 kJ/mol
# GULP energy per Si atom -5584.995135 kJ/mol
# Density = 2.071188 g / cm^3
# Si number density = 20.759133 Si / 1000 Ang^3
#
#
#
# Elastic Constant Matrix: (Units=GPa)
#
#
# Indices 1 2 3 4 5 6 
#
# 1 141.9063 -9.6243 45.7726 7.8172 -10.9331 -0.7398
# 2 -9.6243 25.6420 0.5520 -5.3489 -6.6993 -1.8111
# 3 45.7726 0.5520 122.1834 -0.1671 -6.8919 12.7120
# 4 7.8172 -5.3489 -0.1671 32.2625 1.2558 -5.9042
# 5 -10.9331 -6.6993 -6.8919 1.2558 38.7501 -7.8180
# 6 -0.7398 -1.8111 12.7120 -5.9042 -7.8180 27.9147
#
#
#
# Elastic Compliance Matrix: (Units=1/GPa)
#
#
# Indices 1 2 3 4 5 6 
#
# 1 0.008741 0.004146 -0.003398 -0.001076 0.003159 0.002705
# 2 0.004146 0.045439 -0.002056 0.007671 0.010116 0.008450
# 3 -0.003398 -0.002056 0.009954 -0.000357 -0.000538 -0.004983
# 4 -0.001076 0.007671 -0.000357 0.033976 0.001521 0.008244
# 5 0.003159 0.010116 -0.000538 0.001521 0.030276 0.009786
# 6 0.002705 0.008450 -0.004983 0.008244 0.009786 0.043197
#
#
# Mechanical properties :
#
#
# Convention : Reuss Voigt Hill
#
# Bulk Modulus (GPa) = 16.25574 40.34804 28.30189
# Shear Modulus (GPa) = 25.67985 36.65423 31.16704
#
# Velocity S-wave (km/s) = 3.52097 4.20657 3.87895
# Velocity P-wave (km/s) = 4.93734 6.56294 5.80730
#
# Compressibility (1/GPa) = 0.06151673
#
# Stress axis : x y z
#
# Youngs Moduli (GPa) = 114.40463 22.00767 100.45959
#
# Poissons Ratio (x) = -0.09124 0.34136
# Poissons Ratio (y) = -0.47431 0.20659
# Poissons Ratio (z) = 0.38875 0.04526
#
# Static dielectric constant tensor:
#      x y z
#    x 1.724340 0.030550 -0.083270 
#    y 0.030550 1.743030 -0.009610 
#    z -0.083270 -0.009610 1.675570 
# 
# From -- ./inp_files/280111.got.cif
#   From: 2010.05.17/outbox.cif.g08.bks.cpg/sg2_141_cif.got.tgz:280111.got - 2010.06.03 11:33:40.
