data_PCOD9056106
_publ_section_title
;
Structure prediction by ZEFSAII (Michael W. Deem and Ramdas Pophale) SiO2 
 PCOD9056106
Probable space group: P -1
;
_chemical_formula_sum "Si O2"
_cell_formula_units_Z 15
_cell_length_a 7.993355
_cell_length_b 16.567947
_cell_length_c 8.932605
_cell_angle_alpha 35.716183
_cell_angle_beta 66.160941
_cell_angle_gamma 70.448416
_cell_volume 631.621866
_symmetry_space_group_name_H-M "P -1"
_symmetry_group_IT_number 2
_symmetry_cell_setting 'triclinic'
loop_
_space_group_symop_operation_xyz
x,y,z
-x,-y,-z
loop_
_atom_site_type_symbol
_atom_site_label
_atom_site_fract_x
_atom_site_fract_y
_atom_site_fract_z
Si Si1 0.642412 0.691552 0.355245
Si Si2 0.588108 0.997990 0.304635
Si Si3 0.866448 0.754636 0.627337
Si Si4 0.007846 0.408707 0.425028
Si Si5 0.542546 0.551466 0.074961
Si Si6 0.940917 0.725216 0.961867
Si Si7 0.500000 0.000000 0.000000
Si Si8 0.244276 0.735841 0.056007
O O1 0.807309 0.641605 0.481970
O O2 0.490961 0.574025 0.609178
O O3 0.741444 0.708401 0.133610
O O4 0.565903 0.838560 0.211671
O O5 0.740758 0.877016 0.425193
O O6 0.500000 0.000000 0.500000
O O7 0.466413 0.985561 0.220220
O O8 0.685370 0.146146 0.039191
O O9 0.014204 0.695908 0.547003
O O10 0.739132 0.621066 0.902880
O O11 0.938759 0.800447 0.692135
O O12 0.017595 0.569255 0.141952
O O13 0.843860 0.387012 0.632379
O O14 0.402646 0.673590 0.989324
O O15 0.500000 0.500000 0.000000
O O16 0.078169 0.792454 0.928951
#
# Coordination Sequence:
#
# PCOD9056106 Si02
#       8
#     2   2   2   2   2   2   1   2
#     4  11  22  42  72  99 141 182 236 296 353 427
#     4  12  26  48  70 104 148 186 241 303 349 430
#     4  12  25  42  71 104 146 181 245 297 354 425
#     4  11  21  46  69 101 142 185 234 297 354 432
#     4  12  21  41  72 105 136 188 241 302 347 413
#     4  11  23  44  71 104 141 188 232 296 368 423
#     4  12  26  48  70 104 148 192 228 300 376 408
#     4  11  24  44  75  99 144 191 238 289 365 427
#
# _framework density 23.748384999999999
#
# number of rings (size 3 to 8) (size 9 to 14) (size 15 to 20)
#    0.000    0.533    6.667    2.000    0.000    2.667 
#    2.400    0.000    0.000    0.000    0.000    0.000 
#    0.000    0.000    0.000    0.000    0.000    0.000 
#
# Total GULP energy -83700.101044 kJ/mol
# GULP energy per Si atom -5580.006736 kJ/mol
# Density = 2.369433 g / cm^3
# Si number density = 23.748385 Si / 1000 Ang^3
#
#
#
# Elastic Constant Matrix: (Units=GPa)
#
#
# Indices 1 2 3 4 5 6 
#
# 1 29.2906 8.2284 9.2479 5.8551 0.7406 1.7360
# 2 8.2284 130.1071 17.7059 3.5036 1.6445 -6.0329
# 3 9.2479 17.7059 48.3301 -8.1475 14.3000 -8.8834
# 4 5.8551 3.5036 -8.1475 54.4417 1.2841 15.4198
# 5 0.7406 1.6445 14.3000 1.2841 22.9053 7.1928
# 6 1.7360 -6.0329 -8.8834 15.4198 7.1928 24.5261
#
#
#
# Elastic Compliance Matrix: (Units=1/GPa)
#
#
# Indices 1 2 3 4 5 6 
#
# 1 0.039161 -0.001237 -0.011583 -0.004011 0.008559 -0.007260
# 2 -0.001237 0.008269 -0.002975 -0.001324 0.000868 0.001622
# 3 -0.011583 -0.002975 0.036660 0.001725 -0.028915 0.020762
# 4 -0.004011 -0.001324 0.001725 0.023269 0.002483 -0.014775
# 5 0.008559 0.000868 -0.028915 0.002483 0.071741 -0.033466
# 6 -0.007260 0.001622 0.020762 -0.014775 -0.033466 0.068309
#
#
# Mechanical properties :
#
#
# Convention : Reuss Voigt Hill
#
# Bulk Modulus (GPa) = 19.04771 30.89913 24.97342
# Shear Modulus (GPa) = 16.86347 31.87767 24.37057
#
# Velocity S-wave (km/s) = 2.66764 3.66773 3.20691
# Velocity P-wave (km/s) = 4.18646 5.56557 4.92453
#
# Compressibility (1/GPa) = 0.05249976
#
# Stress axis : x y z
#
# Youngs Moduli (GPa) = 25.53557 120.93483 27.27792
#
# Poissons Ratio (x) = 0.14962 0.31597
# Poissons Ratio (y) = 0.03159 0.08114
# Poissons Ratio (z) = 0.29578 0.35973
#
# Static dielectric constant tensor:
#      x y z
#    x 1.941050 0.032100 -0.006130 
#    y 0.032100 1.868300 0.026730 
#    z -0.006130 0.026730 1.874740 
# 
# From -- ./inp_files/205039.got.cif
#   From: 2010.05.17/outbox.cif.g08.bks.cpg/sg2_103_cif.got.tgz:205039.got - 2010.06.03 11:33:40.
