data_PCOD9056670
_publ_section_title
;
Structure prediction by ZEFSAII (Michael W. Deem and Ramdas Pophale) SiO2 
 PCOD9056670
Probable space group: P -1
;
_chemical_formula_sum "Si O2"
_cell_formula_units_Z 16
_cell_length_a 10.035775
_cell_length_b 8.857251
_cell_length_c 11.170227
_cell_angle_alpha 72.691114
_cell_angle_beta 51.658979
_cell_angle_gamma 75.493156
_cell_volume 740.620507
_symmetry_space_group_name_H-M "P -1"
_symmetry_group_IT_number 2
_symmetry_cell_setting 'triclinic'
loop_
_space_group_symop_operation_xyz
x,y,z
-x,-y,-z
loop_
_atom_site_type_symbol
_atom_site_label
_atom_site_fract_x
_atom_site_fract_y
_atom_site_fract_z
Si Si1 0.924269 0.875668 0.658963
Si Si2 0.241518 0.334172 0.866263
Si Si3 0.016678 0.063212 0.781285
Si Si4 0.439319 0.608292 0.182123
Si Si5 0.431999 0.257005 0.171119
Si Si6 0.929083 0.375066 0.657360
Si Si7 0.996265 0.562302 0.797469
Si Si8 0.250183 0.967061 0.869096
O O1 0.747429 0.817857 0.724535
O O2 0.042301 0.714374 0.660426
O O3 0.912586 0.962278 0.772983
O O4 0.000000 0.000000 0.500000
O O5 0.431440 0.368477 0.788709
O O6 0.153930 0.450628 0.787114
O O7 0.244782 0.151628 0.867159
O O8 0.123791 0.375337 0.039965
O O9 0.055594 0.221337 0.652539
O O10 0.180108 0.967964 0.772299
O O11 0.890465 0.108700 0.951792
O O12 0.427569 0.421199 0.208293
O O13 0.244937 0.679171 0.286245
O O14 0.510878 0.693283 0.005424
O O15 0.571572 0.129699 0.181184
O O16 0.000000 0.500000 0.500000
O O17 0.893935 0.461056 0.784717
#
# Coordination Sequence:
#
# PCOD9056670 Si02
#       8
#     2   2   2   2   2   2   2   2
#     4  12  25  44  65  93 132 172 212 257 320 386
#     4  11  23  39  69  95 128 162 215 271 313 369
#     4  11  24  39  65  96 125 173 210 263 318 374
#     4  11  22  40  65  98 124 167 214 265 314 371
#     4  11  23  41  65  96 130 162 217 265 313 374
#     4  12  24  43  65  91 132 172 212 258 315 387
#     4  11  22  43  65  93 127 169 217 259 312 379
#     4  11  23  40  64  99 130 159 215 271 317 366
#
# _framework density 21.603505999999999
#
# number of rings (size 3 to 8) (size 9 to 14) (size 15 to 20)
#    0.000    0.750    6.250    1.500    3.500    1.000 
#    0.000    2.500    0.000    0.000    0.000    0.000 
#    0.000    0.000    0.000    0.000    0.000    0.000 
#
# Total GULP energy -89453.518219 kJ/mol
# GULP energy per Si atom -5590.844889 kJ/mol
# Density = 2.155434 g / cm^3
# Si number density = 21.603506 Si / 1000 Ang^3
#
#
#
# Elastic Constant Matrix: (Units=GPa)
#
#
# Indices 1 2 3 4 5 6 
#
# 1 174.7455 48.6659 56.2264 -26.3805 4.6158 -18.9101
# 2 48.6659 89.9079 31.1843 -31.1931 11.5324 -17.1748
# 3 56.2264 31.1843 91.7379 -36.5391 2.4269 -7.0989
# 4 -26.3805 -31.1931 -36.5391 38.2079 -1.1747 7.8548
# 5 4.6158 11.5324 2.4269 -1.1747 22.9111 -15.1869
# 6 -18.9101 -17.1748 -7.0989 7.8548 -15.1869 39.3616
#
#
#
# Elastic Compliance Matrix: (Units=1/GPa)
#
#
# Indices 1 2 3 4 5 6 
#
# 1 0.007995 -0.003163 -0.004362 -0.001760 0.002279 0.002905
# 2 -0.003163 0.018198 0.001449 0.013592 -0.007186 0.001197
# 3 -0.004362 0.001449 0.020032 0.017744 -0.002667 -0.002420
# 4 -0.001760 0.013592 0.017744 0.054008 -0.009741 -0.006251
# 5 0.002279 -0.007186 -0.002667 -0.009741 0.062083 0.023375
# 6 0.002905 0.001197 -0.002420 -0.006251 0.023375 0.037153
#
#
# Mechanical properties :
#
#
# Convention : Reuss Voigt Hill
#
# Bulk Modulus (GPa) = 29.34824 69.83827 49.59326
# Shear Modulus (GPa) = 22.42360 34.78376 28.60368
#
# Velocity S-wave (km/s) = 3.22524 4.01696 3.64267
# Velocity P-wave (km/s) = 5.24252 7.34248 6.37950
#
# Compressibility (1/GPa) = 0.03407359
#
# Stress axis : x y z
#
# Youngs Moduli (GPa) = 125.07250 54.95101 49.91970
#
# Poissons Ratio (x) = 0.17381 0.21774
# Poissons Ratio (y) = 0.39561 -0.07233
# Poissons Ratio (z) = 0.54554 -0.07962
#
# Static dielectric constant tensor:
#      x y z
#    x 1.781300 0.007470 0.026840 
#    y 0.007470 1.829940 0.016490 
#    z 0.026840 0.016490 1.788810 
# 
# From -- ./inp_files/381267.got.cif
#   From: 2010.05.17/outbox.cif.g08.bks.cpg/sg2_191_cif.got.tgz:381267.got - 2010.06.03 11:33:40.
