data_PCOD9056047
_publ_section_title
;
Structure prediction by ZEFSAII (Michael W. Deem and Ramdas Pophale) SiO2 
 PCOD9056047
Probable space group: P -1
;
_chemical_formula_sum "Si O2"
_cell_formula_units_Z 14
_cell_length_a 7.333579
_cell_length_b 11.979421
_cell_length_c 10.509226
_cell_angle_alpha 89.463736
_cell_angle_beta 86.034854
_cell_angle_gamma 38.530481
_cell_volume 572.260037
_symmetry_space_group_name_H-M "P -1"
_symmetry_group_IT_number 2
_symmetry_cell_setting 'triclinic'
loop_
_space_group_symop_operation_xyz
x,y,z
-x,-y,-z
loop_
_atom_site_type_symbol
_atom_site_label
_atom_site_fract_x
_atom_site_fract_y
_atom_site_fract_z
Si Si1 0.550863 0.503365 0.641303
Si Si2 0.288505 0.162698 0.374200
Si Si3 0.922255 0.107528 0.379222
Si Si4 0.817969 0.133585 0.122995
Si Si5 0.886356 0.577563 0.831075
Si Si6 0.265558 0.578223 0.902065
Si Si7 0.207559 0.232037 0.666373
O O1 0.500000 0.500000 0.500000
O O2 0.409832 0.694869 0.643096
O O3 0.541658 0.709158 0.877184
O O4 0.889051 0.339577 0.652055
O O5 0.156730 0.318661 0.288419
O O6 0.328931 0.194880 0.514793
O O7 0.085663 0.148350 0.386329
O O8 0.582048 0.969315 0.299973
O O9 0.974303 0.016187 0.247121
O O10 0.000000 0.000000 0.500000
O O11 0.578293 0.510788 0.241174
O O12 0.000000 0.000000 0.000000
O O13 0.102858 0.772560 0.885025
O O14 0.047770 0.578749 0.929071
O O15 0.119182 0.372419 0.768548
O O16 0.500000 0.500000 0.000000
#
# Coordination Sequence:
#
# PCOD9056047 Si02
#       7
#     2   2   2   2   2   2   2
#     4  11  21  45  71 103 151 193 244 310 378 448
#     4  11  25  43  72 118 154 198 258 310 387 461
#     4  11  24  45  72 109 154 198 250 317 386 448
#     4  11  27  50  74 110 153 202 264 315 380 464
#     4  12  24  50  78 105 157 205 254 322 384 458
#     4  11  26  49  74 108 148 200 256 313 387 457
#     4  11  24  41  73 111 151 197 251 311 384 454
#
# _framework density 24.464406
#
# number of rings (size 3 to 8) (size 9 to 14) (size 15 to 20)
#    0.000    0.857    7.143    0.429    4.000    6.857 
#    2.571    0.000    0.000    0.000    0.000    0.000 
#    0.000    0.000    0.000    0.000    0.000    0.000 
#
# Total GULP energy -78011.726385 kJ/mol
# GULP energy per Si atom -5572.266170 kJ/mol
# Density = 2.440872 g / cm^3
# Si number density = 24.464406 Si / 1000 Ang^3
#
#
#
# Elastic Constant Matrix: (Units=GPa)
#
#
# Indices 1 2 3 4 5 6 
#
# 1 132.4248 27.7023 48.3098 7.9998 15.4876 -8.5417
# 2 27.7023 115.0710 32.4047 12.5006 0.5105 -16.5387
# 3 48.3098 32.4047 150.0254 4.4200 15.8104 -7.9708
# 4 7.9998 12.5006 4.4200 42.9219 4.1116 -0.4521
# 5 15.4876 0.5105 15.8104 4.1116 37.7712 -8.5562
# 6 -8.5417 -16.5387 -7.9708 -0.4521 -8.5562 29.3939
#
#
#
# Elastic Compliance Matrix: (Units=1/GPa)
#
#
# Indices 1 2 3 4 5 6 
#
# 1 0.009053 -0.001361 -0.002305 -0.000806 -0.002530 0.000491
# 2 -0.001361 0.010662 -0.001762 -0.002876 0.002800 0.005896
# 3 -0.002305 -0.001762 0.008028 0.000351 -0.002475 -0.000199
# 4 -0.000806 -0.002876 0.000351 0.024509 -0.002953 -0.002240
# 5 -0.002530 0.002800 -0.002475 -0.002953 0.030897 0.009118
# 6 0.000491 0.005896 -0.000199 -0.002240 0.009118 0.040047
#
#
# Mechanical properties :
#
#
# Convention : Reuss Voigt Hill
#
# Bulk Modulus (GPa) = 59.21399 68.26165 63.73782
# Shear Modulus (GPa) = 35.79599 41.29103 38.54351
#
# Velocity S-wave (km/s) = 3.82931 4.11274 3.97355
# Velocity P-wave (km/s) = 6.61878 7.10745 6.86746
#
# Compressibility (1/GPa) = 0.01688790
#
# Stress axis : x y z
#
# Youngs Moduli (GPa) = 110.45746 93.79519 124.56227
#
# Poissons Ratio (x) = 0.12766 0.28709
# Poissons Ratio (y) = 0.15034 0.21943
# Poissons Ratio (z) = 0.25458 0.16523
#
# Static dielectric constant tensor:
#      x y z
#    x 3.322410 1.462770 -1.375740 
#    y 1.462770 3.799470 -1.453330 
#    z -1.375740 -1.453330 3.534960 
# 
# From -- ./inp_files/399318.got.cif
#   From: 2010.05.17/outbox.cif.g08.bks.cpg/sg2_200_cif.got.tgz:399318.got - 2010.06.03 11:33:40.
