data_PCOD9056757
_publ_section_title
;
Structure prediction by ZEFSAII (Michael W. Deem and Ramdas Pophale) SiO2 
 PCOD9056757
Probable space group: P -1
;
_chemical_formula_sum "Si O2"
_cell_formula_units_Z 16
_cell_length_a 7.638300
_cell_length_b 15.162971
_cell_length_c 14.799673
_cell_angle_alpha 44.813223
_cell_angle_beta 136.879332
_cell_angle_gamma 106.489718
_cell_volume 721.850616
_symmetry_space_group_name_H-M "P -1"
_symmetry_group_IT_number 2
_symmetry_cell_setting 'triclinic'
loop_
_space_group_symop_operation_xyz
x,y,z
-x,-y,-z
loop_
_atom_site_type_symbol
_atom_site_label
_atom_site_fract_x
_atom_site_fract_y
_atom_site_fract_z
Si Si1 0.729794 0.242148 0.941595
Si Si2 0.641408 0.449630 0.895332
Si Si3 0.316463 0.991298 0.353055
Si Si4 0.194675 0.076521 0.043955
Si Si5 0.613686 0.877847 0.206594
Si Si6 0.244439 0.318792 0.317670
Si Si7 0.156477 0.608485 0.279004
Si Si8 0.070519 0.613011 0.656389
O O1 0.555532 0.345988 0.882338
O O2 0.549722 0.211639 0.819610
O O3 0.865740 0.328616 0.876285
O O4 0.975157 0.086386 0.182291
O O5 0.659259 0.563134 0.752647
O O6 0.420664 0.534912 0.831923
O O7 0.970161 0.351534 0.126036
O O8 0.476089 0.828049 0.499859
O O9 0.500000 0.000000 0.500000
O O10 0.295116 0.064061 0.194609
O O11 0.489309 0.977539 0.174094
O O12 0.998876 0.245431 0.826167
O O13 0.000000 0.000000 0.000000
O O14 0.937661 0.751176 0.439912
O O15 0.500000 0.000000 0.000000
O O16 0.107141 0.330006 0.357440
O O17 0.500000 0.500000 0.500000
O O18 0.004779 0.511970 0.306556
#
# Coordination Sequence:
#
# PCOD9056757 Si02
#       8
#     2   2   2   2   2   2   2   2
#     4  11  23  43  65 102 137 181 234 283 359 418
#     4  11  26  42  69 103 138 184 232 296 345 431
#     4  11  22  41  74  98 131 184 234 285 350 425
#     4  11  22  41  68  99 133 185 234 285 349 425
#     4  12  27  43  64 102 142 182 240 293 350 425
#     4  11  24  46  71  97 140 184 238 284 358 421
#     4  11  22  40  68  98 138 175 230 286 359 414
#     4  12  25  45  70 102 140 187 232 290 358 421
#
# _framework density 22.165251999999999
#
# number of rings (size 3 to 8) (size 9 to 14) (size 15 to 20)
#    0.000    0.750    7.500    0.375    3.500    1.500 
#    0.000    0.000    0.000    5.250    0.000    0.000 
#    0.000    0.000    0.000    0.000    0.000    0.000 
#
# Total GULP energy -89101.314951 kJ/mol
# GULP energy per Si atom -5568.832184 kJ/mol
# Density = 2.211480 g / cm^3
# Si number density = 22.165252 Si / 1000 Ang^3
#
#
#
# Elastic Constant Matrix: (Units=GPa)
#
#
# Indices 1 2 3 4 5 6 
#
# 1 69.1429 20.9912 18.9084 -10.0185 -2.0926 -11.9617
# 2 20.9912 102.5502 35.8886 -27.7108 -0.3150 -28.9102
# 3 18.9084 35.8886 129.6661 -31.5277 2.3397 -7.8805
# 4 -10.0185 -27.7108 -31.5277 42.8722 -3.0549 -1.0268
# 5 -2.0926 -0.3150 2.3397 -3.0549 29.2518 -1.9777
# 6 -11.9617 -28.9102 -7.8805 -1.0268 -1.9777 29.8485
#
#
#
# Elastic Compliance Matrix: (Units=1/GPa)
#
#
# Indices 1 2 3 4 5 6 
#
# 1 0.016472 -0.000409 -0.001232 0.002968 0.001996 0.006114
# 2 -0.000409 0.018456 -0.001189 0.011582 0.002689 0.017975
# 3 -0.001232 -0.001189 0.009791 0.006159 -0.000164 0.001141
# 4 0.002968 0.011582 0.006159 0.036746 0.004737 0.015611
# 5 0.001996 0.002689 -0.000164 0.004737 0.035262 0.005861
# 6 0.006114 0.017975 0.001141 0.015611 0.005861 0.054589
#
#
# Mechanical properties :
#
#
# Convention : Reuss Voigt Hill
#
# Bulk Modulus (GPa) = 25.60134 50.32616 37.96375
# Shear Modulus (GPa) = 26.31661 35.43259 30.87460
#
# Velocity S-wave (km/s) = 3.44945 4.00254 3.73624
# Velocity P-wave (km/s) = 5.23834 6.64189 5.98143
#
# Compressibility (1/GPa) = 0.03906046
#
# Stress axis : x y z
#
# Youngs Moduli (GPa) = 60.70941 54.18219 102.13812
#
# Poissons Ratio (x) = 0.02215 0.12580
# Poissons Ratio (y) = 0.02482 0.12141
# Poissons Ratio (z) = 0.07477 0.06440
#
# Static dielectric constant tensor:
#      x y z
#    x 1.986660 -0.056050 -0.023910 
#    y -0.056050 1.841840 -0.010240 
#    z -0.023910 -0.010240 1.841580 
# 
# From -- ./inp_files/505392.got.cif
#   From: 2010.05.17/outbox.cif.g08.bks.cpg/sg2_253_cif.got.tgz:505392.got - 2010.06.03 11:33:40.
