data_PCOD9056041
_publ_section_title
;
Structure prediction by ZEFSAII (Michael W. Deem and Ramdas Pophale) SiO2 
 PCOD9056041
Probable space group: P -1
;
_chemical_formula_sum "Si O2"
_cell_formula_units_Z 15
_cell_length_a 17.454493
_cell_length_b 6.255546
_cell_length_c 14.665513
_cell_angle_alpha 116.372274
_cell_angle_beta 149.951425
_cell_angle_gamma 73.899123
_cell_volume 697.572242
_symmetry_space_group_name_H-M "P -1"
_symmetry_group_IT_number 2
_symmetry_cell_setting 'triclinic'
loop_
_space_group_symop_operation_xyz
x,y,z
-x,-y,-z
loop_
_atom_site_type_symbol
_atom_site_label
_atom_site_fract_x
_atom_site_fract_y
_atom_site_fract_z
Si Si1 0.312482 0.952660 0.219319
Si Si2 0.825903 0.692492 0.605827
Si Si3 0.936076 0.915259 0.151589
Si Si4 0.203592 0.110335 0.810364
Si Si5 0.500000 0.500000 0.500000
Si Si6 0.465921 0.508713 0.252660
Si Si7 0.946594 0.390792 0.022431
Si Si8 0.945976 0.367299 0.514693
O O1 0.388056 0.743477 0.215452
O O2 0.431915 0.211117 0.408087
O O3 0.210221 0.826881 0.177770
O O4 0.178001 0.008796 0.025389
O O5 0.642410 0.597716 0.413948
O O6 0.893073 0.529511 0.569894
O O7 0.913536 0.678675 0.790238
O O8 0.888722 0.965375 0.680791
O O9 0.893405 0.004107 0.221335
O O10 0.905020 0.623453 0.072757
O O11 0.096777 0.273729 0.685805
O O12 0.196090 0.875368 0.694574
O O13 0.364496 0.286130 0.045189
O O14 0.469211 0.420667 0.344538
O O15 0.000000 0.500000 0.000000
O O16 0.000000 0.500000 0.500000
#
# Coordination Sequence:
#
# PCOD9056041 Si02
#       8
#     2   2   2   2   1   2   2   2
#     4  11  24  44  68  97 141 189 236 271 351 416
#     4  11  26  42  69 107 141 177 235 294 348 413
#     4  11  21  45  70  98 135 187 236 280 338 422
#     4  11  22  44  74  98 134 183 236 284 350 418
#     4  12  26  44  66 100 142 190 226 280 346 426
#     4  12  27  44  67 106 145 183 226 289 358 413
#     4  11  25  43  73 100 139 188 240 288 338 420
#     4  11  23  44  76 100 129 185 239 288 346 417
#
# _framework density 21.503150000000002
#
# number of rings (size 3 to 8) (size 9 to 14) (size 15 to 20)
#    0.000    0.800    5.333    1.200    5.600    2.667 
#    0.000    0.667    0.000    0.000    0.000    0.000 
#    0.000    0.000    0.000    0.000    0.000    0.000 
#
# Total GULP energy -83608.109676 kJ/mol
# GULP energy per Si atom -5573.873978 kJ/mol
# Density = 2.145421 g / cm^3
# Si number density = 21.503150 Si / 1000 Ang^3
#
#
#
# Elastic Constant Matrix: (Units=GPa)
#
#
# Indices 1 2 3 4 5 6 
#
# 1 64.7940 24.4921 40.2142 14.6961 11.5507 16.0713
# 2 24.4921 83.8749 43.4012 32.7929 15.8178 13.3168
# 3 40.2142 43.4012 131.7939 24.4440 16.2997 16.3094
# 4 14.6961 32.7929 24.4440 37.2820 2.0397 0.1198
# 5 11.5507 15.8178 16.2997 2.0397 37.9712 7.1102
# 6 16.0713 13.3168 16.3094 0.1198 7.1102 36.8316
#
#
#
# Elastic Compliance Matrix: (Units=1/GPa)
#
#
# Indices 1 2 3 4 5 6 
#
# 1 0.021654 -0.000445 -0.004295 -0.005142 -0.003011 -0.006788
# 2 -0.000445 0.022121 -0.002520 -0.017281 -0.006046 -0.005465
# 3 -0.004295 -0.002520 0.010703 -0.003006 -0.001777 -0.001602
# 4 -0.005142 -0.017281 -0.003006 0.045665 0.006006 0.008515
# 5 -0.003011 -0.006046 -0.001777 0.006006 0.030515 -0.001623
# 6 -0.006788 -0.005465 -0.001602 0.008515 -0.001623 0.033083
#
#
# Mechanical properties :
#
#
# Convention : Reuss Voigt Hill
#
# Bulk Modulus (GPa) = 25.02523 55.18643 40.10583
# Shear Modulus (GPa) = 26.09890 33.90733 30.00312
#
# Velocity S-wave (km/s) = 3.48763 3.97527 3.73941
# Velocity P-wave (km/s) = 5.28028 6.84035 6.11031
#
# Compressibility (1/GPa) = 0.03995967
#
# Stress axis : x y z
#
# Youngs Moduli (GPa) = 46.18120 45.20659 93.42901
#
# Poissons Ratio (x) = 0.02011 0.40124
# Poissons Ratio (y) = 0.02054 0.23540
# Poissons Ratio (z) = 0.19833 0.11390
#
# Static dielectric constant tensor:
#      x y z
#    x 1.806220 -0.018370 -0.008070 
#    y -0.018370 1.789590 0.017520 
#    z -0.008070 0.017520 1.820030 
# 
# From -- ./inp_files/39171.got.cif
#   From: 2010.05.17/outbox.cif.g08.bks.cpg/sg2_20_cif.got.tgz:39171.got - 2010.06.03 11:33:40.
