data_PCOD9056952
_publ_section_title
;
Structure prediction by ZEFSAII (Michael W. Deem and Ramdas Pophale) SiO2 
 PCOD9056952
Probable space group: P -1
;
_chemical_formula_sum "Si O2"
_cell_formula_units_Z 12
_cell_length_a 8.705578
_cell_length_b 8.431046
_cell_length_c 10.076055
_cell_angle_alpha 43.795270
_cell_angle_beta 82.523610
_cell_angle_gamma 88.028313
_cell_volume 505.569172
_symmetry_space_group_name_H-M "P -1"
_symmetry_group_IT_number 2
_symmetry_cell_setting 'triclinic'
loop_
_space_group_symop_operation_xyz
x,y,z
-x,-y,-z
loop_
_atom_site_type_symbol
_atom_site_label
_atom_site_fract_x
_atom_site_fract_y
_atom_site_fract_z
Si Si1 0.439686 0.746114 0.394125
Si Si2 0.882585 0.817460 0.547298
Si Si3 0.861176 0.495285 0.363733
Si Si4 0.320831 0.585915 0.079612
Si Si5 0.762620 0.963266 0.198152
Si Si6 0.387826 0.595247 0.761602
O O1 0.500000 0.500000 0.500000
O O2 0.256239 0.685753 0.426742
O O3 0.576526 0.917134 0.218685
O O4 0.442112 0.784572 0.530591
O O5 0.761348 0.671736 0.743953
O O6 0.799188 0.940969 0.363616
O O7 0.980730 0.621274 0.591242
O O8 0.000000 0.000000 0.500000
O O9 0.849870 0.755464 0.253729
O O10 0.777554 0.492432 0.230043
O O11 0.476909 0.580095 0.152162
O O12 0.369859 0.642851 0.888553
O O13 0.205060 0.777920 0.012606
#
# Coordination Sequence:
#
# PCOD9056952 Si02
#       6
#     2   2   2   2   2   2
#     4   8  17  39  64  87 120 157 200 247 301 355
#     4  12  25  42  62  87 127 167 203 253 308 363
#     4   9  21  40  65  91 121 162 204 247 307 364
#     4  11  24  39  63  94 125 158 207 252 305 367
#     4  11  22  41  66  90 122 163 204 255 303 359
#     4   9  20  41  61  92 125 155 206 249 298 366
#
# _framework density 23.735624999999999
#
# number of rings (size 3 to 8) (size 9 to 14) (size 15 to 20)
#    1.000    1.000    1.667    1.500    0.000    7.333 
#    0.000    1.667    0.000    0.000    0.000    0.000 
#    0.000    0.000    0.000    0.000    0.000    0.000 
#
# Total GULP energy -66815.949088 kJ/mol
# GULP energy per Si atom -5567.995757 kJ/mol
# Density = 2.368160 g / cm^3
# Si number density = 23.735625 Si / 1000 Ang^3
#
#
#
# Elastic Constant Matrix: (Units=GPa)
#
#
# Indices 1 2 3 4 5 6 
#
# 1 67.1441 4.9007 32.7038 -7.1820 12.4402 -6.5535
# 2 4.9007 49.4973 18.9622 -7.9389 5.6793 2.2564
# 3 32.7038 18.9622 80.1757 -26.8470 11.3698 -2.3996
# 4 -7.1820 -7.9389 -26.8470 29.4246 -5.1774 0.2882
# 5 12.4402 5.6793 11.3698 -5.1774 29.0280 2.0619
# 6 -6.5535 2.2564 -2.3996 0.2882 2.0619 31.1089
#
#
#
# Elastic Compliance Matrix: (Units=1/GPa)
#
#
# Indices 1 2 3 4 5 6 
#
# 1 0.020280 0.001318 -0.008879 -0.003971 -0.006461 0.003957
# 2 0.001318 0.022620 -0.005126 0.001299 -0.002637 -0.001596
# 3 -0.008879 -0.005126 0.023364 0.017549 -0.001229 0.000222
# 4 -0.003971 0.001299 0.017549 0.049998 0.003511 -0.000273
# 5 -0.006461 -0.002637 -0.001229 0.003511 0.039118 -0.003890
# 6 0.003957 -0.001596 0.000222 -0.000273 -0.003890 0.033372
#
#
# Mechanical properties :
#
#
# Convention : Reuss Voigt Hill
#
# Bulk Modulus (GPa) = 24.45637 34.43896 29.44767
# Shear Modulus (GPa) = 21.95313 27.26232 24.60773
#
# Velocity S-wave (km/s) = 3.04452 3.39275 3.22334
# Velocity P-wave (km/s) = 4.76286 5.46704 5.12706
#
# Compressibility (1/GPa) = 0.04088914
#
# Stress axis : x y z
#
# Youngs Moduli (GPa) = 49.30865 44.20838 42.80102
#
# Poissons Ratio (x) = -0.05825 0.38004
# Poissons Ratio (y) = -0.06497 0.21940
# Poissons Ratio (z) = 0.43782 0.22661
#
# Static dielectric constant tensor:
#      x y z
#    x 1.928540 -0.026810 -0.050500 
#    y -0.026810 1.957450 -0.004580 
#    z -0.050500 -0.004580 1.914620 
# 
# From -- ./inp_files/154066.got.cif
#   From: 2010.05.17/outbox.cif.g08.bks.cpg/sg2_78_cif.got.tgz:154066.got - 2010.06.03 11:33:40.
