data_PCOD9056705
_publ_section_title
;
Structure prediction by ZEFSAII (Michael W. Deem and Ramdas Pophale) SiO2 
 PCOD9056705
Probable space group: P -1
;
_chemical_formula_sum "Si O2"
_cell_formula_units_Z 16
_cell_length_a 11.200971
_cell_length_b 18.089550
_cell_length_c 20.131882
_cell_angle_alpha 28.079910
_cell_angle_beta 21.121825
_cell_angle_gamma 37.725021
_cell_volume 679.425478
_symmetry_space_group_name_H-M "P -1"
_symmetry_group_IT_number 2
_symmetry_cell_setting 'triclinic'
loop_
_space_group_symop_operation_xyz
x,y,z
-x,-y,-z
loop_
_atom_site_type_symbol
_atom_site_label
_atom_site_fract_x
_atom_site_fract_y
_atom_site_fract_z
Si Si1 0.831692 0.943429 0.062023
Si Si2 0.598293 0.595323 0.941460
Si Si3 0.834537 0.219327 0.197282
Si Si4 0.443851 0.459493 0.267055
Si Si5 0.571292 0.188803 0.807560
Si Si6 0.749328 0.260037 0.799380
Si Si7 0.527235 0.110630 0.304258
Si Si8 0.650502 0.356614 0.501028
O O1 0.605206 0.765642 0.315479
O O2 0.128647 0.943688 0.854026
O O3 0.644101 0.085355 0.023606
O O4 0.000000 0.000000 0.000000
O O5 0.557153 0.773612 0.801459
O O6 0.984842 0.586282 0.765346
O O7 0.500000 0.500000 0.000000
O O8 0.381405 0.524939 0.173278
O O9 0.718408 0.350127 0.200530
O O10 0.610301 0.199340 0.261680
O O11 0.749067 0.046768 0.414191
O O12 0.219993 0.249144 0.951460
O O13 0.511294 0.624301 0.141988
O O14 0.121122 0.349906 0.556973
O O15 0.796824 0.247813 0.706166
O O16 0.722672 0.249277 0.611289
O O17 0.500000 0.000000 0.000000
O O18 0.500000 0.500000 0.500000
#
# Coordination Sequence:
#
# PCOD9056705 Si02
#       8
#     2   2   2   2   2   2   2   2
#     4  12  25  48  72 104 148 189 233 295 362 427
#     4  12  23  41  70 103 140 184 231 292 350 420
#     4  11  22  40  68  99 136 178 231 291 341 415
#     4  11  24  45  67  99 139 183 236 286 357 424
#     4  12  23  43  72 100 137 178 234 291 345 423
#     4  11  25  46  72  99 136 188 237 289 363 425
#     4  11  22  40  67 100 134 181 231 284 354 412
#     4  12  26  45  72 109 144 185 239 291 355 425
#
# _framework density 23.549308
#
# number of rings (size 3 to 8) (size 9 to 14) (size 15 to 20)
#    0.000    0.500    5.000    3.750    1.750    2.500 
#    2.250    1.250    0.000    0.000    0.000    0.000 
#    0.000    0.000    0.000    0.000    0.000    0.000 
#
# Total GULP energy -89498.288737 kJ/mol
# GULP energy per Si atom -5593.643046 kJ/mol
# Density = 2.349571 g / cm^3
# Si number density = 23.549308 Si / 1000 Ang^3
#
#
#
# Elastic Constant Matrix: (Units=GPa)
#
#
# Indices 1 2 3 4 5 6 
#
# 1 71.3220 7.5707 5.3977 -21.1175 0.8792 12.0121
# 2 7.5707 137.8980 21.8303 -13.3312 -8.3515 2.5298
# 3 5.3977 21.8303 89.4363 -9.2628 -0.6902 3.4365
# 4 -21.1175 -13.3312 -9.2628 36.7149 -2.2487 3.8886
# 5 0.8792 -8.3515 -0.6902 -2.2487 31.4530 -6.9129
# 6 12.0121 2.5298 3.4365 3.8886 -6.9129 41.5415
#
#
#
# Elastic Compliance Matrix: (Units=1/GPa)
#
#
# Indices 1 2 3 4 5 6 
#
# 1 0.018486 0.000092 0.000285 0.011371 -0.001130 -0.006627
# 2 0.000092 0.007901 -0.001630 0.002672 0.002194 -0.000258
# 3 0.000285 -0.001630 0.011887 0.002688 -0.000265 -0.001262
# 4 0.011371 0.002672 0.002688 0.036242 0.001545 -0.006809
# 5 -0.001130 0.002194 -0.000265 0.001545 0.033763 0.005689
# 6 -0.006627 -0.000258 -0.001262 -0.006809 0.005689 0.027693
#
#
# Mechanical properties :
#
#
# Convention : Reuss Voigt Hill
#
# Bulk Modulus (GPa) = 27.95753 40.91708 34.43730
# Shear Modulus (GPa) = 33.24489 39.53238 36.38864
#
# Velocity S-wave (km/s) = 3.76135 4.10165 3.93518
# Velocity P-wave (km/s) = 5.54630 6.31222 5.94161
#
# Compressibility (1/GPa) = 0.03576854
#
# Stress axis : x y z
#
# Youngs Moduli (GPa) = 54.09374 126.57097 84.12704
#
# Poissons Ratio (x) = -0.01169 -0.02401
# Poissons Ratio (y) = -0.00500 0.13716
# Poissons Ratio (z) = -0.01544 0.20637
#
# Static dielectric constant tensor:
#      x y z
#    x 1.901300 -0.004590 -0.021260 
#    y -0.004590 1.932110 -0.033620 
#    z -0.021260 -0.033620 1.881500 
# 
# From -- ./inp_files/261711.got.cif
#   From: 2010.05.17/outbox.cif.g08.bks.cpg/sg2_131_cif.got.tgz:261711.got - 2010.06.03 11:33:40.
