data_PCOD9056338
_publ_section_title
;
Structure prediction by ZEFSAII (Michael W. Deem and Ramdas Pophale) SiO2 
 PCOD9056338
Probable space group: P -1
;
_chemical_formula_sum "Si O2"
_cell_formula_units_Z 16
_cell_length_a 5.681432
_cell_length_b 8.487192
_cell_length_c 16.646617
_cell_angle_alpha 86.051063
_cell_angle_beta 59.935638
_cell_angle_gamma 86.485176
_cell_volume 692.715175
_symmetry_space_group_name_H-M "P -1"
_symmetry_group_IT_number 2
_symmetry_cell_setting 'triclinic'
loop_
_space_group_symop_operation_xyz
x,y,z
-x,-y,-z
loop_
_atom_site_type_symbol
_atom_site_label
_atom_site_fract_x
_atom_site_fract_y
_atom_site_fract_z
Si Si1 0.735234 0.053908 0.234809
Si Si2 0.094949 0.599885 0.750507
Si Si3 0.917702 0.725483 0.509895
Si Si4 0.801680 0.845471 0.690440
Si Si5 0.182608 0.556704 0.044017
Si Si6 0.704585 0.923138 0.402690
Si Si7 0.565390 0.441320 0.579646
Si Si8 0.809154 0.063486 0.956481
O O1 0.762801 0.237872 0.251860
O O2 0.466365 0.080245 0.225304
O O3 0.635940 0.923373 0.320581
O O4 0.010087 0.994882 0.148523
O O5 0.305111 0.475866 0.677359
O O6 0.881455 0.674822 0.719801
O O7 0.960689 0.518181 0.851457
O O8 0.794472 0.841260 0.594541
O O9 0.822668 0.771122 0.435166
O O10 0.785670 0.565051 0.567711
O O11 0.244863 0.715726 0.457275
O O12 0.049440 0.958520 0.655319
O O13 0.189869 0.746806 0.041404
O O14 0.500000 0.500000 0.000000
O O15 0.000000 0.500000 0.000000
O O16 0.500000 0.000000 0.500000
O O17 0.500000 0.500000 0.500000
O O18 0.500000 0.000000 0.000000
O O19 0.000000 0.000000 0.000000
#
# Coordination Sequence:
#
# PCOD9056338 Si02
#       8
#     2   2   2   2   2   2   2   2
#     4  11  25  44  72 103 144 191 247 308 386 449
#     4  11  24  44  71 103 144 190 250 303 381 450
#     4  11  22  38  59  94 137 189 245 290 360 428
#     4  11  22  40  68  98 136 194 243 301 373 439
#     4  12  29  54  83 117 151 199 255 322 393 471
#     4  11  23  38  63  98 142 188 243 300 364 447
#     4  11  23  39  61  92 140 188 234 300 356 434
#     4  12  29  55  83 118 155 197 254 327 397 469
#
# _framework density 23.097515999999999
#
# number of rings (size 3 to 8) (size 9 to 14) (size 15 to 20)
#    0.000    0.750    3.750    3.375    7.000    2.000 
#    2.250    0.000    0.000    0.000    0.000    0.000 
#    0.000    0.000    0.000    0.000    0.000    0.000 
#
# Total GULP energy -89185.082316 kJ/mol
# GULP energy per Si atom -5574.067645 kJ/mol
# Density = 2.304494 g / cm^3
# Si number density = 23.097516 Si / 1000 Ang^3
#
#
#
# Elastic Constant Matrix: (Units=GPa)
#
#
# Indices 1 2 3 4 5 6 
#
# 1 116.6880 45.2922 76.6892 0.5625 -14.8500 -24.4396
# 2 45.2922 118.3815 59.3065 -4.6270 -10.2119 -13.9966
# 3 76.6892 59.3065 187.0007 -1.0388 -22.4705 -27.4994
# 4 0.5625 -4.6270 -1.0388 45.3059 -10.2184 -6.4538
# 5 -14.8500 -10.2119 -22.4705 -10.2184 44.9261 5.5066
# 6 -24.4396 -13.9966 -27.4994 -6.4538 5.5066 46.3864
#
#
#
# Elastic Compliance Matrix: (Units=1/GPa)
#
#
# Indices 1 2 3 4 5 6 
#
# 1 0.013008 -0.002483 -0.003825 0.000353 0.001447 0.003714
# 2 -0.002483 0.010685 -0.002167 0.001344 0.000740 0.000731
# 3 -0.003825 -0.002167 0.008178 0.000814 0.002271 0.002023
# 4 0.000353 0.001344 0.000814 0.024074 0.005848 0.003729
# 5 0.001447 0.000740 0.002271 0.005848 0.025355 0.000136
# 6 0.003714 0.000731 0.002023 0.003729 0.000136 0.025437
#
#
# Mechanical properties :
#
#
# Convention : Reuss Voigt Hill
#
# Bulk Modulus (GPa) = 67.01389 87.18287 77.09838
# Shear Modulus (GPa) = 38.86199 43.37583 41.11891
#
# Velocity S-wave (km/s) = 4.10630 4.33823 4.22386
# Velocity P-wave (km/s) = 7.18044 7.93228 7.56571
#
# Compressibility (1/GPa) = 0.01492228
#
# Stress axis : x y z
#
# Youngs Moduli (GPa) = 76.87726 93.58545 122.27435
#
# Poissons Ratio (x) = 0.23234 0.46771
# Poissons Ratio (y) = 0.19086 0.26494
# Poissons Ratio (z) = 0.29407 0.20278
#
# Static dielectric constant tensor:
#      x y z
#    x 1.728140 0.151290 0.042990 
#    y 0.151290 1.919730 0.035360 
#    z 0.042990 0.035360 1.897450 
# 
# From -- ./inp_files/459393.got.cif
#   From: 2010.05.17/outbox.cif.g08.bks.cpg/sg2_230_cif.got.tgz:459393.got - 2010.06.03 11:33:40.
