data_PCOD9056057
_publ_section_title
;
Structure prediction by ZEFSAII (Michael W. Deem and Ramdas Pophale) SiO2 
 PCOD9056057
Probable space group: P -1
;
_chemical_formula_sum "Si O2"
_cell_formula_units_Z 16
_cell_length_a 12.067116
_cell_length_b 11.803689
_cell_length_c 14.368193
_cell_angle_alpha 150.655598
_cell_angle_beta 56.291664
_cell_angle_gamma 104.004504
_cell_volume 671.769439
_symmetry_space_group_name_H-M "P -1"
_symmetry_group_IT_number 2
_symmetry_cell_setting 'triclinic'
loop_
_space_group_symop_operation_xyz
x,y,z
-x,-y,-z
loop_
_atom_site_type_symbol
_atom_site_label
_atom_site_fract_x
_atom_site_fract_y
_atom_site_fract_z
Si Si1 0.787476 0.749692 0.679609
Si Si2 0.565719 0.670989 0.222689
Si Si3 0.304662 0.634055 0.859132
Si Si4 0.842068 0.473452 0.806318
Si Si5 0.021313 0.560253 0.925502
Si Si6 0.345402 0.570358 0.502243
Si Si7 0.158604 0.175927 0.085175
Si Si8 0.758653 0.221177 0.511534
O O1 0.657444 0.697433 0.664020
O O2 0.775219 0.791720 0.826624
O O3 0.965410 0.443322 0.360823
O O4 0.768662 0.031558 0.856408
O O5 0.642298 0.512625 0.170435
O O6 0.410079 0.665584 0.275888
O O7 0.500000 0.000000 0.500000
O O8 0.705579 0.517123 0.970331
O O9 0.474188 0.498922 0.625341
O O10 0.176390 0.568774 0.839602
O O11 0.998385 0.380072 0.731302
O O12 0.767040 0.774243 0.003575
O O13 0.864796 0.278896 0.569436
O O14 0.000000 0.500000 0.000000
O O15 0.862550 0.882349 0.211715
O O16 0.286498 0.644557 0.474262
O O17 0.210711 0.856577 0.826791
#
# Coordination Sequence:
#
# PCOD9056057 Si02
#       8
#     2   2   2   2   2   2   2   2
#     4  11  25  46  72 107 148 181 248 303 358 429
#     4  11  21  45  72 105 144 192 236 295 360 439
#     4  11  25  44  72 111 148 186 234 305 363 424
#     4  12  22  42  72 100 134 189 238 287 354 419
#     4  12  24  44  65 101 149 181 230 297 356 422
#     4  11  23  47  75 103 145 190 242 296 361 430
#     4  11  24  43  75 106 136 198 240 289 366 432
#     4  11  23  41  72 102 138 187 246 283 351 442
#
# _framework density 23.817696999999999
#
# number of rings (size 3 to 8) (size 9 to 14) (size 15 to 20)
#    0.000    0.750    5.000    2.625    1.750    2.000 
#    2.250    2.500    2.750    0.000    0.000    0.000 
#    0.000    0.000    0.000    0.000    0.000    0.000 
#
# Total GULP energy -89486.744535 kJ/mol
# GULP energy per Si atom -5592.921533 kJ/mol
# Density = 2.376349 g / cm^3
# Si number density = 23.817697 Si / 1000 Ang^3
#
#
#
# Elastic Constant Matrix: (Units=GPa)
#
#
# Indices 1 2 3 4 5 6 
#
# 1 136.5806 47.4992 41.1441 -13.5094 3.3667 21.5773
# 2 47.4992 90.9932 22.5255 7.3031 -3.8623 6.4328
# 3 41.1441 22.5255 95.5396 1.8177 5.8684 4.2794
# 4 -13.5094 7.3031 1.8177 30.8238 0.8398 -1.0243
# 5 3.3667 -3.8623 5.8684 0.8398 37.7328 -1.2199
# 6 21.5773 6.4328 4.2794 -1.0243 -1.2199 31.8234
#
#
#
# Elastic Compliance Matrix: (Units=1/GPa)
#
#
# Indices 1 2 3 4 5 6 
#
# 1 0.012039 -0.005525 -0.003634 0.006626 -0.001429 -0.006399
# 2 -0.005525 0.014669 -0.001148 -0.005865 0.002331 0.000836
# 3 -0.003634 -0.001148 0.012401 -0.001977 -0.001649 0.000901
# 4 0.006626 -0.005865 -0.001977 0.036837 -0.001766 -0.001923
# 5 -0.001429 0.002331 -0.001649 -0.001766 0.027219 0.001706
# 6 -0.006399 0.000836 0.000901 -0.001923 0.001706 0.035475
#
#
# Mechanical properties :
#
#
# Convention : Reuss Voigt Hill
#
# Bulk Modulus (GPa) = 54.06845 60.60566 57.33706
# Shear Modulus (GPa) = 30.22609 34.20565 32.21587
#
# Velocity S-wave (km/s) = 3.56625 3.79376 3.68176
# Velocity P-wave (km/s) = 6.30141 6.68514 6.49611
#
# Compressibility (1/GPa) = 0.01849507
#
# Stress axis : x y z
#
# Youngs Moduli (GPa) = 83.06014 68.17188 80.63906
#
# Poissons Ratio (x) = 0.37667 0.29302
# Poissons Ratio (y) = 0.45893 0.09258
# Poissons Ratio (z) = 0.30182 0.07826
#
# Static dielectric constant tensor:
#      x y z
#    x 1.968820 0.075060 0.020400 
#    y 0.075060 1.941400 -0.004070 
#    z 0.020400 -0.004070 1.929040 
# 
# From -- ./inp_files/519943.got.cif
#   From: 2010.05.17/outbox.cif.g08.bks.cpg/sg2_260_cif.got.tgz:519943.got - 2010.06.03 11:33:40.
