data_PCOD9056655
_publ_section_title
;
Structure prediction by ZEFSAII (Michael W. Deem and Ramdas Pophale) SiO2 
 PCOD9056655
Probable space group: P -1
;
_chemical_formula_sum "Si O2"
_cell_formula_units_Z 16
_cell_length_a 15.522725
_cell_length_b 14.866841
_cell_length_c 11.764581
_cell_angle_alpha 138.620597
_cell_angle_beta 153.335491
_cell_angle_gamma 42.198574
_cell_volume 782.476825
_symmetry_space_group_name_H-M "P -1"
_symmetry_group_IT_number 2
_symmetry_cell_setting 'triclinic'
loop_
_space_group_symop_operation_xyz
x,y,z
-x,-y,-z
loop_
_atom_site_type_symbol
_atom_site_label
_atom_site_fract_x
_atom_site_fract_y
_atom_site_fract_z
Si Si1 0.623965 0.900117 0.144900
Si Si2 0.911504 0.607497 0.173202
Si Si3 0.499576 0.231209 0.913036
Si Si4 0.217204 0.874641 0.061140
Si Si5 0.669996 0.418827 0.458655
Si Si6 0.315093 0.641051 0.332438
Si Si7 0.961956 0.647480 0.531755
Si Si8 0.160242 0.920807 0.281091
O O1 0.749465 0.753304 0.102845
O O2 0.489159 0.873565 0.066387
O O3 0.779575 0.974427 0.459091
O O4 0.500000 0.000000 0.000000
O O5 0.989591 0.618517 0.403137
O O6 0.102746 0.583936 0.297536
O O7 0.803991 0.480856 0.924115
O O8 0.268745 0.279017 0.656290
O O9 0.620363 0.174832 0.890220
O O10 0.578921 0.356712 0.183930
O O11 0.099561 0.751536 0.825332
O O12 0.284467 0.908036 0.297668
O O13 0.060807 0.009693 0.955234
O O14 0.528880 0.570245 0.464073
O O15 0.660600 0.329126 0.477329
O O16 0.202405 0.772131 0.251533
O O17 0.000000 0.500000 0.500000
#
# Coordination Sequence:
#
# PCOD9056655 Si02
#       8
#     2   2   2   2   2   2   2   2
#     4  11  23  43  70  95 131 172 217 263 319 388
#     4  11  22  44  63  94 127 167 220 260 320 382
#     4  11  22  43  68  95 126 174 214 264 321 382
#     4  11  24  44  66  92 135 167 216 268 317 385
#     4  11  22  40  68  93 130 166 215 268 318 382
#     4  11  24  41  64  95 132 167 210 269 324 373
#     4  11  22  40  65  92 126 167 214 264 312 381
#     4  11  24  45  64  97 133 168 212 269 324 374
#
# _framework density 20.447889
#
# number of rings (size 3 to 8) (size 9 to 14) (size 15 to 20)
#    0.000    1.000    6.250    1.875    1.750    3.000 
#    2.250    2.500    0.000    0.000    0.000    0.000 
#    0.000    0.000    0.000    0.000    0.000    0.000 
#
# Total GULP energy -89411.512421 kJ/mol
# GULP energy per Si atom -5588.219526 kJ/mol
# Density = 2.040135 g / cm^3
# Si number density = 20.447889 Si / 1000 Ang^3
#
#
#
# Elastic Constant Matrix: (Units=GPa)
#
#
# Indices 1 2 3 4 5 6 
#
# 1 121.1818 73.4703 20.7847 -13.8060 19.5869 -23.6994
# 2 73.4703 135.8238 24.4893 -1.0606 12.8842 23.2284
# 3 20.7847 24.4893 59.5481 2.1387 9.9838 -4.3103
# 4 -13.8060 -1.0606 2.1387 20.4581 1.7802 -5.2372
# 5 19.5869 12.8842 9.9838 1.7802 27.9503 -3.8491
# 6 -23.6994 23.2284 -4.3103 -5.2372 -3.8491 37.4168
#
#
#
# Elastic Compliance Matrix: (Units=1/GPa)
#
#
# Indices 1 2 3 4 5 6 
#
# 1 0.044802 -0.032179 0.002035 0.043107 -0.012693 0.053316
# 2 -0.032179 0.032700 -0.005214 -0.031483 0.005124 -0.045162
# 3 0.002035 -0.005214 0.019519 0.001153 -0.005186 0.006402
# 4 0.043107 -0.031483 0.001153 0.092401 -0.013939 0.058480
# 5 -0.012693 0.005124 -0.005186 -0.013939 0.043775 -0.009266
# 6 0.053316 -0.045162 0.006402 0.058480 -0.009266 0.096502
#
#
# Mechanical properties :
#
#
# Convention : Reuss Voigt Hill
#
# Bulk Modulus (GPa) = 38.01450 61.56025 49.78737
# Shear Modulus (GPa) = 12.21947 30.35236 21.28591
#
# Velocity S-wave (km/s) = 2.44722 3.85694 3.22993
# Velocity P-wave (km/s) = 5.15911 7.07149 6.18960
#
# Compressibility (1/GPa) = 0.02630575
#
# Stress axis : x y z
#
# Youngs Moduli (GPa) = 22.32042 30.58062 51.23307
#
# Poissons Ratio (x) = 0.98405 -0.10426
# Poissons Ratio (y) = 0.71824 0.26712
# Poissons Ratio (z) = -0.04542 0.15944
#
# Static dielectric constant tensor:
#      x y z
#    x 1.732660 -0.004840 -0.010330 
#    y -0.004840 1.732490 0.044100 
#    z -0.010330 0.044100 1.784130 
# 
# From -- ./inp_files/455128.got.cif
#   From: 2010.05.17/outbox.cif.g08.bks.cpg/sg2_228_cif.got.tgz:455128.got - 2010.06.03 11:33:40.
