data_PCOD9056142
_publ_section_title
;
Structure prediction by ZEFSAII (Michael W. Deem and Ramdas Pophale) SiO2 
 PCOD9056142
Probable space group: P -1
;
_chemical_formula_sum "Si O2"
_cell_formula_units_Z 16
_cell_length_a 15.317381
_cell_length_b 18.886713
_cell_length_c 25.480397
_cell_angle_alpha 19.695366
_cell_angle_beta 28.589299
_cell_angle_gamma 18.458202
_cell_volume 778.756686
_symmetry_space_group_name_H-M "P -1"
_symmetry_group_IT_number 2
_symmetry_cell_setting 'triclinic'
loop_
_space_group_symop_operation_xyz
x,y,z
-x,-y,-z
loop_
_atom_site_type_symbol
_atom_site_label
_atom_site_fract_x
_atom_site_fract_y
_atom_site_fract_z
Si Si1 0.192485 0.628703 0.165141
Si Si2 0.285080 0.290558 0.252394
Si Si3 0.314915 0.142233 0.080819
Si Si4 0.717586 0.156565 0.477609
Si Si5 0.314983 0.847918 0.379209
Si Si6 0.931660 0.745345 0.325020
Si Si7 0.307731 0.863546 0.177203
Si Si8 0.816681 0.254139 0.092006
O O1 0.148994 0.510622 0.221924
O O2 0.507130 0.436666 0.135002
O O3 0.125897 0.568187 0.295814
O O4 0.000000 0.000000 0.000000
O O5 0.210331 0.118120 0.399176
O O6 0.615863 0.009522 0.285780
O O7 0.207785 0.509644 0.092251
O O8 0.382034 0.990538 0.208414
O O9 0.331735 0.943930 0.166271
O O10 0.524342 0.135836 0.952943
O O11 0.000000 0.500000 0.000000
O O12 0.646699 0.163364 0.570816
O O13 0.455856 0.509598 0.346543
O O14 0.987347 0.072718 0.390426
O O15 0.500000 0.500000 0.500000
O O16 0.000000 0.500000 0.500000
O O17 0.966506 0.942226 0.196484
O O18 0.991437 0.131011 0.138347
#
# Coordination Sequence:
#
# PCOD9056142 Si02
#       8
#     2   2   2   2   2   2   2   2
#     4  11  21  47  71  92 135 179 219 274 335 399
#     4  11  24  41  68 101 130 176 226 272 332 403
#     4  11  24  45  69  96 133 181 220 275 341 396
#     4  11  25  44  66  99 139 170 226 283 329 403
#     4  11  24  45  69  96 133 181 220 275 341 396
#     4  11  23  45  69  97 135 169 215 283 338 390
#     4  11  25  44  66  99 139 170 226 283 329 403
#     4  11  24  41  68 101 130 176 226 272 332 403
#
# _framework density 20.545570000000001
#
# number of rings (size 3 to 8) (size 9 to 14) (size 15 to 20)
#    0.000    1.000    5.000    1.500    3.500    4.000 
#    4.500    0.000    0.000    0.000    0.000    0.000 
#    0.000    0.000    0.000    0.000    0.000    0.000 
#
# Total GULP energy -89480.072249 kJ/mol
# GULP energy per Si atom -5592.504516 kJ/mol
# Density = 2.049881 g / cm^3
# Si number density = 20.545570 Si / 1000 Ang^3
#
#
#
# Elastic Constant Matrix: (Units=GPa)
#
#
# Indices 1 2 3 4 5 6 
#
# 1 83.9574 22.3841 46.4194 3.5566 6.8097 6.2012
# 2 22.3841 65.3583 23.0161 -4.7096 11.2430 23.8195
# 3 46.4194 23.0161 138.1428 -7.3768 16.5160 12.5296
# 4 3.5566 -4.7096 -7.3768 34.0479 4.7248 8.1909
# 5 6.8097 11.2430 16.5160 4.7248 37.2267 -3.1295
# 6 6.2012 23.8195 12.5296 8.1909 -3.1295 32.0103
#
#
#
# Elastic Compliance Matrix: (Units=1/GPa)
#
#
# Indices 1 2 3 4 5 6 
#
# 1 0.016289 -0.006464 -0.005487 -0.005449 0.002556 0.005446
# 2 -0.006464 0.029355 0.001792 0.013047 -0.012306 -0.025835
# 3 -0.005487 0.001792 0.010251 0.005251 -0.005268 -0.006142
# 4 -0.005449 0.013047 0.005251 0.039893 -0.012195 -0.022108
# 5 0.002556 -0.012306 -0.005268 -0.012195 0.035452 0.017311
# 6 0.005446 -0.025835 -0.006142 -0.022108 0.017311 0.059162
#
#
# Mechanical properties :
#
#
# Convention : Reuss Voigt Hill
#
# Bulk Modulus (GPa) = 28.10698 52.34420 40.22559
# Shear Modulus (GPa) = 22.46384 33.69958 28.08171
#
# Velocity S-wave (km/s) = 3.31020 4.05438 3.70104
# Velocity P-wave (km/s) = 5.32164 6.88838 6.15506
#
# Compressibility (1/GPa) = 0.03557835
#
# Stress axis : x y z
#
# Youngs Moduli (GPa) = 61.39032 34.06554 97.54683
#
# Poissons Ratio (x) = 0.22019 0.53527
# Poissons Ratio (y) = 0.39681 -0.17483
# Poissons Ratio (z) = 0.33687 -0.06105
#
# Static dielectric constant tensor:
#      x y z
#    x 1.736660 -0.004080 -0.009660 
#    y -0.004080 1.705560 0.010980 
#    z -0.009660 0.010980 1.688880 
# 
# From -- ./inp_files/134926.got.cif
#   From: 2010.05.17/outbox.cif.g08.bks.cpg/sg2_68_cif.got.tgz:134926.got - 2010.06.03 11:33:40.
