data_PCOD9056493
_publ_section_title
;
Structure prediction by ZEFSAII (Michael W. Deem and Ramdas Pophale) SiO2 
 PCOD9056493
Probable space group: P -1
;
_chemical_formula_sum "Si O2"
_cell_formula_units_Z 14
_cell_length_a 7.709674
_cell_length_b 12.046266
_cell_length_c 11.329445
_cell_angle_alpha 103.598304
_cell_angle_beta 129.968579
_cell_angle_gamma 96.874114
_cell_volume 730.203320
_symmetry_space_group_name_H-M "P -1"
_symmetry_group_IT_number 2
_symmetry_cell_setting 'triclinic'
loop_
_space_group_symop_operation_xyz
x,y,z
-x,-y,-z
loop_
_atom_site_type_symbol
_atom_site_label
_atom_site_fract_x
_atom_site_fract_y
_atom_site_fract_z
Si Si1 0.004396 0.130339 0.581589
Si Si2 0.855957 0.642195 0.459560
Si Si3 0.389364 0.630231 0.713958
Si Si4 0.673240 0.858920 0.058606
Si Si5 0.539139 0.938576 0.620879
Si Si6 0.751436 0.085502 0.978103
Si Si7 0.257138 0.271424 0.320665
O O1 0.728568 0.122961 0.456690
O O2 0.153772 0.244682 0.593567
O O3 0.114609 0.146202 0.764862
O O4 0.000000 0.000000 0.500000
O O5 0.683358 0.508540 0.306836
O O6 0.784558 0.657999 0.566606
O O7 0.132458 0.646057 0.582006
O O8 0.544301 0.735631 0.897700
O O9 0.547283 0.649767 0.668684
O O10 0.471844 0.881732 0.060118
O O11 0.302789 0.964135 0.190200
O O12 0.761612 0.973381 0.035700
O O13 0.652621 0.836136 0.623682
O O14 0.500000 0.000000 0.500000
O O15 0.998590 0.200680 0.128027
#
# Coordination Sequence:
#
# PCOD9056493 Si02
#       7
#     2   2   2   2   2   2   2
#     4  12  23  41  66  94 133 167 207 270 324 372
#     4  11  24  45  66  93 129 172 220 264 312 384
#     4  11  24  44  67  91 128 177 221 256 316 387
#     4  11  22  40  65  93 130 172 212 261 321 384
#     4  12  24  37  61 102 133 161 208 268 330 378
#     4  11  22  39  64  96 132 166 211 265 325 375
#     4  12  23  41  67  96 128 167 217 268 317 380
#
# _framework density 19.172742
#
# number of rings (size 3 to 8) (size 9 to 14) (size 15 to 20)
#    0.000    0.571    5.714    3.429    2.000    0.571 
#    0.000    0.000    0.000    1.714    0.000    0.000 
#    0.000    0.000    0.000    0.000    0.000    0.000 
#
# Total GULP energy -78305.188934 kJ/mol
# GULP energy per Si atom -5593.227781 kJ/mol
# Density = 1.912910 g / cm^3
# Si number density = 19.172742 Si / 1000 Ang^3
#
#
#
# Elastic Constant Matrix: (Units=GPa)
#
#
# Indices 1 2 3 4 5 6 
#
# 1 83.8914 4.3699 9.2036 7.2966 -2.3363 2.8104
# 2 4.3699 80.6499 15.3124 13.7967 -12.1350 8.7079
# 3 9.2036 15.3124 71.8047 9.7185 -7.3807 1.3977
# 4 7.2966 13.7967 9.7185 32.2715 -3.7169 0.4577
# 5 -2.3363 -12.1350 -7.3807 -3.7169 20.4109 -10.0325
# 6 2.8104 8.7079 1.3977 0.4577 -10.0325 21.5898
#
#
#
# Elastic Compliance Matrix: (Units=1/GPa)
#
#
# Indices 1 2 3 4 5 6 
#
# 1 0.012314 0.000138 -0.001265 -0.002464 -0.000212 -0.001623
# 2 0.000138 0.014808 -0.001838 -0.005108 0.005692 -0.003118
# 3 -0.001265 -0.001838 0.015346 -0.003021 0.004860 0.002235
# 4 -0.002464 -0.005108 -0.003021 0.035015 0.003715 0.003561
# 5 -0.000212 0.005692 0.004860 0.003715 0.069309 0.029545
# 6 -0.001623 -0.003118 0.002235 0.003561 0.029545 0.061296
#
#
# Mechanical properties :
#
#
# Convention : Reuss Voigt Hill
#
# Bulk Modulus (GPa) = 27.36898 32.67974 30.02436
# Shear Modulus (GPa) = 22.10450 28.68513 25.39481
#
# Velocity S-wave (km/s) = 3.39914 3.87219 3.64335
# Velocity P-wave (km/s) = 5.45082 6.08882 5.77863
#
# Compressibility (1/GPa) = 0.03653772
#
# Stress axis : x y z
#
# Youngs Moduli (GPa) = 81.20516 67.53192 65.16468
#
# Poissons Ratio (x) = -0.00929 0.08240
# Poissons Ratio (y) = -0.01118 0.11979
# Poissons Ratio (z) = 0.10269 0.12414
#
# Static dielectric constant tensor:
#      x y z
#    x 1.693640 0.009380 0.013150 
#    y 0.009380 1.658100 0.010340 
#    z 0.013150 0.010340 1.638990 
# 
# From -- ./inp_files/79892.got.cif
#   From: 2010.05.17/outbox.cif.g08.bks.cpg/sg2_40_cif.got.tgz:79892.got - 2010.06.03 11:33:40.
