data_PCOD9056387
_publ_section_title
;
Structure prediction by ZEFSAII (Michael W. Deem and Ramdas Pophale) SiO2 
 PCOD9056387
Probable space group: P -1
;
_chemical_formula_sum "Si O2"
_cell_formula_units_Z 14
_cell_length_a 9.118374
_cell_length_b 11.452336
_cell_length_c 21.876267
_cell_angle_alpha 37.121240
_cell_angle_beta 24.358444
_cell_angle_gamma 40.029193
_cell_volume 561.484363
_symmetry_space_group_name_H-M "P -1"
_symmetry_group_IT_number 2
_symmetry_cell_setting 'triclinic'
loop_
_space_group_symop_operation_xyz
x,y,z
-x,-y,-z
loop_
_atom_site_type_symbol
_atom_site_label
_atom_site_fract_x
_atom_site_fract_y
_atom_site_fract_z
Si Si1 0.414136 0.627160 0.039953
Si Si2 0.621845 0.067460 0.346942
Si Si3 0.602217 0.728226 0.304099
Si Si4 0.611205 0.495132 0.761497
Si Si5 0.762942 0.838316 0.006040
Si Si6 0.431784 0.322090 0.518339
Si Si7 0.248582 0.001655 0.233361
O O1 0.411757 0.509107 0.153916
O O2 0.017175 0.755080 0.132152
O O3 0.500000 0.500000 0.000000
O O4 0.696455 0.774923 0.877643
O O5 0.418745 0.286219 0.344511
O O6 0.432121 0.880927 0.482265
O O7 0.904496 0.997749 0.322968
O O8 0.853015 0.110449 0.180518
O O9 0.588584 0.519678 0.363039
O O10 0.515454 0.709289 0.416317
O O11 0.300268 0.893466 0.322969
O O12 0.313921 0.373255 0.898405
O O13 0.002724 0.374999 0.647181
O O14 0.606159 0.881305 0.114373
O O15 0.500000 0.000000 0.000000
#
# Coordination Sequence:
#
# PCOD9056387 Si02
#       7
#     2   2   2   2   2   2   2
#     4  11  24  39  61 100 129 159 214 264 320 372
#     4  11  22  37  67  96 125 164 208 263 317 371
#     4  10  24  43  65  85 129 177 208 257 314 378
#     4  11  21  39  65  96 127 165 208 259 317 377
#     4  10  17  36  61  90 125 158 207 255 311 366
#     4  10  22  47  63  88 127 177 215 247 315 385
#     4  11  22  39  65  96 123 167 210 264 324 359
#
# _framework density 24.933909
#
# number of rings (size 3 to 8) (size 9 to 14) (size 15 to 20)
#    0.000    1.429    5.714    1.714    4.000    0.571 
#    2.571    2.857    0.000    0.000    0.000    0.000 
#    0.000    0.000    0.000    0.000    0.000    0.000 
#
# Total GULP energy -78351.085571 kJ/mol
# GULP energy per Si atom -5596.506112 kJ/mol
# Density = 2.487716 g / cm^3
# Si number density = 24.933909 Si / 1000 Ang^3
#
#
#
# Elastic Constant Matrix: (Units=GPa)
#
#
# Indices 1 2 3 4 5 6 
#
# 1 83.6929 43.5850 20.2771 -21.0646 -6.9376 -4.7102
# 2 43.5850 114.6977 21.2789 -25.2954 6.3879 -11.4734
# 3 20.2771 21.2789 76.9631 -20.8341 -18.7626 -6.4570
# 4 -21.0646 -25.2954 -20.8341 41.1496 7.5497 5.2832
# 5 -6.9376 6.3879 -18.7626 7.5497 29.8919 -10.5299
# 6 -4.7102 -11.4734 -6.4570 5.2832 -10.5299 50.3315
#
#
#
# Elastic Compliance Matrix: (Units=1/GPa)
#
#
# Indices 1 2 3 4 5 6 
#
# 1 0.016215 -0.005292 -0.000836 0.003898 0.003576 0.000543
# 2 -0.005292 0.012671 -0.002331 0.005094 -0.006624 0.000174
# 3 -0.000836 -0.002331 0.018378 0.004769 0.011956 0.003749
# 4 0.003898 0.005094 0.004769 0.033406 -0.006596 -0.002749
# 5 0.003576 -0.006624 0.011956 -0.006596 0.048839 0.011268
# 6 0.000543 0.000174 0.003749 -0.002749 0.011268 0.023086
#
#
# Mechanical properties :
#
#
# Convention : Reuss Voigt Hill
#
# Bulk Modulus (GPa) = 32.95224 49.51508 41.23366
# Shear Modulus (GPa) = 27.83522 36.95544 32.39533
#
# Velocity S-wave (km/s) = 3.34482 3.85403 3.60842
# Velocity P-wave (km/s) = 5.30675 6.30130 5.82529
#
# Compressibility (1/GPa) = 0.03034695
#
# Stress axis : x y z
#
# Youngs Moduli (GPa) = 61.67149 78.91795 54.41217
#
# Poissons Ratio (x) = 0.41760 0.04552
# Poissons Ratio (y) = 0.32634 0.12682
# Poissons Ratio (z) = 0.05159 0.18394
#
# Static dielectric constant tensor:
#      x y z
#    x 1.971540 0.034620 0.030060 
#    y 0.034620 1.995320 0.083830 
#    z 0.030060 0.083830 2.051270 
# 
# From -- ./inp_files/186868.got.cif
#   From: 2010.05.17/outbox.cif.g08.bks.cpg/sg2_94_cif.got.tgz:186868.got - 2010.06.03 11:33:40.
