data_PCOD9056384
_publ_section_title
;
Structure prediction by ZEFSAII (Michael W. Deem and Ramdas Pophale) SiO2 
 PCOD9056384
Probable space group: P -1
;
_chemical_formula_sum "Si O2"
_cell_formula_units_Z 16
_cell_length_a 12.573071
_cell_length_b 14.559380
_cell_length_c 9.999912
_cell_angle_alpha 133.732686
_cell_angle_beta 142.419368
_cell_angle_gamma 47.507654
_cell_volume 772.105411
_symmetry_space_group_name_H-M "P -1"
_symmetry_group_IT_number 2
_symmetry_cell_setting 'triclinic'
loop_
_space_group_symop_operation_xyz
x,y,z
-x,-y,-z
loop_
_atom_site_type_symbol
_atom_site_label
_atom_site_fract_x
_atom_site_fract_y
_atom_site_fract_z
Si Si1 0.263527 0.759296 0.844359
Si Si2 0.118161 0.481835 0.826345
Si Si3 0.529958 0.608605 0.738160
Si Si4 0.900516 0.804089 0.417812
Si Si5 0.233022 0.288484 0.319373
Si Si6 0.644172 0.855436 0.975712
Si Si7 0.700624 0.492096 0.237975
Si Si8 0.404229 0.141285 0.607285
O O1 0.361571 0.669059 0.728214
O O2 0.208774 0.662034 0.797053
O O3 0.072725 0.850164 0.686460
O O4 0.426204 0.807379 0.120606
O O5 0.049423 0.357317 0.680270
O O6 0.188269 0.463912 0.725376
O O7 0.972544 0.625524 0.833624
O O8 0.295447 0.465496 0.074737
O O9 0.500000 0.500000 0.500000
O O10 0.569416 0.736290 0.836998
O O11 0.728009 0.856403 0.397372
O O12 0.823808 0.845497 0.234785
O O13 0.310476 0.185177 0.174210
O O14 0.315805 0.412063 0.554366
O O15 0.280293 0.215757 0.435357
O O16 0.500000 0.000000 0.000000
O O17 0.500000 0.500000 0.000000
O O18 0.500000 0.000000 0.500000
#
# Coordination Sequence:
#
# PCOD9056384 Si02
#       8
#     2   2   2   2   2   2   2   2
#     4  12  23  40  71  98 135 177 218 282 339 398
#     4  11  22  38  65 102 141 167 218 292 343 400
#     4  11  24  41  65  99 135 178 226 277 344 406
#     4  11  23  45  69  98 138 176 226 282 339 406
#     4  12  23  38  69 100 128 178 222 276 343 403
#     4  11  26  47  67  94 140 188 225 281 343 408
#     4  12  19  37  63 102 134 162 215 274 346 393
#     4  12  25  46  67  94 138 185 225 274 337 408
#
# _framework density 20.722559
#
# number of rings (size 3 to 8) (size 9 to 14) (size 15 to 20)
#    0.000    0.500    7.500    2.625    1.750    1.500 
#    0.000    1.875    0.000    0.000    0.000    0.000 
#    0.000    0.000    0.000    0.000    0.000    0.000 
#
# Total GULP energy -89263.276540 kJ/mol
# GULP energy per Si atom -5578.954784 kJ/mol
# Density = 2.067539 g / cm^3
# Si number density = 20.722559 Si / 1000 Ang^3
#
#
#
# Elastic Constant Matrix: (Units=GPa)
#
#
# Indices 1 2 3 4 5 6 
#
# 1 55.0967 19.9700 49.4907 0.2154 -19.5645 -12.9085
# 2 19.9700 98.2876 47.7171 0.6849 -7.9603 -28.5041
# 3 49.4907 47.7171 138.5210 -20.4178 -14.3267 -18.3806
# 4 0.2154 0.6849 -20.4178 34.2211 -14.3111 -5.4609
# 5 -19.5645 -7.9603 -14.3267 -14.3111 32.4091 1.8562
# 6 -12.9085 -28.5041 -18.3806 -5.4609 1.8562 24.0443
#
#
#
# Elastic Compliance Matrix: (Units=1/GPa)
#
#
# Indices 1 2 3 4 5 6 
#
# 1 0.035757 0.003255 -0.008996 0.005134 0.019769 0.015818
# 2 0.003255 0.017385 -0.003690 0.002494 0.004574 0.019749
# 3 -0.008996 -0.003690 0.014422 0.011405 0.004843 0.004037
# 4 0.005134 0.002494 0.011405 0.052569 0.030591 0.024009
# 5 0.019769 0.004574 0.004843 0.030591 0.058292 0.022186
# 6 0.015818 0.019749 0.004037 0.024009 0.022186 0.080321
#
#
# Mechanical properties :
#
#
# Convention : Reuss Voigt Hill
#
# Bulk Modulus (GPa) = 20.53353 58.47345 39.50349
# Shear Modulus (GPa) = 17.01599 29.78341 23.39970
#
# Velocity S-wave (km/s) = 2.86865 3.79522 3.36399
# Velocity P-wave (km/s) = 4.57193 6.89082 5.84748
#
# Compressibility (1/GPa) = 0.04870084
#
# Stress axis : x y z
#
# Youngs Moduli (GPa) = 27.96688 57.52073 69.33774
#
# Poissons Ratio (x) = -0.18724 0.62377
# Poissons Ratio (y) = -0.09104 0.25589
# Poissons Ratio (z) = 0.25159 0.21228
#
# Static dielectric constant tensor:
#      x y z
#    x 1.752790 0.038590 0.025030 
#    y 0.038590 1.776900 -0.041750 
#    z 0.025030 -0.041750 1.745230 
# 
# From -- ./inp_files/274515.got.cif
#   From: 2010.05.17/outbox.cif.g08.bks.cpg/sg2_138_cif.got.tgz:274515.got - 2010.06.03 11:33:40.
