data_PCOD9056019
_publ_section_title
;
Structure prediction by ZEFSAII (Michael W. Deem and Ramdas Pophale) SiO2 
 PCOD9056019
Probable space group: P -1
;
_chemical_formula_sum "Si O2"
_cell_formula_units_Z 16
_cell_length_a 20.006260
_cell_length_b 12.889875
_cell_length_c 7.336834
_cell_angle_alpha 82.303807
_cell_angle_beta 102.431260
_cell_angle_gamma 160.320960
_cell_volume 608.439454
_symmetry_space_group_name_H-M "P -1"
_symmetry_group_IT_number 2
_symmetry_cell_setting 'triclinic'
loop_
_space_group_symop_operation_xyz
x,y,z
-x,-y,-z
loop_
_atom_site_type_symbol
_atom_site_label
_atom_site_fract_x
_atom_site_fract_y
_atom_site_fract_z
Si Si1 0.111990 0.763105 0.089182
Si Si2 0.699862 0.973635 0.238877
Si Si3 0.320942 0.479292 0.984814
Si Si4 0.019743 0.272531 0.467393
Si Si5 0.782826 0.742565 0.413749
Si Si6 0.384111 0.044767 0.471882
Si Si7 0.463966 0.881536 0.749149
Si Si8 0.163558 0.442663 0.101169
O O1 0.266012 0.006087 0.957011
O O2 0.970557 0.660613 0.051165
O O3 0.000000 0.500000 0.000000
O O4 0.224512 0.886085 0.304696
O O5 0.901591 0.210509 0.387316
O O6 0.687846 0.061206 0.336569
O O7 0.451477 0.598026 0.174892
O O8 0.256277 0.317057 0.812802
O O9 0.462115 0.774860 0.900655
O O10 0.163009 0.328249 0.033779
O O11 0.223665 0.556887 0.642590
O O12 0.089781 0.336082 0.291728
O O13 0.828808 0.920841 0.486345
O O14 0.602239 0.417264 0.479367
O O15 0.000000 0.000000 0.500000
O O16 0.416845 0.984489 0.396723
O O17 0.604979 0.176073 0.842858
#
# Coordination Sequence:
#
# PCOD9056019 Si02
#       8
#     2   2   2   2   2   2   2   2
#     4  11  22  45  66 104 144 179 225 288 338 407
#     4  11  25  44  65 105 135 179 233 277 346 403
#     4  11  23  43  68  96 137 183 226 275 346 405
#     4  11  25  43  67 101 135 177 234 283 339 406
#     4  11  23  46  72  94 137 181 231 284 338 409
#     4  11  23  43  73  95 143 180 225 280 353 395
#     4  11  21  45  68  98 140 183 219 287 345 406
#     4  11  24  41  69 101 139 176 234 278 345 411
#
# _framework density 26.296782
#
# number of rings (size 3 to 8) (size 9 to 14) (size 15 to 20)
#    0.000    1.000    6.250    1.500    1.750    2.000 
#    0.000    0.000    0.000    0.000    0.000    0.000 
#    0.000    0.000    0.000    0.000    0.000    0.000 
#
# Total GULP energy -89320.216334 kJ/mol
# GULP energy per Si atom -5582.513521 kJ/mol
# Density = 2.623693 g / cm^3
# Si number density = 26.296782 Si / 1000 Ang^3
#
#
#
# Elastic Constant Matrix: (Units=GPa)
#
#
# Indices 1 2 3 4 5 6 
#
# 1 95.2367 50.3588 33.3129 14.1407 6.0342 36.7864
# 2 50.3588 65.4740 31.9069 13.2742 -6.4877 1.7770
# 3 33.3129 31.9069 114.5853 20.3907 8.4460 36.5730
# 4 14.1407 13.2742 20.3907 53.5107 20.8978 -3.5131
# 5 6.0342 -6.4877 8.4460 20.8978 49.1576 10.1002
# 6 36.7864 1.7770 36.5730 -3.5131 10.1002 51.1547
#
#
#
# Elastic Compliance Matrix: (Units=1/GPa)
#
#
# Indices 1 2 3 4 5 6 
#
# 1 0.038041 -0.031570 0.010061 -0.008262 -0.000065 -0.034007
# 2 -0.031570 0.045559 -0.013964 0.002374 0.005059 0.030268
# 3 0.010061 -0.013964 0.017293 -0.007581 0.001259 -0.019883
# 4 -0.008262 0.002374 -0.007581 0.029331 -0.013102 0.015881
# 5 -0.000065 0.005059 0.001259 -0.013102 0.027900 -0.007438
# 6 -0.034007 0.030268 -0.019883 0.015881 -0.007438 0.059726
#
#
# Mechanical properties :
#
#
# Convention : Reuss Voigt Hill
#
# Bulk Modulus (GPa) = 33.39359 56.27257 44.83308
# Shear Modulus (GPa) = 16.73478 41.41240 29.07359
#
# Velocity S-wave (km/s) = 2.52540 3.97269 3.32866
# Velocity P-wave (km/s) = 4.60758 6.51832 5.64439
#
# Compressibility (1/GPa) = 0.02994587
#
# Stress axis : x y z
#
# Youngs Moduli (GPa) = 26.28738 21.94967 57.82705
#
# Poissons Ratio (x) = 0.69296 -0.58178
# Poissons Ratio (y) = 0.82990 0.80749
# Poissons Ratio (z) = -0.26447 0.30650
#
# Static dielectric constant tensor:
#      x y z
#    x 2.812640 -0.032980 -0.220800 
#    y -0.032980 2.095990 -0.040560 
#    z -0.220800 -0.040560 2.238410 
# 
# From -- ./inp_files/347603.got.cif
#   From: 2010.05.17/outbox.cif.g08.bks.cpg/sg2_174_cif.got.tgz:347603.got - 2010.06.03 11:33:40.
