data_PCOD9056712
_publ_section_title
;
Structure prediction by ZEFSAII (Michael W. Deem and Ramdas Pophale) SiO2 
 PCOD9056712
Probable space group: P -1
;
_chemical_formula_sum "Si O2"
_cell_formula_units_Z 16
_cell_length_a 11.980365
_cell_length_b 10.906790
_cell_length_c 8.454521
_cell_angle_alpha 76.970858
_cell_angle_beta 128.275279
_cell_angle_gamma 126.273080
_cell_volume 681.610576
_symmetry_space_group_name_H-M "P -1"
_symmetry_group_IT_number 2
_symmetry_cell_setting 'triclinic'
loop_
_space_group_symop_operation_xyz
x,y,z
-x,-y,-z
loop_
_atom_site_type_symbol
_atom_site_label
_atom_site_fract_x
_atom_site_fract_y
_atom_site_fract_z
Si Si1 0.137111 0.240436 0.196453
Si Si2 0.199081 0.899145 0.879061
Si Si3 0.477925 0.933969 0.323574
Si Si4 0.582342 0.669983 0.817447
Si Si5 0.274742 0.582787 0.330918
Si Si6 0.735076 0.901871 0.405823
Si Si7 0.066915 0.570229 0.712689
Si Si8 0.433091 0.628604 0.027190
O O1 0.222619 0.223733 0.119055
O O2 0.226693 0.425609 0.246963
O O3 0.184939 0.167747 0.400238
O O4 0.930212 0.152825 0.068284
O O5 0.138357 0.746968 0.765695
O O6 0.176417 0.001374 0.704872
O O7 0.392590 0.977132 0.100124
O O8 0.337830 0.745345 0.260866
O O9 0.672011 0.986713 0.430501
O O10 0.500000 0.000000 0.500000
O O11 0.441237 0.634926 0.572203
O O12 0.555933 0.512160 0.887002
O O13 0.523906 0.707283 0.915757
O O14 0.100001 0.528841 0.290027
O O15 0.550814 0.753307 0.225027
O O16 0.000000 0.500000 0.500000
O O17 0.233165 0.567062 0.881539
#
# Coordination Sequence:
#
# PCOD9056712 Si02
#       8
#     2   2   2   2   2   2   2   2
#     4  11  24  46  71 103 135 184 235 291 347 405
#     4  11  28  44  69 104 141 187 231 287 352 414
#     4  12  28  45  70 104 139 191 230 285 353 420
#     4  11  22  40  67 103 136 175 236 288 342 415
#     4  11  23  42  71  97 137 173 234 286 347 399
#     4  12  24  47  72  96 145 187 234 283 348 421
#     4  11  24  41  69 102 139 177 232 295 341 409
#     4  11  24  40  70 105 135 184 230 288 351 409
#
# _framework density 23.473813
#
# number of rings (size 3 to 8) (size 9 to 14) (size 15 to 20)
#    0.000    0.750    5.000    1.875    5.250    1.000 
#    0.000    3.750    0.000    0.000    0.000    0.000 
#    0.000    0.000    0.000    0.000    0.000    0.000 
#
# Total GULP energy -89385.468631 kJ/mol
# GULP energy per Si atom -5586.591789 kJ/mol
# Density = 2.342039 g / cm^3
# Si number density = 23.473813 Si / 1000 Ang^3
#
#
#
# Elastic Constant Matrix: (Units=GPa)
#
#
# Indices 1 2 3 4 5 6 
#
# 1 144.0427 20.0672 20.2151 -1.5756 -4.5275 11.9625
# 2 20.0672 106.5830 9.5764 -25.9992 13.0152 -2.4460
# 3 20.2151 9.5764 60.7192 -11.7342 -2.6235 -14.7931
# 4 -1.5756 -25.9992 -11.7342 30.5230 -1.8639 -2.5078
# 5 -4.5275 13.0152 -2.6235 -1.8639 75.5424 1.8461
# 6 11.9625 -2.4460 -14.7931 -2.5078 1.8461 24.4255
#
#
#
# Elastic Compliance Matrix: (Units=1/GPa)
#
#
# Indices 1 2 3 4 5 6 
#
# 1 0.008704 -0.002521 -0.005317 -0.004367 0.000865 -0.008249
# 2 -0.002521 0.012995 0.002355 0.012155 -0.002140 0.005373
# 3 -0.005317 0.002355 0.025093 0.012970 -0.000006 0.019369
# 4 -0.004367 0.012155 0.012970 0.049152 -0.001092 0.016340
# 5 0.000865 -0.002140 -0.000006 -0.001092 0.013675 -0.001788
# 6 -0.008249 0.005373 0.019369 0.016340 -0.001788 0.059063
#
#
# Mechanical properties :
#
#
# Convention : Reuss Voigt Hill
#
# Bulk Modulus (GPa) = 27.91187 45.67361 36.79274
# Shear Modulus (GPa) = 26.09745 43.53058 34.81402
#
# Velocity S-wave (km/s) = 3.33794 4.31098 3.85528
# Velocity P-wave (km/s) = 5.17419 6.65424 5.96033
#
# Compressibility (1/GPa) = 0.03582705
#
# Stress axis : x y z
#
# Youngs Moduli (GPa) = 114.88558 76.95206 39.85189
#
# Poissons Ratio (x) = 0.19403 0.21188
# Poissons Ratio (y) = 0.28968 -0.09387
# Poissons Ratio (z) = 0.61080 -0.18126
#
# Static dielectric constant tensor:
#      x y z
#    x 2.077620 -0.023190 -0.076580 
#    y -0.023190 1.926750 -0.033780 
#    z -0.076580 -0.033780 1.851480 
# 
# From -- ./inp_files/181473.got.cif
#   From: 2010.05.17/outbox.cif.g08.bks.cpg/sg2_91_cif.got.tgz:181473.got - 2010.06.03 11:33:40.
