data_PCOD9056942
_publ_section_title
;
Structure prediction by ZEFSAII (Michael W. Deem and Ramdas Pophale) SiO2 
 PCOD9056942
Probable space group: P -1
;
_chemical_formula_sum "Si O2"
_cell_formula_units_Z 14
_cell_length_a 7.929093
_cell_length_b 11.771522
_cell_length_c 13.089804
_cell_angle_alpha 145.545894
_cell_angle_beta 126.799480
_cell_angle_gamma 68.156895
_cell_volume 533.073745
_symmetry_space_group_name_H-M "P -1"
_symmetry_group_IT_number 2
_symmetry_cell_setting 'triclinic'
loop_
_space_group_symop_operation_xyz
x,y,z
-x,-y,-z
loop_
_atom_site_type_symbol
_atom_site_label
_atom_site_fract_x
_atom_site_fract_y
_atom_site_fract_z
Si Si1 0.444698 0.077246 0.393446
Si Si2 0.173303 0.708621 0.912434
Si Si3 0.256888 0.839577 0.813135
Si Si4 0.870545 0.784487 0.476418
Si Si5 0.883219 0.659109 0.951032
Si Si6 0.034728 0.772861 0.306523
Si Si7 0.420265 0.462384 0.557786
O O1 0.330656 0.131560 0.494738
O O2 0.703631 0.150189 0.539508
O O3 0.359195 0.223284 0.389554
O O4 0.366226 0.840452 0.152968
O O5 0.196057 0.826354 0.899995
O O6 0.964525 0.731366 0.919684
O O7 0.181250 0.469353 0.723198
O O8 0.254615 0.600106 0.611728
O O9 0.075288 0.872895 0.693448
O O10 0.500000 0.000000 0.000000
O O11 0.928921 0.837883 0.418494
O O12 0.058518 0.212847 0.829122
O O13 0.002573 0.475911 0.872965
O O14 0.624162 0.570270 0.784720
O O15 0.500000 0.500000 0.500000
#
# Coordination Sequence:
#
# PCOD9056942 Si02
#       7
#     2   2   2   2   2   2   2
#     4  11  24  42  70  99 133 184 224 276 349 395
#     4  11  23  42  65 101 133 172 228 282 330 409
#     4  12  25  42  65  99 140 173 223 285 341 406
#     4  11  24  45  68 100 138 179 227 283 334 406
#     4   9  21  40  69  94 135 180 220 285 334 394
#     4   9  20  46  64  97 139 174 229 283 330 401
#     4  11  22  41  66 100 135 179 224 276 346 401
#
# _framework density 26.262782000000001
#
# number of rings (size 3 to 8) (size 9 to 14) (size 15 to 20)
#    0.000    1.429    1.429    4.714    4.000    1.143 
#    2.571    3.571    0.000    0.000    0.000    0.000 
#    0.000    0.000    0.000    0.000    0.000    0.000 
#
# Total GULP energy -78415.537113 kJ/mol
# GULP energy per Si atom -5601.109794 kJ/mol
# Density = 2.620301 g / cm^3
# Si number density = 26.262782 Si / 1000 Ang^3
#
#
#
# Elastic Constant Matrix: (Units=GPa)
#
#
# Indices 1 2 3 4 5 6 
#
# 1 199.7411 70.1024 64.0136 -11.0859 -22.1487 37.1662
# 2 70.1024 121.5851 33.8513 8.9281 -8.6996 14.3902
# 3 64.0136 33.8513 155.2756 -4.5925 -17.5895 5.6280
# 4 -11.0859 8.9281 -4.5925 33.0732 3.8454 2.5022
# 5 -22.1487 -8.6996 -17.5895 3.8454 50.4113 7.4069
# 6 37.1662 14.3902 5.6280 2.5022 7.4069 42.6553
#
#
#
# Elastic Compliance Matrix: (Units=1/GPa)
#
#
# Indices 1 2 3 4 5 6 
#
# 1 0.008868 -0.003752 -0.002104 0.003843 0.003246 -0.006973
# 2 -0.003752 0.011006 -0.000948 -0.004384 0.000270 -0.000108
# 3 -0.002104 -0.000948 0.007655 0.000382 0.001426 0.000873
# 4 0.003843 -0.004384 0.000382 0.033148 -0.000919 -0.003705
# 5 0.003246 0.000270 0.001426 -0.000919 0.022911 -0.007032
# 6 -0.006973 -0.000108 0.000873 -0.003705 -0.007032 0.030879
#
#
# Mechanical properties :
#
#
# Convention : Reuss Voigt Hill
#
# Bulk Modulus (GPa) = 71.82762 90.28182 81.05472
# Shear Modulus (GPa) = 37.67463 45.80358 41.73911
#
# Velocity S-wave (km/s) = 3.79162 4.18071 3.99091
# Velocity P-wave (km/s) = 6.82477 7.59970 7.22264
#
# Compressibility (1/GPa) = 0.01392222
#
# Stress axis : x y z
#
# Youngs Moduli (GPa) = 112.76050 90.85959 130.62883
#
# Poissons Ratio (x) = 0.34092 0.27483
# Poissons Ratio (y) = 0.42310 0.12379
# Poissons Ratio (z) = 0.23724 0.08610
#
# Static dielectric constant tensor:
#      x y z
#    x 2.088010 0.046450 0.042600 
#    y 0.046450 2.091040 0.119800 
#    z 0.042600 0.119800 2.192760 
# 
# From -- ./inp_files/560601.got.cif
#   From: 2010.05.17/outbox.cif.g08.bks.cpg/sg2_281_cif.got.tgz:560601.got - 2010.06.03 11:33:40.
