data_PCOD9056281
_publ_section_title
;
Structure prediction by ZEFSAII (Michael W. Deem and Ramdas Pophale) SiO2 
 PCOD9056281
Probable space group: P -1
;
_chemical_formula_sum "Si O2"
_cell_formula_units_Z 16
_cell_length_a 11.555907
_cell_length_b 14.618303
_cell_length_c 6.121560
_cell_angle_alpha 117.201578
_cell_angle_beta 121.984536
_cell_angle_gamma 58.162498
_cell_volume 722.136611
_symmetry_space_group_name_H-M "P -1"
_symmetry_group_IT_number 2
_symmetry_cell_setting 'triclinic'
loop_
_space_group_symop_operation_xyz
x,y,z
-x,-y,-z
loop_
_atom_site_type_symbol
_atom_site_label
_atom_site_fract_x
_atom_site_fract_y
_atom_site_fract_z
Si Si1 0.132192 0.723980 0.188027
Si Si2 0.419200 0.128897 0.986210
Si Si3 0.426390 0.762656 0.420137
Si Si4 0.325058 0.289512 0.693276
Si Si5 0.031642 0.906365 0.620011
Si Si6 0.765325 0.024225 0.783863
Si Si7 0.925918 0.500091 0.172474
Si Si8 0.815997 0.827597 0.874952
O O1 0.290642 0.725009 0.286961
O O2 0.092993 0.782450 0.450039
O O3 0.117561 0.607493 0.007846
O O4 0.987043 0.808488 0.008396
O O5 0.496799 0.205985 0.261487
O O6 0.251152 0.167924 0.949147
O O7 0.401818 0.173733 0.772916
O O8 0.500000 0.000000 0.000000
O O9 0.551042 0.686550 0.296643
O O10 0.355133 0.882029 0.365683
O O11 0.222839 0.389649 0.848030
O O12 0.216755 0.266463 0.387269
O O13 0.152369 0.918813 0.915509
O O14 0.000000 0.000000 0.500000
O O15 0.881072 0.943740 0.642054
O O16 0.718687 0.945514 0.804606
O O17 0.000000 0.500000 0.500000
O O18 0.000000 0.500000 0.000000
#
# Coordination Sequence:
#
# PCOD9056281 Si02
#       8
#     2   2   2   2   2   2   2   2
#     4  12  25  45  74 109 141 195 253 322 374 448
#     4  11  25  44  68 102 154 202 240 296 381 459
#     4  11  26  43  66 107 149 187 247 302 385 454
#     4  11  26  48  72 101 150 195 251 313 375 460
#     4  11  22  37  61 103 150 182 235 301 371 443
#     4  11  22  37  65 105 147 194 234 301 375 453
#     4  12  29  54  84 113 145 200 265 328 386 450
#     4  11  23  40  69 103 140 190 251 299 370 449
#
# _framework density 22.156471
#
# number of rings (size 3 to 8) (size 9 to 14) (size 15 to 20)
#    0.000    0.750    3.750    3.000   10.500    3.500 
#    0.000    0.625    0.000    0.000    0.000    0.000 
#    0.000    0.000    0.000    0.000    0.000    0.000 
#
# Total GULP energy -89218.329013 kJ/mol
# GULP energy per Si atom -5576.145563 kJ/mol
# Density = 2.210604 g / cm^3
# Si number density = 22.156471 Si / 1000 Ang^3
#
#
#
# Elastic Constant Matrix: (Units=GPa)
#
#
# Indices 1 2 3 4 5 6 
#
# 1 149.7089 27.2582 64.4040 14.2453 -3.5056 -5.6692
# 2 27.2582 76.3476 32.0604 23.5830 1.4692 -5.1852
# 3 64.4040 32.0604 134.8870 16.2107 2.5187 -4.3770
# 4 14.2453 23.5830 16.2107 43.3228 -3.5455 -2.3574
# 5 -3.5056 1.4692 2.5187 -3.5455 31.9157 3.4295
# 6 -5.6692 -5.1852 -4.3770 -2.3574 3.4295 34.2083
#
#
#
# Elastic Compliance Matrix: (Units=1/GPa)
#
#
# Indices 1 2 3 4 5 6 
#
# 1 0.008635 -0.001309 -0.003743 -0.000598 0.001174 0.000595
# 2 -0.001309 0.017231 -0.002407 -0.008106 -0.001831 0.001712
# 3 -0.003743 -0.002407 0.009960 -0.001271 -0.001263 0.000328
# 4 -0.000598 -0.008106 -0.001271 0.028465 0.003558 0.000114
# 5 0.001174 -0.001831 -0.001263 0.003558 0.032389 -0.003247
# 6 0.000595 0.001712 0.000328 0.000114 -0.003247 0.029966
#
#
# Mechanical properties :
#
#
# Convention : Reuss Voigt Hill
#
# Bulk Modulus (GPa) = 47.82499 67.59873 57.71186
# Shear Modulus (GPa) = 33.66279 37.70410 35.68344
#
# Velocity S-wave (km/s) = 3.90208 4.12967 4.01748
# Velocity P-wave (km/s) = 6.47561 7.30170 6.90103
#
# Compressibility (1/GPa) = 0.02090957
#
# Stress axis : x y z
#
# Youngs Moduli (GPa) = 115.80981 58.03424 100.40532
#
# Poissons Ratio (x) = 0.07595 0.37577
# Poissons Ratio (y) = 0.15157 0.24165
# Poissons Ratio (z) = 0.43342 0.13968
#
# Static dielectric constant tensor:
#      x y z
#    x 1.857480 -0.031620 -0.024550 
#    y -0.031620 1.837150 -0.044130 
#    z -0.024550 -0.044130 1.910870 
# 
# From -- ./inp_files/78670.got.cif
#   From: 2010.05.17/outbox.cif.g08.bks.cpg/sg2_40_cif.got.tgz:78670.got - 2010.06.03 11:33:40.
