data_PCOD9056769
_publ_section_title
;
Structure prediction by ZEFSAII (Michael W. Deem and Ramdas Pophale) SiO2 
 PCOD9056769
Probable space group: P -1
;
_chemical_formula_sum "Si O2"
_cell_formula_units_Z 13
_cell_length_a 8.781892
_cell_length_b 7.749019
_cell_length_c 14.158480
_cell_angle_alpha 43.667203
_cell_angle_beta 107.997026
_cell_angle_gamma 119.670123
_cell_volume 576.103574
_symmetry_space_group_name_H-M "P -1"
_symmetry_group_IT_number 2
_symmetry_cell_setting 'triclinic'
loop_
_space_group_symop_operation_xyz
x,y,z
-x,-y,-z
loop_
_atom_site_type_symbol
_atom_site_label
_atom_site_fract_x
_atom_site_fract_y
_atom_site_fract_z
Si Si1 0.800436 0.985643 0.963683
Si Si2 0.665896 0.099570 0.256606
Si Si3 0.375789 0.277022 0.772119
Si Si4 0.041994 0.387959 0.278899
Si Si5 0.142308 0.574379 0.576901
Si Si6 0.500000 0.500000 0.000000
Si Si7 0.674731 0.850862 0.559086
O O1 0.828556 0.301577 0.842454
O O2 0.682927 0.859078 0.084240
O O3 0.683315 0.789055 0.936232
O O4 0.000000 0.000000 0.000000
O O5 0.589666 0.328877 0.147764
O O6 0.879192 0.252158 0.229906
O O7 0.592917 0.912719 0.224605
O O8 0.631440 0.918502 0.417576
O O9 0.216704 0.346747 0.679007
O O10 0.534781 0.574313 0.686666
O O11 0.148513 0.202563 0.387336
O O12 0.946270 0.418488 0.343449
O O13 0.000000 0.500000 0.500000
O O14 0.291869 0.882591 0.477021
#
# Coordination Sequence:
#
# PCOD9056769 Si02
#       7
#     2   2   2   2   2   1   2
#     4  12  25  50  68 101 146 186 237 290 352 420
#     4  11  24  45  72 106 141 188 235 288 365 415
#     4  12  25  44  69 104 137 185 243 290 349 427
#     4  11  23  46  71  97 148 189 228 299 356 415
#     4  11  22  40  69 101 136 185 233 288 363 416
#     4  12  26  46  76 102 142 194 228 288 366 414
#     4  11  24  44  69 104 146 178 235 300 350 421
#
# _framework density 22.565387000000001
#
# number of rings (size 3 to 8) (size 9 to 14) (size 15 to 20)
#    0.000    0.615    3.077    6.462    0.000    5.538 
#    2.769    0.000    0.000    0.000    0.000    0.000 
#    0.000    0.000    0.000    0.000    0.000    0.000 
#
# Total GULP energy -72449.396220 kJ/mol
# GULP energy per Si atom -5573.030478 kJ/mol
# Density = 2.251403 g / cm^3
# Si number density = 22.565387 Si / 1000 Ang^3
#
#
#
# Elastic Constant Matrix: (Units=GPa)
#
#
# Indices 1 2 3 4 5 6 
#
# 1 64.8870 6.5258 38.0640 0.5848 9.4841 12.4467
# 2 6.5258 95.6123 26.4525 -14.8524 -22.3119 8.1266
# 3 38.0640 26.4525 113.0479 -32.4624 5.4606 15.7279
# 4 0.5848 -14.8524 -32.4624 36.9129 11.9861 8.1736
# 5 9.4841 -22.3119 5.4606 11.9861 44.3072 -7.1727
# 6 12.4467 8.1266 15.7279 8.1736 -7.1727 37.6284
#
#
#
# Elastic Compliance Matrix: (Units=1/GPa)
#
#
# Indices 1 2 3 4 5 6 
#
# 1 0.021349 -0.000470 -0.008623 -0.006870 -0.002257 -0.002294
# 2 -0.000470 0.013033 -0.003159 0.000218 0.006986 -0.000055
# 3 -0.008623 -0.003159 0.021991 0.024796 -0.011299 -0.013197
# 4 -0.006870 0.000218 0.024796 0.062133 -0.022480 -0.025921
# 5 -0.002257 0.006986 -0.011299 -0.022480 0.036606 0.015822
# 6 -0.002294 -0.000055 -0.013197 -0.025921 0.015822 0.041509
#
#
# Mechanical properties :
#
#
# Convention : Reuss Voigt Hill
#
# Bulk Modulus (GPa) = 31.37836 46.18132 38.77984
# Shear Modulus (GPa) = 21.57521 37.27002 29.42262
#
# Velocity S-wave (km/s) = 3.09547 4.06845 3.61485
# Velocity P-wave (km/s) = 5.16833 6.52531 5.88606
#
# Compressibility (1/GPa) = 0.03186910
#
# Stress axis : x y z
#
# Youngs Moduli (GPa) = 46.84096 76.72540 45.47400
#
# Poissons Ratio (x) = 0.03609 0.39212
# Poissons Ratio (y) = 0.02203 0.14364
# Poissons Ratio (z) = 0.40390 0.24235
#
# Static dielectric constant tensor:
#      x y z
#    x 1.866190 0.002220 -0.016470 
#    y 0.002220 1.872520 0.005540 
#    z -0.016470 0.005540 1.842960 
# 
# From -- ./inp_files/155049.got.cif
#   From: 2010.05.17/outbox.cif.g08.bks.cpg/sg2_78_cif.got.tgz:155049.got - 2010.06.03 11:33:40.
