data_PCOD9056696
_publ_section_title
;
Structure prediction by ZEFSAII (Michael W. Deem and Ramdas Pophale) SiO2 
 PCOD9056696
Probable space group: P -1
;
_chemical_formula_sum "Si O2"
_cell_formula_units_Z 16
_cell_length_a 19.812708
_cell_length_b 9.047933
_cell_length_c 15.149952
_cell_angle_alpha 37.467743
_cell_angle_beta 151.987299
_cell_angle_gamma 141.318668
_cell_volume 744.951319
_symmetry_space_group_name_H-M "P -1"
_symmetry_group_IT_number 2
_symmetry_cell_setting 'triclinic'
loop_
_space_group_symop_operation_xyz
x,y,z
-x,-y,-z
loop_
_atom_site_type_symbol
_atom_site_label
_atom_site_fract_x
_atom_site_fract_y
_atom_site_fract_z
Si Si1 0.506996 0.252489 0.443809
Si Si2 0.408329 0.728309 0.059115
Si Si3 0.834893 0.244422 0.524093
Si Si4 0.066060 0.759497 0.171772
Si Si5 0.189202 0.397603 0.823559
Si Si6 0.222573 0.877046 0.108060
Si Si7 0.814631 0.352860 0.003920
Si Si8 0.345385 0.281824 0.407150
O O1 0.644457 0.253042 0.666401
O O2 0.363183 0.206406 0.361880
O O3 0.500000 0.000000 0.500000
O O4 0.508579 0.526050 0.276071
O O5 0.271482 0.598360 0.896915
O O6 0.333122 0.756284 0.054561
O O7 0.500000 0.000000 0.000000
O O8 0.831051 0.267272 0.614345
O O9 0.799310 0.463489 0.322385
O O10 0.011358 0.268837 0.696993
O O11 0.714470 0.978114 0.485757
O O12 0.132838 0.797239 0.132749
O O13 0.946301 0.484550 0.158962
O O14 0.000000 0.000000 0.000000
O O15 0.272248 0.179616 0.025087
O O16 0.153298 0.813515 0.960414
O O17 0.788483 0.592829 0.808294
O O18 0.500000 0.500000 0.500000
#
# Coordination Sequence:
#
# PCOD9056696 Si02
#       8
#     2   2   2   2   2   2   2   2
#     4  11  23  41  68 102 134 177 235 282 341 415
#     4  11  25  45  71 102 146 185 226 285 357 422
#     4  11  24  42  71  97 131 183 238 277 351 412
#     4  12  21  43  72  97 130 185 237 286 341 418
#     4  11  24  45  69  96 139 184 230 288 349 420
#     4  12  23  42  68 103 139 175 235 295 342 409
#     4  11  23  41  66 102 135 177 230 286 343 414
#     4  11  22  40  66  97 132 173 223 282 341 412
#
# _framework density 21.477914999999999
#
# number of rings (size 3 to 8) (size 9 to 14) (size 15 to 20)
#    0.000    0.750    6.250    1.125    3.500    0.000 
#    4.500    1.875    0.000    0.000    0.000    0.000 
#    0.000    0.000    0.000    0.000    0.000    0.000 
#
# Total GULP energy -89120.339657 kJ/mol
# GULP energy per Si atom -5570.021229 kJ/mol
# Density = 2.142903 g / cm^3
# Si number density = 21.477915 Si / 1000 Ang^3
#
#
#
# Elastic Constant Matrix: (Units=GPa)
#
#
# Indices 1 2 3 4 5 6 
#
# 1 99.9051 60.2141 15.8374 -14.6035 -20.0458 -15.2563
# 2 60.2141 140.9982 36.3735 -3.8885 -12.9433 14.3005
# 3 15.8374 36.3735 89.8383 -10.0283 -17.1909 11.8927
# 4 -14.6035 -3.8885 -10.0283 38.5065 -0.0863 -10.2151
# 5 -20.0458 -12.9433 -17.1909 -0.0863 29.2826 -4.7166
# 6 -15.2563 14.3005 11.8927 -10.2151 -4.7166 39.1089
#
#
#
# Elastic Compliance Matrix: (Units=1/GPa)
#
#
# Indices 1 2 3 4 5 6 
#
# 1 0.024239 -0.010953 0.002344 0.013570 0.016105 0.018235
# 2 -0.010953 0.013102 -0.003821 -0.006570 -0.005628 -0.010296
# 3 0.002344 -0.003821 0.014330 0.004275 0.008354 0.000078
# 4 0.013570 -0.006570 0.004275 0.036173 0.011783 0.017265
# 5 0.016105 -0.005628 0.008354 0.011783 0.050028 0.014911
# 6 0.018235 -0.010296 0.000078 0.017265 0.014911 0.042732
#
#
# Mechanical properties :
#
#
# Convention : Reuss Voigt Hill
#
# Bulk Modulus (GPa) = 37.29697 61.73240 49.51468
# Shear Modulus (GPa) = 23.32077 35.93403 29.62740
#
# Velocity S-wave (km/s) = 3.29873 4.09475 3.71810
# Velocity P-wave (km/s) = 5.64905 7.15267 6.44486
#
# Compressibility (1/GPa) = 0.02681183
#
# Stress axis : x y z
#
# Youngs Moduli (GPa) = 41.25577 76.32410 69.78222
#
# Poissons Ratio (x) = 0.83597 -0.16359
# Poissons Ratio (y) = 0.45187 0.26664
# Poissons Ratio (z) = -0.09671 0.29164
#
# Static dielectric constant tensor:
#      x y z
#    x 1.819560 -0.019780 0.015070 
#    y -0.019780 1.890480 0.108310 
#    z 0.015070 0.108310 1.873940 
# 
# From -- ./inp_files/540394.got.cif
#   From: 2010.05.17/outbox.cif.g08.bks.cpg/sg2_271_cif.got.tgz:540394.got - 2010.06.03 11:33:40.
