data_PCOD9056146
_publ_section_title
;
Structure prediction by ZEFSAII (Michael W. Deem and Ramdas Pophale) SiO2 
 PCOD9056146
Probable space group: P -1
;
_chemical_formula_sum "Si O2"
_cell_formula_units_Z 14
_cell_length_a 11.511899
_cell_length_b 10.793503
_cell_length_c 8.964149
_cell_angle_alpha 49.208769
_cell_angle_beta 49.406143
_cell_angle_gamma 52.243181
_cell_volume 605.429800
_symmetry_space_group_name_H-M "P -1"
_symmetry_group_IT_number 2
_symmetry_cell_setting 'triclinic'
loop_
_space_group_symop_operation_xyz
x,y,z
-x,-y,-z
loop_
_atom_site_type_symbol
_atom_site_label
_atom_site_fract_x
_atom_site_fract_y
_atom_site_fract_z
Si Si1 0.047651 0.209344 0.775963
Si Si2 0.642656 0.063062 0.255016
Si Si3 0.429068 0.409580 0.501095
Si Si4 0.473354 0.980410 0.212437
Si Si5 0.216572 0.319192 0.300670
Si Si6 0.686873 0.396104 0.866928
Si Si7 0.063140 0.440134 0.831475
O O1 0.168503 0.300730 0.526813
O O2 0.029403 0.276797 0.907967
O O3 0.875945 0.277080 0.785232
O O4 0.168717 0.016953 0.793927
O O5 0.537357 0.204491 0.577030
O O6 0.630542 0.999233 0.147963
O O7 0.500000 0.000000 0.500000
O O8 0.500000 0.500000 0.500000
O O9 0.391629 0.517988 0.291358
O O10 0.252170 0.408493 0.697125
O O11 0.325046 0.144082 0.268716
O O12 0.394523 0.733875 0.886979
O O13 0.500000 0.000000 0.000000
O O14 0.300545 0.465188 0.129065
O O15 0.046074 0.399248 0.300717
O O16 0.000000 0.500000 0.000000
#
# Coordination Sequence:
#
# PCOD9056146 Si02
#       7
#     2   2   2   2   2   2   2
#     4  11  21  47  72 104 144 190 243 306 357 437
#     4  12  25  45  73 106 149 188 244 313 365 434
#     4  12  25  48  73 107 150 193 243 299 363 447
#     4  12  26  47  68 107 156 191 235 301 375 421
#     4  11  22  45  79 101 145 196 238 303 358 442
#     4  11  24  45  75 110 139 194 257 292 365 441
#     4  11  22  43  72 104 144 188 242 294 365 429
#
# _framework density 23.124065999999999
#
# number of rings (size 3 to 8) (size 9 to 14) (size 15 to 20)
#    0.000    0.571    5.714    3.000    0.000    0.571 
#    7.714    0.714    0.000    0.000    0.000    0.000 
#    0.000    0.000    0.000    0.000    0.000    0.000 
#
# Total GULP energy -78052.839497 kJ/mol
# GULP energy per Si atom -5575.202821 kJ/mol
# Density = 2.307143 g / cm^3
# Si number density = 23.124066 Si / 1000 Ang^3
#
#
#
# Elastic Constant Matrix: (Units=GPa)
#
#
# Indices 1 2 3 4 5 6 
#
# 1 122.3419 54.4760 23.9694 2.0500 9.7579 -13.6110
# 2 54.4760 162.4799 51.9630 -10.7419 0.3415 -12.7932
# 3 23.9694 51.9630 115.9497 -3.1436 10.6521 5.6266
# 4 2.0500 -10.7419 -3.1436 42.7240 4.8720 -7.0833
# 5 9.7579 0.3415 10.6521 4.8720 33.2540 9.9115
# 6 -13.6110 -12.7932 5.6266 -7.0833 9.9115 57.5496
#
#
#
# Elastic Compliance Matrix: (Units=1/GPa)
#
#
# Indices 1 2 3 4 5 6 
#
# 1 0.010191 -0.003094 -0.000534 -0.000539 -0.003392 0.002292
# 2 -0.003094 0.008509 -0.003291 0.002181 0.001089 0.001562
# 3 -0.000534 -0.003291 0.010534 0.000057 -0.002774 -0.001403
# 4 -0.000539 0.002181 0.000057 0.025251 -0.004863 0.004297
# 5 -0.003392 0.001089 -0.002774 -0.004863 0.034702 -0.006864
# 6 0.002292 0.001562 -0.001403 0.004297 -0.006864 0.020114
#
#
# Mechanical properties :
#
#
# Convention : Reuss Voigt Hill
#
# Bulk Modulus (GPa) = 64.95105 73.50981 69.23043
# Shear Modulus (GPa) = 38.97983 44.72973 41.85478
#
# Velocity S-wave (km/s) = 4.11016 4.40288 4.25904
# Velocity P-wave (km/s) = 7.11854 7.59641 7.36135
#
# Compressibility (1/GPa) = 0.01539621
#
# Stress axis : x y z
#
# Youngs Moduli (GPa) = 98.12838 117.52022 94.93017
#
# Poissons Ratio (x) = 0.36359 0.05073
# Poissons Ratio (y) = 0.30359 0.31238
# Poissons Ratio (z) = 0.05244 0.38671
#
# Static dielectric constant tensor:
#      x y z
#    x 1.879710 -0.051430 0.024150 
#    y -0.051430 2.028020 -0.081350 
#    z 0.024150 -0.081350 1.986080 
# 
# From -- ./inp_files/237449.got.cif
#   From: 2010.05.17/outbox.cif.g08.bks.cpg/sg2_119_cif.got.tgz:237449.got - 2010.06.03 11:33:40.
