data_PCOD9056544
_publ_section_title
;
Structure prediction by ZEFSAII (Michael W. Deem and Ramdas Pophale) SiO2 
 PCOD9056544
Probable space group: P -1
;
_chemical_formula_sum "Si O2"
_cell_formula_units_Z 16
_cell_length_a 12.123999
_cell_length_b 13.843627
_cell_length_c 8.499124
_cell_angle_alpha 120.172588
_cell_angle_beta 33.013232
_cell_angle_gamma 110.548886
_cell_volume 664.343361
_symmetry_space_group_name_H-M "P -1"
_symmetry_group_IT_number 2
_symmetry_cell_setting 'triclinic'
loop_
_space_group_symop_operation_xyz
x,y,z
-x,-y,-z
loop_
_atom_site_type_symbol
_atom_site_label
_atom_site_fract_x
_atom_site_fract_y
_atom_site_fract_z
Si Si1 0.517035 0.909426 0.218594
Si Si2 0.587192 0.674653 0.391461
Si Si3 0.916346 0.997573 0.281164
Si Si4 0.304629 0.866887 0.736187
Si Si5 0.989096 0.631326 0.672471
Si Si6 0.649911 0.468982 0.650486
Si Si7 0.051685 0.210523 0.449571
Si Si8 0.862619 0.615848 0.311345
O O1 0.328110 0.983842 0.416489
O O2 0.404464 0.837177 0.420218
O O3 0.641815 0.005149 0.215351
O O4 0.702575 0.826834 0.851585
O O5 0.430304 0.788387 0.648721
O O6 0.467839 0.575064 0.391561
O O7 0.695211 0.656174 0.413707
O O8 0.773948 0.674182 0.045733
O O9 0.959739 0.097506 0.428329
O O10 0.000000 0.000000 0.000000
O O11 0.060611 0.882940 0.064826
O O12 0.169484 0.626227 0.580977
O O13 0.000000 0.500000 0.500000
O O14 0.007920 0.712855 0.570919
O O15 0.747554 0.577166 0.570148
O O16 0.500000 0.500000 0.000000
O O17 0.996312 0.292692 0.730087
O O18 0.000000 0.500000 0.000000
#
# Coordination Sequence:
#
# PCOD9056544 Si02
#       8
#     2   2   2   2   2   2   2   2
#     4   9  18  37  60  97 130 163 218 292 325 395
#     4  12  24  42  67  95 136 184 222 277 347 411
#     4   9  20  36  62 100 134 164 224 292 337 395
#     4   9  19  35  62  95 129 165 224 274 347 388
#     4  12  22  41  64  98 133 171 235 292 324 394
#     4  12  26  43  70  98 129 179 240 287 326 398
#     4  11  22  39  67  96 132 182 224 276 344 395
#     4  12  26  49  64  97 150 187 220 277 348 410
#
# _framework density 24.083932000000001
#
# number of rings (size 3 to 8) (size 9 to 14) (size 15 to 20)
#    0.000    1.250    5.000    1.125    3.500    0.000 
#    2.250    2.500    0.000    1.500    0.000    0.000 
#    0.000    0.000    0.000    0.000    0.000    0.000 
#
# Total GULP energy -89369.814083 kJ/mol
# GULP energy per Si atom -5585.613380 kJ/mol
# Density = 2.402912 g / cm^3
# Si number density = 24.083932 Si / 1000 Ang^3
#
#
#
# Elastic Constant Matrix: (Units=GPa)
#
#
# Indices 1 2 3 4 5 6 
#
# 1 131.5576 4.4517 24.3927 6.7368 -21.4890 -1.0254
# 2 4.4517 35.3482 -0.2676 2.5000 8.7057 -5.3468
# 3 24.3927 -0.2676 76.4981 17.4163 -17.7596 -1.6549
# 4 6.7368 2.5000 17.4163 25.4043 2.7476 -4.1606
# 5 -21.4890 8.7057 -17.7596 2.7476 49.3762 13.7836
# 6 -1.0254 -5.3468 -1.6549 -4.1606 13.7836 44.7303
#
#
#
# Elastic Compliance Matrix: (Units=1/GPa)
#
#
# Indices 1 2 3 4 5 6 
#
# 1 0.008713 -0.002261 -0.001423 -0.001831 0.004226 -0.001596
# 2 -0.002261 0.031683 -0.001127 0.000256 -0.008783 0.006424
# 3 -0.001423 -0.001127 0.018320 -0.013429 0.007793 -0.003140
# 4 -0.001831 0.000256 -0.013429 0.051418 -0.010642 0.007554
# 5 0.004226 -0.008783 0.007793 -0.010642 0.030085 -0.010925
# 6 -0.001596 0.006424 -0.003140 0.007554 -0.010925 0.027041
#
#
# Mechanical properties :
#
#
# Convention : Reuss Voigt Hill
#
# Bulk Modulus (GPa) = 20.36812 33.39528 26.88170
# Shear Modulus (GPa) = 25.87368 38.22398 32.04883
#
# Velocity S-wave (km/s) = 3.28123 3.98818 3.65185
# Velocity P-wave (km/s) = 4.77816 5.92485 5.38213
#
# Compressibility (1/GPa) = 0.04909633
#
# Stress axis : x y z
#
# Youngs Moduli (GPa) = 114.76837 31.56285 54.58372
#
# Poissons Ratio (x) = 0.07136 0.07766
# Poissons Ratio (y) = 0.25947 0.06149
# Poissons Ratio (z) = 0.16328 0.03556
#
# Static dielectric constant tensor:
#      x y z
#    x 1.966670 0.032140 0.019720 
#    y 0.032140 1.976360 0.024520 
#    z 0.019720 0.024520 1.994710 
# 
# From -- ./inp_files/274212.got.cif
#   From: 2010.05.17/outbox.cif.g08.bks.cpg/sg2_138_cif.got.tgz:274212.got - 2010.06.03 11:33:40.
