data_PCOD9056894
_publ_section_title
;
Structure prediction by ZEFSAII (Michael W. Deem and Ramdas Pophale) SiO2 
 PCOD9056894
Probable space group: P -1
;
_chemical_formula_sum "Si O2"
_cell_formula_units_Z 14
_cell_length_a 16.715440
_cell_length_b 5.447927
_cell_length_c 9.082445
_cell_angle_alpha 53.286463
_cell_angle_beta 63.814827
_cell_angle_gamma 63.227882
_cell_volume 574.603139
_symmetry_space_group_name_H-M "P -1"
_symmetry_group_IT_number 2
_symmetry_cell_setting 'triclinic'
loop_
_space_group_symop_operation_xyz
x,y,z
-x,-y,-z
loop_
_atom_site_type_symbol
_atom_site_label
_atom_site_fract_x
_atom_site_fract_y
_atom_site_fract_z
Si Si1 0.726530 0.783352 0.273238
Si Si2 0.947865 0.734364 0.589884
Si Si3 0.545051 0.365369 0.167047
Si Si4 0.417713 0.532896 0.441955
Si Si5 0.653127 0.810275 0.896039
Si Si6 0.164750 0.141139 0.105638
Si Si7 0.785773 0.595823 0.623506
O O1 0.674775 0.505729 0.392357
O O2 0.757326 0.726033 0.438535
O O3 0.638884 0.083131 0.201726
O O4 0.817089 0.795728 0.102103
O O5 0.845712 0.816569 0.569169
O O6 0.000000 0.500000 0.500000
O O7 0.918344 0.631400 0.814042
O O8 0.000000 0.000000 0.500000
O O9 0.463963 0.297077 0.356234
O O10 0.500000 0.500000 0.000000
O O11 0.581720 0.660216 0.089976
O O12 0.500000 0.500000 0.500000
O O13 0.390594 0.857163 0.259581
O O14 0.698031 0.602466 0.793928
O O15 0.738541 0.820175 0.924162
O O16 0.161806 0.778957 0.271817
#
# Coordination Sequence:
#
# PCOD9056894 Si02
#       7
#     2   2   2   2   2   2   2
#     4  12  24  43  67 102 143 192 256 295 359 439
#     4  11  24  48  83 111 146 186 227 293 374 449
#     4  12  23  39  63  93 141 193 250 312 365 402
#     4  12  23  37  58  97 137 187 251 313 358 403
#     4  11  22  41  63  94 139 190 253 298 360 433
#     4  11  23  45  73 103 142 190 234 292 368 438
#     4  11  23  45  73 104 143 191 236 298 364 438
#
# _framework density 24.364643000000001
#
# number of rings (size 3 to 8) (size 9 to 14) (size 15 to 20)
#    0.000    0.571    4.286    5.143    0.000    0.000 
#    0.000    1.429    0.000    0.000    0.000    0.000 
#    0.000    0.000    0.000    0.000    0.000    0.000 
#
# Total GULP energy -78035.722557 kJ/mol
# GULP energy per Si atom -5573.980183 kJ/mol
# Density = 2.430919 g / cm^3
# Si number density = 24.364643 Si / 1000 Ang^3
#
#
#
# Elastic Constant Matrix: (Units=GPa)
#
#
# Indices 1 2 3 4 5 6 
#
# 1 79.1968 -10.0493 27.0053 -0.8755 -19.7710 35.7475
# 2 -10.0493 81.8424 46.5827 13.6143 -13.2365 -7.7369
# 3 27.0053 46.5827 129.7257 24.7836 -4.5207 -4.5453
# 4 -0.8755 13.6143 24.7836 40.9656 5.9430 -7.7127
# 5 -19.7710 -13.2365 -4.5207 5.9430 44.2018 7.0319
# 6 35.7475 -7.7369 -4.5453 -7.7127 7.0319 39.7941
#
#
#
# Elastic Compliance Matrix: (Units=1/GPa)
#
#
# Indices 1 2 3 4 5 6 
#
# 1 0.059961 0.020905 -0.018290 -0.012443 0.042722 -0.061849
# 2 0.020905 0.023782 -0.011567 -0.007105 0.019473 -0.020295
# 3 -0.018290 -0.011567 0.016051 -0.001007 -0.012743 0.018071
# 4 -0.012443 -0.007105 -0.001007 0.032846 -0.015192 0.018732
# 5 0.042722 0.019473 -0.012743 -0.015192 0.056083 -0.048901
# 6 -0.061849 -0.020295 0.018071 0.018732 -0.048901 0.091079
#
#
# Mechanical properties :
#
#
# Convention : Reuss Voigt Hill
#
# Bulk Modulus (GPa) = 12.21141 46.42692 29.31917
# Shear Modulus (GPa) = 15.38458 40.14073 27.76265
#
# Velocity S-wave (km/s) = 2.51555 4.06334 3.37926
# Velocity P-wave (km/s) = 3.66881 6.41177 5.22355
#
# Compressibility (1/GPa) = 0.08189060
#
# Stress axis : x y z
#
# Youngs Moduli (GPa) = 16.67752 42.04908 62.30195
#
# Poissons Ratio (x) = -0.87904 1.13950
# Poissons Ratio (y) = -0.34865 0.72062
# Poissons Ratio (z) = 0.30503 0.48637
#
# Static dielectric constant tensor:
#      x y z
#    x 1.944330 0.054390 0.020160 
#    y 0.054390 2.044600 -0.049960 
#    z 0.020160 -0.049960 1.917280 
# 
# From -- ./inp_files/47684.got.cif
#   From: 2010.05.17/outbox.cif.g08.bks.cpg/sg2_24_cif.got.tgz:47684.got - 2010.06.03 11:33:40.
