data_PCOD9056810
_publ_section_title
;
Structure prediction by ZEFSAII (Michael W. Deem and Ramdas Pophale) SiO2 
 PCOD9056810
Probable space group: P -1
;
_chemical_formula_sum "Si O2"
_cell_formula_units_Z 14
_cell_length_a 16.514753
_cell_length_b 11.155113
_cell_length_c 10.936475
_cell_angle_alpha 143.546793
_cell_angle_beta 32.062204
_cell_angle_gamma 131.213374
_cell_volume 633.807940
_symmetry_space_group_name_H-M "P -1"
_symmetry_group_IT_number 2
_symmetry_cell_setting 'triclinic'
loop_
_space_group_symop_operation_xyz
x,y,z
-x,-y,-z
loop_
_atom_site_type_symbol
_atom_site_label
_atom_site_fract_x
_atom_site_fract_y
_atom_site_fract_z
Si Si1 0.819265 0.064502 0.766134
Si Si2 0.263112 0.127312 0.534264
Si Si3 0.904994 0.178154 0.340992
Si Si4 0.525598 0.719796 0.194602
Si Si5 0.143635 0.410732 0.382188
Si Si6 0.945197 0.473827 0.910158
Si Si7 0.543021 0.092757 0.315721
O O1 0.827104 0.299481 0.913660
O O2 0.745492 0.936524 0.648710
O O3 0.711675 0.050355 0.009905
O O4 0.000000 0.000000 0.500000
O O5 0.426753 0.164241 0.414515
O O6 0.205160 0.938850 0.528123
O O7 0.141946 0.321422 0.861740
O O8 0.836470 0.354806 0.484455
O O9 0.007075 0.309505 0.405434
O O10 0.000000 0.000000 0.000000
O O11 0.457769 0.754070 0.443965
O O12 0.479677 0.897197 0.303425
O O13 0.500000 0.500000 0.000000
O O14 0.709022 0.720538 0.961669
O O15 0.094124 0.410583 0.586332
O O16 0.000000 0.500000 0.000000
#
# Coordination Sequence:
#
# PCOD9056810 Si02
#       7
#     2   2   2   2   2   2   2
#     4  12  26  48  73 100 139 189 237 294 353 426
#     4  12  25  45  71 106 145 183 235 296 358 416
#     4  11  22  40  70 103 141 177 231 296 353 410
#     4  11  26  45  72 100 146 191 237 290 356 423
#     4  11  24  42  70 106 137 184 241 288 345 427
#     4  12  26  42  70 107 137 186 241 285 348 423
#     4  11  28  47  69 106 145 186 238 293 361 419
#
# _framework density 22.088712000000001
#
# number of rings (size 3 to 8) (size 9 to 14) (size 15 to 20)
#    0.000    0.571    4.286    3.000    4.000    2.857 
#    0.000    0.000    0.000    0.000    0.000    0.000 
#    0.000    0.000    0.000    0.000    0.000    0.000 
#
# Total GULP energy -78254.768487 kJ/mol
# GULP energy per Si atom -5589.626320 kJ/mol
# Density = 2.203844 g / cm^3
# Si number density = 22.088712 Si / 1000 Ang^3
#
#
#
# Elastic Constant Matrix: (Units=GPa)
#
#
# Indices 1 2 3 4 5 6 
#
# 1 107.2544 18.9472 60.9985 -11.1665 8.8806 -2.5518
# 2 18.9472 80.3987 24.8221 5.3093 10.8716 -2.6806
# 3 60.9985 24.8221 133.2827 -15.1358 26.0393 -3.9927
# 4 -11.1665 5.3093 -15.1358 51.0496 -6.4517 4.1736
# 5 8.8806 10.8716 26.0393 -6.4517 46.3886 -3.7121
# 6 -2.5518 -2.6806 -3.9927 4.1736 -3.7121 23.5369
#
#
#
# Elastic Compliance Matrix: (Units=1/GPa)
#
#
# Indices 1 2 3 4 5 6 
#
# 1 0.012881 -0.001543 -0.005694 0.001438 0.001308 0.000206
# 2 -0.001543 0.013850 -0.001696 -0.002669 -0.002271 0.001238
# 3 -0.005694 -0.001696 0.011553 0.001749 -0.004747 0.000091
# 4 0.001438 -0.002669 0.001749 0.021229 0.002057 -0.003291
# 5 0.001308 -0.002271 -0.004747 0.002057 0.025002 0.002656
# 6 0.000206 0.001238 0.000091 -0.003291 0.002656 0.043668
#
#
# Mechanical properties :
#
#
# Convention : Reuss Voigt Hill
#
# Bulk Modulus (GPa) = 48.97305 58.94127 53.95716
# Shear Modulus (GPa) = 32.71124 38.60623 35.65874
#
# Velocity S-wave (km/s) = 3.85243 4.18518 4.02225
# Velocity P-wave (km/s) = 6.48132 7.07786 6.78615
#
# Compressibility (1/GPa) = 0.02041939
#
# Stress axis : x y z
#
# Youngs Moduli (GPa) = 77.63564 72.20415 86.55552
#
# Poissons Ratio (x) = 0.11139 0.49283
# Poissons Ratio (y) = 0.11977 0.14677
# Poissons Ratio (z) = 0.44204 0.12243
#
# Static dielectric constant tensor:
#      x y z
#    x 1.860520 -0.006240 -0.033790 
#    y -0.006240 1.797950 0.004140 
#    z -0.033790 0.004140 1.818940 
# 
# From -- ./inp_files/465168.got.cif
#   From: 2010.05.17/outbox.cif.g08.bks.cpg/sg2_233_cif.got.tgz:465168.got - 2010.06.03 11:33:40.
