data_PCOD9056776
_publ_section_title
;
Structure prediction by ZEFSAII (Michael W. Deem and Ramdas Pophale) SiO2 
 PCOD9056776
Probable space group: P -1
;
_chemical_formula_sum "Si O2"
_cell_formula_units_Z 12
_cell_length_a 5.100781
_cell_length_b 12.052650
_cell_length_c 9.203440
_cell_angle_alpha 110.540756
_cell_angle_beta 66.471199
_cell_angle_gamma 88.489175
_cell_volume 476.569831
_symmetry_space_group_name_H-M "P -1"
_symmetry_group_IT_number 2
_symmetry_cell_setting 'triclinic'
loop_
_space_group_symop_operation_xyz
x,y,z
-x,-y,-z
loop_
_atom_site_type_symbol
_atom_site_label
_atom_site_fract_x
_atom_site_fract_y
_atom_site_fract_z
Si Si1 0.337750 0.116077 0.430878
Si Si2 0.287194 0.282216 0.007724
Si Si3 0.837438 0.103256 0.759377
Si Si4 0.939399 0.469171 0.664529
Si Si5 0.201593 0.094741 0.146344
Si Si6 0.446841 0.317097 0.667755
O O1 0.265386 0.168296 0.309166
O O2 0.544729 0.191803 0.500425
O O3 0.063817 0.134530 0.609283
O O4 0.370132 0.973616 0.321031
O O5 0.197487 0.409250 0.163468
O O6 0.114464 0.187460 0.078709
O O7 0.625956 0.217172 0.926407
O O8 0.275736 0.297436 0.844291
O O9 0.984946 0.001616 0.796877
O O10 0.713274 0.379238 0.677587
O O11 0.000000 0.500000 0.500000
O O12 0.232421 0.405481 0.650487
O O13 0.500000 0.000000 0.000000
#
# Coordination Sequence:
#
# PCOD9056776 Si02
#       6
#     2   2   2   2   2   2
#     4   9  18  39  70 102 145 183 240 277 359 408
#     4  11  22  40  69 104 142 184 236 293 352 416
#     4   8  18  38  71 100 144 184 235 283 350 409
#     4  12  28  50  75 101 140 186 241 291 355 418
#     4   8  16  35  63 100 139 184 230 282 344 414
#     4  12  26  46  74 106 139 188 232 295 350 422
#
# _framework density 25.179942
#
# number of rings (size 3 to 8) (size 9 to 14) (size 15 to 20)
#    1.000    1.000    0.000    3.500    0.000    2.000 
#    0.000    2.500    0.000    0.000    0.000    0.000 
#    0.000    0.000    0.000    0.000    0.000    0.000 
#
# Total GULP energy -67068.363213 kJ/mol
# GULP energy per Si atom -5589.030268 kJ/mol
# Density = 2.512263 g / cm^3
# Si number density = 25.179942 Si / 1000 Ang^3
#
#
#
# Elastic Constant Matrix: (Units=GPa)
#
#
# Indices 1 2 3 4 5 6 
#
# 1 52.4676 26.3411 7.8150 10.0711 1.8669 8.1570
# 2 26.3411 114.2379 47.3379 -6.7262 7.4723 -5.9783
# 3 7.8150 47.3379 148.2799 -10.0684 5.2603 5.7177
# 4 10.0711 -6.7262 -10.0684 66.2360 -8.0439 17.3625
# 5 1.8669 7.4723 5.2603 -8.0439 30.6629 11.8671
# 6 8.1570 -5.9783 5.7177 17.3625 11.8671 30.8399
#
#
#
# Elastic Compliance Matrix: (Units=1/GPa)
#
#
# Indices 1 2 3 4 5 6 
#
# 1 0.023625 -0.006488 0.000908 -0.001828 0.002443 -0.007586
# 2 -0.006488 0.012482 -0.003800 -0.000829 -0.005013 0.007236
# 3 0.000908 -0.003800 0.008154 0.002038 0.001661 -0.004275
# 4 -0.001828 -0.000829 0.002038 0.021474 0.012099 -0.016801
# 5 0.002443 -0.005013 0.001661 0.012099 0.046948 -0.026803
# 6 -0.007586 0.007236 -0.004275 -0.016801 -0.026803 0.056400
#
#
# Mechanical properties :
#
#
# Convention : Reuss Voigt Hill
#
# Bulk Modulus (GPa) = 39.21653 53.10817 46.16235
# Shear Modulus (GPa) = 25.46552 41.11383 33.28968
#
# Velocity S-wave (km/s) = 3.18361 4.04518 3.63997
# Velocity P-wave (km/s) = 5.39649 6.55402 6.00322
#
# Compressibility (1/GPa) = 0.02549945
#
# Stress axis : x y z
#
# Youngs Moduli (GPa) = 42.32852 80.11356 122.64325
#
# Poissons Ratio (x) = 0.51978 -0.11135
# Poissons Ratio (y) = 0.27463 0.46610
# Poissons Ratio (z) = -0.03843 0.30447
#
# Static dielectric constant tensor:
#      x y z
#    x 2.036590 0.012860 -0.009640 
#    y 0.012860 1.999190 -0.054050 
#    z -0.009640 -0.054050 1.983460 
# 
# From -- ./inp_files/130948.got.cif
#   From: 2010.05.17/outbox.cif.g08.bks.cpg/sg2_66_cif.got.tgz:130948.got - 2010.06.03 11:33:40.
