data_PCOD9056165
_publ_section_title
;
Structure prediction by ZEFSAII (Michael W. Deem and Ramdas Pophale) SiO2 
 PCOD9056165
Probable space group: P -1
;
_chemical_formula_sum "Si O2"
_cell_formula_units_Z 16
_cell_length_a 13.631883
_cell_length_b 29.292815
_cell_length_c 19.412379
_cell_angle_alpha 16.011529
_cell_angle_beta 31.398724
_cell_angle_gamma 24.131720
_cell_volume 854.726093
_symmetry_space_group_name_H-M "P -1"
_symmetry_group_IT_number 2
_symmetry_cell_setting 'triclinic'
loop_
_space_group_symop_operation_xyz
x,y,z
-x,-y,-z
loop_
_atom_site_type_symbol
_atom_site_label
_atom_site_fract_x
_atom_site_fract_y
_atom_site_fract_z
Si Si1 0.027668 0.603220 0.415399
Si Si2 0.042737 0.166920 0.742857
Si Si3 0.062628 0.263738 0.965309
Si Si4 0.997399 0.501596 0.796691
Si Si5 0.388223 0.047512 0.291979
Si Si6 0.707374 0.373005 0.903818
Si Si7 0.518568 0.127397 0.363316
Si Si8 0.456696 0.819104 0.448497
O O1 0.148835 0.366205 0.715613
O O2 0.140492 0.609600 0.269206
O O3 0.057878 0.721707 0.284598
O O4 0.736165 0.728743 0.404218
O O5 0.927285 0.358625 0.478409
O O6 0.333702 0.041046 0.749283
O O7 0.000000 0.000000 0.000000
O O8 0.952479 0.419270 0.873069
O O9 0.864761 0.278157 0.017406
O O10 0.276461 0.025236 0.209542
O O11 0.751697 0.667046 0.747074
O O12 0.201789 0.290045 0.024007
O O13 0.347195 0.018631 0.437031
O O14 0.379862 0.900835 0.454776
O O15 0.472647 0.618472 0.708662
O O16 0.647894 0.226650 0.122725
O O17 0.500000 0.000000 0.500000
#
# Coordination Sequence:
#
# PCOD9056165 Si02
#       8
#     2   2   2   2   2   2   2   2
#     4   9  19  32  52  86 118 141 174 223 276 341
#     4   9  18  33  60  82 109 145 188 228 271 321
#     4   9  18  36  60  85 111 137 175 233 287 329
#     4   9  20  39  59  80 108 144 186 234 278 321
#     4   9  20  39  59  80 108 144 186 234 278 321
#     4  11  22  33  54  85 112 147 188 215 274 338
#     4  11  25  40  56  75 113 156 190 229 270 319
#     4   9  18  36  60  85 111 137 175 233 287 329
#
# _framework density 18.719446999999999
#
# number of rings (size 3 to 8) (size 9 to 14) (size 15 to 20)
#    0.000    2.500    0.000    3.750    3.500    6.000 
#    0.000    2.500    0.000    0.000    0.000    0.000 
#    0.000    0.000    0.000    0.000    0.000    0.000 
#
# Total GULP energy -89217.990564 kJ/mol
# GULP energy per Si atom -5576.124410 kJ/mol
# Density = 1.867684 g / cm^3
# Si number density = 18.719447 Si / 1000 Ang^3
#
#
#
# Elastic Constant Matrix: (Units=GPa)
#
#
# Indices 1 2 3 4 5 6 
#
# 1 100.1406 25.5570 77.2317 0.8516 -5.0500 17.2777
# 2 25.5570 33.6308 29.1732 1.2556 10.8955 16.0189
# 3 77.2317 29.1732 117.5470 -14.6700 4.3676 3.5041
# 4 0.8516 1.2556 -14.6700 19.1473 -8.1056 7.2669
# 5 -5.0500 10.8955 4.3676 -8.1056 41.7477 1.2859
# 6 17.2777 16.0189 3.5041 7.2669 1.2859 16.9604
#
#
#
# Elastic Compliance Matrix: (Units=1/GPa)
#
#
# Indices 1 2 3 4 5 6 
#
# 1 0.031789 0.014942 -0.024082 -0.004559 0.002805 -0.039781
# 2 0.014942 0.098661 -0.030613 0.000243 -0.017585 -0.100851
# 3 -0.024082 -0.030613 0.032313 0.013721 0.003108 0.040656
# 4 -0.004559 0.000243 0.013721 0.082557 0.015055 -0.034934
# 5 0.002805 -0.017585 0.003108 0.015055 0.031348 0.004282
# 6 -0.039781 -0.100851 0.040656 -0.034934 0.004282 0.200982
#
#
# Mechanical properties :
#
#
# Convention : Reuss Voigt Hill
#
# Bulk Modulus (GPa) = 12.01118 57.24913 34.63016
# Shear Modulus (GPa) = 8.54834 23.52817 16.03825
#
# Velocity S-wave (km/s) = 2.13927 3.54910 2.93024
# Velocity P-wave (km/s) = 3.54010 6.88796 5.47614
#
# Compressibility (1/GPa) = 0.08325576
#
# Stress axis : x y z
#
# Youngs Moduli (GPa) = 31.45709 10.13576 30.94775
#
# Poissons Ratio (x) = -0.15145 0.74529
# Poissons Ratio (y) = -0.47003 0.94741
# Poissons Ratio (z) = 0.75756 0.31029
#
# Static dielectric constant tensor:
#      x y z
#    x 1.657030 0.007590 -0.004420 
#    y 0.007590 1.647550 0.010970 
#    z -0.004420 0.010970 1.659080 
# 
# From -- ./inp_files/571186.got.cif
#   From: 2010.05.17/outbox.cif.g08.bks.cpg/sg2_286_cif.got.tgz:571186.got - 2010.06.03 11:33:40.
