data_PCOD9056527
_publ_section_title
;
Structure prediction by ZEFSAII (Michael W. Deem and Ramdas Pophale) SiO2 
 PCOD9056527
Probable space group: P -1
;
_chemical_formula_sum "Si O2"
_cell_formula_units_Z 12
_cell_length_a 12.327629
_cell_length_b 21.570540
_cell_length_c 17.717098
_cell_angle_alpha 18.051872
_cell_angle_beta 31.588124
_cell_angle_gamma 23.300119
_cell_volume 568.590550
_symmetry_space_group_name_H-M "P -1"
_symmetry_group_IT_number 2
_symmetry_cell_setting 'triclinic'
loop_
_space_group_symop_operation_xyz
x,y,z
-x,-y,-z
loop_
_atom_site_type_symbol
_atom_site_label
_atom_site_fract_x
_atom_site_fract_y
_atom_site_fract_z
Si Si1 0.205688 0.091485 0.158087
Si Si2 0.616214 0.198952 0.772359
Si Si3 0.166698 0.882210 0.910771
Si Si4 0.126030 0.296496 0.544276
Si Si5 0.603405 0.678250 0.510614
Si Si6 0.635758 0.592306 0.859673
O O1 0.282863 0.921663 0.232326
O O2 0.308238 0.898503 0.392096
O O3 0.380826 0.186296 0.945471
O O4 0.881783 0.351801 0.044997
O O5 0.500000 0.500000 0.500000
O O6 0.882580 0.011987 0.885945
O O7 0.383651 0.839606 0.772333
O O8 0.109310 0.078618 0.782341
O O9 0.315016 0.587948 0.194700
O O10 0.337452 0.202229 0.596430
O O11 0.221013 0.357580 0.344337
O O12 0.829533 0.562274 0.443771
O O13 0.500000 0.500000 0.000000
#
# Coordination Sequence:
#
# PCOD9056527 Si02
#       6
#     2   2   2   2   2   2
#     4  11  23  40  62  94 131 164 213 264 317 374
#     4  11  22  39  66  96 123 167 220 264 306 376
#     4  12  24  43  69  96 129 170 215 259 323 383
#     4  11  23  42  67  96 128 170 213 263 320 377
#     4  11  23  41  67  95 133 167 208 266 323 378
#     4  12  23  45  66  92 130 175 212 262 320 377
#
# _framework density 21.104818000000002
#
# number of rings (size 3 to 8) (size 9 to 14) (size 15 to 20)
#    0.000    0.667    3.333    7.000    0.000    2.000 
#    0.000    0.833    0.000    0.000    0.000    0.000 
#    0.000    0.000    0.000    0.000    0.000    0.000 
#
# Total GULP energy -67160.330461 kJ/mol
# GULP energy per Si atom -5596.694205 kJ/mol
# Density = 2.105678 g / cm^3
# Si number density = 21.104818 Si / 1000 Ang^3
#
#
#
# Elastic Constant Matrix: (Units=GPa)
#
#
# Indices 1 2 3 4 5 6 
#
# 1 161.0549 34.3280 75.6202 -21.8643 -6.0973 -23.5667
# 2 34.3280 85.7005 36.4488 -2.8800 8.8635 -12.6982
# 3 75.6202 36.4488 102.8413 0.2605 -4.5069 -11.3768
# 4 -21.8643 -2.8800 0.2605 26.6622 3.5828 5.5415
# 5 -6.0973 8.8635 -4.5069 3.5828 33.1941 -10.1403
# 6 -23.5667 -12.6982 -11.3768 5.5415 -10.1403 40.1177
#
#
#
# Elastic Compliance Matrix: (Units=1/GPa)
#
#
# Indices 1 2 3 4 5 6 
#
# 1 0.011945 -0.000644 -0.008111 0.008855 0.001424 0.003650
# 2 -0.000644 0.014678 -0.004740 0.001343 -0.004323 0.001645
# 3 -0.008111 -0.004740 0.017598 -0.007897 0.003209 0.000627
# 4 0.008855 0.001343 -0.007897 0.046804 -0.006281 -0.004665
# 5 0.001424 -0.004323 0.003209 -0.006281 0.035800 0.010295
# 6 0.003650 0.001645 0.000627 -0.004665 0.010295 0.031016
#
#
# Mechanical properties :
#
#
# Convention : Reuss Voigt Hill
#
# Bulk Modulus (GPa) = 58.03329 71.37673 64.70501
# Shear Modulus (GPa) = 26.23644 33.54146 29.88895
#
# Velocity S-wave (km/s) = 3.52966 3.99090 3.76735
# Velocity P-wave (km/s) = 6.64595 7.42495 7.04623
#
# Compressibility (1/GPa) = 0.01723149
#
# Stress axis : x y z
#
# Youngs Moduli (GPa) = 83.71782 68.12768 56.82481
#
# Poissons Ratio (x) = 0.04386 0.46093
# Poissons Ratio (y) = 0.05389 0.26934
# Poissons Ratio (z) = 0.67906 0.32291
#
# Static dielectric constant tensor:
#      x y z
#    x 1.740760 0.011590 0.019660 
#    y 0.011590 1.766950 0.020160 
#    z 0.019660 0.020160 1.796820 
# 
# From -- ./inp_files/173704.got.cif
#   From: 2010.05.17/outbox.cif.g08.bks.cpg/sg2_87_cif.got.tgz:173704.got - 2010.06.03 11:33:40.
