data_PCOD9056777
_publ_section_title
;
Structure prediction by ZEFSAII (Michael W. Deem and Ramdas Pophale) SiO2 
 PCOD9056777
Probable space group: P -1
;
_chemical_formula_sum "Si O2"
_cell_formula_units_Z 16
_cell_length_a 18.265466
_cell_length_b 8.408460
_cell_length_c 9.317001
_cell_angle_alpha 98.868617
_cell_angle_beta 49.483853
_cell_angle_gamma 69.290425
_cell_volume 856.511706
_symmetry_space_group_name_H-M "P -1"
_symmetry_group_IT_number 2
_symmetry_cell_setting 'triclinic'
loop_
_space_group_symop_operation_xyz
x,y,z
-x,-y,-z
loop_
_atom_site_type_symbol
_atom_site_label
_atom_site_fract_x
_atom_site_fract_y
_atom_site_fract_z
Si Si1 0.952013 0.032984 0.723866
Si Si2 0.069835 0.637647 0.009232
Si Si3 0.180182 0.209207 0.797322
Si Si4 0.291328 0.870688 0.850797
Si Si5 0.590393 0.062239 0.723386
Si Si6 0.535045 0.158959 0.135918
Si Si7 0.374996 0.641060 0.430431
Si Si8 0.110863 0.807927 0.739261
O O1 0.048158 0.837510 0.672312
O O2 0.947318 0.211067 0.829463
O O3 0.000000 0.000000 0.500000
O O4 0.817232 0.101995 0.920305
O O5 0.939688 0.725421 0.123201
O O6 0.142924 0.414598 0.943088
O O7 0.142259 0.627738 0.776217
O O8 0.225112 0.051517 0.845282
O O9 0.284123 0.113753 0.534012
O O10 0.376743 0.876774 0.852919
O O11 0.362024 0.680394 0.624675
O O12 0.561098 0.264095 0.708018
O O13 0.510832 0.978492 0.796167
O O14 0.594252 0.093440 0.892671
O O15 0.437905 0.405670 0.286900
O O16 0.235940 0.778668 0.566395
O O17 0.000000 0.000000 0.000000
#
# Coordination Sequence:
#
# PCOD9056777 Si02
#       8
#     2   2   2   2   2   2   2   2
#     4  11  22  36  59  94 125 154 189 248 311 357
#     4  10  19  38  61  92 115 155 205 239 299 374
#     4  10  21  38  65  86 116 160 202 250 293 366
#     4  11  22  40  61  88 124 156 199 251 303 360
#     4  10  23  42  60  86 119 164 206 252 304 347
#     4  11  25  41  59  90 124 159 205 258 302 356
#     4  11  21  40  66  89 115 166 210 244 297 370
#     4  10  17  36  63  87 117 151 198 240 292 369
#
# _framework density 18.680422
#
# number of rings (size 3 to 8) (size 9 to 14) (size 15 to 20)
#    0.000    1.500    3.750    3.750    3.500    2.000 
#    2.250    3.125    0.000    0.000    0.000    0.000 
#    0.000    0.000    0.000    0.000    0.000    0.000 
#
# Total GULP energy -89105.999037 kJ/mol
# GULP energy per Si atom -5569.124940 kJ/mol
# Density = 1.863790 g / cm^3
# Si number density = 18.680422 Si / 1000 Ang^3
#
#
#
# Elastic Constant Matrix: (Units=GPa)
#
#
# Indices 1 2 3 4 5 6 
#
# 1 81.4594 6.7565 39.7582 -5.8214 5.8732 1.3876
# 2 6.7565 56.9584 32.8272 7.0344 -3.9601 3.3176
# 3 39.7582 32.8272 105.2333 -21.6979 15.9778 -1.1671
# 4 -5.8214 7.0344 -21.6979 34.8950 0.5875 -0.8041
# 5 5.8732 -3.9601 15.9778 0.5875 23.8762 -3.5572
# 6 1.3876 3.3176 -1.1671 -0.8041 -3.5572 21.4922
#
#
#
# Elastic Compliance Matrix: (Units=1/GPa)
#
#
# Indices 1 2 3 4 5 6 
#
# 1 0.015481 0.003205 -0.007735 -0.002942 0.001712 -0.001741
# 2 0.003205 0.029492 -0.015883 -0.015619 0.014550 -0.003798
# 3 -0.007735 -0.015883 0.023358 0.016762 -0.016459 0.002123
# 4 -0.002942 -0.015619 0.016762 0.042033 -0.013698 0.002817
# 5 0.001712 0.014550 -0.016459 -0.013698 0.056048 0.005514
# 6 -0.001741 -0.003798 0.002123 0.002817 0.005514 0.048360
#
#
# Mechanical properties :
#
#
# Convention : Reuss Voigt Hill
#
# Bulk Modulus (GPa) = 36.35437 44.70386 40.52911
# Shear Modulus (GPa) = 18.88461 27.00662 22.94561
#
# Velocity S-wave (km/s) = 3.18296 3.80638 3.50855
# Velocity P-wave (km/s) = 5.74559 6.58034 6.17708
#
# Compressibility (1/GPa) = 0.02750701
#
# Stress axis : x y z
#
# Youngs Moduli (GPa) = 64.59413 33.90747 42.81171
#
# Poissons Ratio (x) = -0.10868 0.33114
# Poissons Ratio (y) = -0.20704 0.67996
# Poissons Ratio (z) = 0.49962 0.53854
#
# Static dielectric constant tensor:
#      x y z
#    x 1.639650 0.058220 -0.009850 
#    y 0.058220 1.739560 -0.025080 
#    z -0.009850 -0.025080 1.615770 
# 
# From -- ./inp_files/329132.got.cif
#   From: 2010.05.17/outbox.cif.g08.bks.cpg/sg2_165_cif.got.tgz:329132.got - 2010.06.03 11:33:40.
