data_PCOD9056898
_publ_section_title
;
Structure prediction by ZEFSAII (Michael W. Deem and Ramdas Pophale) SiO2 
 PCOD9056898
Probable space group: P -1
;
_chemical_formula_sum "Si O2"
_cell_formula_units_Z 14
_cell_length_a 8.567693
_cell_length_b 12.656206
_cell_length_c 8.843608
_cell_angle_alpha 83.068704
_cell_angle_beta 132.250647
_cell_angle_gamma 63.540915
_cell_volume 491.334539
_symmetry_space_group_name_H-M "P -1"
_symmetry_group_IT_number 2
_symmetry_cell_setting 'triclinic'
loop_
_space_group_symop_operation_xyz
x,y,z
-x,-y,-z
loop_
_atom_site_type_symbol
_atom_site_label
_atom_site_fract_x
_atom_site_fract_y
_atom_site_fract_z
Si Si1 0.197189 0.585328 0.382860
Si Si2 0.236464 0.985885 0.286628
Si Si3 0.355695 0.742157 0.584621
Si Si4 0.153737 0.307340 0.156161
Si Si5 0.146957 0.717035 0.829926
Si Si6 0.423174 0.104516 0.788272
Si Si7 0.676851 0.650510 0.124046
O O1 0.500000 0.500000 0.500000
O O2 0.217745 0.676193 0.495240
O O3 0.039290 0.534819 0.354556
O O4 0.953281 0.690749 0.075298
O O5 0.170322 0.892664 0.336236
O O6 0.566324 0.873126 0.599352
O O7 0.339141 0.961774 0.183886
O O8 0.032296 0.843098 0.860215
O O9 0.690366 0.633490 0.743533
O O10 0.449611 0.748355 0.811594
O O11 0.911223 0.376029 0.115657
O O12 0.887692 0.820654 0.514012
O O13 0.505986 0.605353 0.072236
O O14 0.381991 0.233322 0.818170
O O15 0.500000 0.000000 0.000000
#
# Coordination Sequence:
#
# PCOD9056898 Si02
#       7
#     2   2   2   2   2   2   2
#     4  11  24  45  71  91 118 170 228 281 331 376
#     4   9  21  41  63  97 137 181 206 248 319 391
#     4   9  21  43  65  91 130 163 226 257 321 389
#     4   8  20  38  65  92 125 170 211 258 315 385
#     4  11  22  41  63  97 145 173 210 254 317 394
#     4  11  23  37  64  98 140 179 214 250 311 389
#     4  11  25  39  61 100 132 166 218 269 321 370
#
# _framework density 28.493822000000002
#
# number of rings (size 3 to 8) (size 9 to 14) (size 15 to 20)
#    0.857    1.143    0.000    3.429    6.000    6.286 
#    0.000    0.714    0.000    3.429    0.000    0.000 
#    0.000    0.000    0.000    0.000    0.000    0.000 
#
# Total GULP energy -78047.213702 kJ/mol
# GULP energy per Si atom -5574.800979 kJ/mol
# Density = 2.842897 g / cm^3
# Si number density = 28.493822 Si / 1000 Ang^3
#
#
#
# Elastic Constant Matrix: (Units=GPa)
#
#
# Indices 1 2 3 4 5 6 
#
# 1 137.6418 56.1482 57.2212 10.0259 13.3105 19.5761
# 2 56.1482 89.2323 34.2732 24.8645 -4.7769 -2.9449
# 3 57.2212 34.2732 212.5052 13.1293 19.5715 12.5147
# 4 10.0259 24.8645 13.1293 41.7586 11.3932 -9.1613
# 5 13.3105 -4.7769 19.5715 11.3932 69.3035 11.2157
# 6 19.5761 -2.9449 12.5147 -9.1613 11.2157 55.2352
#
#
#
# Elastic Compliance Matrix: (Units=1/GPa)
#
#
# Indices 1 2 3 4 5 6 
#
# 1 0.011479 -0.007358 -0.001641 0.001959 -0.002028 -0.003352
# 2 -0.007358 0.019417 -0.000995 -0.010460 0.004557 0.001208
# 3 -0.001641 -0.000995 0.005480 -0.000559 -0.001115 -0.000579
# 4 0.001959 -0.010460 -0.000559 0.033172 -0.007342 0.005867
# 5 -0.002028 0.004557 -0.001115 -0.007342 0.017221 -0.003500
# 6 -0.003352 0.001208 -0.000579 0.005867 -0.003500 0.021172
#
#
# Mechanical properties :
#
#
# Convention : Reuss Voigt Hill
#
# Bulk Modulus (GPa) = 61.01978 81.62940 71.32459
# Shear Modulus (GPa) = 37.48378 52.70858 45.09618
#
# Velocity S-wave (km/s) = 3.63092 4.30562 3.98259
# Velocity P-wave (km/s) = 6.24818 7.30946 6.79956
#
# Compressibility (1/GPa) = 0.01638813
#
# Stress axis : x y z
#
# Youngs Moduli (GPa) = 87.11465 51.50074 182.49813
#
# Poissons Ratio (x) = 0.37893 0.29951
# Poissons Ratio (y) = 0.64097 0.18158
# Poissons Ratio (z) = 0.14297 0.05124
#
# Static dielectric constant tensor:
#      x y z
#    x 2.868650 -0.119570 -0.064900 
#    y -0.119570 2.315320 0.048300 
#    z -0.064900 0.048300 2.246060 
# 
# From -- ./inp_files/99271.got.cif
#   From: 2010.05.17/outbox.cif.g08.bks.cpg/sg2_50_cif.got.tgz:99271.got - 2010.06.03 11:33:40.
