data_PCOD9056135
_publ_section_title
;
Structure prediction by ZEFSAII (Michael W. Deem and Ramdas Pophale) SiO2 
 PCOD9056135
Probable space group: P -1
;
_chemical_formula_sum "Si O2"
_cell_formula_units_Z 14
_cell_length_a 9.562706
_cell_length_b 17.412776
_cell_length_c 21.288550
_cell_angle_alpha 19.565643
_cell_angle_beta 144.500701
_cell_angle_gamma 134.052115
_cell_volume 640.640216
_symmetry_space_group_name_H-M "P -1"
_symmetry_group_IT_number 2
_symmetry_cell_setting 'triclinic'
loop_
_space_group_symop_operation_xyz
x,y,z
-x,-y,-z
loop_
_atom_site_type_symbol
_atom_site_label
_atom_site_fract_x
_atom_site_fract_y
_atom_site_fract_z
Si Si1 0.999110 0.427266 0.884756
Si Si2 0.770590 0.895769 0.904650
Si Si3 0.444031 0.684054 0.039352
Si Si4 0.760050 0.493115 0.565454
Si Si5 0.580409 0.485536 0.369968
Si Si6 0.554274 0.712962 0.744876
Si Si7 0.974256 0.811075 0.486378
O O1 0.731625 0.399068 0.825665
O O2 0.910513 0.697204 0.613914
O O3 0.150584 0.236993 0.031863
O O4 0.196788 0.405132 0.029717
O O5 0.570764 0.802420 0.941238
O O6 0.674041 0.187871 0.634398
O O7 0.029023 0.775687 0.133891
O O8 0.171947 0.897952 0.791669
O O9 0.624723 0.596959 0.234152
O O10 0.406442 0.442475 0.184774
O O11 0.500000 0.500000 0.500000
O O12 0.704737 0.546886 0.430644
O O13 0.865752 0.688450 0.485444
O O14 0.282792 0.714703 0.670980
O O15 0.500000 0.000000 0.500000
#
# Coordination Sequence:
#
# PCOD9056135 Si02
#       7
#     2   2   2   2   2   2   2
#     4  11  23  45  71  96 140 185 227 280 345 404
#     4  11  23  46  70 103 141 180 229 283 342 416
#     4  12  26  44  70 106 141 174 236 289 339 412
#     4  11  21  46  74  99 140 183 225 283 344 414
#     4  12  25  43  72 108 135 185 230 278 351 408
#     4  12  26  46  68 100 141 183 233 288 341 407
#     4  11  24  45  69 102 136 183 231 280 342 412
#
# _framework density 21.85314
#
# number of rings (size 3 to 8) (size 9 to 14) (size 15 to 20)
#    0.000    0.571    7.143    2.571    0.000    5.143 
#    0.000    0.000    0.000    0.000    0.000    0.000 
#    0.000    0.000    0.000    0.000    0.000    0.000 
#
# Total GULP energy -78264.093778 kJ/mol
# GULP energy per Si atom -5590.292413 kJ/mol
# Density = 2.180340 g / cm^3
# Si number density = 21.853140 Si / 1000 Ang^3
#
#
#
# Elastic Constant Matrix: (Units=GPa)
#
#
# Indices 1 2 3 4 5 6 
#
# 1 46.4119 7.0363 19.8184 2.2650 7.2506 -2.8319
# 2 7.0363 58.9916 19.3765 16.6891 13.4127 -2.3835
# 3 19.8184 19.3765 104.0435 -0.9050 9.4017 -17.6122
# 4 2.2650 16.6891 -0.9050 42.2485 4.1858 -3.5660
# 5 7.2506 13.4127 9.4017 4.1858 31.1288 7.5655
# 6 -2.8319 -2.3835 -17.6122 -3.5660 7.5655 32.6642
#
#
#
# Elastic Compliance Matrix: (Units=1/GPa)
#
#
# Indices 1 2 3 4 5 6 
#
# 1 0.024070 -0.000321 -0.003995 -0.000746 -0.004365 0.000839
# 2 -0.000321 0.022075 -0.003328 -0.007974 -0.007520 0.000660
# 3 -0.003995 -0.003328 0.012581 0.002773 -0.003589 0.007328
# 4 -0.000746 -0.007974 0.002773 0.027477 -0.001969 0.004304
# 5 -0.004365 -0.007520 -0.003589 -0.001969 0.040773 -0.012521
# 6 0.000839 0.000660 0.007328 0.004304 -0.012521 0.038057
#
#
# Mechanical properties :
#
#
# Convention : Reuss Voigt Hill
#
# Bulk Modulus (GPa) = 23.02171 33.54552 28.28361
# Shear Modulus (GPa) = 25.66704 32.08935 28.87819
#
# Velocity S-wave (km/s) = 3.43085 3.83614 3.63914
# Velocity P-wave (km/s) = 5.12366 5.91651 5.53430
#
# Compressibility (1/GPa) = 0.04343727
#
# Stress axis : x y z
#
# Youngs Moduli (GPa) = 41.54474 45.29961 79.48394
#
# Poissons Ratio (x) = 0.01456 0.31755
# Poissons Ratio (y) = 0.01335 0.26453
# Poissons Ratio (z) = 0.16598 0.15076
#
# Static dielectric constant tensor:
#      x y z
#    x 2.254390 0.206200 0.316400 
#    y 0.206200 1.873520 0.132840 
#    z 0.316400 0.132840 2.024840 
# 
# From -- ./inp_files/395492.got.cif
#   From: 2010.05.17/outbox.cif.g08.bks.cpg/sg2_198_cif.got.tgz:395492.got - 2010.06.03 11:33:40.
