data_PCOD9056695
_publ_section_title
;
Structure prediction by ZEFSAII (Michael W. Deem and Ramdas Pophale) SiO2 
 PCOD9056695
Probable space group: P -1
;
_chemical_formula_sum "Si O2"
_cell_formula_units_Z 14
_cell_length_a 14.991745
_cell_length_b 12.387130
_cell_length_c 12.006790
_cell_angle_alpha 127.441337
_cell_angle_beta 29.849448
_cell_angle_gamma 138.539406
_cell_volume 728.786881
_symmetry_space_group_name_H-M "P -1"
_symmetry_group_IT_number 2
_symmetry_cell_setting 'triclinic'
loop_
_space_group_symop_operation_xyz
x,y,z
-x,-y,-z
loop_
_atom_site_type_symbol
_atom_site_label
_atom_site_fract_x
_atom_site_fract_y
_atom_site_fract_z
Si Si1 0.118110 0.194198 0.012343
Si Si2 0.201882 0.627106 0.045733
Si Si3 0.467447 0.326058 0.905826
Si Si4 0.999125 0.811119 0.303431
Si Si5 0.732916 0.631926 0.274317
Si Si6 0.918457 0.403536 0.410933
Si Si7 0.649624 0.805861 0.803279
O O1 0.266982 0.232642 0.981865
O O2 0.255027 0.294180 0.815033
O O3 0.973457 0.267297 0.244512
O O4 0.000000 0.000000 0.000000
O O5 0.119980 0.720702 0.126261
O O6 0.049907 0.542593 0.263767
O O7 0.174232 0.478966 0.912718
O O8 0.448346 0.740832 0.896713
O O9 0.667018 0.334057 0.637340
O O10 0.500000 0.500000 0.000000
O O11 0.434427 0.250443 0.016570
O O12 0.886675 0.779651 0.285148
O O13 0.796590 0.741788 0.563725
O O14 0.181605 0.998456 0.253858
O O15 0.500000 0.500000 0.500000
O O16 0.000000 0.500000 0.500000
#
# Coordination Sequence:
#
# PCOD9056695 Si02
#       7
#     2   2   2   2   2   2   2
#     4  11  26  45  64  95 135 170 210 271 326 371
#     4  11  22  41  65  90 124 163 213 254 314 374
#     4  12  22  40  70  93 126 171 213 263 322 374
#     4  11  24  40  63  90 129 167 200 260 327 360
#     4  11  23  44  63  90 127 167 217 253 303 393
#     4  11  22  40  66  97 123 163 220 260 305 396
#     4  11  23  40  61  98 127 154 212 266 307 382
#
# _framework density 19.210004999999999
#
# number of rings (size 3 to 8) (size 9 to 14) (size 15 to 20)
#    0.000    0.857    4.286    3.429    2.000    0.571 
#    2.571    0.000    0.000    0.000    0.000    0.000 
#    0.000    0.000    0.000    0.000    0.000    0.000 
#
# Total GULP energy -78119.537027 kJ/mol
# GULP energy per Si atom -5579.966930 kJ/mol
# Density = 1.916628 g / cm^3
# Si number density = 19.210005 Si / 1000 Ang^3
#
#
#
# Elastic Constant Matrix: (Units=GPa)
#
#
# Indices 1 2 3 4 5 6 
#
# 1 58.8240 9.3385 12.8495 4.0412 -10.1014 16.3840
# 2 9.3385 62.8247 6.6407 7.3746 1.7611 12.9130
# 3 12.8495 6.6407 93.0350 -4.8900 2.9691 -0.5218
# 4 4.0412 7.3746 -4.8900 24.6172 1.5907 0.3003
# 5 -10.1014 1.7611 2.9691 1.5907 29.3996 -1.3554
# 6 16.3840 12.9130 -0.5218 0.3003 -1.3554 36.4342
#
#
#
# Elastic Compliance Matrix: (Units=1/GPa)
#
#
# Indices 1 2 3 4 5 6 
#
# 1 0.022172 -0.000663 -0.003556 -0.004538 0.007826 -0.009458
# 2 -0.000663 0.018108 -0.001486 -0.005462 -0.001150 -0.006139
# 3 -0.003556 -0.001486 0.011617 0.003465 -0.002393 0.002175
# 4 -0.004538 -0.005462 0.003465 0.043894 -0.003794 0.003523
# 5 0.007826 -0.001150 -0.002393 -0.003794 0.037139 -0.001733
# 6 -0.009458 -0.006139 0.002175 0.003523 -0.001733 0.033813
#
#
# Mechanical properties :
#
#
# Convention : Reuss Voigt Hill
#
# Bulk Modulus (GPa) = 24.69920 30.26012 27.47966
# Shear Modulus (GPa) = 26.08955 30.48051 28.28503
#
# Velocity S-wave (km/s) = 3.68927 3.98766 3.84136
# Velocity P-wave (km/s) = 5.57073 6.08181 5.83187
#
# Compressibility (1/GPa) = 0.04048714
#
# Stress axis : x y z
#
# Youngs Moduli (GPa) = 45.10208 55.22426 86.08397
#
# Poissons Ratio (x) = 0.03659 0.30614
# Poissons Ratio (y) = 0.02988 0.12791
# Poissons Ratio (z) = 0.16040 0.08205
#
# Static dielectric constant tensor:
#      x y z
#    x 1.684340 0.033190 0.014630 
#    y 0.033190 1.737570 0.008830 
#    z 0.014630 0.008830 1.714540 
# 
# From -- ./inp_files/69496.got.cif
#   From: 2010.05.17/outbox.cif.g08.bks.cpg/sg2_35_cif.got.tgz:69496.got - 2010.06.03 11:33:40.
