data_PCOD9056627
_publ_section_title
;
Structure prediction by ZEFSAII (Michael W. Deem and Ramdas Pophale) SiO2 
 PCOD9056627
Probable space group: P -1
;
_chemical_formula_sum "Si O2"
_cell_formula_units_Z 16
_cell_length_a 14.564032
_cell_length_b 11.160606
_cell_length_c 7.612426
_cell_angle_alpha 92.938132
_cell_angle_beta 92.771010
_cell_angle_gamma 147.782290
_cell_volume 648.964246
_symmetry_space_group_name_H-M "P -1"
_symmetry_group_IT_number 2
_symmetry_cell_setting 'triclinic'
loop_
_space_group_symop_operation_xyz
x,y,z
-x,-y,-z
loop_
_atom_site_type_symbol
_atom_site_label
_atom_site_fract_x
_atom_site_fract_y
_atom_site_fract_z
Si Si1 0.672787 0.124079 0.591507
Si Si2 0.106728 0.400370 0.732850
Si Si3 0.022298 0.047902 0.802249
Si Si4 0.547725 0.320914 0.364499
Si Si5 0.377873 0.332523 0.719457
Si Si6 0.702720 0.546829 0.753902
Si Si7 0.901826 0.546121 0.894099
Si Si8 0.143530 0.841570 0.624829
O O1 0.790809 0.332974 0.747909
O O2 0.763599 0.177306 0.426514
O O3 0.500000 0.000000 0.500000
O O4 0.625122 0.949951 0.682911
O O5 0.006432 0.167042 0.758116
O O6 0.306332 0.581474 0.733809
O O7 0.022625 0.339537 0.534211
O O8 0.080408 0.461977 0.898080
O O9 0.213344 0.210796 0.790319
O O10 0.858752 0.793384 0.689903
O O11 0.000000 0.000000 0.000000
O O12 0.542286 0.458911 0.350414
O O13 0.611198 0.376504 0.574414
O O14 0.554228 0.465622 0.821109
O O15 0.271130 0.096982 0.619142
O O16 0.790932 0.547565 0.885789
O O17 0.076180 0.767158 0.813502
#
# Coordination Sequence:
#
# PCOD9056627 Si02
#       8
#     2   2   2   2   2   2   2   2
#     4  12  25  45  71  97 136 184 237 286 340 415
#     4  11  24  43  69 100 140 180 228 288 346 411
#     4  11  22  40  63 104 148 179 223 288 347 415
#     4  11  23  42  66 102 134 177 229 285 345 409
#     4  11  23  39  71 106 134 181 233 283 357 413
#     4  12  21  41  71  98 140 181 227 283 350 411
#     4  12  25  46  69 102 137 188 234 280 345 413
#     4  12  23  46  75  99 134 185 227 291 352 405
#
# _framework density 24.654671
#
# number of rings (size 3 to 8) (size 9 to 14) (size 15 to 20)
#    0.000    0.500    6.250    1.500    1.750    3.500 
#    0.000    2.500    0.000    0.000    0.000    0.000 
#    0.000    0.000    0.000    0.000    0.000    0.000 
#
# Total GULP energy -89405.352309 kJ/mol
# GULP energy per Si atom -5587.834519 kJ/mol
# Density = 2.459856 g / cm^3
# Si number density = 24.654671 Si / 1000 Ang^3
#
#
#
# Elastic Constant Matrix: (Units=GPa)
#
#
# Indices 1 2 3 4 5 6 
#
# 1 122.6914 32.6409 19.5337 4.7850 -11.5570 20.6159
# 2 32.6409 123.7908 14.3119 10.9287 -10.0604 -12.8211
# 3 19.5337 14.3119 67.3052 -0.9403 -18.6260 2.2667
# 4 4.7850 10.9287 -0.9403 32.2940 2.3107 -12.0153
# 5 -11.5570 -10.0604 -18.6260 2.3107 26.5389 0.8357
# 6 20.6159 -12.8211 2.2667 -12.0153 0.8357 48.1652
#
#
#
# Elastic Compliance Matrix: (Units=1/GPa)
#
#
# Indices 1 2 3 4 5 6 
#
# 1 0.010514 -0.002702 -0.001499 -0.003124 0.002962 -0.005979
# 2 -0.002702 0.009537 -0.000855 -0.001775 0.001890 0.003260
# 3 -0.001499 -0.000855 0.018908 -0.000084 0.012323 -0.000710
# 4 -0.003124 -0.001775 -0.000084 0.036137 -0.005553 0.009980
# 5 0.002962 0.001890 0.012323 -0.005553 0.048932 -0.003579
# 6 -0.005979 0.003260 -0.000710 0.009980 -0.003579 0.026774
#
#
# Mechanical properties :
#
#
# Convention : Reuss Voigt Hill
#
# Bulk Modulus (GPa) = 34.66699 49.64004 42.15352
# Shear Modulus (GPa) = 29.32054 37.88634 33.60344
#
# Velocity S-wave (km/s) = 3.45229 3.92430 3.69584
# Velocity P-wave (km/s) = 5.47564 6.38055 5.94533
#
# Compressibility (1/GPa) = 0.02884588
#
# Stress axis : x y z
#
# Youngs Moduli (GPa) = 95.11541 104.85129 52.88874
#
# Poissons Ratio (x) = 0.28327 0.07930
# Poissons Ratio (y) = 0.25696 0.04524
# Poissons Ratio (z) = 0.14261 0.08969
#
# Static dielectric constant tensor:
#      x y z
#    x 2.010600 -0.010090 0.009700 
#    y -0.010090 2.035120 0.040980 
#    z 0.009700 0.040980 2.022310 
# 
# From -- ./inp_files/307771.got.cif
#   From: 2010.05.17/outbox.cif.g08.bks.cpg/sg2_154_cif.got.tgz:307771.got - 2010.06.03 11:33:40.
