data_PCOD9056617
_publ_section_title
;
Structure prediction by ZEFSAII (Michael W. Deem and Ramdas Pophale) SiO2 
 PCOD9056617
Probable space group: P -1
;
_chemical_formula_sum "Si O2"
_cell_formula_units_Z 16
_cell_length_a 12.254568
_cell_length_b 12.064849
_cell_length_c 13.011146
_cell_angle_alpha 60.059220
_cell_angle_beta 145.563972
_cell_angle_gamma 98.257600
_cell_volume 789.144401
_symmetry_space_group_name_H-M "P -1"
_symmetry_group_IT_number 2
_symmetry_cell_setting 'triclinic'
loop_
_space_group_symop_operation_xyz
x,y,z
-x,-y,-z
loop_
_atom_site_type_symbol
_atom_site_label
_atom_site_fract_x
_atom_site_fract_y
_atom_site_fract_z
Si Si1 0.835950 0.653604 0.865992
Si Si2 0.783316 0.014740 0.148189
Si Si3 0.934713 0.846788 0.128662
Si Si4 0.035670 0.530743 0.296036
Si Si5 0.547805 0.379507 0.679125
Si Si6 0.328935 0.842368 0.304039
Si Si7 0.984175 0.219833 0.198153
Si Si8 0.227054 0.208302 0.600702
O O1 0.576932 0.731440 0.594831
O O2 0.906203 0.771550 0.828627
O O3 0.000000 0.500000 0.000000
O O4 0.878328 0.602332 0.039819
O O5 0.810723 0.909975 0.313926
O O6 0.883927 0.909164 0.175151
O O7 0.931722 0.090569 0.239285
O O8 0.503297 0.136388 0.861432
O O9 0.970471 0.682159 0.235359
O O10 0.149999 0.836471 0.243139
O O11 0.729044 0.987003 0.837330
O O12 0.297886 0.444176 0.499325
O O13 0.056839 0.382354 0.430200
O O14 0.500000 0.500000 0.500000
O O15 0.667005 0.224226 0.775503
O O16 0.720367 0.363097 0.909726
O O17 0.141474 0.220949 0.410243
#
# Coordination Sequence:
#
# PCOD9056617 Si02
#       8
#     2   2   2   2   2   2   2   2
#     4  12  22  36  66 103 129 162 220 268 310 396
#     4  11  25  47  66  92 128 176 220 280 322 376
#     4  11  24  40  62  92 139 179 198 263 348 393
#     4  12  23  38  64  98 131 172 208 270 327 386
#     4  12  19  36  64  97 127 167 212 252 325 388
#     4  11  22  40  60  97 139 173 209 256 337 397
#     4  12  21  39  72  95 126 163 217 277 314 381
#     4  11  25  44  71  93 121 172 239 270 311 381
#
# _framework density 20.275122
#
# number of rings (size 3 to 8) (size 9 to 14) (size 15 to 20)
#    0.000    0.500    7.500    1.125    1.750    1.000 
#    2.250    0.000    0.000    1.500    0.000    0.000 
#    0.000    0.000    0.000    0.000    0.000    0.000 
#
# Total GULP energy -89197.377227 kJ/mol
# GULP energy per Si atom -5574.836077 kJ/mol
# Density = 2.022897 g / cm^3
# Si number density = 20.275122 Si / 1000 Ang^3
#
#
#
# Elastic Constant Matrix: (Units=GPa)
#
#
# Indices 1 2 3 4 5 6 
#
# 1 33.4173 10.9102 13.0641 -14.8126 -8.8217 4.9633
# 2 10.9102 97.8579 36.3962 -27.2556 -5.0975 9.9010
# 3 13.0641 36.3962 133.2034 -5.5852 -7.7870 0.7610
# 4 -14.8126 -27.2556 -5.5852 40.2843 6.8671 -5.4466
# 5 -8.8217 -5.0975 -7.7870 6.8671 31.0497 -9.1338
# 6 4.9633 9.9010 0.7610 -5.4466 -9.1338 29.6170
#
#
#
# Elastic Compliance Matrix: (Units=1/GPa)
#
#
# Indices 1 2 3 4 5 6 
#
# 1 0.038729 0.001068 -0.003130 0.013058 0.006842 -0.002255
# 2 0.001068 0.014373 -0.003701 0.009355 -0.001393 -0.003598
# 3 -0.003130 -0.003701 0.008813 -0.002512 0.001743 0.001611
# 4 0.013058 0.009355 -0.002512 0.036219 -0.003277 0.000399
# 5 0.006842 -0.001393 0.001743 -0.003277 0.038154 0.010438
# 6 -0.002255 -0.003598 0.001611 0.000399 0.010438 0.038596
#
#
# Mechanical properties :
#
#
# Convention : Reuss Voigt Hill
#
# Bulk Modulus (GPa) = 19.84540 42.80217 31.32378
# Shear Modulus (GPa) = 24.60555 33.79741 29.20148
#
# Velocity S-wave (km/s) = 3.48743 4.08725 3.79920
# Velocity P-wave (km/s) = 5.10152 6.59019 5.89305
#
# Compressibility (1/GPa) = 0.05038952
#
# Stress axis : x y z
#
# Youngs Moduli (GPa) = 25.82057 69.57313 113.47164
#
# Poissons Ratio (x) = -0.07428 0.35513
# Poissons Ratio (y) = -0.02757 0.41992
# Poissons Ratio (z) = 0.08081 0.25747
#
# Static dielectric constant tensor:
#      x y z
#    x 1.751100 0.053160 -0.027820 
#    y 0.053160 1.890570 -0.053710 
#    z -0.027820 -0.053710 1.745510 
# 
# From -- ./inp_files/531077.got.cif
#   From: 2010.05.17/outbox.cif.g08.bks.cpg/sg2_266_cif.got.tgz:531077.got - 2010.06.03 11:33:40.
