data_PCOD9056028
_publ_section_title
;
Structure prediction by ZEFSAII (Michael W. Deem and Ramdas Pophale) SiO2 
 PCOD9056028
Probable space group: P -1
;
_chemical_formula_sum "Si O2"
_cell_formula_units_Z 16
_cell_length_a 13.240620
_cell_length_b 11.697747
_cell_length_c 8.969765
_cell_angle_alpha 116.433341
_cell_angle_beta 47.581521
_cell_angle_gamma 84.189884
_cell_volume 729.590680
_symmetry_space_group_name_H-M "P -1"
_symmetry_group_IT_number 2
_symmetry_cell_setting 'triclinic'
loop_
_space_group_symop_operation_xyz
x,y,z
-x,-y,-z
loop_
_atom_site_type_symbol
_atom_site_label
_atom_site_fract_x
_atom_site_fract_y
_atom_site_fract_z
Si Si1 0.582949 0.146290 0.653141
Si Si2 0.402540 0.242559 0.341555
Si Si3 0.273518 0.511825 0.094227
Si Si4 0.544507 0.501189 0.627297
Si Si5 0.348691 0.109376 0.055706
Si Si6 0.831222 0.854398 0.036654
Si Si7 0.182654 0.759493 0.579977
Si Si8 0.869985 0.589874 0.045089
O O1 0.413528 0.323516 0.884535
O O2 0.517757 0.090014 0.815201
O O3 0.733189 0.165548 0.540859
O O4 0.660238 0.015753 0.368459
O O5 0.414204 0.373338 0.331017
O O6 0.314229 0.305126 0.626350
O O7 0.585442 0.069949 0.079535
O O8 0.296784 0.211451 0.316342
O O9 0.380431 0.554781 0.918765
O O10 0.133944 0.522307 0.135303
O O11 0.210103 0.619765 0.366470
O O12 0.500000 0.500000 0.500000
O O13 0.703304 0.330568 0.437773
O O14 0.214716 0.180388 0.096740
O O15 0.892794 0.709043 0.003525
O O16 0.981173 0.873265 0.880448
O O17 0.000000 0.500000 0.000000
#
# Coordination Sequence:
#
# PCOD9056028 Si02
#       8
#     2   2   2   2   2   2   2   2
#     4  11  21  45  69  94 126 173 224 260 320 395
#     4  11  23  42  62  99 126 169 218 265 319 395
#     4  11  23  43  69  94 127 177 222 265 318 399
#     4  11  22  40  66  93 129 173 217 262 322 389
#     4  11  23  40  72  92 128 170 219 267 320 391
#     4  12  25  42  68  99 131 173 216 275 330 384
#     4  11  26  42  66 100 132 171 221 272 323 385
#     4  12  25  40  64  94 137 167 213 276 336 384
#
# _framework density 21.930104
#
# number of rings (size 3 to 8) (size 9 to 14) (size 15 to 20)
#    0.000    0.750    3.750    5.250    3.500    0.500 
#    0.000    0.000    0.000    3.000    0.000    0.000 
#    0.000    0.000    0.000    0.000    0.000    0.000 
#
# Total GULP energy -89477.685523 kJ/mol
# GULP energy per Si atom -5592.355345 kJ/mol
# Density = 2.188019 g / cm^3
# Si number density = 21.930104 Si / 1000 Ang^3
#
#
#
# Elastic Constant Matrix: (Units=GPa)
#
#
# Indices 1 2 3 4 5 6 
#
# 1 96.5437 3.1448 11.8807 1.7686 8.9152 -5.4992
# 2 3.1448 67.1077 -10.5920 -9.5861 -12.0532 0.4844
# 3 11.8807 -10.5920 50.1613 -5.2696 4.0982 -5.0949
# 4 1.7686 -9.5861 -5.2696 24.5987 7.0447 -0.7147
# 5 8.9152 -12.0532 4.0982 7.0447 36.3981 -9.5163
# 6 -5.4992 0.4844 -5.0949 -0.7147 -9.5163 32.7401
#
#
#
# Elastic Compliance Matrix: (Units=1/GPa)
#
#
# Indices 1 2 3 4 5 6 
#
# 1 0.011049 -0.001598 -0.002816 -0.001288 -0.002489 0.000690
# 2 -0.001598 0.017490 0.004541 0.006564 0.004855 0.001734
# 3 -0.002816 0.004541 0.022691 0.007205 -0.001009 0.002855
# 4 -0.001288 0.006564 0.007205 0.046986 -0.007507 -0.000349
# 5 -0.002489 0.004855 -0.001009 -0.007507 0.033599 0.008955
# 6 0.000690 0.001734 0.002855 -0.000349 0.008955 0.033673
#
#
# Mechanical properties :
#
#
# Convention : Reuss Voigt Hill
#
# Bulk Modulus (GPa) = 19.42414 24.74217 22.08315
# Shear Modulus (GPa) = 27.41257 32.70600 30.05928
#
# Velocity S-wave (km/s) = 3.53937 3.86602 3.70629
# Velocity P-wave (km/s) = 5.05760 5.58882 5.32983
#
# Compressibility (1/GPa) = 0.05148234
#
# Stress axis : x y z
#
# Youngs Moduli (GPa) = 90.50284 57.17522 44.07058
#
# Poissons Ratio (x) = 0.09138 0.12412
# Poissons Ratio (y) = 0.14465 -0.20011
# Poissons Ratio (z) = 0.25489 -0.25962
#
# Static dielectric constant tensor:
#      x y z
#    x 1.820900 0.017040 -0.000310 
#    y 0.017040 1.790770 0.014370 
#    z -0.000310 0.014370 1.809620 
# 
# From -- ./inp_files/205077.got.cif
#   From: 2010.05.17/outbox.cif.g08.bks.cpg/sg2_103_cif.got.tgz:205077.got - 2010.06.03 11:33:40.
