data_PCOD9056570
_publ_section_title
;
Structure prediction by ZEFSAII (Michael W. Deem and Ramdas Pophale) SiO2 
 PCOD9056570
Probable space group: P -1
;
_chemical_formula_sum "Si O2"
_cell_formula_units_Z 16
_cell_length_a 14.731147
_cell_length_b 9.550313
_cell_length_c 11.501185
_cell_angle_alpha 105.301161
_cell_angle_beta 27.416274
_cell_angle_gamma 112.099440
_cell_volume 680.932111
_symmetry_space_group_name_H-M "P -1"
_symmetry_group_IT_number 2
_symmetry_cell_setting 'triclinic'
loop_
_space_group_symop_operation_xyz
x,y,z
-x,-y,-z
loop_
_atom_site_type_symbol
_atom_site_label
_atom_site_fract_x
_atom_site_fract_y
_atom_site_fract_z
Si Si1 0.789809 0.182923 0.659142
Si Si2 0.216436 0.142121 0.794222
Si Si3 0.321513 0.287123 0.964068
Si Si4 0.379386 0.838102 0.805366
Si Si5 0.203008 0.681519 0.556692
Si Si6 0.182052 0.574990 0.138419
Si Si7 0.033576 0.680842 0.988535
Si Si8 0.677701 0.919238 0.891811
O O1 0.846373 0.215878 0.467502
O O2 0.881481 0.330151 0.667131
O O3 0.803422 0.031351 0.673156
O O4 0.542461 0.167172 0.936489
O O5 0.263387 0.197015 0.887171
O O6 0.419048 0.119523 0.497315
O O7 0.173491 0.280511 0.800412
O O8 0.000000 0.000000 0.000000
O O9 0.566891 0.324327 0.714215
O O10 0.271362 0.443960 0.050712
O O11 0.227476 0.188759 0.164593
O O12 0.165110 0.782691 0.964232
O O13 0.349933 0.691383 0.889731
O O14 0.377582 0.974772 0.922602
O O15 0.175908 0.739650 0.726539
O O16 0.029518 0.516622 0.707139
O O17 0.000000 0.500000 0.000000
#
# Coordination Sequence:
#
# PCOD9056570 Si02
#       8
#     2   2   2   2   2   2   2   2
#     4   9  21  42  65  92 125 170 214 265 314 372
#     4  12  27  40  63  97 133 170 212 258 316 387
#     4  11  23  40  66  94 131 164 213 265 320 369
#     4  11  24  42  65  95 132 172 206 262 320 379
#     4  11  22  39  68  94 129 166 209 263 319 374
#     4  11  23  42  68  96 127 164 218 264 318 377
#     4  12  24  42  67  96 133 168 213 258 321 383
#     4   9  21  41  65  90 128 171 214 256 321 379
#
# _framework density 23.497204
#
# number of rings (size 3 to 8) (size 9 to 14) (size 15 to 20)
#    0.000    1.250    3.750    1.125    5.250    4.000 
#    0.000    0.625    0.000    0.000    0.000    0.000 
#    0.000    0.000    0.000    0.000    0.000    0.000 
#
# Total GULP energy -89471.829924 kJ/mol
# GULP energy per Si atom -5591.989370 kJ/mol
# Density = 2.344372 g / cm^3
# Si number density = 23.497204 Si / 1000 Ang^3
#
#
#
# Elastic Constant Matrix: (Units=GPa)
#
#
# Indices 1 2 3 4 5 6 
#
# 1 120.0661 34.8002 5.3132 -9.1879 8.0816 -20.8473
# 2 34.8002 93.0745 8.9657 -19.9689 2.3291 -17.4797
# 3 5.3132 8.9657 90.3255 -13.6420 9.2871 -9.3450
# 4 -9.1879 -19.9689 -13.6420 22.9317 -4.1507 1.4141
# 5 8.0816 2.3291 9.2871 -4.1507 41.5612 -8.6650
# 6 -20.8473 -17.4797 -9.3450 1.4141 -8.6650 34.9168
#
#
#
# Elastic Compliance Matrix: (Units=1/GPa)
#
#
# Indices 1 2 3 4 5 6 
#
# 1 0.010022 -0.002565 0.000465 0.001633 -0.000795 0.004561
# 2 -0.002565 0.015601 0.001053 0.013155 0.002067 0.006540
# 3 0.000465 0.001053 0.012685 0.008173 -0.001435 0.003513
# 4 0.001633 0.013155 0.008173 0.060956 0.004982 0.008516
# 5 -0.000795 0.002067 -0.001435 0.004982 0.026272 0.006494
# 6 0.004561 0.006540 0.003513 0.008516 0.006494 0.036843
#
#
# Mechanical properties :
#
#
# Convention : Reuss Voigt Hill
#
# Bulk Modulus (GPa) = 27.61348 44.62491 36.11920
# Shear Modulus (GPa) = 28.32174 36.84107 32.58140
#
# Velocity S-wave (km/s) = 3.47554 3.96396 3.72776
# Velocity P-wave (km/s) = 5.28045 6.32324 5.82523
#
# Compressibility (1/GPa) = 0.03621420
#
# Stress axis : x y z
#
# Youngs Moduli (GPa) = 99.78016 64.10009 78.83585
#
# Poissons Ratio (x) = 0.16443 -0.03669
# Poissons Ratio (y) = 0.25596 -0.08304
# Poissons Ratio (z) = -0.04644 -0.06752
#
# Static dielectric constant tensor:
#      x y z
#    x 1.890350 -0.054680 -0.018280 
#    y -0.054680 1.897890 -0.014910 
#    z -0.018280 -0.014910 1.959300 
# 
# From -- ./inp_files/447627.got.cif
#   From: 2010.05.17/outbox.cif.g08.bks.cpg/sg2_224_cif.got.tgz:447627.got - 2010.06.03 11:33:40.
