data_PCOD9056423
_publ_section_title
;
Structure prediction by ZEFSAII (Michael W. Deem and Ramdas Pophale) SiO2 
 PCOD9056423
Probable space group: P -1
;
_chemical_formula_sum "Si O2"
_cell_formula_units_Z 16
_cell_length_a 22.339716
_cell_length_b 8.079166
_cell_length_c 17.058225
_cell_angle_alpha 42.807771
_cell_angle_beta 160.071139
_cell_angle_gamma 133.506885
_cell_volume 713.106532
_symmetry_space_group_name_H-M "P -1"
_symmetry_group_IT_number 2
_symmetry_cell_setting 'triclinic'
loop_
_space_group_symop_operation_xyz
x,y,z
-x,-y,-z
loop_
_atom_site_type_symbol
_atom_site_label
_atom_site_fract_x
_atom_site_fract_y
_atom_site_fract_z
Si Si1 0.269490 0.154877 0.768396
Si Si2 0.927329 0.254899 0.233807
Si Si3 0.234991 0.452911 0.894118
Si Si4 0.239963 0.817764 0.396617
Si Si5 0.834740 0.766415 0.948347
Si Si6 0.369844 0.882773 0.707387
Si Si7 0.959524 0.172029 0.570764
Si Si8 0.386887 0.314827 0.697877
O O1 0.341781 0.129189 0.777572
O O2 0.093354 0.309593 0.477232
O O3 0.199655 0.926660 0.811691
O O4 0.445375 0.243854 0.996885
O O5 0.830566 0.494696 0.002368
O O6 0.007662 0.107098 0.311779
O O7 0.212956 0.294726 0.000186
O O8 0.112627 0.686323 0.642865
O O9 0.152629 0.276133 0.789328
O O10 0.426238 0.563925 0.094897
O O11 0.266378 0.557483 0.476290
O O12 0.037785 0.843921 0.165764
O O13 0.348372 0.853791 0.597849
O O14 0.275208 0.032437 0.303074
O O15 0.385241 0.156287 0.670906
O O16 0.190384 0.788484 0.561475
#
# Coordination Sequence:
#
# PCOD9056423 Si02
#       8
#     2   2   2   2   2   2   2   2
#     4  11  22  38  69 104 138 171 216 282 350 401
#     4  11  22  40  67 100 135 179 217 273 347 401
#     4  11  24  40  66  98 143 171 213 287 339 398
#     4  11  27  45  68  97 134 185 235 265 325 403
#     4  11  23  48  64  93 138 184 225 275 324 397
#     4  12  23  44  68 105 134 172 224 279 337 400
#     4  11  22  39  66 106 134 168 224 276 347 404
#     4  12  24  44  67 102 138 175 217 284 343 389
#
# _framework density 22.437041000000001
#
# number of rings (size 3 to 8) (size 9 to 14) (size 15 to 20)
#    0.000    0.750    5.000    3.375    1.750    1.000 
#    2.250    4.375    0.000    0.000    0.000    0.000 
#    0.000    0.000    0.000    0.000    0.000    0.000 
#
# Total GULP energy -89177.988802 kJ/mol
# GULP energy per Si atom -5573.624300 kJ/mol
# Density = 2.238597 g / cm^3
# Si number density = 22.437041 Si / 1000 Ang^3
#
#
#
# Elastic Constant Matrix: (Units=GPa)
#
#
# Indices 1 2 3 4 5 6 
#
# 1 65.4427 29.8807 20.0452 -3.8526 -2.9893 14.1621
# 2 29.8807 121.1517 36.4737 -3.7833 -11.2005 5.7962
# 3 20.0452 36.4737 42.9205 7.1279 -2.2143 -3.5676
# 4 -3.8526 -3.7833 7.1279 41.1951 5.8849 -7.3576
# 5 -2.9893 -11.2005 -2.2143 5.8849 25.2788 1.3970
# 6 14.1621 5.7962 -3.5676 -7.3576 1.3970 40.3433
#
#
#
# Elastic Compliance Matrix: (Units=1/GPa)
#
#
# Indices 1 2 3 4 5 6 
#
# 1 0.020638 -0.001929 -0.008885 0.001848 0.000789 -0.007444
# 2 -0.001929 0.012139 -0.009639 0.001719 0.004002 -0.001744
# 3 -0.008885 -0.009639 0.037286 -0.006876 -0.000818 0.006575
# 4 0.001848 0.001719 -0.006876 0.027340 -0.006191 0.003697
# 5 0.000789 0.004002 -0.000818 -0.006191 0.042991 -0.003542
# 6 -0.007444 -0.001744 0.006575 0.003697 -0.003542 0.029029
#
#
# Mechanical properties :
#
#
# Convention : Reuss Voigt Hill
#
# Bulk Modulus (GPa) = 34.29537 44.70157 39.49847
# Shear Modulus (GPa) = 22.72251 30.90446 26.81348
#
# Velocity S-wave (km/s) = 3.18578 3.71534 3.46071
# Velocity P-wave (km/s) = 5.37128 6.19446 5.79750
#
# Compressibility (1/GPa) = 0.02915846
#
# Stress axis : x y z
#
# Youngs Moduli (GPa) = 48.45372 82.38078 26.82002
#
# Poissons Ratio (x) = 0.15888 0.23829
# Poissons Ratio (y) = 0.09345 0.25851
# Poissons Ratio (z) = 0.43050 0.79405
#
# Static dielectric constant tensor:
#      x y z
#    x 1.914680 -0.069580 0.050810 
#    y -0.069580 1.954050 0.046140 
#    z 0.050810 0.046140 1.856970 
# 
# From -- ./inp_files/579002.got.cif
#   From: 2010.05.17/outbox.cif.g08.bks.cpg/sg2_290_cif.got.tgz:579002.got - 2010.06.03 11:33:40.
