data_PCOD9056521
_publ_section_title
;
Structure prediction by ZEFSAII (Michael W. Deem and Ramdas Pophale) SiO2 
 PCOD9056521
Probable space group: P -1
;
_chemical_formula_sum "Si O2"
_cell_formula_units_Z 15
_cell_length_a 11.189681
_cell_length_b 11.066791
_cell_length_c 6.573205
_cell_angle_alpha 90.521736
_cell_angle_beta 112.422124
_cell_angle_gamma 121.694070
_cell_volume 617.102253
_symmetry_space_group_name_H-M "P -1"
_symmetry_group_IT_number 2
_symmetry_cell_setting 'triclinic'
loop_
_space_group_symop_operation_xyz
x,y,z
-x,-y,-z
loop_
_atom_site_type_symbol
_atom_site_label
_atom_site_fract_x
_atom_site_fract_y
_atom_site_fract_z
Si Si1 0.306331 0.971997 0.269394
Si Si2 0.500000 0.000000 0.000000
Si Si3 0.316757 0.238324 0.387533
Si Si4 0.523760 0.470033 0.238509
Si Si5 0.881537 0.248478 0.509227
Si Si6 0.997951 0.175010 0.203606
Si Si7 0.108595 0.446009 0.006035
Si Si8 0.681216 0.337011 0.160835
O O1 0.257655 0.863452 0.428277
O O2 0.404259 0.957161 0.159001
O O3 0.374222 0.132126 0.407754
O O4 0.143360 0.922523 0.047139
O O5 0.540037 0.166570 0.046470
O O6 0.359801 0.325459 0.204501
O O7 0.409961 0.379901 0.595979
O O8 0.131465 0.145866 0.312688
O O9 0.643751 0.421980 0.298941
O O10 0.500000 0.500000 0.000000
O O11 0.823780 0.332178 0.343380
O O12 0.918640 0.166854 0.365555
O O13 0.029841 0.348555 0.750205
O O14 0.092556 0.341259 0.174390
O O15 0.272145 0.583226 0.027256
O O16 0.000000 0.500000 0.000000
#
# Coordination Sequence:
#
# PCOD9056521 Si02
#       8
#     2   1   2   2   2   2   2   2
#     4  11  25  47  70 107 142 183 237 286 353 413
#     4  12  24  48  68 100 144 184 228 294 348 408
#     4  11  25  46  70 101 141 188 235 282 347 425
#     4  11  26  47  68 100 141 189 231 286 349 418
#     4  11  24  42  71 105 137 181 231 289 353 410
#     4  11  23  44  70 104 143 180 234 289 349 412
#     4  11  22  39  66 105 140 177 228 290 346 410
#     4  12  23  44  71  99 139 183 230 285 350 415
#
# _framework density 24.307155999999999
#
# number of rings (size 3 to 8) (size 9 to 14) (size 15 to 20)
#    0.000    0.800    4.000    3.200    1.867    4.267 
#    4.800    0.000    0.000    0.000    0.000    0.000 
#    0.000    0.000    0.000    0.000    0.000    0.000 
#
# Total GULP energy -83673.453865 kJ/mol
# GULP energy per Si atom -5578.230258 kJ/mol
# Density = 2.425183 g / cm^3
# Si number density = 24.307156 Si / 1000 Ang^3
#
#
#
# Elastic Constant Matrix: (Units=GPa)
#
#
# Indices 1 2 3 4 5 6 
#
# 1 107.2671 6.3646 22.1626 2.1605 -27.9222 -6.9986
# 2 6.3646 107.7059 25.7372 0.5457 -27.7226 1.0816
# 3 22.1626 25.7372 62.4723 -8.1135 -21.7354 -1.6990
# 4 2.1605 0.5457 -8.1135 37.9689 9.6380 -17.3222
# 5 -27.9222 -27.7226 -21.7354 9.6380 43.7479 1.7708
# 6 -6.9986 1.0816 -1.6990 -17.3222 1.7708 40.4006
#
#
#
# Elastic Compliance Matrix: (Units=1/GPa)
#
#
# Indices 1 2 3 4 5 6 
#
# 1 0.012010 0.002105 -0.002629 -0.003371 0.008431 0.000099
# 2 0.002105 0.012183 -0.003464 -0.004193 0.008359 -0.002271
# 3 -0.002629 -0.003464 0.020881 0.004219 0.005487 0.002084
# 4 -0.003371 -0.004193 0.004219 0.038011 -0.011755 0.016519
# 5 0.008431 0.008359 0.005487 -0.011755 0.039066 -0.005285
# 6 0.000099 -0.002271 0.002084 0.016519 -0.005285 0.032232
#
#
# Mechanical properties :
#
#
# Convention : Reuss Voigt Hill
#
# Bulk Modulus (GPa) = 26.95669 42.88600 34.92135
# Shear Modulus (GPa) = 28.61618 39.30221 33.95920
#
# Velocity S-wave (km/s) = 3.43486 4.02543 3.74182
# Velocity P-wave (km/s) = 5.18123 6.26794 5.75032
#
# Compressibility (1/GPa) = 0.03709654
#
# Stress axis : x y z
#
# Youngs Moduli (GPa) = 83.26400 82.07849 47.89096
#
# Poissons Ratio (x) = -0.17277 0.12593
# Poissons Ratio (y) = -0.17526 0.16591
# Poissons Ratio (z) = 0.21894 0.28434
#
# Static dielectric constant tensor:
#      x y z
#    x 2.071360 0.035320 0.037960 
#    y 0.035320 1.957370 0.019030 
#    z 0.037960 0.019030 1.930090 
# 
# From -- ./inp_files/70715.got.cif
#   From: 2010.05.17/outbox.cif.g08.bks.cpg/sg2_36_cif.got.tgz:70715.got - 2010.06.03 11:33:40.
