data_PCOD9056229
_publ_section_title
;
Structure prediction by ZEFSAII (Michael W. Deem and Ramdas Pophale) SiO2 
 PCOD9056229
Probable space group: P -1
;
_chemical_formula_sum "Si O2"
_cell_formula_units_Z 12
_cell_length_a 11.536983
_cell_length_b 10.876334
_cell_length_c 11.165120
_cell_angle_alpha 85.566887
_cell_angle_beta 123.229492
_cell_angle_gamma 46.973417
_cell_volume 578.223813
_symmetry_space_group_name_H-M "P -1"
_symmetry_group_IT_number 2
_symmetry_cell_setting 'triclinic'
loop_
_space_group_symop_operation_xyz
x,y,z
-x,-y,-z
loop_
_atom_site_type_symbol
_atom_site_label
_atom_site_fract_x
_atom_site_fract_y
_atom_site_fract_z
Si Si1 0.151129 0.402529 0.221600
Si Si2 0.806741 0.886948 0.596408
Si Si3 0.849600 0.988057 0.371924
Si Si4 0.631465 0.468752 0.964360
Si Si5 0.302486 0.718162 0.223627
Si Si6 0.159244 0.629472 0.350509
O O1 0.148688 0.285123 0.315213
O O2 0.032694 0.610496 0.212221
O O3 0.481752 0.172577 0.404298
O O4 0.000000 0.500000 0.000000
O O5 0.035367 0.785348 0.809840
O O6 0.880609 0.862694 0.503073
O O7 0.525637 0.278652 0.149371
O O8 0.000000 0.000000 0.500000
O O9 0.972126 0.839146 0.329838
O O10 0.500000 0.500000 0.000000
O O11 0.573092 0.446037 0.809287
O O12 0.240433 0.667264 0.294876
O O13 0.537164 0.635561 0.399401
O O14 0.000000 0.000000 0.000000
#
# Coordination Sequence:
#
# PCOD9056229 Si02
#       6
#     2   2   2   2   2   2
#     4  11  25  47  69  92 132 180 225 272 321 394
#     4  11  24  43  70  95 130 178 222 266 335 392
#     4  12  23  41  65  98 137 170 211 272 337 390
#     4  12  22  40  67  98 137 171 211 274 337 388
#     4  11  22  36  62  98 130 167 219 271 329 390
#     4  11  24  40  62  97 132 169 221 271 322 396
#
# _framework density 20.753208999999998
#
# number of rings (size 3 to 8) (size 9 to 14) (size 15 to 20)
#    0.000    0.667    3.333    5.000    2.333    2.000 
#    0.000    3.333    0.000    0.000    0.000    0.000 
#    0.000    0.000    0.000    0.000    0.000    0.000 
#
# Total GULP energy -67014.286668 kJ/mol
# GULP energy per Si atom -5584.523889 kJ/mol
# Density = 2.070597 g / cm^3
# Si number density = 20.753209 Si / 1000 Ang^3
#
#
#
# Elastic Constant Matrix: (Units=GPa)
#
#
# Indices 1 2 3 4 5 6 
#
# 1 94.1319 39.7354 24.1420 22.4831 -21.1352 -14.2083
# 2 39.7354 146.6387 57.2549 29.9723 -5.8731 -5.6068
# 3 24.1420 57.2549 131.0452 1.6535 1.4322 -1.1392
# 4 22.4831 29.9723 1.6535 44.0179 -6.0553 -4.1396
# 5 -21.1352 -5.8731 1.4322 -6.0553 42.1582 3.7812
# 6 -14.2083 -5.6068 -1.1392 -4.1396 3.7812 24.4367
#
#
#
# Elastic Compliance Matrix: (Units=1/GPa)
#
#
# Indices 1 2 3 4 5 6 
#
# 1 0.015569 -0.001894 -0.001987 -0.005095 0.006277 0.006691
# 2 -0.001894 0.010051 -0.003966 -0.005753 -0.000249 0.000083
# 3 -0.001987 -0.003966 0.009698 0.003082 -0.001356 -0.000881
# 4 -0.005095 -0.005753 0.003082 0.029283 0.000681 0.000717
# 5 0.006277 -0.000249 -0.001356 0.000681 0.027024 -0.000537
# 6 0.006691 0.000083 -0.000881 0.000717 -0.000537 0.044995
#
#
# Mechanical properties :
#
#
# Convention : Reuss Voigt Hill
#
# Bulk Modulus (GPa) = 50.96104 68.23116 59.59610
# Shear Modulus (GPa) = 31.47524 38.83478 35.15501
#
# Velocity S-wave (km/s) = 3.89864 4.33051 4.12023
# Velocity P-wave (km/s) = 6.69887 7.61270 7.17036
#
# Compressibility (1/GPa) = 0.01962283
#
# Stress axis : x y z
#
# Youngs Moduli (GPa) = 64.23170 99.49651 103.11327
#
# Poissons Ratio (x) = 0.18850 0.20484
# Poissons Ratio (y) = 0.12169 0.40896
# Poissons Ratio (z) = 0.12760 0.39462
#
# Static dielectric constant tensor:
#      x y z
#    x 1.792170 -0.047230 -0.104460 
#    y -0.047230 1.792740 0.100840 
#    z -0.104460 0.100840 2.119230 
# 
# From -- ./inp_files/71600.got.cif
#   From: 2010.05.17/outbox.cif.g08.bks.cpg/sg2_36_cif.got.tgz:71600.got - 2010.06.03 11:33:40.
