data_PCOD9056890
_publ_section_title
;
Structure prediction by ZEFSAII (Michael W. Deem and Ramdas Pophale) SiO2 
 PCOD9056890
Probable space group: P -1
;
_chemical_formula_sum "Si O2"
_cell_formula_units_Z 14
_cell_length_a 31.262949
_cell_length_b 17.385655
_cell_length_c 17.556549
_cell_angle_alpha 163.753487
_cell_angle_beta 15.681288
_cell_angle_gamma 163.078749
_cell_volume 652.114937
_symmetry_space_group_name_H-M "P -1"
_symmetry_group_IT_number 2
_symmetry_cell_setting 'triclinic'
loop_
_space_group_symop_operation_xyz
x,y,z
-x,-y,-z
loop_
_atom_site_type_symbol
_atom_site_label
_atom_site_fract_x
_atom_site_fract_y
_atom_site_fract_z
Si Si1 0.307400 0.225709 0.806408
Si Si2 0.778625 0.856987 0.954755
Si Si3 0.330272 0.685875 0.484868
Si Si4 0.864171 0.191695 0.663977
Si Si5 0.298631 0.449979 0.614689
Si Si6 0.878111 0.673104 0.363928
Si Si7 0.925225 0.424898 0.472462
O O1 0.497796 0.339316 0.551281
O O2 0.157725 0.930894 0.743136
O O3 0.307681 0.142049 0.815151
O O4 0.236136 0.482949 0.171708
O O5 0.667989 0.551726 0.806794
O O6 0.960751 0.835257 0.634229
O O7 0.807130 0.172757 0.166398
O O8 0.281024 0.501287 0.471534
O O9 0.500000 0.000000 0.500000
O O10 0.925721 0.376846 0.655608
O O11 0.723554 0.840792 0.572625
O O12 0.794139 0.370000 0.010901
O O13 0.201891 0.335025 0.589796
O O14 0.000000 0.000000 0.500000
O O15 0.000000 0.500000 0.000000
O O16 0.000000 0.500000 0.500000
#
# Coordination Sequence:
#
# PCOD9056890 Si02
#       7
#     2   2   2   2   2   2   2
#     4  11  24  42  68  96 128 167 206 262 318 372
#     4  11  22  41  63  89 122 170 221 257 307 382
#     4  12  24  38  59  89 123 166 219 274 313 351
#     4  11  23  41  67  89 122 167 205 249 311 385
#     4  12  24  42  62  95 130 165 213 260 311 373
#     4  12  25  38  57  86 126 169 210 262 312 352
#     4  11  24  46  71  98 125 160 206 254 315 393
#
# _framework density 21.468608
#
# number of rings (size 3 to 8) (size 9 to 14) (size 15 to 20)
#    0.000    0.571    0.000   11.143    0.000    2.286 
#    0.000    4.286    0.000    0.000    0.000    0.000 
#    0.000    0.000    0.000    0.000    0.000    0.000 
#
# Total GULP energy -78327.620931 kJ/mol
# GULP energy per Si atom -5594.830067 kJ/mol
# Density = 2.141974 g / cm^3
# Si number density = 21.468608 Si / 1000 Ang^3
#
#
#
# Elastic Constant Matrix: (Units=GPa)
#
#
# Indices 1 2 3 4 5 6 
#
# 1 81.9368 41.2187 9.6928 -17.8774 24.0271 -12.2709
# 2 41.2187 147.7238 29.8362 -7.9231 28.7732 -22.2536
# 3 9.6928 29.8362 90.7808 3.0340 26.2605 -11.1602
# 4 -17.8774 -7.9231 3.0340 46.1711 -2.1570 11.4164
# 5 24.0271 28.7732 26.2605 -2.1570 29.3609 1.4404
# 6 -12.2709 -22.2536 -11.1602 11.4164 1.4404 26.6371
#
#
#
# Elastic Compliance Matrix: (Units=1/GPa)
#
#
# Indices 1 2 3 4 5 6 
#
# 1 0.020585 -0.000993 0.005286 0.003931 -0.020817 0.010309
# 2 -0.000993 0.010374 0.001169 -0.001671 -0.011013 0.010011
# 3 0.005286 0.001169 0.018548 -0.003488 -0.023000 0.013922
# 4 0.003931 -0.001671 -0.003488 0.026429 0.004100 -0.012595
# 5 -0.020817 -0.011013 -0.023000 0.004100 0.084465 -0.034752
# 6 0.010309 0.010011 0.013922 -0.012595 -0.034752 0.063764
#
#
# Mechanical properties :
#
#
# Convention : Reuss Voigt Hill
#
# Bulk Modulus (GPa) = 16.54765 53.54852 35.04808
# Shear Modulus (GPa) = 21.42391 36.41341 28.91866
#
# Velocity S-wave (km/s) = 3.16241 4.12287 3.67416
# Velocity P-wave (km/s) = 4.58901 6.90369 5.86174
#
# Compressibility (1/GPa) = 0.06043156
#
# Stress axis : x y z
#
# Youngs Moduli (GPa) = 48.57991 96.39649 53.91288
#
# Poissons Ratio (x) = 0.09570 -0.28500
# Poissons Ratio (y) = 0.04823 -0.06301
# Poissons Ratio (z) = -0.25681 -0.11267
#
# Static dielectric constant tensor:
#      x y z
#    x 1.659130 -0.065600 -0.404410 
#    y -0.065600 1.773630 -0.214110 
#    z -0.404410 -0.214110 0.623630 
# 
# From -- ./inp_files/535837.got.cif
#   From: 2010.05.17/outbox.cif.g08.bks.cpg/sg2_268_cif.got.tgz:535837.got - 2010.06.03 11:33:40.
