data_PCOD9056971
_publ_section_title
;
Structure prediction by ZEFSAII (Michael W. Deem and Ramdas Pophale) SiO2 
 PCOD9056971
Probable space group: P -1
;
_chemical_formula_sum "Si O2"
_cell_formula_units_Z 16
_cell_length_a 15.949258
_cell_length_b 11.767778
_cell_length_c 9.665724
_cell_angle_alpha 64.583975
_cell_angle_beta 117.923967
_cell_angle_gamma 153.176373
_cell_volume 723.018440
_symmetry_space_group_name_H-M "P -1"
_symmetry_group_IT_number 2
_symmetry_cell_setting 'triclinic'
loop_
_space_group_symop_operation_xyz
x,y,z
-x,-y,-z
loop_
_atom_site_type_symbol
_atom_site_label
_atom_site_fract_x
_atom_site_fract_y
_atom_site_fract_z
Si Si1 0.047745 0.950481 0.175223
Si Si2 0.892004 0.539787 0.693580
Si Si3 0.292118 0.546189 0.675731
Si Si4 0.081484 0.172600 0.345482
Si Si5 0.508519 0.381110 0.653134
Si Si6 0.445869 0.005730 0.155415
Si Si7 0.534395 0.581643 0.826162
Si Si8 0.717249 0.107341 0.196105
O O1 0.870318 0.658053 0.225447
O O2 0.061248 0.051342 0.269682
O O3 0.250267 0.124989 0.195560
O O4 0.000000 0.000000 0.000000
O O5 0.806009 0.496895 0.506893
O O6 0.998271 0.778070 0.730816
O O7 0.723830 0.280340 0.780925
O O8 0.057688 0.628475 0.756636
O O9 0.378350 0.510072 0.714322
O O10 0.468537 0.818830 0.741930
O O11 0.302528 0.462061 0.345950
O O12 0.000000 0.000000 0.500000
O O13 0.500000 0.500000 0.500000
O O14 0.515255 0.439328 0.785082
O O15 0.347331 0.092180 0.667574
O O16 0.615595 0.112483 0.176503
O O17 0.364841 0.993761 0.971048
O O18 0.500000 0.500000 0.000000
#
# Coordination Sequence:
#
# PCOD9056971 Si02
#       8
#     2   2   2   2   2   2   2   2
#     4  11  25  39  67 106 145 191 234 291 361 430
#     4  12  25  45  73 102 135 189 244 298 354 421
#     4  12  26  44  71 104 148 187 236 296 362 428
#     4  11  22  41  67 102 144 177 234 294 353 424
#     4  11  23  40  69 104 139 178 231 296 354 415
#     4  11  27  49  68 100 143 191 241 290 355 432
#     4  11  24  42  66 101 149 189 227 287 364 425
#     4  11  26  45  73 101 137 190 244 292 353 426
#
# _framework density 22.129449999999999
#
# number of rings (size 3 to 8) (size 9 to 14) (size 15 to 20)
#    0.000    0.750    3.750    3.000    5.250    2.500 
#    0.000    0.000    0.000    0.000    0.000    0.000 
#    0.000    0.000    0.000    0.000    0.000    0.000 
#
# Total GULP energy -89349.223925 kJ/mol
# GULP energy per Si atom -5584.326495 kJ/mol
# Density = 2.207908 g / cm^3
# Si number density = 22.129450 Si / 1000 Ang^3
#
#
#
# Elastic Constant Matrix: (Units=GPa)
#
#
# Indices 1 2 3 4 5 6 
#
# 1 76.3772 43.3526 45.6580 -4.1452 0.5951 30.3770
# 2 43.3526 87.9974 10.6112 -11.9583 3.3676 16.0073
# 3 45.6580 10.6112 103.4341 -7.4813 -6.6882 11.5729
# 4 -4.1452 -11.9583 -7.4813 31.7316 3.6180 4.0465
# 5 0.5951 3.3676 -6.6882 3.6180 39.3861 3.2835
# 6 30.3770 16.0073 11.5729 4.0465 3.2835 48.7996
#
#
#
# Elastic Compliance Matrix: (Units=1/GPa)
#
#
# Indices 1 2 3 4 5 6 
#
# 1 0.032048 -0.012208 -0.011548 -0.001449 -0.000178 -0.013074
# 2 -0.012208 0.017702 0.003880 0.006078 -0.001266 0.000454
# 3 -0.011548 0.003880 0.014458 0.002880 0.001856 0.002123
# 4 -0.001449 0.006078 0.002880 0.035195 -0.002867 -0.004500
# 5 -0.000178 -0.001266 0.001856 -0.002867 0.026199 -0.001439
# 6 -0.013074 0.000454 0.002123 -0.004500 -0.001439 0.028448
#
#
# Mechanical properties :
#
#
# Convention : Reuss Voigt Hill
#
# Bulk Modulus (GPa) = 40.88893 51.89468 46.39181
# Shear Modulus (GPa) = 24.75782 35.19595 29.97689
#
# Velocity S-wave (km/s) = 3.34843 3.99238 3.68450
# Velocity P-wave (km/s) = 5.78503 6.68981 6.25381
#
# Compressibility (1/GPa) = 0.02445649
#
# Stress axis : x y z
#
# Youngs Moduli (GPa) = 31.20275 56.48938 69.16460
#
# Poissons Ratio (x) = 0.68963 0.79871
# Poissons Ratio (y) = 0.38093 -0.26835
# Poissons Ratio (z) = 0.36033 -0.21917
#
# Static dielectric constant tensor:
#      x y z
#    x 2.028900 -0.016820 -0.016580 
#    y -0.016820 1.860810 0.056220 
#    z -0.016580 0.056220 1.839460 
# 
# From -- ./inp_files/307135.got.cif
#   From: 2010.05.17/outbox.cif.g08.bks.cpg/sg2_154_cif.got.tgz:307135.got - 2010.06.03 11:33:40.
