data_PCOD9056591
_publ_section_title
;
Structure prediction by ZEFSAII (Michael W. Deem and Ramdas Pophale) SiO2 
 PCOD9056591
Probable space group: P -1
;
_chemical_formula_sum "Si O2"
_cell_formula_units_Z 16
_cell_length_a 14.022314
_cell_length_b 17.131666
_cell_length_c 23.308990
_cell_angle_alpha 157.653926
_cell_angle_beta 160.711711
_cell_angle_gamma 30.637420
_cell_volume 699.684716
_symmetry_space_group_name_H-M "P -1"
_symmetry_group_IT_number 2
_symmetry_cell_setting 'triclinic'
loop_
_space_group_symop_operation_xyz
x,y,z
-x,-y,-z
loop_
_atom_site_type_symbol
_atom_site_label
_atom_site_fract_x
_atom_site_fract_y
_atom_site_fract_z
Si Si1 0.378894 0.801191 0.831093
Si Si2 0.996660 0.420493 0.623343
Si Si3 0.524223 0.418722 0.083894
Si Si4 0.269128 0.099966 0.634310
Si Si5 0.987993 0.738459 0.168524
Si Si6 0.984202 0.194941 0.265095
Si Si7 0.077968 0.867589 0.009788
Si Si8 0.601982 0.206100 0.661838
O O1 0.263101 0.631985 0.604134
O O2 0.115244 0.827000 0.741160
O O3 0.648856 0.756692 0.992790
O O4 0.500000 0.000000 0.000000
O O5 0.295343 0.468929 0.789918
O O6 0.042422 0.231416 0.562281
O O7 0.956512 0.631490 0.775921
O O8 0.780633 0.343019 0.217807
O O9 0.348895 0.590414 0.131584
O O10 0.343148 0.216521 0.815970
O O11 0.147712 0.860486 0.395288
O O12 0.573891 0.121875 0.787771
O O13 0.139369 0.836328 0.262899
O O14 0.000000 0.500000 0.000000
O O15 0.327699 0.259700 0.503584
O O16 0.954855 0.977304 0.068570
O O17 0.000000 0.000000 0.000000
O O18 0.500000 0.000000 0.500000
#
# Coordination Sequence:
#
# PCOD9056591 Si02
#       8
#     2   2   2   2   2   2   2   2
#     4  12  26  48  65  97 142 187 226 282 361 416
#     4  11  23  42  70  97 143 182 226 286 352 411
#     4  11  23  40  71 105 135 172 233 294 342 403
#     4  11  23  44  66 100 144 183 223 279 360 416
#     4  12  27  43  70 100 142 181 225 291 356 417
#     4  12  24  41  73 102 138 175 240 283 340 408
#     4  11  22  39  70 108 135 170 236 298 339 401
#     4  12  25  43  69 106 133 179 245 288 332 418
#
# _framework density 22.867443000000002
#
# number of rings (size 3 to 8) (size 9 to 14) (size 15 to 20)
#    0.000    0.500    6.250    4.125    5.250    0.000 
#    0.000    4.375    0.000    0.000    0.000    0.000 
#    0.000    0.000    0.000    0.000    0.000    0.000 
#
# Total GULP energy -89468.281253 kJ/mol
# GULP energy per Si atom -5591.767578 kJ/mol
# Density = 2.281540 g / cm^3
# Si number density = 22.867443 Si / 1000 Ang^3
#
#
#
# Elastic Constant Matrix: (Units=GPa)
#
#
# Indices 1 2 3 4 5 6 
#
# 1 42.0082 9.0934 6.7072 11.0102 -7.1358 -9.1721
# 2 9.0934 74.8079 28.3706 9.3401 -9.5885 -1.9866
# 3 6.7072 28.3706 149.8345 18.4935 -30.4042 -7.9903
# 4 11.0102 9.3401 18.4935 42.7871 -11.6622 -6.9445
# 5 -7.1358 -9.5885 -30.4042 -11.6622 35.9280 5.9835
# 6 -9.1721 -1.9866 -7.9903 -6.9445 5.9835 35.1575
#
#
#
# Elastic Compliance Matrix: (Units=1/GPa)
#
#
# Indices 1 2 3 4 5 6 
#
# 1 0.027268 -0.002449 0.000743 -0.005126 0.002784 0.005658
# 2 -0.002449 0.014856 -0.002332 -0.001414 0.001180 -0.000810
# 3 0.000743 -0.002332 0.008561 -0.001603 0.006142 0.000646
# 4 -0.005126 -0.001414 -0.001603 0.027710 0.005792 0.002706
# 5 0.002784 0.001180 0.006142 0.005792 0.036251 -0.002837
# 6 0.005658 -0.000810 0.000646 0.002706 -0.002837 0.031038
#
#
# Mechanical properties :
#
#
# Convention : Reuss Voigt Hill
#
# Bulk Modulus (GPa) = 23.47004 39.44366 31.45685
# Shear Modulus (GPa) = 29.76805 37.60649 33.68727
#
# Velocity S-wave (km/s) = 3.61191 4.05970 3.84233
# Velocity P-wave (km/s) = 5.26121 6.26587 5.78539
#
# Compressibility (1/GPa) = 0.04260751
#
# Stress axis : x y z
#
# Youngs Moduli (GPa) = 36.67266 67.31188 116.80818
#
# Poissons Ratio (x) = 0.16485 -0.08673
# Poissons Ratio (y) = 0.08981 0.27245
# Poissons Ratio (z) = -0.02723 0.15700
#
# Static dielectric constant tensor:
#      x y z
#    x 1.855730 0.039280 -0.011320 
#    y 0.039280 1.900040 -0.004700 
#    z -0.011320 -0.004700 1.891870 
# 
# From -- ./inp_files/612219.got.cif
#   From: 2010.05.17/outbox.cif.g08.bks.cpg/sg2_307_cif.got.tgz:612219.got - 2010.06.03 11:33:40.
