data_PCOD9056458
_publ_section_title
;
Structure prediction by ZEFSAII (Michael W. Deem and Ramdas Pophale) SiO2 
 PCOD9056458
Probable space group: P -1
;
_chemical_formula_sum "Si O2"
_cell_formula_units_Z 16
_cell_length_a 10.825037
_cell_length_b 10.503913
_cell_length_c 9.802577
_cell_angle_alpha 57.791427
_cell_angle_beta 50.792853
_cell_angle_gamma 51.134353
_cell_volume 655.072099
_symmetry_space_group_name_H-M "P -1"
_symmetry_group_IT_number 2
_symmetry_cell_setting 'triclinic'
loop_
_space_group_symop_operation_xyz
x,y,z
-x,-y,-z
loop_
_atom_site_type_symbol
_atom_site_label
_atom_site_fract_x
_atom_site_fract_y
_atom_site_fract_z
Si Si1 0.279495 0.506721 0.281183
Si Si2 0.860799 0.908373 0.735277
Si Si3 0.400083 0.242437 0.920832
Si Si4 0.351031 0.772961 0.474920
Si Si5 0.116181 0.553220 0.087628
Si Si6 0.681406 0.232671 0.186627
Si Si7 0.831861 0.449160 0.358305
Si Si8 0.246371 0.873774 0.080043
O O1 0.177636 0.475512 0.241651
O O2 0.491658 0.388668 0.186978
O O3 0.226700 0.488729 0.482164
O O4 0.221919 0.704964 0.198425
O O5 0.998612 0.734004 0.675761
O O6 0.800481 0.061324 0.584660
O O7 0.896810 0.980252 0.811227
O O8 0.694149 0.873960 0.914285
O O9 0.473185 0.245633 0.717010
O O10 0.566078 0.190060 0.936311
O O11 0.256426 0.426455 0.956416
O O12 0.350842 0.805866 0.615623
O O13 0.311515 0.612913 0.564092
O O14 0.922398 0.569580 0.178829
O O15 0.161734 0.709323 0.956276
O O16 0.731806 0.093877 0.112084
#
# Coordination Sequence:
#
# PCOD9056458 Si02
#       8
#     2   2   2   2   2   2   2   2
#     4  11  19  36  62  89 114 150 197 236 287 342
#     4  10  22  39  63  83 112 153 209 227 280 343
#     4  10  18  38  62  83 111 149 204 239 267 344
#     4  11  22  37  58  94 112 153 188 243 295 325
#     4  10  20  36  59  88 114 157 192 230 292 340
#     4  11  22  37  61  88 123 143 190 244 293 343
#     4  11  22  36  62  83 119 153 195 241 268 356
#     4  10  17  36  62  83 109 154 193 235 278 336
#
# _framework density 24.424790999999999
#
# number of rings (size 3 to 8) (size 9 to 14) (size 15 to 20)
#    0.000    1.500    5.000    3.000    0.000    2.500 
#    0.000    4.375    0.000    0.000    0.000    0.000 
#    0.000    0.000    0.000    0.000    0.000    0.000 
#
# Total GULP energy -89383.000721 kJ/mol
# GULP energy per Si atom -5586.437545 kJ/mol
# Density = 2.436920 g / cm^3
# Si number density = 24.424791 Si / 1000 Ang^3
#
#
#
# Elastic Constant Matrix: (Units=GPa)
#
#
# Indices 1 2 3 4 5 6 
#
# 1 85.8263 33.3964 43.2422 3.3070 10.7683 -0.3542
# 2 33.3964 53.5489 22.9172 17.9681 2.8885 5.0059
# 3 43.2422 22.9172 143.7274 26.7135 24.5966 11.5899
# 4 3.3070 17.9681 26.7135 42.8531 11.8798 -0.7784
# 5 10.7683 2.8885 24.5966 11.8798 55.8315 11.8453
# 6 -0.3542 5.0059 11.5899 -0.7784 11.8453 29.7411
#
#
#
# Elastic Compliance Matrix: (Units=1/GPa)
#
#
# Indices 1 2 3 4 5 6 
#
# 1 0.019611 -0.013225 -0.005199 0.008480 -0.003944 0.006278
# 2 -0.013225 0.031789 0.001460 -0.014824 0.005231 -0.008548
# 3 -0.005199 0.001460 0.009965 -0.006117 -0.001352 -0.003812
# 4 0.008480 -0.014824 -0.006117 0.034948 -0.007494 0.008879
# 5 -0.003944 0.005231 -0.001352 -0.007494 0.022630 -0.009610
# 6 0.006278 -0.008548 -0.003812 0.008879 -0.009610 0.040682
#
#
# Mechanical properties :
#
#
# Convention : Reuss Voigt Hill
#
# Bulk Modulus (GPa) = 36.44925 53.57936 45.01431
# Shear Modulus (GPa) = 24.66690 37.92160 31.29425
#
# Velocity S-wave (km/s) = 3.18136 3.94456 3.58334
# Velocity P-wave (km/s) = 5.33387 6.53683 5.96575
#
# Compressibility (1/GPa) = 0.02743541
#
# Stress axis : x y z
#
# Youngs Moduli (GPa) = 50.99161 31.45745 100.35315
#
# Poissons Ratio (x) = 0.41604 0.52173
# Poissons Ratio (y) = 0.67438 -0.14647
# Poissons Ratio (z) = 0.26510 -0.04591
#
# Static dielectric constant tensor:
#      x y z
#    x 2.050470 -0.033520 0.022810 
#    y -0.033520 1.968010 0.006840 
#    z 0.022810 0.006840 2.001310 
# 
# From -- ./inp_files/256610.got.cif
#   From: 2010.05.17/outbox.cif.g08.bks.cpg/sg2_129_cif.got.tgz:256610.got - 2010.06.03 11:33:40.
