data_PCOD9056299
_publ_section_title
;
Structure prediction by ZEFSAII (Michael W. Deem and Ramdas Pophale) SiO2 
 PCOD9056299
Probable space group: P -1
;
_chemical_formula_sum "Si O2"
_cell_formula_units_Z 16
_cell_length_a 6.477487
_cell_length_b 11.356584
_cell_length_c 11.511317
_cell_angle_alpha 81.834753
_cell_angle_beta 95.829323
_cell_angle_gamma 118.137448
_cell_volume 738.571178
_symmetry_space_group_name_H-M "P -1"
_symmetry_group_IT_number 2
_symmetry_cell_setting 'triclinic'
loop_
_space_group_symop_operation_xyz
x,y,z
-x,-y,-z
loop_
_atom_site_type_symbol
_atom_site_label
_atom_site_fract_x
_atom_site_fract_y
_atom_site_fract_z
Si Si1 0.662409 0.215193 0.132816
Si Si2 0.016330 0.210609 0.742060
Si Si3 0.507746 0.068712 0.780461
Si Si4 0.462415 0.292556 0.899753
Si Si5 0.167049 0.411758 0.191295
Si Si6 0.467972 0.290268 0.326786
Si Si7 0.771556 0.886409 0.439963
Si Si8 0.958673 0.518853 0.362570
O O1 0.576714 0.220176 0.258094
O O2 0.929014 0.330406 0.116494
O O3 0.638817 0.067846 0.137374
O O4 0.498453 0.247673 0.034690
O O5 0.201040 0.258588 0.851236
O O6 0.136874 0.181214 0.642538
O O7 0.956842 0.328495 0.686112
O O8 0.768691 0.086971 0.776417
O O9 0.524721 0.197926 0.832016
O O10 0.380893 0.061040 0.651424
O O11 0.636461 0.451078 0.872908
O O12 0.266370 0.310522 0.248287
O O13 0.087467 0.458693 0.296931
O O14 0.382204 0.215271 0.454223
O O15 0.681034 0.438490 0.336641
O O16 0.000000 0.000000 0.500000
O O17 0.000000 0.500000 0.500000
#
# Coordination Sequence:
#
# PCOD9056299 Si02
#       8
#     2   2   2   2   2   2   2   2
#     4  11  26  43  66  95 128 176 218 264 322 380
#     4  11  23  40  66  95 128 168 212 261 326 379
#     4  11  24  44  67  96 131 168 218 266 321 385
#     4  11  24  44  68  94 129 171 221 269 314 380
#     4  11  23  43  65  96 131 166 219 267 322 379
#     4  11  24  40  63  96 131 164 212 264 322 386
#     4  11  24  41  65  96 132 170 208 265 326 388
#     4  11  22  37  63  95 126 167 208 259 324 380
#
# _framework density 21.663451999999999
#
# number of rings (size 3 to 8) (size 9 to 14) (size 15 to 20)
#    0.000    1.000    2.500    3.750    1.750    8.000 
#    0.000    0.000    0.000    0.000    0.000    0.000 
#    0.000    0.000    0.000    0.000    0.000    0.000 
#
# Total GULP energy -89480.942265 kJ/mol
# GULP energy per Si atom -5592.558892 kJ/mol
# Density = 2.161414 g / cm^3
# Si number density = 21.663452 Si / 1000 Ang^3
#
#
#
# Elastic Constant Matrix: (Units=GPa)
#
#
# Indices 1 2 3 4 5 6 
#
# 1 71.6892 10.6235 11.2547 2.9228 13.2776 8.4812
# 2 10.6235 93.7865 13.8097 -8.6656 8.4797 14.9886
# 3 11.2547 13.8097 67.5207 -4.8970 17.5261 8.0904
# 4 2.9228 -8.6656 -4.8970 26.3491 -0.8908 6.5042
# 5 13.2776 8.4797 17.5261 -0.8908 29.5943 -2.4640
# 6 8.4812 14.9886 8.0904 6.5042 -2.4640 31.1900
#
#
#
# Elastic Compliance Matrix: (Units=1/GPa)
#
#
# Indices 1 2 3 4 5 6 
#
# 1 0.015975 -0.000527 -0.000226 -0.001156 -0.007281 -0.004366
# 2 -0.000527 0.012848 -0.000233 0.005968 -0.003753 -0.007511
# 3 -0.000226 -0.000233 0.019025 0.004739 -0.011510 -0.006659
# 4 -0.001156 0.005968 0.004739 0.044072 -0.003776 -0.013272
# 5 -0.007281 -0.003753 -0.011510 -0.003776 0.045765 0.011172
# 6 -0.004366 -0.007511 -0.006659 -0.013272 0.011172 0.042236
#
#
# Mechanical properties :
#
#
# Convention : Reuss Voigt Hill
#
# Bulk Modulus (GPa) = 21.79796 33.81914 27.80855
# Shear Modulus (GPa) = 25.35709 30.58059 27.96884
#
# Velocity S-wave (km/s) = 3.42497 3.76123 3.59703
# Velocity P-wave (km/s) = 5.07193 5.87431 5.48781
#
# Compressibility (1/GPa) = 0.04587586
#
# Stress axis : x y z
#
# Youngs Moduli (GPa) = 62.59871 77.83545 52.56277
#
# Poissons Ratio (x) = 0.04102 0.01187
# Poissons Ratio (y) = 0.03299 0.01224
# Poissons Ratio (z) = 0.01413 0.01813
#
# Static dielectric constant tensor:
#      x y z
#    x 1.830880 -0.007490 0.004090 
#    y -0.007490 1.819390 0.011060 
#    z 0.004090 0.011060 1.760570 
# 
# From -- ./inp_files/68442.got.cif
#   From: 2010.05.17/outbox.cif.g08.bks.cpg/sg2_35_cif.got.tgz:68442.got - 2010.06.03 11:33:40.
