data_PCOD9056719
_publ_section_title
;
Structure prediction by ZEFSAII (Michael W. Deem and Ramdas Pophale) SiO2 
 PCOD9056719
Probable space group: P -1
;
_chemical_formula_sum "Si O2"
_cell_formula_units_Z 10
_cell_length_a 10.346614
_cell_length_b 12.707089
_cell_length_c 6.525523
_cell_angle_alpha 111.156237
_cell_angle_beta 40.512470
_cell_angle_gamma 128.624262
_cell_volume 424.361441
_symmetry_space_group_name_H-M "P -1"
_symmetry_group_IT_number 2
_symmetry_cell_setting 'triclinic'
loop_
_space_group_symop_operation_xyz
x,y,z
-x,-y,-z
loop_
_atom_site_type_symbol
_atom_site_label
_atom_site_fract_x
_atom_site_fract_y
_atom_site_fract_z
Si Si1 0.381339 0.117307 0.150890
Si Si2 0.321811 0.688418 0.716524
Si Si3 0.729242 0.140010 0.410737
Si Si4 0.913685 0.541560 0.434862
Si Si5 0.030204 0.174183 0.397570
O O1 0.451465 0.189520 0.340824
O O2 0.241028 0.162977 0.216616
O O3 0.204023 0.951416 0.280121
O O4 0.617846 0.163505 0.764579
O O5 0.203557 0.749727 0.766842
O O6 0.328097 0.589688 0.474198
O O7 0.137038 0.592922 0.048196
O O8 0.947148 0.136666 0.233826
O O9 0.500000 0.000000 0.500000
O O10 0.000000 0.500000 0.500000
O O11 0.894856 0.670426 0.564417
#
# Coordination Sequence:
#
# PCOD9056719 Si02
#       5
#     2   2   2   2   2
#     4  11  24  43  63 100 128 161 219 259 318 375
#     4  11  22  40  67  94 125 169 214 255 317 378
#     4  12  22  41  69  93 128 170 209 265 318 369
#     4  11  22  41  68  94 126 171 215 253 317 381
#     4  11  23  42  66  94 132 165 209 268 309 378
#
# _framework density 23.564817000000001
#
# number of rings (size 3 to 8) (size 9 to 14) (size 15 to 20)
#    0.000    0.800    6.000    1.800    0.000    1.600 
#    3.600    4.000    0.000    0.000    0.000    0.000 
#    0.000    0.000    0.000    0.000    0.000    0.000 
#
# Total GULP energy -55825.090547 kJ/mol
# GULP energy per Si atom -5582.509055 kJ/mol
# Density = 2.351118 g / cm^3
# Si number density = 23.564817 Si / 1000 Ang^3
#
#
#
# Elastic Constant Matrix: (Units=GPa)
#
#
# Indices 1 2 3 4 5 6 
#
# 1 206.2015 73.7670 26.6771 9.2489 37.8143 -21.2772
# 2 73.7670 156.8749 17.4452 3.3711 29.8635 -0.7449
# 3 26.6771 17.4452 57.2353 -14.8240 22.2306 -16.2477
# 4 9.2489 3.3711 -14.8240 24.5292 -6.4237 20.5561
# 5 37.8143 29.8635 22.2306 -6.4237 31.6003 -9.9320
# 6 -21.2772 -0.7449 -16.2477 20.5561 -9.9320 51.3117
#
#
#
# Elastic Compliance Matrix: (Units=1/GPa)
#
#
# Indices 1 2 3 4 5 6 
#
# 1 0.008097 -0.002062 -0.001469 -0.010170 -0.007021 0.005578
# 2 -0.002062 0.008540 0.000231 -0.000516 -0.006402 -0.001690
# 3 -0.001469 0.000231 0.027302 0.013227 -0.015032 -0.000169
# 4 -0.010170 -0.000516 0.013227 0.080864 0.010219 -0.030453
# 5 -0.007021 -0.006402 -0.015032 0.010219 0.058586 -0.000518
# 6 0.005578 -0.001690 -0.000169 -0.030453 -0.000518 0.033823
#
#
# Mechanical properties :
#
#
# Convention : Reuss Voigt Hill
#
# Bulk Modulus (GPa) = 26.78184 72.89895 49.84039
# Shear Modulus (GPa) = 21.16317 41.64972 31.40644
#
# Velocity S-wave (km/s) = 3.00005 4.20867 3.65467
# Velocity P-wave (km/s) = 4.83635 7.39053 6.24540
#
# Compressibility (1/GPa) = 0.03733874
#
# Stress axis : x y z
#
# Youngs Moduli (GPa) = 123.50768 117.09102 36.62688
#
# Poissons Ratio (x) = 0.24149 0.05381
# Poissons Ratio (y) = 0.25472 -0.00847
# Poissons Ratio (z) = 0.18144 -0.02706
#
# Static dielectric constant tensor:
#      x y z
#    x 1.976410 0.110390 -0.014590 
#    y 0.110390 2.036650 0.021910 
#    z -0.014590 0.021910 1.897610 
# 
# From -- ./inp_files/15968.got.cif
#   From: 2010.05.17/outbox.cif.g08.bks.cpg/sg2_8_cif.got.tgz:15968.got - 2010.06.03 11:33:40.
