data_PCOD9056748
_publ_section_title
;
Structure prediction by ZEFSAII (Michael W. Deem and Ramdas Pophale) SiO2 
 PCOD9056748
Probable space group: P -1
;
_chemical_formula_sum "Si O2"
_cell_formula_units_Z 14
_cell_length_a 13.171363
_cell_length_b 13.639356
_cell_length_c 7.154380
_cell_angle_alpha 89.439586
_cell_angle_beta 81.570527
_cell_angle_gamma 149.206157
_cell_volume 627.084853
_symmetry_space_group_name_H-M "P -1"
_symmetry_group_IT_number 2
_symmetry_cell_setting 'triclinic'
loop_
_space_group_symop_operation_xyz
x,y,z
-x,-y,-z
loop_
_atom_site_type_symbol
_atom_site_label
_atom_site_fract_x
_atom_site_fract_y
_atom_site_fract_z
Si Si1 0.900189 0.387888 0.228097
Si Si2 0.733907 0.601494 0.409129
Si Si3 0.475775 0.039749 0.196403
Si Si4 0.322494 0.412533 0.155669
Si Si5 0.048969 0.017631 0.271097
Si Si6 0.500641 0.707484 0.845883
Si Si7 0.996467 0.353075 0.538353
O O1 0.665578 0.158138 0.265712
O O2 0.022333 0.409590 0.317436
O O3 0.893395 0.478044 0.358357
O O4 0.000000 0.500000 0.000000
O O5 0.635106 0.553532 0.633584
O O6 0.585512 0.416551 0.316870
O O7 0.914493 0.678586 0.435371
O O8 0.851396 0.788536 0.269931
O O9 0.510312 0.184929 0.160119
O O10 0.246436 0.838914 0.343861
O O11 0.500000 0.000000 0.000000
O O12 0.109161 0.175766 0.177034
O O13 0.500000 0.500000 0.000000
O O14 0.354598 0.544938 0.054182
O O15 0.260652 0.129982 0.193560
O O16 0.000000 0.000000 0.500000
#
# Coordination Sequence:
#
# PCOD9056748 Si02
#       7
#     2   2   2   2   2   2   2
#     4  11  24  43  66  92 130 174 222 274 329 380
#     4  11  22  40  68  92 132 170 215 267 330 394
#     4  12  24  43  67  96 137 178 223 276 325 392
#     4   9  22  41  64  97 129 164 214 271 327 393
#     4   9  20  41  65  94 127 164 215 269 323 395
#     4  11  23  41  66  95 133 172 219 267 331 383
#     4  11  24  41  65  95 128 176 223 269 327 395
#
# _framework density 22.325527000000001
#
# number of rings (size 3 to 8) (size 9 to 14) (size 15 to 20)
#    0.000    1.429    4.286    0.429    2.000    5.714 
#    2.571    4.286    0.000    0.000    0.000    0.000 
#    0.000    0.000    0.000    0.000    0.000    0.000 
#
# Total GULP energy -78202.020133 kJ/mol
# GULP energy per Si atom -5585.858581 kJ/mol
# Density = 2.227471 g / cm^3
# Si number density = 22.325527 Si / 1000 Ang^3
#
#
#
# Elastic Constant Matrix: (Units=GPa)
#
#
# Indices 1 2 3 4 5 6 
#
# 1 47.1844 20.8028 20.8259 3.8564 -15.9109 -1.7702
# 2 20.8028 114.2276 53.1199 15.8037 -8.2016 -12.0404
# 3 20.8259 53.1199 133.6973 -3.2282 1.8592 -2.6682
# 4 3.8564 15.8037 -3.2282 31.3479 1.9371 -1.1564
# 5 -15.9109 -8.2016 1.8592 1.9371 32.0589 -4.9948
# 6 -1.7702 -12.0404 -2.6682 -1.1564 -4.9948 39.6649
#
#
#
# Elastic Compliance Matrix: (Units=1/GPa)
#
#
# Indices 1 2 3 4 5 6 
#
# 1 0.029172 -0.001454 -0.004227 -0.004129 0.014965 0.002340
# 2 -0.001454 0.013056 -0.005108 -0.007031 0.003938 0.003846
# 3 -0.004227 -0.005108 0.010306 0.004380 -0.004499 -0.001485
# 4 -0.004129 -0.007031 0.004380 0.036745 -0.006600 -0.001784
# 5 0.014965 0.003938 -0.004499 -0.006600 0.041311 0.006570
# 6 0.002340 0.003846 -0.001485 -0.001784 0.006570 0.027158
#
#
# Mechanical properties :
#
#
# Convention : Reuss Voigt Hill
#
# Bulk Modulus (GPa) = 32.30605 53.84518 43.07562
# Shear Modulus (GPa) = 26.36465 33.97173 30.16819
#
# Velocity S-wave (km/s) = 3.44018 3.90507 3.67997
# Velocity P-wave (km/s) = 5.50288 6.67108 6.11494
#
# Compressibility (1/GPa) = 0.03095395
#
# Stress axis : x y z
#
# Youngs Moduli (GPa) = 34.27918 76.59444 97.02664
#
# Poissons Ratio (x) = 0.11139 0.41017
# Poissons Ratio (y) = 0.04985 0.49566
# Poissons Ratio (z) = 0.14491 0.39128
#
# Static dielectric constant tensor:
#      x y z
#    x 1.929450 0.002410 0.056280 
#    y 0.002410 1.838570 -0.011160 
#    z 0.056280 -0.011160 1.846930 
# 
# From -- ./inp_files/98099.got.cif
#   From: 2010.05.17/outbox.cif.g08.bks.cpg/sg2_50_cif.got.tgz:98099.got - 2010.06.03 11:33:40.
