data_PCOD9056448
_publ_section_title
;
Structure prediction by ZEFSAII (Michael W. Deem and Ramdas Pophale) SiO2 
 PCOD9056448
Probable space group: P -1
;
_chemical_formula_sum "Si O2"
_cell_formula_units_Z 16
_cell_length_a 16.579081
_cell_length_b 24.516311
_cell_length_c 23.844180
_cell_angle_alpha 168.187875
_cell_angle_beta 157.104349
_cell_angle_gamma 23.981522
_cell_volume 763.082554
_symmetry_space_group_name_H-M "P -1"
_symmetry_group_IT_number 2
_symmetry_cell_setting 'triclinic'
loop_
_space_group_symop_operation_xyz
x,y,z
-x,-y,-z
loop_
_atom_site_type_symbol
_atom_site_label
_atom_site_fract_x
_atom_site_fract_y
_atom_site_fract_z
Si Si1 0.329011 0.985107 0.199820
Si Si2 0.114991 0.223961 0.771135
Si Si3 0.169536 0.105931 0.558345
Si Si4 0.172908 0.331035 0.280496
Si Si5 0.604126 0.207508 0.077609
Si Si6 0.934227 0.352834 0.035095
Si Si7 0.168073 0.491788 0.661864
Si Si8 0.523387 0.239662 0.715612
O O1 0.578530 0.005011 0.387231
O O2 0.166743 0.270238 0.387306
O O3 0.321949 0.863548 0.010289
O O4 0.261956 0.753872 0.964582
O O5 0.103266 0.212925 0.685260
O O6 0.361507 0.181851 0.900795
O O7 0.000000 0.000000 0.500000
O O8 0.000000 0.500000 0.000000
O O9 0.139918 0.359628 0.752105
O O10 0.027126 0.878040 0.220345
O O11 0.357569 0.498653 0.583296
O O12 0.088236 0.389736 0.222327
O O13 0.005528 0.421346 0.314232
O O14 0.251494 0.014510 0.016705
O O15 0.747490 0.227268 0.819321
O O16 0.342309 0.291527 0.606689
O O17 0.500000 0.000000 0.500000
O O18 0.500000 0.500000 0.000000
#
# Coordination Sequence:
#
# PCOD9056448 Si02
#       8
#     2   2   2   2   2   2   2   2
#     4  11  22  39  60  86 124 171 221 284 303 337
#     4  11  24  47  81 103 117 149 200 269 334 391
#     4  11  22  40  66 100 125 154 212 277 322 355
#     4  12  26  39  59  90 134 187 208 244 306 379
#     4  11  26  45  63  92 130 162 210 257 324 391
#     4  12  23  38  62  90 134 176 214 259 311 361
#     4  12  23  35  58  88 126 178 231 260 305 337
#     4  12  22  34  55  86 125 176 233 277 283 330
#
# _framework density 20.967587000000002
#
# number of rings (size 3 to 8) (size 9 to 14) (size 15 to 20)
#    0.000    0.500    3.750    5.250    1.750    7.000 
#    0.000    0.000    0.000   15.000    0.000    0.000 
#    0.000    0.000    0.000    0.000    0.000    0.000 
#
# Total GULP energy -89393.130281 kJ/mol
# GULP energy per Si atom -5587.070643 kJ/mol
# Density = 2.091986 g / cm^3
# Si number density = 20.967587 Si / 1000 Ang^3
#
#
#
# Elastic Constant Matrix: (Units=GPa)
#
#
# Indices 1 2 3 4 5 6 
#
# 1 92.6561 35.4780 24.0675 1.8435 -5.9336 -8.2032
# 2 35.4780 50.0336 7.0169 4.9783 1.3793 -5.0035
# 3 24.0675 7.0169 109.3604 13.5563 0.0823 -8.6837
# 4 1.8435 4.9783 13.5563 44.5784 3.6370 -5.9679
# 5 -5.9336 1.3793 0.0823 3.6370 45.5992 0.5767
# 6 -8.2032 -5.0035 -8.6837 -5.9679 0.5767 31.0098
#
#
#
# Elastic Compliance Matrix: (Units=1/GPa)
#
#
# Indices 1 2 3 4 5 6 
#
# 1 0.016026 -0.010984 -0.002858 0.001503 0.002279 0.001914
# 2 -0.010984 0.028092 0.001059 -0.002640 -0.002089 0.001454
# 3 -0.002858 0.001059 0.010196 -0.002852 -0.000217 0.001725
# 4 0.001503 -0.002640 -0.002852 0.024188 -0.001697 0.003860
# 5 0.002279 -0.002089 -0.000217 -0.001697 0.022432 -0.000539
# 6 0.001914 0.001454 0.001725 0.003860 -0.000539 0.034225
#
#
# Mechanical properties :
#
#
# Convention : Reuss Voigt Hill
#
# Bulk Modulus (GPa) = 34.78517 42.79722 38.79119
# Shear Modulus (GPa) = 29.35848 36.60334 32.98091
#
# Velocity S-wave (km/s) = 3.74596 4.18270 3.97034
# Velocity P-wave (km/s) = 5.94438 6.61681 6.28958
#
# Compressibility (1/GPa) = 0.02874789
#
# Stress axis : x y z
#
# Youngs Moduli (GPa) = 62.39736 35.59680 98.07921
#
# Poissons Ratio (x) = 0.39100 0.28034
# Poissons Ratio (y) = 0.68538 -0.10388
# Poissons Ratio (z) = 0.17835 -0.03770
#
# Static dielectric constant tensor:
#      x y z
#    x 1.846180 0.038110 -0.119220 
#    y 0.038110 1.798280 -0.040530 
#    z -0.119220 -0.040530 1.818930 
# 
# From -- ./inp_files/439260.got.cif
#   From: 2010.05.17/outbox.cif.g08.bks.cpg/sg2_220_cif.got.tgz:439260.got - 2010.06.03 11:33:40.
