data_PCOD9056837
_publ_section_title
;
Structure prediction by ZEFSAII (Michael W. Deem and Ramdas Pophale) SiO2 
 PCOD9056837
Probable space group: P -1
;
_chemical_formula_sum "Si O2"
_cell_formula_units_Z 16
_cell_length_a 12.018920
_cell_length_b 19.355281
_cell_length_c 8.396882
_cell_angle_alpha 95.890323
_cell_angle_beta 56.887713
_cell_angle_gamma 142.634475
_cell_volume 752.699547
_symmetry_space_group_name_H-M "P -1"
_symmetry_group_IT_number 2
_symmetry_cell_setting 'triclinic'
loop_
_space_group_symop_operation_xyz
x,y,z
-x,-y,-z
loop_
_atom_site_type_symbol
_atom_site_label
_atom_site_fract_x
_atom_site_fract_y
_atom_site_fract_z
Si Si1 0.225691 0.354070 0.793383
Si Si2 0.820035 0.287628 0.711950
Si Si3 0.559488 0.456422 0.847461
Si Si4 0.595840 0.314743 0.420195
Si Si5 0.688165 0.033812 0.962318
Si Si6 0.529908 0.287905 0.842244
Si Si7 0.023438 0.969181 0.313919
Si Si8 0.947259 0.363126 0.991211
O O1 0.500000 0.500000 0.500000
O O2 0.345564 0.362119 0.841996
O O3 0.951787 0.191138 0.885659
O O4 0.099601 0.368848 0.956494
O O5 0.767769 0.345410 0.740031
O O6 0.814213 0.276519 0.905661
O O7 0.117897 0.397111 0.439095
O O8 0.562420 0.125975 0.789917
O O9 0.524355 0.363877 0.932747
O O10 0.500000 0.500000 0.000000
O O11 0.583384 0.316529 0.619285
O O12 0.281488 0.180529 0.564884
O O13 0.807021 0.469347 0.215500
O O14 0.721066 0.298681 0.261486
O O15 0.842318 0.042963 0.750680
O O16 0.500000 0.000000 0.000000
O O17 0.234811 0.111386 0.069666
O O18 0.000000 0.000000 0.500000
#
# Coordination Sequence:
#
# PCOD9056837 Si02
#       8
#     2   2   2   2   2   2   2   2
#     4  12  23  43  69  98 140 181 232 279 344 406
#     4  11  23  45  67 101 135 182 225 285 338 409
#     4  12  27  44  67 100 139 183 227 280 348 405
#     4  11  23  41  68 101 133 179 233 280 341 400
#     4  11  22  40  71  97 135 176 223 286 344 393
#     4  11  24  44  71  95 140 175 228 281 345 402
#     4  11  25  43  68  99 136 181 229 281 338 410
#     4  11  23  40  70 100 133 177 234 281 336 406
#
# _framework density 21.256820999999999
#
# number of rings (size 3 to 8) (size 9 to 14) (size 15 to 20)
#    0.000    0.750    3.750    3.750    1.750    5.000 
#    0.000    0.625    0.000    0.000    0.000    0.000 
#    0.000    0.000    0.000    0.000    0.000    0.000 
#
# Total GULP energy -89387.696481 kJ/mol
# GULP energy per Si atom -5586.731030 kJ/mol
# Density = 2.120844 g / cm^3
# Si number density = 21.256821 Si / 1000 Ang^3
#
#
#
# Elastic Constant Matrix: (Units=GPa)
#
#
# Indices 1 2 3 4 5 6 
#
# 1 127.5764 46.2076 43.0130 3.7601 -38.7851 -18.8863
# 2 46.2076 124.3941 53.6731 -15.7047 -24.2950 -7.7828
# 3 43.0130 53.6731 96.3115 -3.5931 -34.0980 -3.4226
# 4 3.7601 -15.7047 -3.5931 37.6010 -2.5092 -16.5597
# 5 -38.7851 -24.2950 -34.0980 -2.5092 40.3904 2.6053
# 6 -18.8863 -7.7828 -3.4226 -16.5597 2.6053 41.5814
#
#
#
# Elastic Compliance Matrix: (Units=1/GPa)
#
#
# Indices 1 2 3 4 5 6 
#
# 1 0.012544 -0.001998 -0.000783 0.000655 0.009908 0.004899
# 2 -0.001998 0.012278 -0.005118 0.006449 0.001324 0.003455
# 3 -0.000783 -0.005118 0.017442 0.000108 0.010934 -0.000520
# 4 0.000655 0.006449 0.000108 0.036537 0.005857 0.015698
# 5 0.009908 0.001324 0.010934 0.005857 0.044328 0.005203
# 6 0.004899 0.003455 -0.000520 0.015698 0.005203 0.032804
#
#
# Mechanical properties :
#
#
# Convention : Reuss Voigt Hill
#
# Bulk Modulus (GPa) = 37.78288 70.45215 54.11751
# Shear Modulus (GPa) = 27.69274 37.60710 32.64992
#
# Velocity S-wave (km/s) = 3.61331 4.21072 3.92340
# Velocity P-wave (km/s) = 5.93473 7.54026 6.78515
#
# Compressibility (1/GPa) = 0.02646702
#
# Stress axis : x y z
#
# Youngs Moduli (GPa) = 79.71975 81.44436 57.33424
#
# Poissons Ratio (x) = 0.16269 0.04487
# Poissons Ratio (y) = 0.15924 0.29345
# Poissons Ratio (z) = 0.06239 0.41685
#
# Static dielectric constant tensor:
#      x y z
#    x 1.787230 -0.019390 -0.010920 
#    y -0.019390 1.851250 -0.047580 
#    z -0.010920 -0.047580 1.799370 
# 
# From -- ./inp_files/224061.got.cif
#   From: 2010.05.17/outbox.cif.g08.bks.cpg/sg2_113_cif.got.tgz:224061.got - 2010.06.03 11:33:40.
