data_PCOD9056916
_publ_section_title
;
Structure prediction by ZEFSAII (Michael W. Deem and Ramdas Pophale) SiO2 
 PCOD9056916
Probable space group: P -1
;
_chemical_formula_sum "Si O2"
_cell_formula_units_Z 15
_cell_length_a 9.602534
_cell_length_b 12.302914
_cell_length_c 10.937849
_cell_angle_alpha 120.637279
_cell_angle_beta 55.746711
_cell_angle_gamma 140.656305
_cell_volume 670.279759
_symmetry_space_group_name_H-M "P -1"
_symmetry_group_IT_number 2
_symmetry_cell_setting 'triclinic'
loop_
_space_group_symop_operation_xyz
x,y,z
-x,-y,-z
loop_
_atom_site_type_symbol
_atom_site_label
_atom_site_fract_x
_atom_site_fract_y
_atom_site_fract_z
Si Si1 0.475125 0.323534 0.280177
Si Si2 0.500000 0.500000 0.000000
Si Si3 0.992285 0.915827 0.725559
Si Si4 0.283292 0.047256 0.429675
Si Si5 0.325860 0.939872 0.753320
Si Si6 0.951593 0.674974 0.250023
Si Si7 0.346235 0.686167 0.066547
Si Si8 0.021412 0.201542 0.963486
O O1 0.685468 0.520112 0.330019
O O2 0.248305 0.272436 0.303227
O O3 0.373672 0.187372 0.361345
O O4 0.581309 0.294296 0.100000
O O5 0.623177 0.433176 0.953984
O O6 0.262400 0.303159 0.970808
O O7 0.146253 0.038023 0.603827
O O8 0.154517 0.908564 0.719513
O O9 0.926940 0.010784 0.880999
O O10 0.100091 0.853914 0.353201
O O11 0.507006 0.085469 0.387615
O O12 0.492956 0.131973 0.837149
O O13 0.159211 0.814460 0.874606
O O14 0.951867 0.720083 0.135606
O O15 0.091643 0.615981 0.158508
#
# Coordination Sequence:
#
# PCOD9056916 Si02
#       8
#     2   1   2   2   2   2   2   2
#     4  12  23  41  67  96 131 178 219 267 333 386
#     4  12  24  36  64 104 138 162 208 286 332 378
#     4  12  24  44  66  98 135 174 225 271 327 397
#     4  11  26  45  66  94 138 180 219 270 326 393
#     4  11  23  43  70  94 128 180 217 270 342 388
#     4  11  25  42  66  99 136 172 223 272 325 398
#     4  11  22  41  65 100 132 165 221 279 330 388
#     4  12  23  41  69 100 132 172 220 276 332 388
#
# _framework density 22.378717000000002
#
# number of rings (size 3 to 8) (size 9 to 14) (size 15 to 20)
#    0.000    0.533    5.333    3.200    1.867    2.667 
#    0.000    0.000    0.000    3.200    0.000    0.000 
#    0.000    0.000    0.000    0.000    0.000    0.000 
#
# Total GULP energy -83688.675519 kJ/mol
# GULP energy per Si atom -5579.245035 kJ/mol
# Density = 2.232778 g / cm^3
# Si number density = 22.378717 Si / 1000 Ang^3
#
#
#
# Elastic Constant Matrix: (Units=GPa)
#
#
# Indices 1 2 3 4 5 6 
#
# 1 140.9232 49.3448 17.0759 -12.0034 -18.8894 23.0193
# 2 49.3448 107.8465 7.0594 -18.1332 3.1379 22.7315
# 3 17.0759 7.0594 60.5008 -22.8703 -11.1513 2.4033
# 4 -12.0034 -18.1332 -22.8703 20.8913 4.1288 -4.1232
# 5 -18.8894 3.1379 -11.1513 4.1288 22.4969 -4.8254
# 6 23.0193 22.7315 2.4033 -4.1232 -4.8254 43.1666
#
#
#
# Elastic Compliance Matrix: (Units=1/GPa)
#
#
# Indices 1 2 3 4 5 6 
#
# 1 0.010231 -0.004685 -0.001376 -0.001783 0.008430 -0.002140
# 2 -0.004685 0.015044 0.004169 0.015491 -0.007894 -0.005058
# 3 -0.001376 0.004169 0.031305 0.035838 0.007428 0.001049
# 4 -0.001783 0.015491 0.035838 0.100358 -0.004334 -0.000101
# 5 0.008430 -0.007894 0.007428 -0.004334 0.058254 0.005346
# 6 -0.002140 -0.005058 0.001049 -0.000101 0.005346 0.027501
#
#
# Mechanical properties :
#
#
# Convention : Reuss Voigt Hill
#
# Bulk Modulus (GPa) = 18.94105 50.69232 34.81668
# Shear Modulus (GPa) = 18.93396 33.03032 25.98214
#
# Velocity S-wave (km/s) = 2.91188 3.84600 3.41107
# Velocity P-wave (km/s) = 4.44833 6.51333 5.57724
#
# Compressibility (1/GPa) = 0.05279540
#
# Stress axis : x y z
#
# Youngs Moduli (GPa) = 97.74252 66.47251 31.94336
#
# Poissons Ratio (x) = 0.31143 0.04396
# Poissons Ratio (y) = 0.45793 -0.13317
# Poissons Ratio (z) = 0.13452 -0.27712
#
# Static dielectric constant tensor:
#      x y z
#    x 1.811740 0.020160 0.027210 
#    y 0.020160 1.861520 0.014920 
#    z 0.027210 0.014920 1.826200 
# 
# From -- ./inp_files/292815.got.cif
#   From: 2010.05.17/outbox.cif.g08.bks.cpg/sg2_147_cif.got.tgz:292815.got - 2010.06.03 11:33:40.
