data_PCOD9056416
_publ_section_title
;
Structure prediction by ZEFSAII (Michael W. Deem and Ramdas Pophale) SiO2 
 PCOD9056416
Probable space group: P -1
;
_chemical_formula_sum "Si O2"
_cell_formula_units_Z 16
_cell_length_a 9.879823
_cell_length_b 15.812058
_cell_length_c 16.698437
_cell_angle_alpha 144.238458
_cell_angle_beta 147.927799
_cell_angle_gamma 37.167542
_cell_volume 757.664460
_symmetry_space_group_name_H-M "P -1"
_symmetry_group_IT_number 2
_symmetry_cell_setting 'triclinic'
loop_
_space_group_symop_operation_xyz
x,y,z
-x,-y,-z
loop_
_atom_site_type_symbol
_atom_site_label
_atom_site_fract_x
_atom_site_fract_y
_atom_site_fract_z
Si Si1 0.256915 0.161976 0.003045
Si Si2 0.677904 0.306087 0.374643
Si Si3 0.123310 0.633411 0.149448
Si Si4 0.781905 0.159765 0.883729
Si Si5 0.574350 0.616115 0.238092
Si Si6 0.459422 0.660845 0.493765
Si Si7 0.861494 0.825678 0.619096
Si Si8 0.997089 0.712041 0.769959
O O1 0.113202 0.215168 0.886696
O O2 0.031179 0.157675 0.949792
O O3 0.396722 0.283333 0.193182
O O4 0.500000 0.000000 0.000000
O O5 0.634322 0.481540 0.463979
O O6 0.713612 0.278859 0.466326
O O7 0.926156 0.193694 0.361395
O O8 0.341062 0.584362 0.148328
O O9 0.275539 0.664250 0.327310
O O10 0.000000 0.500000 0.000000
O O11 0.533070 0.309544 0.844521
O O12 0.732876 0.001370 0.719461
O O13 0.878853 0.178508 0.035403
O O14 0.648454 0.748675 0.424235
O O15 0.831459 0.460234 0.246871
O O16 0.679629 0.742931 0.651655
O O17 0.024812 0.727695 0.701174
#
# Coordination Sequence:
#
# PCOD9056416 Si02
#       8
#     2   2   2   2   2   2   2   2
#     4  11  22  40  65  89 128 172 210 254 327 389
#     4  11  22  38  68  94 128 174 216 260 326 385
#     4  11  23  41  67  96 128 164 217 275 315 379
#     4  11  25  42  64  93 136 171 213 266 324 387
#     4  11  24  41  67  97 129 171 219 264 323 385
#     4  11  22  41  67 100 127 165 223 271 315 378
#     4  12  23  42  68  94 130 176 212 266 328 383
#     4  12  23  42  69  98 129 168 219 273 314 381
#
# _framework density 21.117528
#
# number of rings (size 3 to 8) (size 9 to 14) (size 15 to 20)
#    0.000    0.750    6.250    2.250    0.000    0.000 
#    2.250    0.625    2.750    0.000    0.000    0.000 
#    0.000    0.000    0.000    0.000    0.000    0.000 
#
# Total GULP energy -89462.853390 kJ/mol
# GULP energy per Si atom -5591.428337 kJ/mol
# Density = 2.106946 g / cm^3
# Si number density = 21.117528 Si / 1000 Ang^3
#
#
#
# Elastic Constant Matrix: (Units=GPa)
#
#
# Indices 1 2 3 4 5 6 
#
# 1 44.6125 5.3398 21.8914 -7.9329 -2.3010 0.5296
# 2 5.3398 76.7763 12.3861 -17.9223 -1.4443 1.4496
# 3 21.8914 12.3861 90.9676 -4.6025 -7.3111 9.3088
# 4 -7.9329 -17.9223 -4.6025 35.2734 13.8349 -4.3957
# 5 -2.3010 -1.4443 -7.3111 13.8349 36.5494 -2.6932
# 6 0.5296 1.4496 9.3088 -4.3957 -2.6932 11.8184
#
#
#
# Elastic Compliance Matrix: (Units=1/GPa)
#
#
# Indices 1 2 3 4 5 6 
#
# 1 0.026846 0.000751 -0.007014 0.007040 -0.001875 0.006421
# 2 0.000751 0.015396 -0.002330 0.009238 -0.003113 0.002640
# 3 -0.007014 -0.002330 0.014196 -0.003390 0.002763 -0.011213
# 4 0.007040 0.009238 -0.003390 0.041586 -0.014627 0.013356
# 5 -0.001875 -0.003113 0.002763 -0.014627 0.033240 0.000424
# 6 0.006421 0.002640 -0.011213 0.013356 0.000424 0.097898
#
#
# Mechanical properties :
#
#
# Convention : Reuss Voigt Hill
#
# Bulk Modulus (GPa) = 25.47615 32.39898 28.93756
# Shear Modulus (GPa) = 19.27282 28.24419 23.75851
#
# Velocity S-wave (km/s) = 3.02428 3.66112 3.35783
# Velocity P-wave (km/s) = 4.92800 5.76604 5.36342
#
# Compressibility (1/GPa) = 0.03925240
#
# Stress axis : x y z
#
# Youngs Moduli (GPa) = 37.24931 64.94983 70.44154
#
# Poissons Ratio (x) = -0.04879 0.49410
# Poissons Ratio (y) = -0.02798 0.16413
# Poissons Ratio (z) = 0.26128 0.15134
#
# Static dielectric constant tensor:
#      x y z
#    x 1.739420 0.004920 0.015060 
#    y 0.004920 1.767250 0.007370 
#    z 0.015060 0.007370 1.793520 
# 
# From -- ./inp_files/186097.got.cif
#   From: 2010.05.17/outbox.cif.g08.bks.cpg/sg2_94_cif.got.tgz:186097.got - 2010.06.03 11:33:40.
