data_PCOD9056029
_publ_section_title
;
Structure prediction by ZEFSAII (Michael W. Deem and Ramdas Pophale) SiO2 
 PCOD9056029
Probable space group: P -1
;
_chemical_formula_sum "Si O2"
_cell_formula_units_Z 16
_cell_length_a 15.036307
_cell_length_b 7.091523
_cell_length_c 8.917418
_cell_angle_alpha 109.341859
_cell_angle_beta 113.573564
_cell_angle_gamma 47.505006
_cell_volume 639.972651
_symmetry_space_group_name_H-M "P -1"
_symmetry_group_IT_number 2
_symmetry_cell_setting 'triclinic'
loop_
_space_group_symop_operation_xyz
x,y,z
-x,-y,-z
loop_
_atom_site_type_symbol
_atom_site_label
_atom_site_fract_x
_atom_site_fract_y
_atom_site_fract_z
Si Si1 0.480856 0.684483 0.671203
Si Si2 0.734594 0.254974 0.890554
Si Si3 0.462720 0.167339 0.683194
Si Si4 0.926892 0.721174 0.720835
Si Si5 0.322606 0.691167 0.818919
Si Si6 0.953488 0.098613 0.328069
Si Si7 0.279299 0.269534 0.356922
Si Si8 0.100626 0.623583 0.065550
O O1 0.500000 0.500000 0.500000
O O2 0.610441 0.500178 0.798328
O O3 0.372887 0.757785 0.733893
O O4 0.457700 0.944676 0.676351
O O5 0.829657 0.318963 0.989313
O O6 0.814527 0.013123 0.771920
O O7 0.703431 0.181460 0.003349
O O8 0.423299 0.384058 0.831308
O O9 0.359360 0.324880 0.521915
O O10 0.601315 0.025250 0.677335
O O11 0.840680 0.644032 0.605339
O O12 0.002658 0.738521 0.651216
O O13 0.016903 0.588992 0.893332
O O14 0.191355 0.757717 0.718949
O O15 0.014886 0.864450 0.185644
O O16 0.000000 0.000000 0.500000
O O17 0.211558 0.402998 0.189353
#
# Coordination Sequence:
#
# PCOD9056029 Si02
#       8
#     2   2   2   2   2   2   2   2
#     4  12  26  44  75 101 134 189 231 282 347 406
#     4  11  22  45  67  98 138 181 230 283 340 412
#     4  11  25  45  67 106 139 175 232 290 339 404
#     4  11  22  43  71  99 132 182 234 275 348 414
#     4  12  25  46  67 101 145 177 228 284 346 409
#     4  11  24  41  67 100 136 179 225 286 341 407
#     4  11  23  43  69  99 133 176 231 291 338 405
#     4  11  21  45  69  94 135 182 230 278 344 413
#
# _framework density 25.001072000000001
#
# number of rings (size 3 to 8) (size 9 to 14) (size 15 to 20)
#    0.000    0.750    3.750    5.250    5.250    0.500 
#    4.500    1.250    0.000    0.000    0.000    0.000 
#    0.000    0.000    0.000    0.000    0.000    0.000 
#
# Total GULP energy -89398.064475 kJ/mol
# GULP energy per Si atom -5587.379030 kJ/mol
# Density = 2.494417 g / cm^3
# Si number density = 25.001072 Si / 1000 Ang^3
#
#
#
# Elastic Constant Matrix: (Units=GPa)
#
#
# Indices 1 2 3 4 5 6 
#
# 1 184.7520 34.7047 54.3895 -11.1299 -11.1242 -31.8759
# 2 34.7047 78.7306 23.3703 -13.7915 -5.5047 -22.0857
# 3 54.3895 23.3703 88.5141 -20.3700 -10.6034 -21.1579
# 4 -11.1299 -13.7915 -20.3700 48.9893 -9.0222 1.3215
# 5 -11.1242 -5.5047 -10.6034 -9.0222 44.6129 -6.5753
# 6 -31.8759 -22.0857 -21.1579 1.3215 -6.5753 51.2074
#
#
#
# Elastic Compliance Matrix: (Units=1/GPa)
#
#
# Indices 1 2 3 4 5 6 
#
# 1 0.007163 -0.001338 -0.003235 0.000065 0.001264 0.002706
# 2 -0.001338 0.016230 -0.000524 0.004500 0.003378 0.006268
# 3 -0.003235 -0.000524 0.016933 0.007001 0.005345 0.005262
# 4 0.000065 0.004500 0.007001 0.025986 0.008267 0.005265
# 5 0.001264 0.003378 0.005345 0.008267 0.027229 0.007735
# 6 0.002706 0.006268 0.005262 0.005265 0.007735 0.026948
#
#
# Mechanical properties :
#
#
# Convention : Reuss Voigt Hill
#
# Bulk Modulus (GPa) = 33.18867 64.10287 48.64577
# Shear Modulus (GPa) = 35.52962 44.93074 40.23018
#
# Velocity S-wave (km/s) = 3.77387 4.24388 4.01576
# Velocity P-wave (km/s) = 5.68271 7.05052 6.40324
#
# Compressibility (1/GPa) = 0.03013077
#
# Stress axis : x y z
#
# Youngs Moduli (GPa) = 139.59952 61.61476 59.05620
#
# Poissons Ratio (x) = 0.08247 0.19105
# Poissons Ratio (y) = 0.18685 0.03096
# Poissons Ratio (z) = 0.45161 0.03230
#
# Static dielectric constant tensor:
#      x y z
#    x 2.087920 0.073900 0.022950 
#    y 0.073900 1.978060 0.020900 
#    z 0.022950 0.020900 2.063340 
# 
# From -- ./inp_files/298878.got.cif
#   From: 2010.05.17/outbox.cif.g08.bks.cpg/sg2_150_cif.got.tgz:298878.got - 2010.06.03 11:33:40.
