data_PCOD9056246
_publ_section_title
;
Structure prediction by ZEFSAII (Michael W. Deem and Ramdas Pophale) SiO2 
 PCOD9056246
Probable space group: P -1
;
_chemical_formula_sum "Si O2"
_cell_formula_units_Z 16
_cell_length_a 14.946999
_cell_length_b 8.468634
_cell_length_c 16.023072
_cell_angle_alpha 29.693686
_cell_angle_beta 137.636422
_cell_angle_gamma 137.935863
_cell_volume 645.561598
_symmetry_space_group_name_H-M "P -1"
_symmetry_group_IT_number 2
_symmetry_cell_setting 'triclinic'
loop_
_space_group_symop_operation_xyz
x,y,z
-x,-y,-z
loop_
_atom_site_type_symbol
_atom_site_label
_atom_site_fract_x
_atom_site_fract_y
_atom_site_fract_z
Si Si1 0.671720 0.290142 0.307575
Si Si2 0.385942 0.259350 0.169738
Si Si3 0.945463 0.653201 0.734553
Si Si4 0.819908 0.706161 0.445277
Si Si5 0.120525 0.776531 0.412665
Si Si6 0.906495 0.842651 0.927282
Si Si7 0.717599 0.054082 0.939557
Si Si8 0.423904 0.990265 0.814917
O O1 0.530912 0.187019 0.312349
O O2 0.773182 0.082231 0.504496
O O3 0.632296 0.158235 0.247065
O O4 0.727660 0.705284 0.151764
O O5 0.248354 0.140466 0.182643
O O6 0.333721 0.108518 0.111649
O O7 0.418969 0.657449 0.014369
O O8 0.861114 0.595391 0.615595
O O9 0.845069 0.392725 0.851785
O O10 0.035012 0.041700 0.607702
O O11 0.080942 0.522255 0.892901
O O12 0.792452 0.409636 0.497200
O O13 0.684419 0.829489 0.307815
O O14 0.000000 0.500000 0.500000
O O15 0.048333 0.983777 0.209555
O O16 0.000000 0.000000 0.000000
O O17 0.589796 0.166048 0.839085
#
# Coordination Sequence:
#
# PCOD9056246 Si02
#       8
#     2   2   2   2   2   2   2   2
#     4   9  21  39  63  94 131 163 209 260 322 371
#     4   9  17  35  66  94 121 168 215 253 305 384
#     4  11  22  36  65  91 124 159 220 263 301 368
#     4  11  24  39  62  95 125 165 214 264 313 368
#     4  12  27  41  63  95 133 165 204 269 325 368
#     4  12  21  39  67  93 124 170 222 251 308 389
#     4   9  17  36  62  97 123 167 211 258 309 382
#     4   9  19  37  68  92 122 166 216 257 308 376
#
# _framework density 24.784618999999999
#
# number of rings (size 3 to 8) (size 9 to 14) (size 15 to 20)
#    0.000    1.750    3.750    2.250    5.250    1.000 
#    0.000    5.000    2.750    0.000    0.000    0.000 
#    0.000    0.000    0.000    0.000    0.000    0.000 
#
# Total GULP energy -89071.034102 kJ/mol
# GULP energy per Si atom -5566.939631 kJ/mol
# Density = 2.472821 g / cm^3
# Si number density = 24.784619 Si / 1000 Ang^3
#
#
#
# Elastic Constant Matrix: (Units=GPa)
#
#
# Indices 1 2 3 4 5 6 
#
# 1 117.9855 16.5953 15.9449 -17.1971 19.7093 26.4873
# 2 16.5953 32.2287 14.9831 -2.6662 -6.2577 20.0561
# 3 15.9449 14.9831 103.8142 7.8908 -4.4667 9.7314
# 4 -17.1971 -2.6662 7.8908 25.0762 4.9505 1.9258
# 5 19.7093 -6.2577 -4.4667 4.9505 34.0685 -7.0341
# 6 26.4873 20.0561 9.7314 1.9258 -7.0341 36.4934
#
#
#
# Elastic Compliance Matrix: (Units=1/GPa)
#
#
# Indices 1 2 3 4 5 6 
#
# 1 0.018095 0.001135 -0.003459 0.018262 -0.016888 -0.017054
# 2 0.001135 0.051498 -0.005712 0.010038 0.000819 -0.027975
# 3 -0.003459 -0.005712 0.011402 -0.007726 0.004366 0.003859
# 4 0.018262 0.010038 -0.007726 0.062510 -0.023900 -0.024617
# 5 -0.016888 0.000819 0.004366 -0.023900 0.047674 0.021094
# 6 -0.017054 -0.027975 0.003859 -0.024617 0.021094 0.059490
#
#
# Mechanical properties :
#
#
# Convention : Reuss Voigt Hill
#
# Bulk Modulus (GPa) = 15.40316 38.78612 27.09464
# Shear Modulus (GPa) = 17.33814 32.89464 25.11639
#
# Velocity S-wave (km/s) = 2.64777 3.64706 3.18683
# Velocity P-wave (km/s) = 3.94663 5.78082 4.94944
#
# Compressibility (1/GPa) = 0.06492175
#
# Stress axis : x y z
#
# Youngs Moduli (GPa) = 55.26401 19.41835 87.70651
#
# Poissons Ratio (x) = -0.02204 0.30339
# Poissons Ratio (y) = -0.06273 0.50100
# Poissons Ratio (z) = 0.19117 0.11092
#
# Static dielectric constant tensor:
#      x y z
#    x 2.105910 -0.049460 -0.085870 
#    y -0.049460 2.053430 0.030610 
#    z -0.085870 0.030610 2.054630 
# 
# From -- ./inp_files/529240.got.cif
#   From: 2010.05.17/outbox.cif.g08.bks.cpg/sg2_265_cif.got.tgz:529240.got - 2010.06.03 11:33:40.
