data_PCOD9056388
_publ_section_title
;
Structure prediction by ZEFSAII (Michael W. Deem and Ramdas Pophale) SiO2 
 PCOD9056388
Probable space group: P -1
;
_chemical_formula_sum "Si O2"
_cell_formula_units_Z 12
_cell_length_a 13.737439
_cell_length_b 18.678155
_cell_length_c 21.564327
_cell_angle_alpha 159.760030
_cell_angle_beta 21.846292
_cell_angle_gamma 147.702414
_cell_volume 698.104562
_symmetry_space_group_name_H-M "P -1"
_symmetry_group_IT_number 2
_symmetry_cell_setting 'triclinic'
loop_
_space_group_symop_operation_xyz
x,y,z
-x,-y,-z
loop_
_atom_site_type_symbol
_atom_site_label
_atom_site_fract_x
_atom_site_fract_y
_atom_site_fract_z
Si Si1 0.830936 0.591114 0.613146
Si Si2 0.907057 0.014061 0.233303
Si Si3 0.255033 0.088015 0.496328
Si Si4 0.701540 0.804302 0.300407
Si Si5 0.744938 0.323006 0.914712
Si Si6 0.830919 0.180929 0.202976
O O1 0.863548 0.405611 0.392843
O O2 0.000000 0.500000 0.500000
O O3 0.524456 0.651489 0.864880
O O4 0.939105 0.794657 0.692375
O O5 0.867857 0.890132 0.218122
O O6 0.611203 0.113912 0.463819
O O7 0.060932 0.866002 0.968261
O O8 0.242924 0.109445 0.594806
O O9 0.524438 0.159450 0.372863
O O10 0.999989 0.234622 0.734627
O O11 0.266200 0.850845 0.272819
O O12 0.757010 0.551375 0.066056
O O13 0.000000 0.000000 0.000000
#
# Coordination Sequence:
#
# PCOD9056388 Si02
#       6
#     2   2   2   2   2   2
#     4  12  20  36  63  88 113 155 199 243 285 346
#     4  11  24  38  59  94 120 150 196 246 299 345
#     4  11  22  38  65  88 115 157 204 239 288 354
#     4  11  23  40  60  88 126 152 186 253 302 339
#     4  11  22  38  65  88 115 157 204 239 288 354
#     4  12  20  36  63  88 113 155 199 243 285 346
#
# _framework density 17.189402999999999
#
# number of rings (size 3 to 8) (size 9 to 14) (size 15 to 20)
#    0.000    0.667    8.333    0.500    0.000    1.333 
#    0.000    5.000    0.000    0.000    0.000    0.000 
#    0.000    0.000    0.000    0.000    0.000    0.000 
#
# Total GULP energy -67070.713023 kJ/mol
# GULP energy per Si atom -5589.226085 kJ/mol
# Density = 1.715028 g / cm^3
# Si number density = 17.189403 Si / 1000 Ang^3
#
#
#
# Elastic Constant Matrix: (Units=GPa)
#
#
# Indices 1 2 3 4 5 6 
#
# 1 134.4303 102.2613 81.8952 14.9565 29.6238 -5.4503
# 2 102.2613 171.3843 84.8838 11.0677 18.4543 -5.9714
# 3 81.8952 84.8838 118.1862 0.4440 18.4739 3.5968
# 4 14.9565 11.0677 0.4440 36.3461 9.1061 5.2962
# 5 29.6238 18.4543 18.4739 9.1061 28.8633 -2.5613
# 6 -5.4503 -5.9714 3.5968 5.2962 -2.5613 30.9942
#
#
#
# Elastic Compliance Matrix: (Units=1/GPa)
#
#
# Indices 1 2 3 4 5 6 
#
# 1 0.019787 -0.006712 -0.007443 -0.003996 -0.009732 0.002929
# 2 -0.006712 0.011911 -0.004412 -0.001849 0.002874 0.002180
# 3 -0.007443 -0.004412 0.017393 0.005722 -0.002956 -0.005399
# 4 -0.003996 -0.001849 0.005722 0.033249 -0.009596 -0.008198
# 5 -0.009732 0.002874 -0.002956 -0.009596 0.048143 0.004804
# 6 0.002929 0.002180 -0.005399 -0.008198 0.004804 0.035623
#
#
# Mechanical properties :
#
#
# Convention : Reuss Voigt Hill
#
# Bulk Modulus (GPa) = 83.64310 106.89794 95.27052
# Shear Modulus (GPa) = 24.12810 29.57141 26.84976
#
# Velocity S-wave (km/s) = 3.75061 4.15218 3.95650
# Velocity P-wave (km/s) = 8.21714 9.23638 8.74163
#
# Compressibility (1/GPa) = 0.01195556
#
# Stress axis : x y z
#
# Youngs Moduli (GPa) = 50.53813 83.95619 57.49439
#
# Poissons Ratio (x) = 0.56350 0.42795
# Poissons Ratio (y) = 0.33921 0.25369
# Poissons Ratio (z) = 0.37617 0.37046
#
# Static dielectric constant tensor:
#      x y z
#    x 1.558680 0.017430 0.006200 
#    y 0.017430 1.564840 -0.000270 
#    z 0.006200 -0.000270 1.576250 
# 
# From -- ./inp_files/157075.got.cif
#   From: 2010.05.17/outbox.cif.g08.bks.cpg/sg2_79_cif.got.tgz:157075.got - 2010.06.03 11:33:40.
