data_PCOD9056147
_publ_section_title
;
Structure prediction by ZEFSAII (Michael W. Deem and Ramdas Pophale) SiO2 
 PCOD9056147
Probable space group: P -1
;
_chemical_formula_sum "Si O2"
_cell_formula_units_Z 16
_cell_length_a 13.532390
_cell_length_b 18.908343
_cell_length_c 9.798557
_cell_angle_alpha 25.265147
_cell_angle_beta 134.902865
_cell_angle_gamma 133.351518
_cell_volume 748.301628
_symmetry_space_group_name_H-M "P -1"
_symmetry_group_IT_number 2
_symmetry_cell_setting 'triclinic'
loop_
_space_group_symop_operation_xyz
x,y,z
-x,-y,-z
loop_
_atom_site_type_symbol
_atom_site_label
_atom_site_fract_x
_atom_site_fract_y
_atom_site_fract_z
Si Si1 0.108499 0.503045 0.722261
Si Si2 0.236162 0.901195 0.576579
Si Si3 0.392253 0.253716 0.046123
Si Si4 0.434492 0.836198 0.136425
Si Si5 0.697885 0.177088 0.526691
Si Si6 0.647052 0.488322 0.232895
Si Si7 0.666648 0.788101 0.243259
Si Si8 0.039353 0.348123 0.209359
O O1 0.184117 0.683956 0.535091
O O2 0.236658 0.430273 0.902702
O O3 0.000000 0.500000 0.500000
O O4 0.035590 0.405155 0.950038
O O5 0.281352 0.820929 0.620020
O O6 0.075942 0.816653 0.591727
O O7 0.270405 0.098227 0.233358
O O8 0.332328 0.871878 0.851114
O O9 0.538568 0.216245 0.320503
O O10 0.345626 0.414236 0.788080
O O11 0.410340 0.267080 0.878337
O O12 0.349713 0.703517 0.389631
O O13 0.561866 0.759198 0.320490
O O14 0.500000 0.000000 0.000000
O O15 0.705972 0.990885 0.914110
O O16 0.500000 0.500000 0.000000
O O17 0.803709 0.696960 0.539352
O O18 0.000000 0.500000 0.000000
#
# Coordination Sequence:
#
# PCOD9056147 Si02
#       8
#     2   2   2   2   2   2   2   2
#     4  12  27  47  69 101 150 190 235 297 363 421
#     4  11  23  45  72  98 144 185 233 304 348 427
#     4  11  23  43  74 110 138 181 245 295 362 418
#     4  12  24  43  72 107 142 186 244 296 359 422
#     4  11  21  47  73 104 144 182 240 298 357 425
#     4  12  25  40  67 101 141 188 233 297 359 420
#     4  11  25  43  75 106 138 190 237 296 360 426
#     4  12  28  48  69 108 144 187 245 294 352 434
#
# _framework density 21.381754000000001
#
# number of rings (size 3 to 8) (size 9 to 14) (size 15 to 20)
#    0.000    0.500    5.000    3.750    3.500    3.500 
#    0.000    1.875    0.000    0.000    0.000    0.000 
#    0.000    0.000    0.000    0.000    0.000    0.000 
#
# Total GULP energy -89465.058265 kJ/mol
# GULP energy per Si atom -5591.566142 kJ/mol
# Density = 2.133309 g / cm^3
# Si number density = 21.381754 Si / 1000 Ang^3
#
#
#
# Elastic Constant Matrix: (Units=GPa)
#
#
# Indices 1 2 3 4 5 6 
#
# 1 110.4325 17.7968 13.2661 0.7509 -9.4557 -2.3965
# 2 17.7968 114.9377 14.7374 1.9377 0.0280 -12.5676
# 3 13.2661 14.7374 50.9084 13.3661 -4.3612 -10.8013
# 4 0.7509 1.9377 13.3661 38.2282 1.8310 2.0548
# 5 -9.4557 0.0280 -4.3612 1.8310 41.4594 2.0028
# 6 -2.3965 -12.5676 -10.8013 2.0548 2.0028 36.3938
#
#
#
# Elastic Compliance Matrix: (Units=1/GPa)
#
#
# Indices 1 2 3 4 5 6 
#
# 1 0.009687 -0.001287 -0.002275 0.000610 0.001974 -0.000625
# 2 -0.001287 0.009432 -0.001919 0.000107 -0.000634 0.002632
# 3 -0.002275 -0.001919 0.024815 -0.009011 0.002155 0.006942
# 4 0.000610 0.000107 -0.009011 0.029607 -0.001915 -0.004163
# 5 0.001974 -0.000634 0.002155 -0.001915 0.024916 -0.000712
# 6 -0.000625 0.002632 0.006942 -0.004163 -0.000712 0.030679
#
#
# Mechanical properties :
#
#
# Convention : Reuss Voigt Hill
#
# Bulk Modulus (GPa) = 30.32965 40.87545 35.60255
# Shear Modulus (GPa) = 33.09265 38.58151 35.83708
#
# Velocity S-wave (km/s) = 3.93836 4.25245 4.09841
# Velocity P-wave (km/s) = 5.90733 6.57796 6.25164
#
# Compressibility (1/GPa) = 0.03297103
#
# Stress axis : x y z
#
# Youngs Moduli (GPa) = 103.22667 106.02385 40.29828
#
# Poissons Ratio (x) = 0.13649 0.09169
# Poissons Ratio (y) = 0.13289 0.07733
# Poissons Ratio (z) = 0.23487 0.20346
#
# Static dielectric constant tensor:
#      x y z
#    x 1.785020 -0.016380 0.003870 
#    y -0.016380 1.751850 -0.021010 
#    z 0.003870 -0.021010 1.761810 
# 
# From -- ./inp_files/188467.got.cif
#   From: 2010.05.17/outbox.cif.g08.bks.cpg/sg2_95_cif.got.tgz:188467.got - 2010.06.03 11:33:40.
