data_PCOD9056256
_publ_section_title
;
Structure prediction by ZEFSAII (Michael W. Deem and Ramdas Pophale) SiO2 
 PCOD9056256
Probable space group: P -1
;
_chemical_formula_sum "Si O2"
_cell_formula_units_Z 16
_cell_length_a 17.664001
_cell_length_b 9.390509
_cell_length_c 11.018516
_cell_angle_alpha 110.934575
_cell_angle_beta 148.108232
_cell_angle_gamma 53.459966
_cell_volume 726.973170
_symmetry_space_group_name_H-M "P -1"
_symmetry_group_IT_number 2
_symmetry_cell_setting 'triclinic'
loop_
_space_group_symop_operation_xyz
x,y,z
-x,-y,-z
loop_
_atom_site_type_symbol
_atom_site_label
_atom_site_fract_x
_atom_site_fract_y
_atom_site_fract_z
Si Si1 0.228461 0.916265 0.235595
Si Si2 0.394504 0.940613 0.766199
Si Si3 0.927054 0.458013 0.504389
Si Si4 0.444067 0.778977 0.262789
Si Si5 0.431977 0.477640 0.029272
Si Si6 0.734078 0.799110 0.540400
Si Si7 0.926041 0.912080 0.284044
Si Si8 0.099598 0.941438 0.316273
O O1 0.400434 0.824382 0.358785
O O2 0.227316 0.837798 0.341810
O O3 0.157824 0.135740 0.223877
O O4 0.088843 0.913913 0.960656
O O5 0.473997 0.732459 0.857277
O O6 0.183765 0.037228 0.524067
O O7 0.399981 0.006338 0.658814
O O8 0.500000 0.000000 0.000000
O O9 0.843028 0.627718 0.540938
O O10 0.000000 0.500000 0.500000
O O11 0.066538 0.257302 0.696401
O O12 0.770316 0.444213 0.242846
O O13 0.465418 0.589143 0.203705
O O14 0.614892 0.766748 0.451366
O O15 0.270476 0.934260 0.991459
O O16 0.500000 0.500000 0.000000
O O17 0.063764 0.835794 0.334526
O O18 0.000000 0.000000 0.500000
#
# Coordination Sequence:
#
# PCOD9056256 Si02
#       8
#     2   2   2   2   2   2   2   2
#     4   9  21  43  70  94 127 186 228 265 332 398
#     4  11  22  36  67  97 131 173 213 269 344 398
#     4  12  27  39  63 102 139 175 220 278 340 402
#     4  11  23  42  70  98 132 177 227 276 331 407
#     4  12  23  40  64 100 137 175 216 278 347 403
#     4  11  24  43  68  93 139 178 222 280 328 398
#     4  11  24  38  66  99 132 174 219 273 341 405
#     4   9  21  40  66  92 133 169 225 267 333 386
#
# _framework density 22.009065
#
# number of rings (size 3 to 8) (size 9 to 14) (size 15 to 20)
#    0.000    1.250    3.750    1.125    7.000    1.000 
#    0.000    5.000    5.500    0.000    0.000    0.000 
#    0.000    0.000    0.000    0.000    0.000    0.000 
#
# Total GULP energy -89235.537910 kJ/mol
# GULP energy per Si atom -5577.221119 kJ/mol
# Density = 2.195897 g / cm^3
# Si number density = 22.009065 Si / 1000 Ang^3
#
#
#
# Elastic Constant Matrix: (Units=GPa)
#
#
# Indices 1 2 3 4 5 6 
#
# 1 177.5242 57.3108 7.7897 2.4915 10.5918 6.5317
# 2 57.3108 128.5807 15.6215 7.1484 -2.7027 21.0313
# 3 7.7897 15.6215 73.0060 13.6089 11.0620 7.4797
# 4 2.4915 7.1484 13.6089 30.0920 11.2086 -3.7705
# 5 10.5918 -2.7027 11.0620 11.2086 34.6178 4.8325
# 6 6.5317 21.0313 7.4797 -3.7705 4.8325 33.7605
#
#
#
# Elastic Compliance Matrix: (Units=1/GPa)
#
#
# Indices 1 2 3 4 5 6 
#
# 1 0.006853 -0.003444 0.000035 0.001561 -0.003082 0.001427
# 2 -0.003444 0.010952 -0.001136 -0.004438 0.004696 -0.007073
# 3 0.000035 -0.001136 0.015836 -0.006285 -0.002689 -0.003125
# 4 0.001561 -0.004438 -0.006285 0.043752 -0.014492 0.010816
# 5 -0.003082 0.004696 -0.002689 -0.014492 0.036954 -0.008642
# 6 0.001427 -0.007073 -0.003125 0.010816 -0.008642 0.036888
#
#
# Mechanical properties :
#
#
# Convention : Reuss Voigt Hill
#
# Bulk Modulus (GPa) = 40.72819 60.06165 50.39492
# Shear Modulus (GPa) = 29.67238 39.58663 34.62951
#
# Velocity S-wave (km/s) = 3.67575 4.24565 3.97094
# Velocity P-wave (km/s) = 6.04651 7.16818 6.63110
#
# Compressibility (1/GPa) = 0.02455302
#
# Stress axis : x y z
#
# Youngs Moduli (GPa) = 145.92909 91.30394 63.14789
#
# Poissons Ratio (x) = 0.31442 -0.00223
# Poissons Ratio (y) = 0.50253 0.07171
# Poissons Ratio (z) = -0.00516 0.10369
#
# Static dielectric constant tensor:
#      x y z
#    x 1.861050 -0.043640 -0.038610 
#    y -0.043640 1.868180 -0.002750 
#    z -0.038610 -0.002750 1.942900 
# 
# From -- ./inp_files/188331.got.cif
#   From: 2010.05.17/outbox.cif.g08.bks.cpg/sg2_95_cif.got.tgz:188331.got - 2010.06.03 11:33:40.
