data_PCOD9056254
_publ_section_title
;
Structure prediction by ZEFSAII (Michael W. Deem and Ramdas Pophale) SiO2 
 PCOD9056254
Probable space group: P -1
;
_chemical_formula_sum "Si O2"
_cell_formula_units_Z 16
_cell_length_a 13.838498
_cell_length_b 6.579889
_cell_length_c 14.336128
_cell_angle_alpha 61.543935
_cell_angle_beta 117.919469
_cell_angle_gamma 73.883794
_cell_volume 775.368351
_symmetry_space_group_name_H-M "P -1"
_symmetry_group_IT_number 2
_symmetry_cell_setting 'triclinic'
loop_
_space_group_symop_operation_xyz
x,y,z
-x,-y,-z
loop_
_atom_site_type_symbol
_atom_site_label
_atom_site_fract_x
_atom_site_fract_y
_atom_site_fract_z
Si Si1 0.571035 0.271769 0.668749
Si Si2 0.487801 0.640788 0.866864
Si Si3 0.854360 0.566727 0.947805
Si Si4 0.834461 0.627438 0.143332
Si Si5 0.926877 0.675753 0.525107
Si Si6 0.722311 0.293740 0.905069
Si Si7 0.310586 0.321906 0.618018
Si Si8 0.259896 0.623878 0.713194
O O1 0.500000 0.500000 0.500000
O O2 0.630642 0.365463 0.754953
O O3 0.436466 0.304129 0.636819
O O4 0.710905 0.919310 0.787754
O O5 0.625356 0.517686 0.897385
O O6 0.406524 0.564419 0.783225
O O7 0.393860 0.990295 0.769499
O O8 0.500000 0.500000 0.000000
O O9 0.836131 0.345807 0.935077
O O10 0.864498 0.512766 0.076031
O O11 0.000000 0.500000 0.000000
O O12 0.731170 0.583402 0.157761
O O13 0.966973 0.444221 0.314330
O O14 0.779410 0.965591 0.035543
O O15 0.808515 0.642657 0.506020
O O16 0.000000 0.500000 0.500000
O O17 0.854264 0.021419 0.395032
O O18 0.230286 0.557583 0.613928
#
# Coordination Sequence:
#
# PCOD9056254 Si02
#       8
#     2   2   2   2   2   2   2   2
#     4  11  26  47  71 102 133 182 236 293 346 408
#     4  11  22  36  66  99 136 177 216 273 342 411
#     4  11  27  49  70  98 135 180 236 293 349 409
#     4  11  25  41  68 100 137 183 224 280 341 412
#     4  11  25  40  63 102 144 187 226 268 341 422
#     4  11  24  44  70  98 135 173 233 279 345 415
#     4  11  23  42  65  99 137 176 230 278 340 409
#     4  11  23  39  65 100 141 179 223 279 340 411
#
# _framework density 20.635352000000001
#
# number of rings (size 3 to 8) (size 9 to 14) (size 15 to 20)
#    0.000    1.000    3.750    1.875    5.250    6.500 
#    0.000    0.000    0.000    0.000    0.000    0.000 
#    0.000    0.000    0.000    0.000    0.000    0.000 
#
# Total GULP energy -89275.971955 kJ/mol
# GULP energy per Si atom -5579.748247 kJ/mol
# Density = 2.058838 g / cm^3
# Si number density = 20.635352 Si / 1000 Ang^3
#
#
#
# Elastic Constant Matrix: (Units=GPa)
#
#
# Indices 1 2 3 4 5 6 
#
# 1 132.6689 43.0912 44.3055 -1.2671 7.0196 26.1764
# 2 43.0912 97.0894 27.7276 -4.7133 -3.1607 20.6157
# 3 44.3055 27.7276 96.8959 15.4924 -19.1669 12.8201
# 4 -1.2671 -4.7133 15.4924 20.3500 4.0791 3.1540
# 5 7.0196 -3.1607 -19.1669 4.0791 23.9127 3.1943
# 6 26.1764 20.6157 12.8201 3.1540 3.1943 32.2581
#
#
#
# Elastic Compliance Matrix: (Units=1/GPa)
#
#
# Indices 1 2 3 4 5 6 
#
# 1 0.012851 -0.001980 -0.008521 0.010067 -0.011834 -0.005589
# 2 -0.001980 0.013839 -0.003405 0.006803 -0.000612 -0.006489
# 3 -0.008521 -0.003405 0.024433 -0.025016 0.026003 -0.000749
# 4 0.010067 0.006803 -0.025016 0.078372 -0.034566 -0.006814
# 5 -0.011834 -0.000612 0.026003 -0.034566 0.072503 -0.004139
# 6 -0.005589 -0.006489 -0.000749 -0.006814 -0.004139 0.041056
#
#
# Mechanical properties :
#
#
# Convention : Reuss Voigt Hill
#
# Bulk Modulus (GPa) = 42.89647 61.87810 52.38729
# Shear Modulus (GPa) = 17.94447 29.40616 23.67531
#
# Velocity S-wave (km/s) = 2.95209 3.77906 3.39088
# Velocity P-wave (km/s) = 5.69674 7.00666 6.38538
#
# Compressibility (1/GPa) = 0.02331194
#
# Stress axis : x y z
#
# Youngs Moduli (GPa) = 77.81316 72.25834 40.92792
#
# Poissons Ratio (x) = 0.14309 0.34873
# Poissons Ratio (y) = 0.15409 0.13936
# Poissons Ratio (z) = 0.66302 0.24604
#
# Static dielectric constant tensor:
#      x y z
#    x 1.774840 0.060600 0.060740 
#    y 0.060600 1.756550 0.001800 
#    z 0.060740 0.001800 1.711940 
# 
# From -- ./inp_files/525218.got.cif
#   From: 2010.05.17/outbox.cif.g08.bks.cpg/sg2_263_cif.got.tgz:525218.got - 2010.06.03 11:33:40.
