data_PCOD9056618
_publ_section_title
;
Structure prediction by ZEFSAII (Michael W. Deem and Ramdas Pophale) SiO2 
 PCOD9056618
Probable space group: P -1
;
_chemical_formula_sum "Si O2"
_cell_formula_units_Z 12
_cell_length_a 22.896827
_cell_length_b 5.179443
_cell_length_c 28.891788
_cell_angle_alpha 54.663302
_cell_angle_beta 169.676022
_cell_angle_gamma 125.448486
_cell_volume 499.514735
_symmetry_space_group_name_H-M "P -1"
_symmetry_group_IT_number 2
_symmetry_cell_setting 'triclinic'
loop_
_space_group_symop_operation_xyz
x,y,z
-x,-y,-z
loop_
_atom_site_type_symbol
_atom_site_label
_atom_site_fract_x
_atom_site_fract_y
_atom_site_fract_z
Si Si1 0.654525 0.573034 0.851105
Si Si2 0.228740 0.706238 0.876805
Si Si3 0.504391 0.691953 0.340030
Si Si4 0.281643 0.233838 0.671449
Si Si5 0.613227 0.368625 0.553214
Si Si6 0.275393 0.357592 0.797797
O O1 0.713598 0.463514 0.855635
O O2 0.405790 0.301662 0.708986
O O3 0.522127 0.927009 0.715368
O O4 0.992080 0.589689 0.141156
O O5 0.862441 0.589915 0.613481
O O6 0.221988 0.985707 0.805235
O O7 0.395424 0.817523 0.042765
O O8 0.516278 0.520929 0.097059
O O9 0.465388 0.544407 0.375879
O O10 0.091597 0.547296 0.499464
O O11 0.000000 0.000000 0.500000
O O12 0.500000 0.500000 0.500000
O O13 0.500000 0.000000 0.500000
O O14 0.500000 0.500000 0.000000
#
# Coordination Sequence:
#
# PCOD9056618 Si02
#       6
#     2   2   2   2   2   2
#     4  12  28  49  77 114 152 197 250 303 374 446
#     4  11  24  40  64  97 143 195 241 303 354 430
#     4  12  27  49  77 110 153 193 245 313 378 445
#     4  12  24  42  67 106 147 203 247 298 358 434
#     4  12  28  54  82 114 146 189 248 316 385 454
#     4  11  22  40  61  95 138 189 251 294 353 421
#
# _framework density 24.023313999999999
#
# number of rings (size 3 to 8) (size 9 to 14) (size 15 to 20)
#    0.000    0.333    5.000    3.500    2.333    5.333 
#    3.000    0.000    0.000    0.000    0.000    0.000 
#    0.000    0.000    0.000    0.000    0.000    0.000 
#
# Total GULP energy -66941.140859 kJ/mol
# GULP energy per Si atom -5578.428405 kJ/mol
# Density = 2.396864 g / cm^3
# Si number density = 24.023314 Si / 1000 Ang^3
#
#
#
# Elastic Constant Matrix: (Units=GPa)
#
#
# Indices 1 2 3 4 5 6 
#
# 1 163.4674 62.7950 12.6573 2.9252 -8.6570 17.5689
# 2 62.7950 86.0133 13.8856 14.4480 -13.5263 14.0749
# 3 12.6573 13.8856 81.4817 10.1497 -11.5733 9.9114
# 4 2.9252 14.4480 10.1497 30.3095 -0.2653 -5.9756
# 5 -8.6570 -13.5263 -11.5733 -0.2653 44.9818 2.0222
# 6 17.5689 14.0749 9.9114 -5.9756 2.0222 39.1140
#
#
#
# Elastic Compliance Matrix: (Units=1/GPa)
#
#
# Indices 1 2 3 4 5 6 
#
# 1 0.008725 -0.006543 -0.000428 0.002200 -0.000336 -0.001103
# 2 -0.006543 0.019824 0.000346 -0.010089 0.005005 -0.006082
# 3 -0.000428 0.000346 0.014090 -0.005710 0.003819 -0.004572
# 4 0.002200 -0.010089 -0.005710 0.041567 -0.004314 0.010663
# 5 -0.000336 0.005005 0.003819 -0.004314 0.024834 -0.004561
# 6 -0.001103 -0.006082 -0.004572 0.010663 -0.004561 0.031274
#
#
# Mechanical properties :
#
#
# Convention : Reuss Voigt Hill
#
# Bulk Modulus (GPa) = 34.02607 56.62650 45.32629
# Shear Modulus (GPa) = 30.60723 38.98935 34.79829
#
# Velocity S-wave (km/s) = 3.57328 4.03299 3.81007
# Velocity P-wave (km/s) = 5.58739 6.73122 6.18580
#
# Compressibility (1/GPa) = 0.02938923
#
# Stress axis : x y z
#
# Youngs Moduli (GPa) = 114.60913 50.44382 70.97204
#
# Poissons Ratio (x) = 0.33004 0.03037
# Poissons Ratio (y) = 0.74986 -0.02453
# Poissons Ratio (z) = 0.04904 -0.01743
#
# Static dielectric constant tensor:
#      x y z
#    x 2.100380 -0.138240 0.222660 
#    y -0.138240 2.059570 -0.193550 
#    z 0.222660 -0.193550 2.245140 
# 
# From -- ./inp_files/5712.got.cif
#   From: 2010.05.17/outbox.cif.g08.bks.cpg/sg2_3_cif.got.tgz:5712.got - 2010.06.03 11:33:40.
