data_PCOD9056426
_publ_section_title
;
Structure prediction by ZEFSAII (Michael W. Deem and Ramdas Pophale) SiO2 
 PCOD9056426
Probable space group: P -1
;
_chemical_formula_sum "Si O2"
_cell_formula_units_Z 16
_cell_length_a 10.851812
_cell_length_b 11.933941
_cell_length_c 9.314102
_cell_angle_alpha 57.527418
_cell_angle_beta 126.070313
_cell_angle_gamma 125.089688
_cell_volume 761.030613
_symmetry_space_group_name_H-M "P -1"
_symmetry_group_IT_number 2
_symmetry_cell_setting 'triclinic'
loop_
_space_group_symop_operation_xyz
x,y,z
-x,-y,-z
loop_
_atom_site_type_symbol
_atom_site_label
_atom_site_fract_x
_atom_site_fract_y
_atom_site_fract_z
Si Si1 0.512245 0.526445 0.161070
Si Si2 0.342025 0.939657 0.070150
Si Si3 0.779241 0.697213 0.702045
Si Si4 0.121132 0.323931 0.653505
Si Si5 0.987139 0.262988 0.919847
Si Si6 0.015518 0.583899 0.757410
Si Si7 0.611362 0.223649 0.034626
Si Si8 0.835644 0.909085 0.361246
O O1 0.375522 0.407074 0.243469
O O2 0.696662 0.554530 0.314684
O O3 0.500000 0.500000 0.000000
O O4 0.481160 0.670907 0.070793
O O5 0.391204 0.822820 0.100421
O O6 0.256249 0.001831 0.842945
O O7 0.196273 0.855262 0.135498
O O8 0.501530 0.073030 0.139930
O O9 0.875717 0.617646 0.727401
O O10 0.732888 0.796555 0.490029
O O11 0.911409 0.781324 0.857384
O O12 0.002378 0.381009 0.444868
O O13 0.120635 0.183730 0.666921
O O14 0.075466 0.288337 0.810923
O O15 0.990924 0.418234 0.867062
O O16 0.197652 0.690999 0.854533
O O17 0.000000 0.000000 0.500000
#
# Coordination Sequence:
#
# PCOD9056426 Si02
#       8
#     2   2   2   2   2   2   2   2
#     4  12  23  42  66 102 132 165 219 280 328 382
#     4  11  23  40  67  96 130 174 221 267 324 391
#     4  11  22  38  69  96 127 172 223 262 328 388
#     4  11  25  41  66  97 133 170 215 279 331 380
#     4  12  21  41  68  99 126 178 218 267 332 401
#     4  11  22  42  69  94 132 173 226 271 321 387
#     4  11  22  42  67  91 132 174 216 270 321 391
#     4  11  22  42  62  94 130 168 219 270 322 391
#
# _framework density 21.024121000000001
#
# number of rings (size 3 to 8) (size 9 to 14) (size 15 to 20)
#    0.000    0.750    6.250    2.250    0.000    2.500 
#    6.750    0.625    0.000    0.000    0.000    0.000 
#    0.000    0.000    0.000    0.000    0.000    0.000 
#
# Total GULP energy -89403.007050 kJ/mol
# GULP energy per Si atom -5587.687941 kJ/mol
# Density = 2.097627 g / cm^3
# Si number density = 21.024121 Si / 1000 Ang^3
#
#
#
# Elastic Constant Matrix: (Units=GPa)
#
#
# Indices 1 2 3 4 5 6 
#
# 1 88.2660 39.3941 24.5518 -7.0214 -20.1382 30.1975
# 2 39.3941 99.2718 13.6023 -3.1096 -6.2936 31.4663
# 3 24.5518 13.6023 80.0509 -0.9774 -8.6646 -6.7840
# 4 -7.0214 -3.1096 -0.9774 17.5276 3.8928 4.9679
# 5 -20.1382 -6.2936 -8.6646 3.8928 32.4603 1.2990
# 6 30.1975 31.4663 -6.7840 4.9679 1.2990 41.9085
#
#
#
# Elastic Compliance Matrix: (Units=1/GPa)
#
#
# Indices 1 2 3 4 5 6 
#
# 1 0.024480 -0.001296 -0.007479 0.012009 0.012287 -0.019682
# 2 -0.001296 0.014769 -0.002879 0.004868 0.001157 -0.011234
# 3 -0.007479 -0.002879 0.016051 -0.005528 -0.000684 0.010826
# 4 0.012009 0.004868 -0.005528 0.068561 -0.000451 -0.021316
# 5 0.012287 0.001157 -0.000684 -0.000451 0.038965 -0.010987
# 6 -0.019682 -0.011234 0.010826 -0.021316 -0.010987 0.051098
#
#
# Mechanical properties :
#
#
# Convention : Reuss Voigt Hill
#
# Bulk Modulus (GPa) = 31.25908 46.96501 39.11204
# Shear Modulus (GPa) = 20.16962 31.04864 25.60913
#
# Velocity S-wave (km/s) = 3.10071 3.84710 3.49389
# Velocity P-wave (km/s) = 5.26495 6.49004 5.90933
#
# Compressibility (1/GPa) = 0.03199071
#
# Stress axis : x y z
#
# Youngs Moduli (GPa) = 40.84908 67.70984 62.30071
#
# Poissons Ratio (x) = 0.08776 0.46597
# Poissons Ratio (y) = 0.05294 0.17939
# Poissons Ratio (z) = 0.30552 0.19497
#
# Static dielectric constant tensor:
#      x y z
#    x 1.767870 0.018580 0.029890 
#    y 0.018580 1.803450 -0.004200 
#    z 0.029890 -0.004200 1.764330 
# 
# From -- ./inp_files/257138.got.cif
#   From: 2010.05.17/outbox.cif.g08.bks.cpg/sg2_129_cif.got.tgz:257138.got - 2010.06.03 11:33:40.
