data_PCOD9056863
_publ_section_title
;
Structure prediction by ZEFSAII (Michael W. Deem and Ramdas Pophale) SiO2 
 PCOD9056863
Probable space group: P -1
;
_chemical_formula_sum "Si O2"
_cell_formula_units_Z 16
_cell_length_a 13.731823
_cell_length_b 13.689392
_cell_length_c 9.953511
_cell_angle_alpha 68.170502
_cell_angle_beta 87.406977
_cell_angle_gamma 146.199223
_cell_volume 703.088380
_symmetry_space_group_name_H-M "P -1"
_symmetry_group_IT_number 2
_symmetry_cell_setting 'triclinic'
loop_
_space_group_symop_operation_xyz
x,y,z
-x,-y,-z
loop_
_atom_site_type_symbol
_atom_site_label
_atom_site_fract_x
_atom_site_fract_y
_atom_site_fract_z
Si Si1 0.957751 0.157068 0.733285
Si Si2 0.934497 0.346304 0.474667
Si Si3 0.474941 0.817111 0.623490
Si Si4 0.308490 0.031856 0.756695
Si Si5 0.152547 0.320218 0.935031
Si Si6 0.593405 0.636734 0.061580
Si Si7 0.964118 0.426180 0.888234
Si Si8 0.629908 0.543742 0.563657
O O1 0.071589 0.274720 0.813844
O O2 0.097372 0.203655 0.622132
O O3 0.986481 0.289575 0.577353
O O4 0.693181 0.852367 0.928620
O O5 0.079121 0.523233 0.240774
O O6 0.000000 0.500000 0.500000
O O7 0.660685 0.060619 0.584196
O O8 0.396360 0.626579 0.786136
O O9 0.221242 0.628469 0.726684
O O10 0.598876 0.917981 0.419314
O O11 0.497892 0.301658 0.666764
O O12 0.055526 0.846998 0.865162
O O13 0.242147 0.866331 0.939176
O O14 0.204043 0.247762 0.965577
O O15 0.400830 0.450262 0.286434
O O16 0.500000 0.500000 0.000000
O O17 0.000000 0.500000 0.000000
O O18 0.500000 0.500000 0.500000
#
# Coordination Sequence:
#
# PCOD9056863 Si02
#       8
#     2   2   2   2   2   2   2   2
#     4  12  25  45  71 103 141 183 239 286 343 420
#     4  12  27  45  68 104 144 182 231 293 344 407
#     4  11  23  44  74 100 139 179 232 289 347 413
#     4  11  22  40  74 102 131 180 238 277 346 419
#     4  11  22  44  74 100 137 182 230 285 348 421
#     4  12  26  45  70 106 143 180 231 289 349 419
#     4  11  25  47  73 101 133 189 237 282 348 415
#     4  12  24  43  75 104 137 187 229 285 356 415
#
# _framework density 22.756743
#
# number of rings (size 3 to 8) (size 9 to 14) (size 15 to 20)
#    0.000    0.500    5.000    3.750    0.000    1.500 
#    2.250    1.250    0.000    0.000    0.000    0.000 
#    0.000    0.000    0.000    0.000    0.000    0.000 
#
# Total GULP energy -89452.222508 kJ/mol
# GULP energy per Si atom -5590.763907 kJ/mol
# Density = 2.270495 g / cm^3
# Si number density = 22.756743 Si / 1000 Ang^3
#
#
#
# Elastic Constant Matrix: (Units=GPa)
#
#
# Indices 1 2 3 4 5 6 
#
# 1 82.5804 1.9051 39.7957 19.2261 11.6011 -1.3422
# 2 1.9051 96.5393 28.8405 19.8124 10.1546 -18.1689
# 3 39.7957 28.8405 128.7448 22.0128 -11.9477 -1.2556
# 4 19.2261 19.8124 22.0128 44.8051 -11.7975 3.2212
# 5 11.6011 10.1546 -11.9477 -11.7975 58.2505 1.9080
# 6 -1.3422 -18.1689 -1.2556 3.2212 1.9080 29.9855
#
#
#
# Elastic Compliance Matrix: (Units=1/GPa)
#
#
# Indices 1 2 3 4 5 6 
#
# 1 0.018250 0.005193 -0.005822 -0.009719 -0.007875 0.005265
# 2 0.005193 0.016542 -0.004113 -0.010261 -0.007221 0.011645
# 3 -0.005822 -0.004113 0.010803 0.000313 0.004241 -0.002604
# 4 -0.009719 -0.010261 0.000313 0.034607 0.011160 -0.011067
# 5 -0.007875 -0.007221 0.004241 0.011160 0.023362 -0.007236
# 6 0.005265 0.011645 -0.002604 -0.011067 -0.007236 0.042181
#
#
# Mechanical properties :
#
#
# Convention : Reuss Voigt Hill
#
# Bulk Modulus (GPa) = 27.69286 49.88301 38.78793
# Shear Modulus (GPa) = 29.89267 42.42976 36.16122
#
# Velocity S-wave (km/s) = 3.62826 4.32266 3.99059
# Velocity P-wave (km/s) = 5.45416 6.84701 6.18989
#
# Compressibility (1/GPa) = 0.03611039
#
# Stress axis : x y z
#
# Youngs Moduli (GPa) = 54.79465 60.45349 92.56778
#
# Poissons Ratio (x) = -0.31393 0.53894
# Poissons Ratio (y) = -0.28455 0.38072
# Poissons Ratio (z) = 0.31902 0.24864
#
# Static dielectric constant tensor:
#      x y z
#    x 1.911540 0.012690 0.037130 
#    y 0.012690 1.856410 -0.025210 
#    z 0.037130 -0.025210 1.843320 
# 
# From -- ./inp_files/314967.got.cif
#   From: 2010.05.17/outbox.cif.g08.bks.cpg/sg2_158_cif.got.tgz:314967.got - 2010.06.03 11:33:40.
