data_PCOD9056677
_publ_section_title
;
Structure prediction by ZEFSAII (Michael W. Deem and Ramdas Pophale) SiO2 
 PCOD9056677
Probable space group: P -1
;
_chemical_formula_sum "Si O2"
_cell_formula_units_Z 16
_cell_length_a 15.978712
_cell_length_b 13.183697
_cell_length_c 8.758590
_cell_angle_alpha 78.477495
_cell_angle_beta 128.030563
_cell_angle_gamma 141.393272
_cell_volume 743.127584
_symmetry_space_group_name_H-M "P -1"
_symmetry_group_IT_number 2
_symmetry_cell_setting 'triclinic'
loop_
_space_group_symop_operation_xyz
x,y,z
-x,-y,-z
loop_
_atom_site_type_symbol
_atom_site_label
_atom_site_fract_x
_atom_site_fract_y
_atom_site_fract_z
Si Si1 0.994920 0.615089 0.905082
Si Si2 0.545682 0.607904 0.261691
Si Si3 0.408415 0.281801 0.075035
Si Si4 0.038015 0.442513 0.683703
Si Si5 0.164151 0.435439 0.545357
Si Si6 0.964658 0.891497 0.631525
Si Si7 0.330514 0.935199 0.400913
Si Si8 0.370927 0.659002 0.223076
O O1 0.965720 0.596770 0.698231
O O2 0.793348 0.499273 0.782612
O O3 0.000000 0.500000 0.000000
O O4 0.185565 0.833884 0.122730
O O5 0.442095 0.409706 0.182516
O O6 0.769115 0.773372 0.534148
O O7 0.439136 0.609979 0.234999
O O8 0.569075 0.665275 0.094157
O O9 0.593516 0.354069 0.275481
O O10 0.177844 0.054568 0.905836
O O11 0.833296 0.250081 0.608083
O O12 0.000000 0.500000 0.500000
O O13 0.099113 0.396612 0.657623
O O14 0.236305 0.615174 0.964436
O O15 0.106002 0.273386 0.474233
O O16 0.000000 0.000000 0.500000
O O17 0.500000 0.000000 0.500000
O O18 0.447024 0.124013 0.562095
#
# Coordination Sequence:
#
# PCOD9056677 Si02
#       8
#     2   2   2   2   2   2   2   2
#     4  11  24  46  66  88 137 182 221 272 333 395
#     4   9  18  35  60  94 124 165 213 259 332 392
#     4   9  18  36  61  93 132 163 200 273 336 386
#     4  11  26  41  65 100 134 166 228 289 323 395
#     4  11  22  40  66 101 129 169 221 272 337 388
#     4   9  20  34  61  95 138 162 202 270 334 399
#     4  11  25  44  65  88 130 183 219 264 338 393
#     4  11  23  41  67  93 126 179 223 267 333 404
#
# _framework density 21.530624
#
# number of rings (size 3 to 8) (size 9 to 14) (size 15 to 20)
#    0.000    1.750    2.500    2.250    3.500    2.500 
#    0.000    2.500    0.000    4.500    0.000    0.000 
#    0.000    0.000    0.000    0.000    0.000    0.000 
#
# Total GULP energy -89259.590806 kJ/mol
# GULP energy per Si atom -5578.724425 kJ/mol
# Density = 2.148162 g / cm^3
# Si number density = 21.530624 Si / 1000 Ang^3
#
#
#
# Elastic Constant Matrix: (Units=GPa)
#
#
# Indices 1 2 3 4 5 6 
#
# 1 154.0628 27.5520 41.1066 20.4859 2.1815 15.5384
# 2 27.5520 29.4484 43.3798 10.8277 3.9943 2.4722
# 3 41.1066 43.3798 142.0174 27.4834 -6.1139 13.5922
# 4 20.4859 10.8277 27.4834 40.0658 2.2848 3.7611
# 5 2.1815 3.9943 -6.1139 2.2848 33.5260 1.3163
# 6 15.5384 2.4722 13.5922 3.7611 1.3163 22.6797
#
#
#
# Elastic Compliance Matrix: (Units=1/GPa)
#
#
# Indices 1 2 3 4 5 6 
#
# 1 0.008541 -0.008462 0.001129 -0.002419 0.001030 -0.005264
# 2 -0.008462 0.075644 -0.022074 -0.001343 -0.012857 0.011751
# 3 0.001129 -0.022074 0.015321 -0.004795 0.005956 -0.007100
# 4 -0.002419 -0.001343 -0.004795 0.030010 -0.002596 -0.000149
# 5 0.001030 -0.012857 0.005956 -0.002596 0.032726 -0.004342
# 6 -0.005264 0.011751 -0.007100 -0.000149 -0.004342 0.050950
#
#
# Mechanical properties :
#
#
# Convention : Reuss Voigt Hill
#
# Bulk Modulus (GPa) = 24.57589 61.06727 42.82158
# Shear Modulus (GPa) = 17.50879 33.48699 25.49789
#
# Velocity S-wave (km/s) = 2.85477 3.94803 3.44504
# Velocity P-wave (km/s) = 4.72286 7.01478 5.97966
#
# Compressibility (1/GPa) = 0.04069029
#
# Stress axis : x y z
#
# Youngs Moduli (GPa) = 117.08147 13.21984 65.26954
#
# Poissons Ratio (x) = 0.11187 -0.07369
# Poissons Ratio (y) = 0.99080 1.44079
# Poissons Ratio (z) = -0.13219 0.29182
#
# Static dielectric constant tensor:
#      x y z
#    x 1.733000 0.042280 0.017900 
#    y 0.042280 1.737900 -0.008780 
#    z 0.017900 -0.008780 1.849130 
# 
# From -- ./inp_files/313437.got.cif
#   From: 2010.05.17/outbox.cif.g08.bks.cpg/sg2_157_cif.got.tgz:313437.got - 2010.06.03 11:33:40.
