data_PCOD9056023
_publ_section_title
;
Structure prediction by ZEFSAII (Michael W. Deem and Ramdas Pophale) SiO2 
 PCOD9056023
Probable space group: P -1
;
_chemical_formula_sum "Si O2"
_cell_formula_units_Z 16
_cell_length_a 9.453787
_cell_length_b 21.695144
_cell_length_c 11.963891
_cell_angle_alpha 30.030485
_cell_angle_beta 53.273767
_cell_angle_gamma 40.793805
_cell_volume 789.843655
_symmetry_space_group_name_H-M "P -1"
_symmetry_group_IT_number 2
_symmetry_cell_setting 'triclinic'
loop_
_space_group_symop_operation_xyz
x,y,z
-x,-y,-z
loop_
_atom_site_type_symbol
_atom_site_label
_atom_site_fract_x
_atom_site_fract_y
_atom_site_fract_z
Si Si1 0.184377 0.715867 0.588242
Si Si2 0.137651 0.706970 0.013470
Si Si3 0.075525 0.088775 0.394245
Si Si4 0.754350 0.856894 0.128589
Si Si5 0.437672 0.082895 0.516900
Si Si6 0.365549 0.367951 0.407710
Si Si7 0.609154 0.622499 0.890287
Si Si8 0.064295 0.113636 0.773652
O O1 0.396418 0.709380 0.528856
O O2 0.993716 0.862875 0.520540
O O3 0.117995 0.748823 0.437736
O O4 0.244733 0.551410 0.857903
O O5 0.216176 0.537024 0.264093
O O6 0.922435 0.825943 0.000047
O O7 0.357652 0.698944 0.930588
O O8 0.057983 0.748193 0.859330
O O9 0.334142 0.992010 0.409046
O O10 0.000000 0.000000 0.500000
O O11 0.734227 0.720252 0.374788
O O12 0.876263 0.857690 0.179030
O O13 0.500000 0.000000 0.000000
O O14 0.329731 0.264417 0.277327
O O15 0.287785 0.047892 0.705022
O O16 0.500000 0.000000 0.500000
O O17 0.387888 0.376824 0.248314
O O18 0.000000 0.000000 0.000000
#
# Coordination Sequence:
#
# PCOD9056023 Si02
#       8
#     2   2   2   2   2   2   2   2
#     4  11  23  44  71 101 136 181 222 289 350 400
#     4  11  23  40  71 100 133 175 232 282 342 404
#     4  12  22  38  71 105 129 173 229 290 333 397
#     4  12  27  44  69  98 139 184 230 281 345 416
#     4  12  25  42  68 102 134 177 236 283 339 405
#     4  11  21  45  69 102 133 178 233 283 341 412
#     4  11  22  44  72 102 136 177 235 286 343 408
#     4  12  28  46  65  97 144 184 224 281 352 404
#
# _framework density 20.257173999999999
#
# number of rings (size 3 to 8) (size 9 to 14) (size 15 to 20)
#    0.000    0.500    6.250    2.625    5.250    0.500 
#    2.250    2.500    0.000    0.000    0.000    0.000 
#    0.000    0.000    0.000    0.000    0.000    0.000 
#
# Total GULP energy -89288.299162 kJ/mol
# GULP energy per Si atom -5580.518698 kJ/mol
# Density = 2.021107 g / cm^3
# Si number density = 20.257174 Si / 1000 Ang^3
#
#
#
# Elastic Constant Matrix: (Units=GPa)
#
#
# Indices 1 2 3 4 5 6 
#
# 1 105.0763 24.5009 34.2428 6.0682 6.0183 -1.4745
# 2 24.5009 89.1797 22.0777 6.9301 -7.0612 -4.3563
# 3 34.2428 22.0777 82.1197 11.4868 -7.2553 -14.8041
# 4 6.0682 6.9301 11.4868 23.4059 -5.8223 3.2132
# 5 6.0183 -7.0612 -7.2553 -5.8223 39.6400 6.6494
# 6 -1.4745 -4.3563 -14.8041 3.2132 6.6494 32.7752
#
#
#
# Elastic Compliance Matrix: (Units=1/GPa)
#
#
# Indices 1 2 3 4 5 6 
#
# 1 0.011770 -0.002320 -0.004678 -0.000631 -0.002942 -0.001233
# 2 -0.002320 0.012641 -0.001923 -0.001792 0.001906 0.000496
# 3 -0.004678 -0.001923 0.017192 -0.007450 0.001111 0.007804
# 4 -0.000631 -0.001792 -0.007450 0.050325 0.007497 -0.010086
# 5 -0.002942 0.001906 0.001111 0.007497 0.028300 -0.005854
# 6 -0.001233 0.000496 0.007804 -0.010086 -0.005854 0.036223
#
#
# Mechanical properties :
#
#
# Convention : Reuss Voigt Hill
#
# Bulk Modulus (GPa) = 42.08387 48.66870 45.37629
# Shear Modulus (GPa) = 27.44054 32.20118 29.82086
#
# Velocity S-wave (km/s) = 3.68449 3.99133 3.84098
# Velocity P-wave (km/s) = 6.23863 6.73190 6.48996
#
# Compressibility (1/GPa) = 0.02376207
#
# Stress axis : x y z
#
# Youngs Moduli (GPa) = 84.96160 79.10781 58.16564
#
# Poissons Ratio (x) = 0.18350 0.27211
# Poissons Ratio (y) = 0.19708 0.11184
# Poissons Ratio (z) = 0.39747 0.15210
#
# Static dielectric constant tensor:
#      x y z
#    x 1.796280 0.041050 0.062660 
#    y 0.041050 1.774780 0.023850 
#    z 0.062660 0.023850 1.790250 
# 
# From -- ./inp_files/184403.got.cif
#   From: 2010.05.17/outbox.cif.g08.bks.cpg/sg2_93_cif.got.tgz:184403.got - 2010.06.03 11:33:40.
