data_PCOD9056318
_publ_section_title
;
Structure prediction by ZEFSAII (Michael W. Deem and Ramdas Pophale) SiO2 
 PCOD9056318
Probable space group: P -1
;
_chemical_formula_sum "Si O2"
_cell_formula_units_Z 16
_cell_length_a 13.031338
_cell_length_b 9.110764
_cell_length_c 11.379286
_cell_angle_alpha 135.414882
_cell_angle_beta 51.343436
_cell_angle_gamma 135.846481
_cell_volume 642.522400
_symmetry_space_group_name_H-M "P -1"
_symmetry_group_IT_number 2
_symmetry_cell_setting 'triclinic'
loop_
_space_group_symop_operation_xyz
x,y,z
-x,-y,-z
loop_
_atom_site_type_symbol
_atom_site_label
_atom_site_fract_x
_atom_site_fract_y
_atom_site_fract_z
Si Si1 0.228191 0.882049 0.062822
Si Si2 0.613511 0.997334 0.731557
Si Si3 0.401721 0.216930 0.933767
Si Si4 0.850319 0.542240 0.508995
Si Si5 0.841964 0.839488 0.087059
Si Si6 0.681572 0.439632 0.345446
Si Si7 0.150900 0.558740 0.282224
Si Si8 0.936237 0.895131 0.317270
O O1 0.055833 0.795947 0.170493
O O2 0.330716 0.944709 0.141198
O O3 0.292694 0.122381 0.072484
O O4 0.248250 0.691198 0.860677
O O5 0.496472 0.714869 0.642333
O O6 0.763747 0.155870 0.638564
O O7 0.511655 0.110816 0.821409
O O8 0.287980 0.116118 0.847332
O O9 0.500000 0.500000 0.000000
O O10 0.711930 0.420835 0.449973
O O11 0.809793 0.494922 0.647746
O O12 0.971178 0.452826 0.347620
O O13 0.950953 0.827341 0.573442
O O14 0.802656 0.569847 0.923915
O O15 0.871966 0.882456 0.226188
O O16 0.000000 0.000000 0.000000
O O17 0.789899 0.720093 0.398259
#
# Coordination Sequence:
#
# PCOD9056318 Si02
#       8
#     2   2   2   2   2   2   2   2
#     4  11  23  44  69 100 136 173 223 277 339 388
#     4  11  25  43  68 100 137 178 215 278 345 392
#     4  11  22  37  66 103 142 163 210 281 338 394
#     4  11  25  42  67  93 135 180 226 274 326 396
#     4  12  22  41  71 106 127 169 230 276 330 383
#     4  11  24  41  65  96 132 175 220 267 339 400
#     4  11  23  44  66  96 136 174 222 277 335 394
#     4  12  24  43  69 100 131 176 228 280 322 396
#
# _framework density 24.901855000000001
#
# number of rings (size 3 to 8) (size 9 to 14) (size 15 to 20)
#    0.000    0.750    3.750    4.500    3.500    0.500 
#    0.000    2.500    0.000    0.000    0.000    0.000 
#    0.000    0.000    0.000    0.000    0.000    0.000 
#
# Total GULP energy -89574.141365 kJ/mol
# GULP energy per Si atom -5598.383835 kJ/mol
# Density = 2.484518 g / cm^3
# Si number density = 24.901855 Si / 1000 Ang^3
#
#
#
# Elastic Constant Matrix: (Units=GPa)
#
#
# Indices 1 2 3 4 5 6 
#
# 1 134.7615 17.7629 39.7097 0.8131 42.6714 1.6350
# 2 17.7629 147.6460 22.8046 21.2584 16.3744 2.8891
# 3 39.7097 22.8046 77.2679 20.1733 20.5106 -6.2090
# 4 0.8131 21.2584 20.1733 35.7408 -2.1117 -6.1167
# 5 42.6714 16.3744 20.5106 -2.1117 56.0551 -0.2671
# 6 1.6350 2.8891 -6.2090 -6.1167 -0.2671 43.7519
#
#
#
# Elastic Compliance Matrix: (Units=1/GPa)
#
#
# Indices 1 2 3 4 5 6 
#
# 1 0.010765 -0.000145 -0.004273 0.001731 -0.006527 -0.000797
# 2 -0.000145 0.007811 -0.000537 -0.004682 -0.002157 -0.001254
# 3 -0.004273 -0.000537 0.019189 -0.010405 -0.003997 0.001439
# 4 0.001731 -0.004682 -0.010405 0.037605 0.005293 0.004058
# 5 -0.006527 -0.002157 -0.003997 0.005293 0.025104 0.000712
# 6 -0.000797 -0.001254 0.001439 0.004058 0.000712 0.023745
#
#
# Mechanical properties :
#
#
# Convention : Reuss Voigt Hill
#
# Bulk Modulus (GPa) = 35.89776 57.80329 46.85052
# Shear Modulus (GPa) = 34.86443 45.73611 40.30027
#
# Velocity S-wave (km/s) = 3.74582 4.29027 4.02725
# Velocity P-wave (km/s) = 5.75805 6.91410 6.36239
#
# Compressibility (1/GPa) = 0.02785689
#
# Stress axis : x y z
#
# Youngs Moduli (GPa) = 92.89591 128.02113 52.11218
#
# Poissons Ratio (x) = 0.01854 0.22266
# Poissons Ratio (y) = 0.01346 0.02797
# Poissons Ratio (z) = 0.39692 0.06870
#
# Static dielectric constant tensor:
#      x y z
#    x 1.976300 -0.007080 -0.121830 
#    y -0.007080 2.011980 0.067890 
#    z -0.121830 0.067890 2.034770 
# 
# From -- ./inp_files/419995.got.cif
#   From: 2010.05.17/outbox.cif.g08.bks.cpg/sg2_210_cif.got.tgz:419995.got - 2010.06.03 11:33:40.
