data_PCOD9056732
_publ_section_title
;
Structure prediction by ZEFSAII (Michael W. Deem and Ramdas Pophale) SiO2 
 PCOD9056732
Probable space group: P -1
;
_chemical_formula_sum "Si O2"
_cell_formula_units_Z 11
_cell_length_a 9.795011
_cell_length_b 13.333322
_cell_length_c 4.965150
_cell_angle_alpha 101.967225
_cell_angle_beta 104.728663
_cell_angle_gamma 132.078827
_cell_volume 395.821734
_symmetry_space_group_name_H-M "P -1"
_symmetry_group_IT_number 2
_symmetry_cell_setting 'triclinic'
loop_
_space_group_symop_operation_xyz
x,y,z
-x,-y,-z
loop_
_atom_site_type_symbol
_atom_site_label
_atom_site_fract_x
_atom_site_fract_y
_atom_site_fract_z
Si Si1 0.794957 0.471883 0.110104
Si Si2 0.500000 0.000000 0.500000
Si Si3 0.224486 0.215502 0.894432
Si Si4 0.221764 0.333246 0.465845
Si Si5 0.210198 0.982019 0.714813
Si Si6 0.710181 0.298158 0.482616
O O1 0.730292 0.534389 0.288124
O O2 0.747846 0.351735 0.223529
O O3 0.056096 0.624869 0.276638
O O4 0.699069 0.390286 0.726705
O O5 0.384842 0.009129 0.674970
O O6 0.469215 0.882311 0.621164
O O7 0.306645 0.291367 0.683199
O O8 0.962359 0.078577 0.642636
O O9 0.283612 0.132850 0.953832
O O10 0.287656 0.338896 0.204077
O O11 0.955409 0.172037 0.259417
#
# Coordination Sequence:
#
# PCOD9056732 Si02
#       6
#     2   1   2   2   2   2
#     4  10  20  38  59  83 116 161 205 225 297 363
#     4  12  22  44  58  98 126 152 194 260 316 328
#     4   9  19  35  60  88 117 153 209 236 289 351
#     4  10  17  36  63  85 107 159 205 247 269 360
#     4   9  21  34  59  91 120 156 193 255 290 356
#     4  10  22  37  56  85 122 157 191 248 290 366
#
# _framework density 27.790289000000001
#
# number of rings (size 3 to 8) (size 9 to 14) (size 15 to 20)
#    1.091    1.091    1.818    1.636    0.000    2.182 
#    3.273    0.000    0.000    6.545    0.000    0.000 
#    0.000    0.000    0.000    0.000    0.000    0.000 
#
# Total GULP energy -61329.112828 kJ/mol
# GULP energy per Si atom -5575.373893 kJ/mol
# Density = 2.772704 g / cm^3
# Si number density = 27.790289 Si / 1000 Ang^3
#
#
#
# Elastic Constant Matrix: (Units=GPa)
#
#
# Indices 1 2 3 4 5 6 
#
# 1 118.5390 -6.6034 33.8864 9.7725 -43.4226 12.0524
# 2 -6.6034 81.4066 3.9169 -21.0235 5.8923 -5.6615
# 3 33.8864 3.9169 114.5801 -5.5376 -27.0873 11.3951
# 4 9.7725 -21.0235 -5.5376 49.8508 9.0727 -12.5961
# 5 -43.4226 5.8923 -27.0873 9.0727 35.5796 0.0799
# 6 12.0524 -5.6615 11.3951 -12.5961 0.0799 49.5388
#
#
#
# Elastic Compliance Matrix: (Units=1/GPa)
#
#
# Indices 1 2 3 4 5 6 
#
# 1 0.021858 -0.005193 0.001721 -0.014780 0.032637 -0.010118
# 2 -0.005193 0.016566 -0.002439 0.011999 -0.014013 0.006791
# 3 0.001721 -0.002439 0.011406 -0.003351 0.012052 -0.004193
# 4 -0.014780 0.011999 -0.003351 0.037357 -0.032137 0.015289
# 5 0.032637 -0.014013 0.012052 -0.032137 0.087675 -0.020627
# 6 -0.010118 0.006791 -0.004193 0.015289 -0.020627 0.028309
#
#
# Mechanical properties :
#
#
# Convention : Reuss Voigt Hill
#
# Bulk Modulus (GPa) = 26.31027 41.88062 34.09545
# Shear Modulus (GPa) = 21.96247 45.88224 33.92236
#
# Velocity S-wave (km/s) = 2.81426 4.06768 3.49758
# Velocity P-wave (km/s) = 4.47751 6.09625 5.34848
#
# Compressibility (1/GPa) = 0.03800797
#
# Stress axis : x y z
#
# Youngs Moduli (GPa) = 45.75061 60.36621 87.67304
#
# Poissons Ratio (x) = 0.31347 -0.15087
# Poissons Ratio (y) = 0.23757 0.21380
# Poissons Ratio (z) = -0.07873 0.14721
#
# Static dielectric constant tensor:
#      x y z
#    x 2.204800 0.081740 0.155540 
#    y 0.081740 2.198110 0.115370 
#    z 0.155540 0.115370 2.241360 
# 
# From -- ./inp_files/73503.got.cif
#   From: 2010.05.17/outbox.cif.g08.bks.cpg/sg2_37_cif.got.tgz:73503.got - 2010.06.03 11:33:40.
