data_PCOD9056623
_publ_section_title
;
Structure prediction by ZEFSAII (Michael W. Deem and Ramdas Pophale) SiO2 
 PCOD9056623
Probable space group: P -1
;
_chemical_formula_sum "Si O2"
_cell_formula_units_Z 16
_cell_length_a 7.360409
_cell_length_b 16.543674
_cell_length_c 12.447396
_cell_angle_alpha 130.956665
_cell_angle_beta 101.983372
_cell_angle_gamma 116.414164
_cell_volume 691.664538
_symmetry_space_group_name_H-M "P -1"
_symmetry_group_IT_number 2
_symmetry_cell_setting 'triclinic'
loop_
_space_group_symop_operation_xyz
x,y,z
-x,-y,-z
loop_
_atom_site_type_symbol
_atom_site_label
_atom_site_fract_x
_atom_site_fract_y
_atom_site_fract_z
Si Si1 0.933692 0.313234 0.733565
Si Si2 0.050887 0.094894 0.190841
Si Si3 0.935473 0.081194 0.502289
Si Si4 0.609332 0.377307 0.785284
Si Si5 0.153195 0.448898 0.644029
Si Si6 0.457905 0.163833 0.946111
Si Si7 0.913349 0.269234 0.247648
Si Si8 0.609784 0.467679 0.648988
O O1 0.892020 0.171795 0.640187
O O2 0.970876 0.331012 0.624304
O O3 0.680399 0.283432 0.710881
O O4 0.237914 0.498743 0.985220
O O5 0.393704 0.271935 0.418327
O O6 0.933537 0.159864 0.202135
O O7 0.860570 0.955846 0.141227
O O8 0.000000 0.000000 0.000000
O O9 0.256127 0.242555 0.620784
O O10 0.000000 0.000000 0.500000
O O11 0.645328 0.932493 0.262408
O O12 0.766361 0.499125 0.804888
O O13 0.405154 0.475989 0.664717
O O14 0.947585 0.361788 0.436106
O O15 0.327298 0.636478 0.856941
O O16 0.625246 0.159762 0.044089
O O17 0.184914 0.410077 0.319578
#
# Coordination Sequence:
#
# PCOD9056623 Si02
#       8
#     2   2   2   2   2   2   2   2
#     4  11  25  46  74 103 134 187 237 282 347 420
#     4  11  22  40  62  96 136 176 223 284 353 400
#     4  12  26  46  69 101 144 179 229 294 355 406
#     4  11  24  46  72 101 138 182 238 285 340 420
#     4  11  22  43  71  97 135 187 233 280 341 419
#     4  12  24  41  63 103 134 177 228 285 356 397
#     4  11  24  42  66  99 139 182 234 280 335 427
#     4  11  22  42  68  97 138 184 234 279 339 420
#
# _framework density 23.132598999999999
#
# number of rings (size 3 to 8) (size 9 to 14) (size 15 to 20)
#    0.000    0.750    2.500    6.375    1.750    3.500 
#    2.250    0.000    0.000    0.000    0.000    0.000 
#    0.000    0.000    0.000    0.000    0.000    0.000 
#
# Total GULP energy -89502.429445 kJ/mol
# GULP energy per Si atom -5593.901840 kJ/mol
# Density = 2.307995 g / cm^3
# Si number density = 23.132599 Si / 1000 Ang^3
#
#
#
# Elastic Constant Matrix: (Units=GPa)
#
#
# Indices 1 2 3 4 5 6 
#
# 1 77.2861 -0.2549 42.7217 -1.4506 -14.4676 -15.9326
# 2 -0.2549 73.1873 8.2690 -6.3773 -3.6112 -9.1751
# 3 42.7217 8.2690 122.5335 -22.0692 -7.8828 -13.2450
# 4 -1.4506 -6.3773 -22.0692 36.2583 -6.0969 -1.5675
# 5 -14.4676 -3.6112 -7.8828 -6.0969 38.7821 2.7736
# 6 -15.9326 -9.1751 -13.2450 -1.5675 2.7736 35.3848
#
#
#
# Elastic Compliance Matrix: (Units=1/GPa)
#
#
# Indices 1 2 3 4 5 6 
#
# 1 0.018311 0.001608 -0.005751 -0.001355 0.005166 0.006044
# 2 0.001608 0.014612 -0.000427 0.002901 0.002021 0.004323
# 3 -0.005751 -0.000427 0.011766 0.007140 0.001191 0.001927
# 4 -0.001355 0.002901 0.007140 0.033593 0.006224 0.003815
# 5 0.005166 0.002021 0.001191 0.006224 0.029028 0.001296
# 6 0.006044 0.004323 0.001927 0.003815 0.001296 0.032892
#
#
# Mechanical properties :
#
#
# Convention : Reuss Voigt Hill
#
# Bulk Modulus (GPa) = 28.13026 41.60873 34.86950
# Shear Modulus (GPa) = 31.01900 36.90311 33.96106
#
# Velocity S-wave (km/s) = 3.66583 3.99844 3.83574
# Velocity P-wave (km/s) = 5.48677 6.27238 5.89268
#
# Compressibility (1/GPa) = 0.03554890
#
# Stress axis : x y z
#
# Youngs Moduli (GPa) = 54.61204 68.43747 84.99205
#
# Poissons Ratio (x) = -0.11006 0.48880
# Poissons Ratio (y) = -0.08782 0.03629
# Poissons Ratio (z) = 0.31408 0.02922
#
# Static dielectric constant tensor:
#      x y z
#    x 1.885040 -0.005790 0.025460 
#    y -0.005790 1.893760 -0.015380 
#    z 0.025460 -0.015380 1.884830 
# 
# From -- ./inp_files/403266.got.cif
#   From: 2010.05.17/outbox.cif.g08.bks.cpg/sg2_202_cif.got.tgz:403266.got - 2010.06.03 11:33:40.
