data_PCOD9056438
_publ_section_title
;
Structure prediction by ZEFSAII (Michael W. Deem and Ramdas Pophale) SiO2 
 PCOD9056438
Probable space group: P -1
;
_chemical_formula_sum "Si O2"
_cell_formula_units_Z 14
_cell_length_a 8.114613
_cell_length_b 14.924707
_cell_length_c 15.960977
_cell_angle_alpha 28.276678
_cell_angle_beta 132.548896
_cell_angle_gamma 143.995070
_cell_volume 533.741004
_symmetry_space_group_name_H-M "P -1"
_symmetry_group_IT_number 2
_symmetry_cell_setting 'triclinic'
loop_
_space_group_symop_operation_xyz
x,y,z
-x,-y,-z
loop_
_atom_site_type_symbol
_atom_site_label
_atom_site_fract_x
_atom_site_fract_y
_atom_site_fract_z
Si Si1 0.053816 0.309187 0.193393
Si Si2 0.256325 0.794438 0.401196
Si Si3 0.203730 0.140944 0.628309
Si Si4 0.319982 0.302151 0.703617
Si Si5 0.387091 0.513379 0.860842
Si Si6 0.913439 0.719106 0.202244
Si Si7 0.786389 0.177194 0.380996
O O1 0.026006 0.285531 0.302753
O O2 0.349533 0.394878 0.185778
O O3 0.822045 0.051039 0.283667
O O4 0.000000 0.500000 0.000000
O O5 0.240838 0.561794 0.598219
O O6 0.957583 0.715712 0.397814
O O7 0.213946 0.840163 0.252151
O O8 0.511595 0.002229 0.373002
O O9 0.300312 0.138125 0.758122
O O10 0.418666 0.421681 0.447875
O O11 0.888680 0.068411 0.569142
O O12 0.259220 0.223433 0.844998
O O13 0.136941 0.281478 0.912952
O O14 0.262105 0.655299 0.723272
O O15 0.500000 0.500000 0.000000
#
# Coordination Sequence:
#
# PCOD9056438 Si02
#       7
#     2   2   2   2   2   2   2
#     4  12  26  45  66 103 151 186 234 298 352 430
#     4   9  19  37  66 103 137 177 223 301 363 405
#     4  11  22  38  75 109 142 181 242 301 357 419
#     4   9  19  38  64 111 144 172 230 308 358 414
#     4  12  25  45  69  96 141 197 238 284 357 428
#     4   9  19  37  64  95 139 172 226 290 356 415
#     4  12  24  43  75 108 134 187 249 298 349 422
#
# _framework density 26.229949999999999
#
# number of rings (size 3 to 8) (size 9 to 14) (size 15 to 20)
#    0.857    0.571    1.429    4.714    0.000    1.714 
#    0.000    0.714    0.000    8.571    0.000    0.000 
#    0.000    0.000    0.000    0.000    0.000    0.000 
#
# Total GULP energy -78115.416746 kJ/mol
# GULP energy per Si atom -5579.672625 kJ/mol
# Density = 2.617025 g / cm^3
# Si number density = 26.229950 Si / 1000 Ang^3
#
#
#
# Elastic Constant Matrix: (Units=GPa)
#
#
# Indices 1 2 3 4 5 6 
#
# 1 153.5805 62.6435 19.7775 -5.8849 10.3534 -22.8167
# 2 62.6435 221.1395 50.7397 7.7742 1.3467 -26.6156
# 3 19.7775 50.7397 76.4961 0.4112 22.7365 -17.2628
# 4 -5.8849 7.7742 0.4112 36.9386 -17.3806 1.1362
# 5 10.3534 1.3467 22.7365 -17.3806 29.3399 -5.7519
# 6 -22.8167 -26.6156 -17.2628 1.1362 -5.7519 55.9989
#
#
#
# Elastic Compliance Matrix: (Units=1/GPa)
#
#
# Indices 1 2 3 4 5 6 
#
# 1 0.007779 -0.002078 0.000541 0.000493 -0.002366 0.002095
# 2 -0.002078 0.006298 -0.004791 0.000586 0.004728 0.001144
# 3 0.000541 -0.004791 0.024132 -0.010772 -0.024447 0.003090
# 4 0.000493 0.000586 -0.010772 0.042930 0.033525 -0.000269
# 5 -0.002366 0.004728 -0.024447 0.033525 0.073629 0.000630
# 6 0.002095 0.001144 0.003090 -0.000269 0.000630 0.020277
#
#
# Mechanical properties :
#
#
# Convention : Reuss Voigt Hill
#
# Bulk Modulus (GPa) = 39.13509 79.72639 59.43074
# Shear Modulus (GPa) = 25.48167 45.65919 35.57043
#
# Velocity S-wave (km/s) = 3.12023 4.17673 3.68652
# Velocity P-wave (km/s) = 5.28521 7.32948 6.38963
#
# Compressibility (1/GPa) = 0.02555251
#
# Stress axis : x y z
#
# Youngs Moduli (GPa) = 128.55032 158.77458 41.43902
#
# Poissons Ratio (x) = 0.33000 -0.02241
# Poissons Ratio (y) = 0.26718 0.19852
# Poissons Ratio (z) = -0.06952 0.76064
#
# Static dielectric constant tensor:
#      x y z
#    x 2.235200 -0.081630 -0.171570 
#    y -0.081630 2.162360 0.015410 
#    z -0.171570 0.015410 2.157400 
# 
# From -- ./inp_files/560329.got.cif
#   From: 2010.05.17/outbox.cif.g08.bks.cpg/sg2_281_cif.got.tgz:560329.got - 2010.06.03 11:33:40.
