data_PCOD9056026
_publ_section_title
;
Structure prediction by ZEFSAII (Michael W. Deem and Ramdas Pophale) SiO2 
 PCOD9056026
Probable space group: P -1
;
_chemical_formula_sum "Si O2"
_cell_formula_units_Z 16
_cell_length_a 9.811049
_cell_length_b 9.257848
_cell_length_c 12.197975
_cell_angle_alpha 99.591748
_cell_angle_beta 131.879132
_cell_angle_gamma 90.147885
_cell_volume 803.549947
_symmetry_space_group_name_H-M "P -1"
_symmetry_group_IT_number 2
_symmetry_cell_setting 'triclinic'
loop_
_space_group_symop_operation_xyz
x,y,z
-x,-y,-z
loop_
_atom_site_type_symbol
_atom_site_label
_atom_site_fract_x
_atom_site_fract_y
_atom_site_fract_z
Si Si1 0.107304 0.401211 0.968836
Si Si2 0.660139 0.141370 0.104019
Si Si3 0.823221 0.869361 0.876147
Si Si4 0.218894 0.179607 0.626677
Si Si5 0.077556 0.104234 0.304051
Si Si6 0.397189 0.875357 0.688454
Si Si7 0.907718 0.210992 0.647386
Si Si8 0.553694 0.391708 0.923111
O O1 0.994840 0.342515 0.790883
O O2 0.149680 0.258605 0.040240
O O3 0.293297 0.508772 0.052308
O O4 0.000000 0.500000 0.000000
O O5 0.647541 0.203322 0.228264
O O6 0.856517 0.091423 0.181315
O O7 0.628360 0.258342 0.009927
O O8 0.500000 0.000000 0.000000
O O9 0.835664 0.820211 0.749894
O O10 0.617727 0.909599 0.791302
O O11 0.000000 0.000000 0.000000
O O12 0.142182 0.181657 0.462982
O O13 0.377226 0.316652 0.751424
O O14 0.059050 0.183415 0.632263
O O15 0.308421 0.028153 0.666637
O O16 0.127674 0.938840 0.318312
O O17 0.282292 0.781018 0.518550
O O18 0.500000 0.500000 0.000000
#
# Coordination Sequence:
#
# PCOD9056026 Si02
#       8
#     2   2   2   2   2   2   2   2
#     4  12  28  47  66  96 144 182 221 276 342 405
#     4  12  21  39  69 101 129 174 233 275 320 396
#     4  12  26  45  67 103 134 178 234 277 326 403
#     4  11  22  42  70 106 137 170 223 283 343 391
#     4  11  22  41  70 100 134 170 228 284 328 392
#     4  11  23  39  73 105 132 171 226 286 334 389
#     4  11  21  45  69 104 138 172 222 284 341 392
#     4  12  25  41  66  98 138 182 219 272 341 400
#
# _framework density 19.911643000000002
#
# number of rings (size 3 to 8) (size 9 to 14) (size 15 to 20)
#    0.000    0.500    6.250    3.000    1.750    3.000 
#    0.000    7.500    0.000    0.000    0.000    0.000 
#    0.000    0.000    0.000    0.000    0.000    0.000 
#
# Total GULP energy -89457.646944 kJ/mol
# GULP energy per Si atom -5591.102934 kJ/mol
# Density = 1.986632 g / cm^3
# Si number density = 19.911643 Si / 1000 Ang^3
#
#
#
# Elastic Constant Matrix: (Units=GPa)
#
#
# Indices 1 2 3 4 5 6 
#
# 1 131.4487 26.9567 42.5443 -3.1362 7.4649 7.6636
# 2 26.9567 76.3130 41.2288 4.2257 7.9775 19.5369
# 3 42.5443 41.2288 130.9158 7.6890 2.7596 3.0322
# 4 -3.1362 4.2257 7.6890 34.0192 0.8740 -2.3247
# 5 7.4649 7.9775 2.7596 0.8740 39.7114 1.1099
# 6 7.6636 19.5369 3.0322 -2.3247 1.1099 39.2771
#
#
#
# Elastic Compliance Matrix: (Units=1/GPa)
#
#
# Indices 1 2 3 4 5 6 
#
# 1 0.008865 -0.001631 -0.002420 0.001556 -0.001188 -0.000606
# 2 -0.001631 0.019106 -0.005110 -0.001897 -0.002888 -0.008822
# 3 -0.002420 -0.005110 0.010071 -0.001740 0.000761 0.002112
# 4 0.001556 -0.001897 -0.001740 0.030358 -0.000531 0.002586
# 5 -0.001188 -0.002888 0.000761 -0.000531 0.025920 0.000846
# 6 -0.000606 -0.008822 0.002112 0.002586 0.000846 0.029933
#
#
# Mechanical properties :
#
#
# Convention : Reuss Voigt Hill
#
# Bulk Modulus (GPa) = 50.70797 62.23745 56.47271
# Shear Modulus (GPa) = 33.52344 37.79806 35.66075
#
# Velocity S-wave (km/s) = 4.10763 4.36166 4.23655
# Velocity P-wave (km/s) = 6.92955 7.52929 7.23563
#
# Compressibility (1/GPa) = 0.01972076
#
# Stress axis : x y z
#
# Youngs Moduli (GPa) = 112.80265 52.33827 99.29105
#
# Poissons Ratio (x) = 0.08537 0.24024
# Poissons Ratio (y) = 0.18400 0.50742
# Poissons Ratio (z) = 0.27293 0.26747
#
# Static dielectric constant tensor:
#      x y z
#    x 1.680180 -0.026650 -0.023640 
#    y -0.026650 1.715530 -0.025580 
#    z -0.023640 -0.025580 1.755510 
# 
# From -- ./inp_files/184200.got.cif
#   From: 2010.05.17/outbox.cif.g08.bks.cpg/sg2_93_cif.got.tgz:184200.got - 2010.06.03 11:33:40.
