data_PCOD9056568
_publ_section_title
;
Structure prediction by ZEFSAII (Michael W. Deem and Ramdas Pophale) SiO2 
 PCOD9056568
Probable space group: P -1
;
_chemical_formula_sum "Si O2"
_cell_formula_units_Z 12
_cell_length_a 13.881639
_cell_length_b 25.563536
_cell_length_c 7.383551
_cell_angle_alpha 135.323388
_cell_angle_beta 36.990368
_cell_angle_gamma 161.146483
_cell_volume 495.739195
_symmetry_space_group_name_H-M "P -1"
_symmetry_group_IT_number 2
_symmetry_cell_setting 'triclinic'
loop_
_space_group_symop_operation_xyz
x,y,z
-x,-y,-z
loop_
_atom_site_type_symbol
_atom_site_label
_atom_site_fract_x
_atom_site_fract_y
_atom_site_fract_z
Si Si1 0.569725 0.311509 0.662988
Si Si2 0.480568 0.996849 0.238145
Si Si3 0.819541 0.281195 0.053216
Si Si4 0.832269 0.511299 0.268756
Si Si5 0.393787 0.798373 0.420673
Si Si6 0.306217 0.338769 0.908493
O O1 0.538655 0.234379 0.361580
O O2 0.448654 0.358617 0.560037
O O3 0.447117 0.215188 0.788722
O O4 0.000000 0.500000 0.500000
O O5 0.344849 0.022915 0.558301
O O6 0.881529 0.164159 0.124025
O O7 0.500000 0.000000 0.000000
O O8 0.289404 0.839937 0.180785
O O9 0.879389 0.325386 0.636745
O O10 0.833410 0.275435 0.234966
O O11 0.842079 0.547865 0.142960
O O12 0.000000 0.500000 0.000000
O O13 0.576714 0.670427 0.133454
O O14 0.500000 0.500000 0.000000
#
# Coordination Sequence:
#
# PCOD9056568 Si02
#       6
#     2   2   2   2   2   2
#     4  10  17  36  62  88 125 163 208 255 320 369
#     4  10  21  42  63  90 135 172 209 265 330 376
#     4   9  21  36  65  92 122 173 209 260 324 375
#     4  12  20  38  67  97 123 169 218 263 315 388
#     4   9  19  39  61  85 132 163 205 261 324 359
#     4  12  22  38  67  98 124 174 214 264 322 386
#
# _framework density 24.206278000000001
#
# number of rings (size 3 to 8) (size 9 to 14) (size 15 to 20)
#    1.000    0.667    5.000    0.000    0.000    1.333 
#    0.000    3.333    0.000    5.000    0.000    0.000 
#    0.000    0.000    0.000    0.000    0.000    0.000 
#
# Total GULP energy -66812.311069 kJ/mol
# GULP energy per Si atom -5567.692589 kJ/mol
# Density = 2.415118 g / cm^3
# Si number density = 24.206278 Si / 1000 Ang^3
#
#
#
# Elastic Constant Matrix: (Units=GPa)
#
#
# Indices 1 2 3 4 5 6 
#
# 1 121.1194 34.8261 16.5807 7.4344 -11.1573 -18.8512
# 2 34.8261 96.0805 17.0066 39.8994 -15.7072 -25.1353
# 3 16.5807 17.0066 45.8086 13.8960 -1.9231 -7.1976
# 4 7.4344 39.8994 13.8960 38.0331 -8.8029 -1.4880
# 5 -11.1573 -15.7072 -1.9231 -8.8029 43.9074 6.6518
# 6 -18.8512 -25.1353 -7.1976 -1.4880 6.6518 32.1496
#
#
#
# Elastic Compliance Matrix: (Units=1/GPa)
#
#
# Indices 1 2 3 4 5 6 
#
# 1 0.009980 -0.003741 -0.002869 0.003439 0.001436 0.002147
# 2 -0.003741 0.028663 0.002704 -0.029433 0.000591 0.019337
# 3 -0.002869 0.002704 0.026442 -0.012153 -0.001979 0.006199
# 4 0.003439 -0.029433 -0.012153 0.061338 0.005443 -0.022003
# 5 0.001436 0.000591 -0.001979 0.005443 0.024970 -0.004053
# 6 0.002147 0.019337 0.006199 -0.022003 -0.004053 0.048689
#
#
# Mechanical properties :
#
#
# Convention : Reuss Voigt Hill
#
# Bulk Modulus (GPa) = 17.45996 44.42614 30.94305
# Shear Modulus (GPa) = 22.02787 35.79104 28.90945
#
# Velocity S-wave (km/s) = 3.01990 3.84941 3.45961
# Velocity P-wave (km/s) = 4.40323 6.17659 5.36370
#
# Compressibility (1/GPa) = 0.05727389
#
# Stress axis : x y z
#
# Youngs Moduli (GPa) = 100.19897 34.88761 37.81894
#
# Poissons Ratio (x) = 0.13052 0.10850
# Poissons Ratio (y) = 0.37487 -0.10228
# Poissons Ratio (z) = 0.28746 -0.09435
#
# Static dielectric constant tensor:
#      x y z
#    x 1.985620 -0.062020 -0.031110 
#    y -0.062020 2.018060 0.093210 
#    z -0.031110 0.093210 2.031510 
# 
# From -- ./inp_files/338928.got.cif
#   From: 2010.05.17/outbox.cif.g08.bks.cpg/sg2_170_cif.got.tgz:338928.got - 2010.06.03 11:33:40.
