data_PCOD9056642
_publ_section_title
;
Structure prediction by ZEFSAII (Michael W. Deem and Ramdas Pophale) SiO2 
 PCOD9056642
Probable space group: P -1
;
_chemical_formula_sum "Si O2"
_cell_formula_units_Z 16
_cell_length_a 9.860601
_cell_length_b 10.366206
_cell_length_c 9.329248
_cell_angle_alpha 80.929618
_cell_angle_beta 127.927183
_cell_angle_gamma 117.449548
_cell_volume 656.664928
_symmetry_space_group_name_H-M "P -1"
_symmetry_group_IT_number 2
_symmetry_cell_setting 'triclinic'
loop_
_space_group_symop_operation_xyz
x,y,z
-x,-y,-z
loop_
_atom_site_type_symbol
_atom_site_label
_atom_site_fract_x
_atom_site_fract_y
_atom_site_fract_z
Si Si1 0.578097 0.858710 0.129559
Si Si2 0.809967 0.589054 0.762134
Si Si3 0.014797 0.159596 0.944360
Si Si4 0.848795 0.356468 0.232920
Si Si5 0.970709 0.313226 0.623719
Si Si6 0.357881 0.997062 0.121004
Si Si7 0.537797 0.166133 0.460827
Si Si8 0.568880 0.679058 0.392339
O O1 0.653001 0.765315 0.285726
O O2 0.521894 0.953542 0.187388
O O3 0.372293 0.751771 0.937647
O O4 0.717483 0.968168 0.081699
O O5 0.689440 0.602340 0.545797
O O6 0.658752 0.433452 0.758699
O O7 0.010306 0.611901 0.818751
O O8 0.841346 0.710048 0.882186
O O9 0.029104 0.209836 0.779389
O O10 0.806307 0.133820 0.874680
O O11 0.000000 0.000000 0.000000
O O12 0.923065 0.292467 0.426251
O O13 0.879337 0.515691 0.279809
O O14 0.761666 0.280443 0.562076
O O15 0.437948 0.141468 0.245346
O O16 0.433695 0.214657 0.502876
O O17 0.500000 0.000000 0.500000
#
# Coordination Sequence:
#
# PCOD9056642 Si02
#       8
#     2   2   2   2   2   2   2   2
#     4  11  22  40  64  93 125 164 211 260 311 372
#     4  11  25  43  63  94 128 170 214 261 323 379
#     4  12  25  43  63  94 134 171 211 262 324 384
#     4  11  23  43  68  96 128 163 217 271 314 378
#     4  11  24  40  67  97 123 168 216 264 319 375
#     4  11  23  37  61  94 125 162 210 253 312 379
#     4  12  20  38  65  91 124 166 209 260 313 378
#     4  11  24  42  65  91 128 170 212 261 318 381
#
# _framework density 24.365546999999999
#
# number of rings (size 3 to 8) (size 9 to 14) (size 15 to 20)
#    0.000    0.750    6.250    1.500    0.000    2.000 
#    0.000    1.250    0.000    6.000    0.000    0.000 
#    0.000    0.000    0.000    0.000    0.000    0.000 
#
# Total GULP energy -89423.708045 kJ/mol
# GULP energy per Si atom -5588.981753 kJ/mol
# Density = 2.431009 g / cm^3
# Si number density = 24.365547 Si / 1000 Ang^3
#
#
#
# Elastic Constant Matrix: (Units=GPa)
#
#
# Indices 1 2 3 4 5 6 
#
# 1 38.9059 -1.6191 1.6738 0.7055 -11.5685 6.5884
# 2 -1.6191 73.9565 26.8082 -6.5466 -13.2385 -0.9046
# 3 1.6738 26.8082 95.1083 -9.9232 -19.0666 -2.7309
# 4 0.7055 -6.5466 -9.9232 56.1072 3.3446 -9.2532
# 5 -11.5685 -13.2385 -19.0666 3.3446 31.5136 -2.4780
# 6 6.5884 -0.9046 -2.7309 -9.2532 -2.4780 32.1508
#
#
#
# Elastic Compliance Matrix: (Units=1/GPa)
#
#
# Indices 1 2 3 4 5 6 
#
# 1 0.030445 0.002335 0.000980 -0.001603 0.012481 -0.005589
# 2 0.002335 0.015834 -0.003301 0.000974 0.005438 0.000386
# 3 0.000980 -0.003301 0.013036 0.001808 0.006814 0.001859
# 4 -0.001603 0.000974 0.001808 0.019308 -0.000661 0.006015
# 5 0.012481 0.005438 0.006814 -0.000661 0.042893 0.001290
# 6 -0.005589 0.000386 0.001859 0.006015 0.001290 0.034248
#
#
# Mechanical properties :
#
#
# Convention : Reuss Voigt Hill
#
# Bulk Modulus (GPa) = 16.85134 29.07738 22.96436
# Shear Modulus (GPa) = 28.48747 36.02820 32.25784
#
# Velocity S-wave (km/s) = 3.42302 3.84950 3.64251
# Velocity P-wave (km/s) = 4.74909 5.63186 5.20921
#
# Compressibility (1/GPa) = 0.05934247
#
# Stress axis : x y z
#
# Youngs Moduli (GPa) = 32.84650 63.15672 76.71217
#
# Poissons Ratio (x) = -0.14747 -0.07521
# Poissons Ratio (y) = -0.07670 0.25324
# Poissons Ratio (z) = -0.03220 0.20849
#
# Static dielectric constant tensor:
#      x y z
#    x 1.950180 0.004070 0.030300 
#    y 0.004070 1.953340 -0.020370 
#    z 0.030300 -0.020370 2.071440 
# 
# From -- ./inp_files/185053.got.cif
#   From: 2010.05.17/outbox.cif.g08.bks.cpg/sg2_93_cif.got.tgz:185053.got - 2010.06.03 11:33:40.
