data_PCOD9056513
_publ_section_title
;
Structure prediction by ZEFSAII (Michael W. Deem and Ramdas Pophale) SiO2 
 PCOD9056513
Probable space group: P -1
;
_chemical_formula_sum "Si O2"
_cell_formula_units_Z 14
_cell_length_a 11.156125
_cell_length_b 9.174054
_cell_length_c 12.472537
_cell_angle_alpha 64.468370
_cell_angle_beta 127.958373
_cell_angle_gamma 138.782664
_cell_volume 661.957767
_symmetry_space_group_name_H-M "P -1"
_symmetry_group_IT_number 2
_symmetry_cell_setting 'triclinic'
loop_
_space_group_symop_operation_xyz
x,y,z
-x,-y,-z
loop_
_atom_site_type_symbol
_atom_site_label
_atom_site_fract_x
_atom_site_fract_y
_atom_site_fract_z
Si Si1 0.269578 0.707362 0.868251
Si Si2 0.622942 0.183525 0.861565
Si Si3 0.773286 0.715048 0.347531
Si Si4 0.012441 0.207496 0.342257
Si Si5 0.688287 0.589149 0.742066
Si Si6 0.908147 0.104978 0.982123
Si Si7 0.147172 0.272720 0.857101
O O1 0.253062 0.514075 0.878676
O O2 0.062012 0.667515 0.770797
O O3 0.422630 0.927767 0.811114
O O4 0.361835 0.766943 0.019338
O O5 0.636315 0.365196 0.757079
O O6 0.811589 0.203393 0.930567
O O7 0.908973 0.739220 0.510183
O O8 0.530553 0.501965 0.306346
O O9 0.849591 0.716758 0.272074
O O10 0.821374 0.942902 0.306226
O O11 0.195862 0.269596 0.347188
O O12 0.867406 0.734548 0.885151
O O13 0.776858 0.854344 0.030704
O O14 0.940440 0.122288 0.866549
#
# Coordination Sequence:
#
# PCOD9056513 Si02
#       7
#     2   2   2   2   2   2   2
#     4  11  22  39  66  92 129 164 211 255 318 372
#     4  11  22  39  65  98 122 166 210 259 311 379
#     4  11  25  42  66  91 128 170 215 253 313 370
#     4  11  23  45  66  90 124 172 218 260 293 379
#     4  12  21  41  69  96 120 165 213 266 301 376
#     4  11  23  38  64  96 133 160 205 260 324 374
#     4  11  24  40  60  96 134 167 196 266 321 373
#
# _framework density 21.149387000000001
#
# number of rings (size 3 to 8) (size 9 to 14) (size 15 to 20)
#    0.000    0.857    5.714    1.714    2.000    4.000 
#    0.000    0.000    0.000    2.571    0.000    0.000 
#    0.000    0.000    0.000    0.000    0.000    0.000 
#
# Total GULP energy -78106.694315 kJ/mol
# GULP energy per Si atom -5579.049594 kJ/mol
# Density = 2.110125 g / cm^3
# Si number density = 21.149387 Si / 1000 Ang^3
#
#
#
# Elastic Constant Matrix: (Units=GPa)
#
#
# Indices 1 2 3 4 5 6 
#
# 1 47.8607 35.5314 42.4292 24.5078 -24.2008 11.3996
# 2 35.5314 99.4184 4.8568 -8.9176 -1.4330 -5.3851
# 3 42.4292 4.8568 47.9786 -2.8287 -26.4573 13.7081
# 4 24.5078 -8.9176 -2.8287 16.6212 -1.0407 -2.3204
# 5 -24.2008 -1.4330 -26.4573 -1.0407 30.1163 -9.4714
# 6 11.3996 -5.3851 13.7081 -2.3204 -9.4714 34.4201
#
#
#
# Elastic Compliance Matrix: (Units=1/GPa)
#
#
# Indices 1 2 3 4 5 6 
#
# 1 -0.017290 0.008599 0.017924 0.033925 0.004524 0.003465
# 2 0.008599 0.006535 -0.010174 -0.010876 -0.001777 0.001004
# 3 0.017924 -0.010174 0.024758 -0.027185 0.031403 -0.010580
# 4 0.033925 -0.010876 -0.027185 -0.000377 0.002383 -0.001480
# 5 0.004524 -0.001777 0.031403 0.002383 0.065667 0.003947
# 6 0.003465 0.001004 -0.010580 -0.001480 0.003947 0.033262
#
#
# Mechanical properties :
#
#
# Convention : Reuss Voigt Hill
#
# Bulk Modulus (GPa) = 21.41203 40.09915 30.75559
# Shear Modulus (GPa) = 52.39715 23.72755 38.06235
#
# Velocity S-wave (km/s) = 4.98283 3.35311 4.24688
# Velocity P-wave (km/s) = 6.57654 5.83029 6.21463
#
# Compressibility (1/GPa) = 0.04670272
#
# Stress axis : x y z
#
# Youngs Moduli (GPa) = -57.83762 153.01295 40.39054
#
# Poissons Ratio (x) = -1.31583 -0.72398
# Poissons Ratio (y) = 0.49737 0.41095
# Poissons Ratio (z) = 1.03670 1.55682
#
# Static dielectric constant tensor:
#      x y z
#    x 1.819280 0.037830 0.021510 
#    y 0.037830 1.828950 -0.010370 
#    z 0.021510 -0.010370 1.754680 
# 
# From -- ./inp_files/416940.got.cif
#   From: 2010.05.17/outbox.cif.g08.bks.cpg/sg2_209_cif.got.tgz:416940.got - 2010.06.03 11:33:40.
