data_PCOD9056725
_publ_section_title
;
Structure prediction by ZEFSAII (Michael W. Deem and Ramdas Pophale) SiO2 
 PCOD9056725
Probable space group: P -1
;
_chemical_formula_sum "Si O2"
_cell_formula_units_Z 12
_cell_length_a 9.314152
_cell_length_b 24.583277
_cell_length_c 5.185242
_cell_angle_alpha 93.037012
_cell_angle_beta 72.810166
_cell_angle_gamma 146.789309
_cell_volume 576.835018
_symmetry_space_group_name_H-M "P -1"
_symmetry_group_IT_number 2
_symmetry_cell_setting 'triclinic'
loop_
_space_group_symop_operation_xyz
x,y,z
-x,-y,-z
loop_
_atom_site_type_symbol
_atom_site_label
_atom_site_fract_x
_atom_site_fract_y
_atom_site_fract_z
Si Si1 0.694761 0.392291 0.278755
Si Si2 0.137864 0.727625 0.074312
Si Si3 0.180403 0.241704 0.165869
Si Si4 0.134989 0.661774 0.556818
Si Si5 0.479533 0.426060 0.748661
Si Si6 0.199361 0.873366 0.150843
O O1 0.457907 0.299375 0.167968
O O2 0.751496 0.363293 0.450913
O O3 0.576972 0.409366 0.490449
O O4 0.000000 0.500000 0.000000
O O5 0.235489 0.720407 0.255015
O O6 0.241251 0.822129 0.061857
O O7 0.778712 0.618263 0.245055
O O8 0.227143 0.728490 0.760427
O O9 0.937858 0.166457 0.500824
O O10 0.315384 0.343158 0.048647
O O11 0.030826 0.177423 0.959866
O O12 0.777886 0.546602 0.714328
O O13 0.500000 0.000000 0.000000
#
# Coordination Sequence:
#
# PCOD9056725 Si02
#       6
#     2   2   2   2   2   2
#     4  12  24  40  64  95 141 185 212 235 308 405
#     4  11  24  40  61  94 126 164 218 274 324 359
#     4  11  22  40  67  97 122 166 227 257 304 378
#     4  12  25  36  61  96 140 170 201 260 319 381
#     4  11  23  40  62  91 137 179 219 243 304 398
#     4  11  24  45  72  93 118 164 229 285 320 369
#
# _framework density 20.803176000000001
#
# number of rings (size 3 to 8) (size 9 to 14) (size 15 to 20)
#    0.000    0.667    5.000    5.000    2.333    0.000 
#    0.000    0.000    0.000    6.000    0.000    0.000 
#    0.000    0.000    0.000    0.000    0.000    0.000 
#
# Total GULP energy -67124.809940 kJ/mol
# GULP energy per Si atom -5593.734162 kJ/mol
# Density = 2.075583 g / cm^3
# Si number density = 20.803176 Si / 1000 Ang^3
#
#
#
# Elastic Constant Matrix: (Units=GPa)
#
#
# Indices 1 2 3 4 5 6 
#
# 1 91.3256 7.4731 25.8155 15.1645 27.5015 4.3708
# 2 7.4731 85.2708 29.3781 -11.2666 12.6357 13.7879
# 3 25.8155 29.3781 124.4162 6.3647 19.9921 6.9427
# 4 15.1645 -11.2666 6.3647 34.0877 0.9032 -4.3603
# 5 27.5015 12.6357 19.9921 0.9032 38.3458 9.5568
# 6 4.3708 13.7879 6.9427 -4.3603 9.5568 21.6116
#
#
#
# Elastic Compliance Matrix: (Units=1/GPa)
#
#
# Indices 1 2 3 4 5 6 
#
# 1 0.015473 -0.000391 -0.001162 -0.006417 -0.010411 0.000802
# 2 -0.000391 0.014745 -0.003040 0.004788 -0.001423 -0.006756
# 3 -0.001162 -0.003040 0.009610 -0.002196 -0.003131 0.000029
# 4 -0.006417 0.004788 -0.002196 0.034772 0.002095 0.005038
# 5 -0.010411 -0.001423 -0.003131 0.002095 0.038762 -0.012699
# 6 0.000802 -0.006756 0.000029 0.005038 -0.012699 0.057043
#
#
# Mechanical properties :
#
#
# Convention : Reuss Voigt Hill
#
# Bulk Modulus (GPa) = 32.63386 47.37178 40.00282
# Shear Modulus (GPa) = 26.34301 34.69874 30.52087
#
# Velocity S-wave (km/s) = 3.56237 4.08849 3.83446
# Velocity P-wave (km/s) = 5.71329 6.71629 6.23499
#
# Compressibility (1/GPa) = 0.03064302
#
# Stress axis : x y z
#
# Youngs Moduli (GPa) = 64.63058 67.82025 104.05573
#
# Poissons Ratio (x) = 0.02649 0.12089
# Poissons Ratio (y) = 0.02524 0.31633
# Poissons Ratio (z) = 0.07509 0.20617
#
# Static dielectric constant tensor:
#      x y z
#    x 1.788100 0.017720 0.007170 
#    y 0.017720 1.736390 0.041860 
#    z 0.007170 0.041860 1.760340 
# 
# From -- ./inp_files/40323.got.cif
#   From: 2010.05.17/outbox.cif.g08.bks.cpg/sg2_21_cif.got.tgz:40323.got - 2010.06.03 11:33:40.
