data_PCOD9056700
_publ_section_title
;
Structure prediction by ZEFSAII (Michael W. Deem and Ramdas Pophale) SiO2 
 PCOD9056700
Probable space group: P -1
;
_chemical_formula_sum "Si O2"
_cell_formula_units_Z 12
_cell_length_a 15.566393
_cell_length_b 9.715644
_cell_length_c 10.805461
_cell_angle_alpha 129.153234
_cell_angle_beta 149.349231
_cell_angle_gamma 36.603738
_cell_volume 487.248867
_symmetry_space_group_name_H-M "P -1"
_symmetry_group_IT_number 2
_symmetry_cell_setting 'triclinic'
loop_
_space_group_symop_operation_xyz
x,y,z
-x,-y,-z
loop_
_atom_site_type_symbol
_atom_site_label
_atom_site_fract_x
_atom_site_fract_y
_atom_site_fract_z
Si Si1 0.201977 0.750121 0.050692
Si Si2 0.770113 0.196178 0.162409
Si Si3 0.856955 0.593085 0.191563
Si Si4 0.937190 0.301035 0.662559
Si Si5 0.442162 0.196401 0.441450
Si Si6 0.362272 0.215986 0.713800
O O1 0.187645 0.730132 0.872307
O O2 0.211162 0.555695 0.019367
O O3 0.411999 0.730510 0.314947
O O4 0.000000 0.000000 0.000000
O O5 0.804840 0.284555 0.381363
O O6 0.533082 0.256606 0.910694
O O7 0.960447 0.912068 0.238656
O O8 0.700791 0.741914 0.197855
O O9 0.859171 0.749460 0.186706
O O10 0.119849 0.397184 0.448202
O O11 0.802644 0.554976 0.702041
O O12 0.500000 0.000000 0.500000
O O13 0.522557 0.046767 0.332438
#
# Coordination Sequence:
#
# PCOD9056700 Si02
#       6
#     2   2   2   2   2   2
#     4  12  23  41  68  99 127 170 220 274 317 380
#     4  11  25  44  68  93 138 175 217 262 335 394
#     4  11  23  41  68  97 133 169 224 268 319 386
#     4  11  25  45  67  97 132 178 214 268 331 391
#     4  12  22  42  67 101 129 170 224 269 323 387
#     4  11  22  40  66  99 128 174 215 274 315 387
#
# _framework density 24.628070999999998
#
# number of rings (size 3 to 8) (size 9 to 14) (size 15 to 20)
#    0.000    0.667    5.000    3.000    0.000    3.333 
#    0.000    2.500    0.000    0.000    0.000    0.000 
#    0.000    0.000    0.000    0.000    0.000    0.000 
#
# Total GULP energy -67210.018291 kJ/mol
# GULP energy per Si atom -5600.834858 kJ/mol
# Density = 2.457202 g / cm^3
# Si number density = 24.628071 Si / 1000 Ang^3
#
#
#
# Elastic Constant Matrix: (Units=GPa)
#
#
# Indices 1 2 3 4 5 6 
#
# 1 61.5695 27.1772 13.8405 1.6372 18.8067 -23.2731
# 2 27.1772 127.1797 11.7469 12.6397 -5.2432 -26.0932
# 3 13.8405 11.7469 112.0929 12.0715 16.9443 5.6729
# 4 1.6372 12.6397 12.0715 39.6526 7.4324 9.7902
# 5 18.8067 -5.2432 16.9443 7.4324 28.8647 8.6795
# 6 -23.2731 -26.0932 5.6729 9.7902 8.6795 56.5932
#
#
#
# Elastic Compliance Matrix: (Units=1/GPa)
#
#
# Indices 1 2 3 4 5 6 
#
# 1 0.032196 -0.005102 -0.000358 0.001757 -0.026565 0.014694
# 2 -0.005102 0.010286 -0.001024 -0.004555 0.006189 0.002586
# 3 -0.000358 -0.001024 0.010072 -0.001600 -0.005291 -0.000541
# 4 0.001757 -0.004555 -0.001600 0.029717 -0.007101 -0.005269
# 5 -0.026565 0.006189 -0.005291 -0.007101 0.062806 -0.015944
# 6 0.014694 0.002586 -0.000541 -0.005269 -0.015944 0.028316
#
#
# Mechanical properties :
#
#
# Convention : Reuss Voigt Hill
#
# Bulk Modulus (GPa) = 25.26108 45.15238 35.20673
# Shear Modulus (GPa) = 25.05553 41.56060 33.30806
#
# Velocity S-wave (km/s) = 3.19306 4.11241 3.68155
# Velocity P-wave (km/s) = 4.88605 6.39709 5.69193
#
# Compressibility (1/GPa) = 0.03958658
#
# Stress axis : x y z
#
# Youngs Moduli (GPa) = 31.05944 97.21855 99.28421
#
# Poissons Ratio (x) = 0.49602 0.03554
# Poissons Ratio (y) = 0.15847 0.10165
# Poissons Ratio (z) = 0.01112 0.09954
#
# Static dielectric constant tensor:
#      x y z
#    x 2.014490 -0.052070 0.052320 
#    y -0.052070 1.994640 -0.117370 
#    z 0.052320 -0.117370 2.194590 
# 
# From -- ./inp_files/448262.got.cif
#   From: 2010.05.17/outbox.cif.g08.bks.cpg/sg2_225_cif.got.tgz:448262.got - 2010.06.03 11:33:40.
