data_PCOD9056750
_publ_section_title
;
Structure prediction by ZEFSAII (Michael W. Deem and Ramdas Pophale) SiO2 
 PCOD9056750
Probable space group: P -1
;
_chemical_formula_sum "Si O2"
_cell_formula_units_Z 16
_cell_length_a 9.243413
_cell_length_b 15.043975
_cell_length_c 11.550498
_cell_angle_alpha 60.997483
_cell_angle_beta 142.021930
_cell_angle_gamma 137.569661
_cell_volume 648.416525
_symmetry_space_group_name_H-M "P -1"
_symmetry_group_IT_number 2
_symmetry_cell_setting 'triclinic'
loop_
_space_group_symop_operation_xyz
x,y,z
-x,-y,-z
loop_
_atom_site_type_symbol
_atom_site_label
_atom_site_fract_x
_atom_site_fract_y
_atom_site_fract_z
Si Si1 0.351558 0.399707 0.579132
Si Si2 0.918530 0.535045 0.174895
Si Si3 0.814210 0.931318 0.044830
Si Si4 0.387911 0.682855 0.050737
Si Si5 0.616699 0.465134 0.270344
Si Si6 0.887049 0.823933 0.787687
Si Si7 0.617033 0.186765 0.806832
Si Si8 0.820403 0.114046 0.319246
O O1 0.500000 0.500000 0.500000
O O2 0.620718 0.414543 0.807073
O O3 0.240759 0.442478 0.584148
O O4 0.089191 0.239904 0.487930
O O5 0.839961 0.508628 0.276420
O O6 0.252409 0.682733 0.267583
O O7 0.865626 0.414698 0.147094
O O8 0.654547 0.536172 0.951702
O O9 0.701619 0.787977 0.104653
O O10 0.480875 0.897049 0.853418
O O11 0.040766 0.041211 0.216537
O O12 0.000000 0.000000 0.000000
O O13 0.396810 0.776230 0.092501
O O14 0.446637 0.315184 0.302789
O O15 0.010909 0.837293 0.729908
O O16 0.119117 0.824575 0.015521
O O17 0.318962 0.040317 0.662882
#
# Coordination Sequence:
#
# PCOD9056750 Si02
#       8
#     2   2   2   2   2   2   2   2
#     4  11  24  39  61  88 126 171 204 249 313 375
#     4   9  19  32  57  88 116 151 204 266 300 343
#     4  11  22  38  64  97 124 156 210 265 308 360
#     4  11  21  37  61  93 119 158 216 257 299 370
#     4   9  18  36  57  83 117 161 205 246 306 364
#     4  10  17  36  63  85 121 159 203 257 306 354
#     4  10  19  35  59  92 119 155 209 259 304 362
#     4  11  21  39  62  87 124 167 202 247 315 371
#
# _framework density 24.675495999999999
#
# number of rings (size 3 to 8) (size 9 to 14) (size 15 to 20)
#    0.000    1.750    3.750    1.875    0.000    4.500 
#    0.000    2.500    0.000    2.250    0.000    0.000 
#    0.000    0.000    0.000    0.000    0.000    0.000 
#
# Total GULP energy -89349.522180 kJ/mol
# GULP energy per Si atom -5584.345136 kJ/mol
# Density = 2.461933 g / cm^3
# Si number density = 24.675496 Si / 1000 Ang^3
#
#
#
# Elastic Constant Matrix: (Units=GPa)
#
#
# Indices 1 2 3 4 5 6 
#
# 1 139.1919 76.6308 58.2900 15.9943 -32.3170 38.4663
# 2 76.6308 178.2272 43.4661 37.9399 -33.5628 26.4810
# 3 58.2900 43.4661 87.0208 17.5773 -23.5116 2.4374
# 4 15.9943 37.9399 17.5773 43.4922 -10.7298 -8.0292
# 5 -32.3170 -33.5628 -23.5116 -10.7298 44.7195 -5.3813
# 6 38.4663 26.4810 2.4374 -8.0292 -5.3813 48.8344
#
#
#
# Elastic Compliance Matrix: (Units=1/GPa)
#
#
# Indices 1 2 3 4 5 6 
#
# 1 0.015642 -0.002158 -0.007682 -0.001753 0.003947 -0.010621
# 2 -0.002158 0.009455 -0.000954 -0.007161 0.002806 -0.004248
# 3 -0.007682 -0.000954 0.018288 -0.001779 0.003614 0.005761
# 4 -0.001753 -0.007161 -0.001779 0.033040 0.001671 0.010969
# 5 0.003947 0.002806 0.003614 0.001671 0.029466 -0.001289
# 6 -0.010621 -0.004248 0.005761 0.010969 -0.001289 0.032521
#
#
# Mechanical properties :
#
#
# Convention : Reuss Voigt Hill
#
# Bulk Modulus (GPa) = 45.87506 84.57929 65.22717
# Shear Modulus (GPa) = 29.89247 42.47941 36.18594
#
# Velocity S-wave (km/s) = 3.48433 4.15362 3.83361
# Velocity P-wave (km/s) = 5.90077 7.57328 6.78873
#
# Compressibility (1/GPa) = 0.02179834
#
# Stress axis : x y z
#
# Youngs Moduli (GPa) = 63.92963 105.76190 54.68024
#
# Poissons Ratio (x) = 0.22819 0.42006
# Poissons Ratio (y) = 0.13793 0.05216
# Poissons Ratio (z) = 0.49112 0.10089
#
# Static dielectric constant tensor:
#      x y z
#    x 1.957680 -0.095940 0.050190 
#    y -0.095940 2.035230 -0.040630 
#    z 0.050190 -0.040630 2.049970 
# 
# From -- ./inp_files/354434.got.cif
#   From: 2010.05.17/outbox.cif.g08.bks.cpg/sg2_178_cif.got.tgz:354434.got - 2010.06.03 11:33:40.
