data_PCOD9056284
_publ_section_title
;
Structure prediction by ZEFSAII (Michael W. Deem and Ramdas Pophale) SiO2 
 PCOD9056284
Probable space group: P -1
;
_chemical_formula_sum "Si O2"
_cell_formula_units_Z 14
_cell_length_a 13.246885
_cell_length_b 5.398682
_cell_length_c 10.823363
_cell_angle_alpha 65.918585
_cell_angle_beta 85.338696
_cell_angle_gamma 52.313168
_cell_volume 543.872591
_symmetry_space_group_name_H-M "P -1"
_symmetry_group_IT_number 2
_symmetry_cell_setting 'triclinic'
loop_
_space_group_symop_operation_xyz
x,y,z
-x,-y,-z
loop_
_atom_site_type_symbol
_atom_site_label
_atom_site_fract_x
_atom_site_fract_y
_atom_site_fract_z
Si Si1 0.149050 0.342705 0.692536
Si Si2 0.968032 0.375412 0.906591
Si Si3 0.758898 0.238438 0.382714
Si Si4 0.719027 0.549141 0.807830
Si Si5 0.612755 0.579322 0.581976
Si Si6 0.510008 0.218231 0.799769
Si Si7 0.355801 0.848976 0.973142
O O1 0.141838 0.680639 0.621888
O O2 0.327306 0.628697 0.510444
O O3 0.039945 0.385391 0.779654
O O4 0.171180 0.146020 0.601764
O O5 0.815014 0.612691 0.837943
O O6 0.000000 0.500000 0.000000
O O7 0.000000 0.000000 0.000000
O O8 0.646246 0.505992 0.237744
O O9 0.719242 0.923916 0.184460
O O10 0.732323 0.484905 0.673798
O O11 0.730276 0.246064 0.940031
O O12 0.567911 0.893644 0.770251
O O13 0.552288 0.432378 0.693445
O O14 0.500000 0.000000 0.500000
O O15 0.601575 0.017209 0.951296
O O16 0.500000 0.500000 0.000000
#
# Coordination Sequence:
#
# PCOD9056284 Si02
#       7
#     2   2   2   2   2   2   2
#     4  12  26  43  68 101 139 184 230 286 354 405
#     4  12  26  49  73  99 142 186 238 283 338 424
#     4  12  25  43  67 101 142 181 225 293 347 411
#     4  11  25  42  70 101 134 185 235 284 341 418
#     4  11  24  44  68 104 140 185 235 282 348 420
#     4  11  23  39  69 100 138 182 227 286 353 417
#     4  11  22  37  62 103 138 169 218 289 357 413
#
# _framework density 25.741322
#
# number of rings (size 3 to 8) (size 9 to 14) (size 15 to 20)
#    0.000    0.571    4.286    3.857    6.000    1.143 
#    0.000    1.429    0.000    0.000    0.000    0.000 
#    0.000    0.000    0.000    0.000    0.000    0.000 
#
# Total GULP energy -78311.599549 kJ/mol
# GULP energy per Si atom -5593.685682 kJ/mol
# Density = 2.568273 g / cm^3
# Si number density = 25.741322 Si / 1000 Ang^3
#
#
#
# Elastic Constant Matrix: (Units=GPa)
#
#
# Indices 1 2 3 4 5 6 
#
# 1 165.9816 45.1960 27.6735 13.7304 -12.0767 21.1247
# 2 45.1960 95.0836 25.1557 27.6296 -1.9170 25.5968
# 3 27.6735 25.1557 66.3451 14.4253 2.3109 24.6600
# 4 13.7304 27.6296 14.4253 42.9111 10.3100 4.2780
# 5 -12.0767 -1.9170 2.3109 10.3100 42.6767 2.0192
# 6 21.1247 25.5968 24.6600 4.2780 2.0192 53.1120
#
#
#
# Elastic Compliance Matrix: (Units=1/GPa)
#
#
# Indices 1 2 3 4 5 6 
#
# 1 0.007337 -0.002582 -0.001692 -0.000559 0.002231 -0.000927
# 2 -0.002582 0.016341 -0.001045 -0.009400 0.002601 -0.005705
# 3 -0.001692 -0.001045 0.020097 -0.004743 -0.000101 -0.007769
# 4 -0.000559 -0.009400 -0.004743 0.032695 -0.008442 0.004642
# 5 0.002231 0.002601 -0.000101 -0.008442 0.026339 -0.002415
# 6 -0.000927 -0.005705 -0.007769 0.004642 -0.002415 0.025271
#
#
# Mechanical properties :
#
#
# Convention : Reuss Voigt Hill
#
# Bulk Modulus (GPa) = 30.17981 58.16231 44.17106
# Shear Modulus (GPa) = 33.38565 43.03228 38.20897
#
# Velocity S-wave (km/s) = 3.60525 4.09310 3.85690
# Velocity P-wave (km/s) = 5.39260 6.70686 6.08531
#
# Compressibility (1/GPa) = 0.03313474
#
# Stress axis : x y z
#
# Youngs Moduli (GPa) = 136.30016 61.19725 49.75837
#
# Poissons Ratio (x) = 0.15804 0.08421
# Poissons Ratio (y) = 0.35198 0.05200
# Poissons Ratio (z) = 0.23068 0.06395
#
# Static dielectric constant tensor:
#      x y z
#    x 2.051760 0.027760 0.032200 
#    y 0.027760 2.162060 0.145060 
#    z 0.032200 0.145060 2.256410 
# 
# From -- ./inp_files/409820.got.cif
#   From: 2010.05.17/outbox.cif.g08.bks.cpg/sg2_205_cif.got.tgz:409820.got - 2010.06.03 11:33:40.
