data_PCOD9056859
_publ_section_title
;
Structure prediction by ZEFSAII (Michael W. Deem and Ramdas Pophale) SiO2 
 PCOD9056859
Probable space group: P -1
;
_chemical_formula_sum "Si O2"
_cell_formula_units_Z 14
_cell_length_a 8.012377
_cell_length_b 9.426031
_cell_length_c 19.070973
_cell_angle_alpha 39.572082
_cell_angle_beta 59.891105
_cell_angle_gamma 48.134064
_cell_volume 683.067861
_symmetry_space_group_name_H-M "P -1"
_symmetry_group_IT_number 2
_symmetry_cell_setting 'triclinic'
loop_
_space_group_symop_operation_xyz
x,y,z
-x,-y,-z
loop_
_atom_site_type_symbol
_atom_site_label
_atom_site_fract_x
_atom_site_fract_y
_atom_site_fract_z
Si Si1 0.936057 0.758864 0.787662
Si Si2 0.913134 0.070380 0.812509
Si Si3 0.379093 0.942331 0.609115
Si Si4 0.297511 0.527451 0.987460
Si Si5 0.067921 0.897279 0.446805
Si Si6 0.437232 0.422067 0.837769
Si Si7 0.130030 0.378017 0.592596
O O1 0.800973 0.630276 0.894062
O O2 0.195460 0.524360 0.812366
O O3 0.929184 0.945697 0.780382
O O4 0.828989 0.946577 0.672002
O O5 0.664638 0.177009 0.855300
O O6 0.985905 0.286393 0.703584
O O7 0.102198 0.827543 0.908255
O O8 0.485491 0.653821 0.723973
O O9 0.500000 0.000000 0.500000
O O10 0.150215 0.007701 0.592804
O O11 0.341401 0.120115 0.616455
O O12 0.500000 0.500000 0.000000
O O13 0.383492 0.419942 0.931766
O O14 0.180280 0.586896 0.537258
O O15 0.000000 0.000000 0.500000
O O16 0.000000 0.500000 0.500000
#
# Coordination Sequence:
#
# PCOD9056859 Si02
#       7
#     2   2   2   2   2   2   2
#     4  10  22  41  63  89 130 165 215 268 308 378
#     4  11  20  40  70  93 120 168 221 259 309 382
#     4  10  19  34  63  92 123 166 217 256 308 384
#     4  11  25  42  60  91 132 165 207 269 326 377
#     4  10  21  38  59  93 132 165 202 267 324 373
#     4  10  20  38  66  92 116 166 219 259 310 373
#     4  10  17  36  63  92 127 162 210 259 312 380
#
# _framework density 20.495767000000001
#
# number of rings (size 3 to 8) (size 9 to 14) (size 15 to 20)
#    0.000    1.714    5.714    3.429    0.000    5.143 
#    0.000    3.571    0.000    0.000    0.000    0.000 
#    0.000    0.000    0.000    0.000    0.000    0.000 
#
# Total GULP energy -78037.634266 kJ/mol
# GULP energy per Si atom -5574.116733 kJ/mol
# Density = 2.044912 g / cm^3
# Si number density = 20.495767 Si / 1000 Ang^3
#
#
#
# Elastic Constant Matrix: (Units=GPa)
#
#
# Indices 1 2 3 4 5 6 
#
# 1 54.9552 43.2860 45.2581 0.6844 -6.4266 -5.9691
# 2 43.2860 114.7923 39.8398 6.3203 -1.2552 -12.7129
# 3 45.2581 39.8398 160.0914 8.7227 -31.7150 3.3326
# 4 0.6844 6.3203 8.7227 24.4376 -9.7841 -6.3259
# 5 -6.4266 -1.2552 -31.7150 -9.7841 25.5559 8.4628
# 6 -5.9691 -12.7129 3.3326 -6.3259 8.4628 30.8421
#
#
#
# Elastic Compliance Matrix: (Units=1/GPa)
#
#
# Indices 1 2 3 4 5 6 
#
# 1 0.031725 -0.009242 -0.007234 0.004791 -0.001072 0.004389
# 2 -0.009242 0.013714 -0.002231 -0.004230 -0.007822 0.005384
# 3 -0.007234 -0.002231 0.012150 0.000843 0.016079 -0.007872
# 4 0.004791 -0.004230 0.000843 0.050663 0.020127 0.003961
# 5 -0.001072 -0.007822 0.016079 0.020127 0.073125 -0.021105
# 6 0.004389 0.005384 -0.007872 0.003961 -0.021105 0.042946
#
#
# Mechanical properties :
#
#
# Convention : Reuss Voigt Hill
#
# Bulk Modulus (GPa) = 49.56502 65.17852 57.37177
# Shear Modulus (GPa) = 18.62461 29.59746 24.11103
#
# Velocity S-wave (km/s) = 3.01774 3.80422 3.43358
# Velocity P-wave (km/s) = 6.03141 7.15305 6.61604
#
# Compressibility (1/GPa) = 0.02017552
#
# Stress axis : x y z
#
# Youngs Moduli (GPa) = 31.52106 72.91616 82.30502
#
# Poissons Ratio (x) = 0.67388 0.59536
# Poissons Ratio (y) = 0.29131 0.18366
# Poissons Ratio (z) = 0.22801 0.16271
#
# Static dielectric constant tensor:
#      x y z
#    x 1.759130 -0.028110 -0.087800 
#    y -0.028110 1.789240 -0.059260 
#    z -0.087800 -0.059260 1.935590 
# 
# From -- ./inp_files/197100.got.cif
#   From: 2010.05.17/outbox.cif.g08.bks.cpg/sg2_99_cif.got.tgz:197100.got - 2010.06.03 11:33:40.
