data_PCOD9056339
_publ_section_title
;
Structure prediction by ZEFSAII (Michael W. Deem and Ramdas Pophale) SiO2 
 PCOD9056339
Probable space group: P -1
;
_chemical_formula_sum "Si O2"
_cell_formula_units_Z 16
_cell_length_a 12.046316
_cell_length_b 12.569635
_cell_length_c 12.434040
_cell_angle_alpha 92.743429
_cell_angle_beta 63.718122
_cell_angle_gamma 38.936943
_cell_volume 761.626296
_symmetry_space_group_name_H-M "P -1"
_symmetry_group_IT_number 2
_symmetry_cell_setting 'triclinic'
loop_
_space_group_symop_operation_xyz
x,y,z
-x,-y,-z
loop_
_atom_site_type_symbol
_atom_site_label
_atom_site_fract_x
_atom_site_fract_y
_atom_site_fract_z
Si Si1 0.317924 0.541450 0.033873
Si Si2 0.835995 0.794541 0.593787
Si Si3 0.245382 0.000348 0.575258
Si Si4 0.683191 0.060938 0.857976
Si Si5 0.762664 0.054300 0.047201
Si Si6 0.366177 0.629662 0.811367
Si Si7 0.148728 0.842552 0.536248
Si Si8 0.394810 0.251022 0.394726
O O1 0.027581 0.770960 0.227089
O O2 0.500000 0.500000 0.000000
O O3 0.429400 0.336441 0.982490
O O4 0.327713 0.560878 0.904469
O O5 0.805943 0.900298 0.511712
O O6 0.702096 0.788573 0.608931
O O7 0.143188 0.525227 0.488835
O O8 0.684286 0.964203 0.769095
O O9 0.264759 0.858808 0.542440
O O10 0.507190 0.831241 0.527524
O O11 0.718286 0.008395 0.965911
O O12 0.932556 0.945435 0.705851
O O13 0.590422 0.296854 0.134144
O O14 0.660305 0.082750 0.203413
O O15 0.071360 0.860505 0.893407
O O16 0.610035 0.420432 0.616271
O O17 0.000000 0.000000 0.500000
#
# Coordination Sequence:
#
# PCOD9056339 Si02
#       8
#     2   2   2   2   2   2   2   2
#     4  12  20  38  64  99 131 169 207 258 339 398
#     4  11  26  47  68  96 130 173 228 277 325 378
#     4  12  23  44  72  97 133 174 218 272 330 395
#     4  12  24  39  66  96 132 172 210 268 331 393
#     4  11  24  40  61  93 131 169 212 266 326 391
#     4  11  22  38  59  95 133 164 207 262 328 395
#     4  12  22  37  64 101 133 166 212 266 332 401
#     4  11  26  47  70  93 128 180 227 273 322 386
#
# _framework density 21.007677000000001
#
# number of rings (size 3 to 8) (size 9 to 14) (size 15 to 20)
#    0.000    0.500    6.250    1.875    3.500    1.000 
#    0.000    0.625    0.000    0.000    0.000    0.000 
#    0.000    0.000    0.000    0.000    0.000    0.000 
#
# Total GULP energy -89320.703447 kJ/mol
# GULP energy per Si atom -5582.543965 kJ/mol
# Density = 2.095986 g / cm^3
# Si number density = 21.007677 Si / 1000 Ang^3
#
#
#
# Elastic Constant Matrix: (Units=GPa)
#
#
# Indices 1 2 3 4 5 6 
#
# 1 88.7874 17.6715 23.1337 28.9861 30.9853 -6.0155
# 2 17.6715 61.4245 24.9075 10.0992 14.2248 -10.3490
# 3 23.1337 24.9075 80.4396 15.9077 20.0059 -14.3386
# 4 28.9861 10.0992 15.9077 27.2020 0.2438 0.3321
# 5 30.9853 14.2248 20.0059 0.2438 35.6014 -4.5482
# 6 -6.0155 -10.3490 -14.3386 0.3321 -4.5482 27.9134
#
#
#
# Elastic Compliance Matrix: (Units=1/GPa)
#
#
# Indices 1 2 3 4 5 6 
#
# 1 0.035575 0.003281 0.007375 -0.043215 -0.035169 0.007455
# 2 0.003281 0.020989 -0.002081 -0.010063 -0.009232 0.006036
# 3 0.007375 -0.002081 0.020149 -0.018837 -0.015651 0.008842
# 4 -0.043215 -0.010063 -0.018837 0.097312 0.049531 -0.015807
# 5 -0.035169 -0.009232 -0.015651 0.049531 0.069787 -0.008260
# 6 0.007455 0.006036 0.008842 -0.015807 -0.008260 0.043054
#
#
# Mechanical properties :
#
#
# Convention : Reuss Voigt Hill
#
# Bulk Modulus (GPa) = 10.65384 40.23077 25.44230
# Shear Modulus (GPa) = 16.61109 29.13928 22.87518
#
# Velocity S-wave (km/s) = 2.81502 3.72839 3.30342
# Velocity P-wave (km/s) = 3.95578 6.14220 5.16598
#
# Compressibility (1/GPa) = 0.09386291
#
# Stress axis : x y z
#
# Youngs Moduli (GPa) = 28.10959 47.64294 49.63076
#
# Poissons Ratio (x) = -0.15629 -0.36602
# Poissons Ratio (y) = -0.09221 0.10327
# Poissons Ratio (z) = -0.20731 0.09913
#
# Static dielectric constant tensor:
#      x y z
#    x 1.769780 -0.062520 0.005430 
#    y -0.062520 1.928680 0.002260 
#    z 0.005430 0.002260 1.718980 
# 
# From -- ./inp_files/239635.got.cif
#   From: 2010.05.17/outbox.cif.g08.bks.cpg/sg2_120_cif.got.tgz:239635.got - 2010.06.03 11:33:40.
