data_PCOD9056530
_publ_section_title
;
Structure prediction by ZEFSAII (Michael W. Deem and Ramdas Pophale) SiO2 
 PCOD9056530
Probable space group: P -1
;
_chemical_formula_sum "Si O2"
_cell_formula_units_Z 14
_cell_length_a 15.066300
_cell_length_b 8.491444
_cell_length_c 11.382317
_cell_angle_alpha 83.749101
_cell_angle_beta 50.354921
_cell_angle_gamma 123.834572
_cell_volume 640.853511
_symmetry_space_group_name_H-M "P -1"
_symmetry_group_IT_number 2
_symmetry_cell_setting 'triclinic'
loop_
_space_group_symop_operation_xyz
x,y,z
-x,-y,-z
loop_
_atom_site_type_symbol
_atom_site_label
_atom_site_fract_x
_atom_site_fract_y
_atom_site_fract_z
Si Si1 0.338557 0.941458 0.194974
Si Si2 0.546040 0.450041 0.129739
Si Si3 0.335939 0.400718 0.729771
Si Si4 0.770793 0.678152 0.581197
Si Si5 0.025798 0.560893 0.293505
Si Si6 0.087477 0.277243 0.303405
Si Si7 0.045154 0.241887 0.821992
O O1 0.186895 0.816159 0.227563
O O2 0.188663 0.697305 0.438826
O O3 0.450288 0.210288 0.144651
O O4 0.500000 0.000000 0.000000
O O5 0.548056 0.407915 0.268565
O O6 0.458945 0.529874 0.193212
O O7 0.775163 0.699317 0.875609
O O8 0.500000 0.500000 0.500000
O O9 0.208338 0.394010 0.773295
O O10 0.160445 0.079845 0.943919
O O11 0.847598 0.652577 0.621742
O O12 0.843957 0.704802 0.391530
O O13 0.868738 0.960152 0.500044
O O14 0.099847 0.463381 0.222829
O O15 0.006193 0.639084 0.185888
#
# Coordination Sequence:
#
# PCOD9056530 Si02
#       7
#     2   2   2   2   2   2   2
#     4  11  23  39  66  98 144 174 205 266 344 404
#     4  12  23  41  67  98 133 173 224 269 323 390
#     4  11  25  48  68  94 128 176 235 279 320 385
#     4  11  22  39  67 100 136 172 213 270 335 396
#     4  11  24  44  63  99 141 173 214 268 337 404
#     4  11  23  40  64 102 142 169 207 271 339 406
#     4  11  25  44  72  94 129 180 224 277 331 386
#
# _framework density 21.845866000000001
#
# number of rings (size 3 to 8) (size 9 to 14) (size 15 to 20)
#    0.000    0.857    5.714    2.143    2.000    2.286 
#    0.000    1.429    0.000    0.000    0.000    0.000 
#    0.000    0.000    0.000    0.000    0.000    0.000 
#
# Total GULP energy -78205.837850 kJ/mol
# GULP energy per Si atom -5586.131275 kJ/mol
# Density = 2.179614 g / cm^3
# Si number density = 21.845866 Si / 1000 Ang^3
#
#
#
# Elastic Constant Matrix: (Units=GPa)
#
#
# Indices 1 2 3 4 5 6 
#
# 1 140.5449 21.6941 6.1407 -5.8188 9.9403 -10.4396
# 2 21.6941 47.8077 6.6574 1.2309 -1.0392 3.3855
# 3 6.1407 6.6574 104.3102 18.2550 -12.6174 -7.6771
# 4 -5.8188 1.2309 18.2550 35.1847 -7.8067 -1.6614
# 5 9.9403 -1.0392 -12.6174 -7.8067 36.7943 6.3726
# 6 -10.4396 3.3855 -7.6771 -1.6614 6.3726 31.7265
#
#
#
# Elastic Compliance Matrix: (Units=1/GPa)
#
#
# Indices 1 2 3 4 5 6 
#
# 1 0.008297 -0.004047 -0.000542 0.001326 -0.002898 0.003682
# 2 -0.004047 0.023307 -0.001236 -0.000618 0.001985 -0.004549
# 3 -0.000542 -0.001236 0.011033 -0.005132 0.002485 0.001856
# 4 0.001326 -0.000618 -0.005132 0.032375 0.004733 0.000005
# 5 -0.002898 0.001985 0.002485 0.004733 0.031007 -0.006544
# 6 0.003682 -0.004549 0.001856 0.000005 -0.006544 0.034980
#
#
# Mechanical properties :
#
#
# Convention : Reuss Voigt Hill
#
# Bulk Modulus (GPa) = 32.27173 40.18303 36.22738
# Shear Modulus (GPa) = 30.67906 37.95248 34.31577
#
# Velocity S-wave (km/s) = 3.75152 4.17260 3.96765
# Velocity P-wave (km/s) = 5.79394 6.45352 6.13260
#
# Compressibility (1/GPa) = 0.03098688
#
# Stress axis : x y z
#
# Youngs Moduli (GPa) = 120.52592 42.90551 90.63952
#
# Poissons Ratio (x) = 0.17366 0.04909
# Poissons Ratio (y) = 0.48782 0.11201
# Poissons Ratio (z) = 0.06528 0.05302
#
# Static dielectric constant tensor:
#      x y z
#    x 1.822100 -0.013300 -0.021990 
#    y -0.013300 1.814750 0.005940 
#    z -0.021990 0.005940 1.843950 
# 
# From -- ./inp_files/445830.got.cif
#   From: 2010.05.17/outbox.cif.g08.bks.cpg/sg2_223_cif.got.tgz:445830.got - 2010.06.03 11:33:40.
