data_PCOD9056273
_publ_section_title
;
Structure prediction by ZEFSAII (Michael W. Deem and Ramdas Pophale) SiO2 
 PCOD9056273
Probable space group: P -1
;
_chemical_formula_sum "Si O2"
_cell_formula_units_Z 16
_cell_length_a 27.080544
_cell_length_b 11.937483
_cell_length_c 28.136728
_cell_angle_alpha 30.678219
_cell_angle_beta 10.480078
_cell_angle_gamma 30.230781
_cell_volume 827.557950
_symmetry_space_group_name_H-M "P -1"
_symmetry_group_IT_number 2
_symmetry_cell_setting 'triclinic'
loop_
_space_group_symop_operation_xyz
x,y,z
-x,-y,-z
loop_
_atom_site_type_symbol
_atom_site_label
_atom_site_fract_x
_atom_site_fract_y
_atom_site_fract_z
Si Si1 0.175381 0.096615 0.340051
Si Si2 0.214145 0.566061 0.587966
Si Si3 0.677698 0.258958 0.931415
Si Si4 0.597124 0.665003 0.104833
Si Si5 0.160016 0.040390 0.486552
Si Si6 0.464757 0.722379 0.762204
Si Si7 0.079418 0.632566 0.238598
Si Si8 0.288460 0.062664 0.720469
O O1 0.088341 0.068972 0.487650
O O2 0.164215 0.361935 0.249648
O O3 0.474601 0.927109 0.116744
O O4 0.000000 0.000000 0.500000
O O5 0.462894 0.591803 0.307364
O O6 0.255774 0.328561 0.660593
O O7 0.169253 0.782433 0.584792
O O8 0.927274 0.596863 0.818765
O O9 0.791847 0.284097 0.866559
O O10 0.928534 0.193988 0.680876
O O11 0.500000 0.500000 0.000000
O O12 0.461416 0.095266 0.189861
O O13 0.495576 0.515635 0.215290
O O14 0.749984 0.709919 0.524415
O O15 0.404984 0.916011 0.708980
O O16 0.203987 0.740194 0.036685
O O17 0.500000 0.000000 0.500000
O O18 0.000000 0.000000 0.000000
#
# Coordination Sequence:
#
# PCOD9056273 Si02
#       8
#     2   2   2   2   2   2   2   2
#     4  11  24  39  61  98 137 173 199 253 335 408
#     4  11  22  40  63  95 124 166 211 266 320 376
#     4  12  25  45  68  90 124 177 239 267 304 371
#     4  11  22  37  59  91 137 167 203 248 315 406
#     4  11  25  43  67  92 127 169 225 272 313 378
#     4  12  24  40  61  95 134 171 210 260 332 386
#     4  12  27  41  63  92 135 176 214 271 321 374
#     4  12  22  39  67  95 132 175 211 261 323 407
#
# _framework density 19.333993
#
# number of rings (size 3 to 8) (size 9 to 14) (size 15 to 20)
#    0.000    0.500    5.000    4.125    3.500    1.500 
#    0.000    0.000    0.000    4.500    0.000    0.000 
#    0.000    0.000    0.000    0.000    0.000    0.000 
#
# Total GULP energy -89456.104495 kJ/mol
# GULP energy per Si atom -5591.006531 kJ/mol
# Density = 1.928999 g / cm^3
# Si number density = 19.333993 Si / 1000 Ang^3
#
#
#
# Elastic Constant Matrix: (Units=GPa)
#
#
# Indices 1 2 3 4 5 6 
#
# 1 90.1085 39.8114 15.9423 -11.2378 -5.6192 12.3491
# 2 39.8114 93.0303 16.6361 -13.3088 -3.4804 -11.9793
# 3 15.9423 16.6361 71.9007 -8.2505 -8.1198 -0.2585
# 4 -11.2378 -13.3088 -8.2505 28.8043 4.7343 3.7064
# 5 -5.6192 -3.4804 -8.1198 4.7343 33.1488 0.9628
# 6 12.3491 -11.9793 -0.2585 3.7064 0.9628 27.9452
#
#
#
# Elastic Compliance Matrix: (Units=1/GPa)
#
#
# Indices 1 2 3 4 5 6 
#
# 1 0.016961 -0.007886 -0.001371 0.003807 0.001500 -0.011445
# 2 -0.007886 0.016079 -0.001710 0.002694 -0.000744 0.010030
# 3 -0.001371 -0.001710 0.015240 0.002609 0.002961 -0.000435
# 4 0.003807 0.002694 0.002609 0.039561 -0.003920 -0.005615
# 5 0.001500 -0.000744 0.002961 -0.003920 0.031673 -0.001526
# 6 -0.011445 0.010030 -0.000435 -0.005615 -0.001526 0.045935
#
#
# Mechanical properties :
#
#
# Convention : Reuss Voigt Hill
#
# Bulk Modulus (GPa) = 37.95791 44.42435 41.19113
# Shear Modulus (GPa) = 25.48852 30.15632 27.82242
#
# Velocity S-wave (km/s) = 3.63482 3.95366 3.79759
# Velocity P-wave (km/s) = 6.10665 6.62338 6.37026
#
# Compressibility (1/GPa) = 0.02634497
#
# Stress axis : x y z
#
# Youngs Moduli (GPa) = 58.95712 62.19256 65.61658
#
# Poissons Ratio (x) = 0.49047 0.08996
# Poissons Ratio (y) = 0.46496 0.11224
# Poissons Ratio (z) = 0.08083 0.10638
#
# Static dielectric constant tensor:
#      x y z
#    x 1.642640 -0.014070 0.004650 
#    y -0.014070 1.677370 0.003030 
#    z 0.004650 0.003030 1.689510 
# 
# From -- ./inp_files/110682.got.cif
#   From: 2010.05.17/outbox.cif.g08.bks.cpg/sg2_56_cif.got.tgz:110682.got - 2010.06.03 11:33:40.
