data_PCOD9056605
_publ_section_title
;
Structure prediction by ZEFSAII (Michael W. Deem and Ramdas Pophale) SiO2 
 PCOD9056605
Probable space group: P -1
;
_chemical_formula_sum "Si O2"
_cell_formula_units_Z 12
_cell_length_a 9.205425
_cell_length_b 13.719473
_cell_length_c 8.408185
_cell_angle_alpha 64.281242
_cell_angle_beta 31.618424
_cell_angle_gamma 73.217661
_cell_volume 494.167135
_symmetry_space_group_name_H-M "P -1"
_symmetry_group_IT_number 2
_symmetry_cell_setting 'triclinic'
loop_
_space_group_symop_operation_xyz
x,y,z
-x,-y,-z
loop_
_atom_site_type_symbol
_atom_site_label
_atom_site_fract_x
_atom_site_fract_y
_atom_site_fract_z
Si Si1 0.066995 0.957656 0.640579
Si Si2 0.484991 0.173175 0.611194
Si Si3 0.330299 0.407255 0.613673
Si Si4 0.186633 0.534852 0.082369
Si Si5 0.593682 0.823761 0.686569
Si Si6 0.925439 0.318862 0.618554
O O1 0.241775 0.858181 0.539042
O O2 0.265084 0.055583 0.477920
O O3 0.000000 0.000000 0.500000
O O4 0.782037 0.918534 0.030746
O O5 0.399964 0.287616 0.664003
O O6 0.531492 0.176163 0.374773
O O7 0.500000 0.500000 0.500000
O O8 0.002628 0.412230 0.905789
O O9 0.483687 0.444754 0.276188
O O10 0.147838 0.602037 0.229023
O O11 0.054087 0.406458 0.303896
O O12 0.837039 0.750322 0.505911
O O13 0.359392 0.768881 0.070152
#
# Coordination Sequence:
#
# PCOD9056605 Si02
#       6
#     2   2   2   2   2   2
#     4  12  28  46  69  99 135 176 227 285 348 399
#     4  12  24  47  70  96 137 176 229 281 332 405
#     4  12  25  42  68  98 137 181 220 268 339 407
#     4  11  22  42  62 102 138 173 220 270 333 391
#     4  12  23  44  72 103 131 182 231 275 336 400
#     4  11  22  39  72  98 136 173 220 282 324 394
#
# _framework density 24.283283000000001
#
# number of rings (size 3 to 8) (size 9 to 14) (size 15 to 20)
#    0.000    0.333    3.333    6.000    0.000    6.667 
#    0.000    0.000    0.000    0.000    0.000    0.000 
#    0.000    0.000    0.000    0.000    0.000    0.000 
#
# Total GULP energy -67233.629187 kJ/mol
# GULP energy per Si atom -5602.802432 kJ/mol
# Density = 2.422801 g / cm^3
# Si number density = 24.283283 Si / 1000 Ang^3
#
#
#
# Elastic Constant Matrix: (Units=GPa)
#
#
# Indices 1 2 3 4 5 6 
#
# 1 53.7336 38.7532 -14.0283 2.4621 -5.5544 -12.9774
# 2 38.7532 88.5471 13.8129 -13.1348 11.5071 -15.3308
# 3 -14.0283 13.8129 134.2653 -13.6734 -8.0170 -14.2208
# 4 2.4621 -13.1348 -13.6734 37.2070 -6.4777 -7.9736
# 5 -5.5544 11.5071 -8.0170 -6.4777 22.9921 -4.4998
# 6 -12.9774 -15.3308 -14.2208 -7.9736 -4.4998 37.1018
#
#
#
# Elastic Compliance Matrix: (Units=1/GPa)
#
#
# Indices 1 2 3 4 5 6 
#
# 1 0.042343 -0.021136 0.009702 0.000848 0.027023 0.013255
# 2 -0.021136 0.024322 -0.005348 0.004789 -0.017899 -0.000535
# 3 0.009702 -0.005348 0.011129 0.005375 0.011992 0.008059
# 4 0.000848 0.004789 0.005375 0.035517 0.012323 0.013463
# 5 0.027023 -0.017899 0.011992 0.012323 0.070118 0.017805
# 6 0.013255 -0.000535 0.008059 0.013463 0.017805 0.039510
#
#
# Mechanical properties :
#
#
# Convention : Reuss Voigt Hill
#
# Bulk Modulus (GPa) = 22.60942 39.29128 30.95035
# Shear Modulus (GPa) = 18.43347 35.32739 26.88043
#
# Velocity S-wave (km/s) = 2.75817 3.81833 3.33070
# Velocity P-wave (km/s) = 4.41296 5.97118 5.25020
#
# Compressibility (1/GPa) = 0.04422936
#
# Stress axis : x y z
#
# Youngs Moduli (GPa) = 23.61673 41.11511 89.85653
#
# Poissons Ratio (x) = 0.86902 -0.87182
# Poissons Ratio (y) = 0.49917 0.48058
# Poissons Ratio (z) = -0.22914 0.21989
#
# Static dielectric constant tensor:
#      x y z
#    x 1.957100 0.023320 0.072020 
#    y 0.023320 1.942070 -0.023460 
#    z 0.072020 -0.023460 1.949590 
# 
# From -- ./inp_files/23423.got.cif
#   From: 2010.05.17/outbox.cif.g08.bks.cpg/sg2_12_cif.got.tgz:23423.got - 2010.06.03 11:33:40.
