data_PCOD9056756
_publ_section_title
;
Structure prediction by ZEFSAII (Michael W. Deem and Ramdas Pophale) SiO2 
 PCOD9056756
Probable space group: P -1
;
_chemical_formula_sum "Si O2"
_cell_formula_units_Z 16
_cell_length_a 12.079693
_cell_length_b 9.552621
_cell_length_c 8.953408
_cell_angle_alpha 107.009504
_cell_angle_beta 126.430250
_cell_angle_gamma 102.729098
_cell_volume 682.722054
_symmetry_space_group_name_H-M "P -1"
_symmetry_group_IT_number 2
_symmetry_cell_setting 'triclinic'
loop_
_space_group_symop_operation_xyz
x,y,z
-x,-y,-z
loop_
_atom_site_type_symbol
_atom_site_label
_atom_site_fract_x
_atom_site_fract_y
_atom_site_fract_z
Si Si1 0.002867 0.633503 0.158902
Si Si2 0.729034 0.017976 0.573931
Si Si3 0.312937 0.385141 0.104861
Si Si4 0.816465 0.944764 0.306728
Si Si5 0.518006 0.856497 0.617827
Si Si6 0.648340 0.527961 0.498881
Si Si7 0.151279 0.562197 0.538511
Si Si8 0.661919 0.109704 0.072499
O O1 0.088140 0.824399 0.217893
O O2 0.109501 0.638131 0.384282
O O3 0.000000 0.500000 0.000000
O O4 0.820307 0.570112 0.036187
O O5 0.628880 0.115976 0.530008
O O6 0.728919 0.931308 0.389932
O O7 0.637027 0.880141 0.585881
O O8 0.501877 0.520690 0.289076
O O9 0.295415 0.369524 0.268261
O O10 0.270084 0.220682 0.920281
O O11 0.802021 0.088133 0.249400
O O12 0.000000 0.000000 0.500000
O O13 0.437438 0.674051 0.579525
O O14 0.626615 0.022180 0.858187
O O15 0.795651 0.564512 0.523898
O O16 0.292652 0.699919 0.799406
O O17 0.000000 0.500000 0.500000
O O18 0.500000 0.000000 0.000000
#
# Coordination Sequence:
#
# PCOD9056756 Si02
#       8
#     2   2   2   2   2   2   2   2
#     4  12  22  44  65  93 129 171 217 270 336 394
#     4  11  23  39  66 100 130 168 221 273 323 385
#     4  11  23  39  73  90 130 182 208 271 343 391
#     4  12  21  40  65  95 132 171 212 269 331 386
#     4  11  22  40  68  98 127 172 228 270 317 388
#     4  11  22  45  63  98 135 171 219 272 334 386
#     4  12  25  42  68 100 133 172 224 273 325 396
#     4  12  20  41  69  93 127 174 220 266 318 390
#
# _framework density 23.435597000000001
#
# number of rings (size 3 to 8) (size 9 to 14) (size 15 to 20)
#    0.000    0.500    8.750    0.000    1.750    0.000 
#    0.000    8.750    0.000    0.000    0.000    0.000 
#    0.000    0.000    0.000    0.000    0.000    0.000 
#
# Total GULP energy -89308.959303 kJ/mol
# GULP energy per Si atom -5581.809956 kJ/mol
# Density = 2.338226 g / cm^3
# Si number density = 23.435597 Si / 1000 Ang^3
#
#
#
# Elastic Constant Matrix: (Units=GPa)
#
#
# Indices 1 2 3 4 5 6 
#
# 1 151.0135 9.0383 37.8437 10.2202 -14.8203 15.3257
# 2 9.0383 31.2833 11.8741 9.2696 -5.9795 7.2828
# 3 37.8437 11.8741 133.0856 21.6548 -23.6625 0.6284
# 4 10.2202 9.2696 21.6548 24.7965 -19.4377 1.3413
# 5 -14.8203 -5.9795 -23.6625 -19.4377 66.1413 -0.5529
# 6 15.3257 7.2828 0.6284 1.3413 -0.5529 37.6121
#
#
#
# Elastic Compliance Matrix: (Units=1/GPa)
#
#
# Indices 1 2 3 4 5 6 
#
# 1 0.007525 -0.000487 -0.001857 -0.000511 0.000803 -0.002911
# 2 -0.000487 0.037880 -0.001228 -0.013405 -0.001119 -0.006654
# 3 -0.001857 -0.001228 0.009333 -0.006202 0.000998 0.001074
# 4 -0.000511 -0.013405 -0.006202 0.062556 0.014846 0.000895
# 5 0.000803 -0.001119 0.000998 0.014846 0.019915 -0.000364
# 6 -0.002911 -0.006654 0.001074 0.000895 -0.000364 0.029007
#
#
# Mechanical properties :
#
#
# Convention : Reuss Voigt Hill
#
# Bulk Modulus (GPa) = 21.01021 48.09942 34.55482
# Shear Modulus (GPa) = 26.42387 42.81839 34.62113
#
# Velocity S-wave (km/s) = 3.36148 4.27906 3.84772
# Velocity P-wave (km/s) = 4.90415 6.70689 5.87508
#
# Compressibility (1/GPa) = 0.04759591
#
# Stress axis : x y z
#
# Youngs Moduli (GPa) = 132.88705 26.39921 107.14672
#
# Poissons Ratio (x) = 0.01285 0.19894
# Poissons Ratio (y) = 0.06469 0.13154
# Poissons Ratio (z) = 0.24673 0.03241
#
# Static dielectric constant tensor:
#      x y z
#    x 1.990230 -0.027470 -0.031120 
#    y -0.027470 2.014310 0.023330 
#    z -0.031120 0.023330 1.907960 
# 
# From -- ./inp_files/259668.got.cif
#   From: 2010.05.17/outbox.cif.g08.bks.cpg/sg2_130_cif.got.tgz:259668.got - 2010.06.03 11:33:40.
