data_PCOD9056759
_publ_section_title
;
Structure prediction by ZEFSAII (Michael W. Deem and Ramdas Pophale) SiO2 
 PCOD9056759
Probable space group: P -1
;
_chemical_formula_sum "Si O2"
_cell_formula_units_Z 16
_cell_length_a 17.946215
_cell_length_b 7.786421
_cell_length_c 11.210573
_cell_angle_alpha 61.892544
_cell_angle_beta 49.944518
_cell_angle_gamma 31.969665
_cell_volume 623.957646
_symmetry_space_group_name_H-M "P -1"
_symmetry_group_IT_number 2
_symmetry_cell_setting 'triclinic'
loop_
_space_group_symop_operation_xyz
x,y,z
-x,-y,-z
loop_
_atom_site_type_symbol
_atom_site_label
_atom_site_fract_x
_atom_site_fract_y
_atom_site_fract_z
Si Si1 0.315606 0.223397 0.330202
Si Si2 0.846869 0.828866 0.855723
Si Si3 0.817326 0.548001 0.363320
Si Si4 0.519867 0.515929 0.333359
Si Si5 0.373533 0.082093 0.791591
Si Si6 0.773091 0.177211 0.593200
Si Si7 0.169727 0.793683 0.838301
Si Si8 0.019860 0.665548 0.328365
O O1 0.220983 0.292461 0.521754
O O2 0.180200 0.499613 0.282259
O O3 0.427748 0.867423 0.283276
O O4 0.441045 0.180474 0.267928
O O5 0.908215 0.563010 0.786570
O O6 0.013684 0.643864 0.802429
O O7 0.777875 0.106956 0.748604
O O8 0.714880 0.955793 0.041067
O O9 0.669860 0.831621 0.331993
O O10 0.837231 0.290749 0.465485
O O11 0.500000 0.500000 0.500000
O O12 0.410954 0.543447 0.361024
O O13 0.713267 0.241039 0.202860
O O14 0.278501 0.428665 0.822993
O O15 0.897736 0.816890 0.518592
O O16 0.114069 0.977103 0.712503
O O17 0.000000 0.000000 0.000000
#
# Coordination Sequence:
#
# PCOD9056759 Si02
#       8
#     2   2   2   2   2   2   2   2
#     4  11  25  43  70  99 135 180 224 280 335 405
#     4  12  25  41  72 101 135 174 229 283 336 397
#     4  12  25  45  69  94 140 186 227 271 334 408
#     4  11  22  40  68  99 134 170 228 279 326 398
#     4  11  25  46  66 103 139 177 222 279 344 400
#     4  12  23  42  68 105 132 179 229 279 333 399
#     4  11  23  41  69 102 136 174 218 281 343 399
#     4  12  22  43  73 101 131 172 234 273 339 393
#
# _framework density 25.642766000000002
#
# number of rings (size 3 to 8) (size 9 to 14) (size 15 to 20)
#    0.000    0.500    6.250    3.000    0.000    1.500 
#    0.000    0.625    0.000    0.000    0.000    0.000 
#    0.000    0.000    0.000    0.000    0.000    0.000 
#
# Total GULP energy -89517.029269 kJ/mol
# GULP energy per Si atom -5594.814329 kJ/mol
# Density = 2.558440 g / cm^3
# Si number density = 25.642766 Si / 1000 Ang^3
#
#
#
# Elastic Constant Matrix: (Units=GPa)
#
#
# Indices 1 2 3 4 5 6 
#
# 1 106.8062 40.8748 15.2260 0.5682 -22.0673 -36.0746
# 2 40.8748 120.3069 5.2254 8.4123 -13.8090 -32.9999
# 3 15.2260 5.2254 71.3795 7.6138 -19.9002 -24.6798
# 4 0.5682 8.4123 7.6138 37.7469 -10.0472 -9.1553
# 5 -22.0673 -13.8090 -19.9002 -10.0472 32.9583 19.4205
# 6 -36.0746 -32.9999 -24.6798 -9.1553 19.4205 55.8072
#
#
#
# Elastic Compliance Matrix: (Units=1/GPa)
#
#
# Indices 1 2 3 4 5 6 
#
# 1 0.013436 -0.002506 0.000666 0.003221 0.005788 0.006013
# 2 -0.002506 0.010623 0.001779 -0.001338 0.000451 0.005072
# 3 0.000666 0.001779 0.018385 -0.000293 0.008261 0.006690
# 4 0.003221 -0.001338 -0.000293 0.029860 0.008744 0.003017
# 5 0.005788 0.000451 0.008261 0.008744 0.046166 -0.006970
# 6 0.006013 0.005072 0.006690 0.003017 -0.006970 0.030684
#
#
# Mechanical properties :
#
#
# Convention : Reuss Voigt Hill
#
# Bulk Modulus (GPa) = 23.62797 46.79389 35.21093
# Shear Modulus (GPa) = 30.60322 41.11358 35.85840
#
# Velocity S-wave (km/s) = 3.45837 4.00849 3.74355
# Velocity P-wave (km/s) = 5.01811 6.30175 5.69620
#
# Compressibility (1/GPa) = 0.04232272
#
# Stress axis : x y z
#
# Youngs Moduli (GPa) = 74.42632 94.13864 54.39301
#
# Poissons Ratio (x) = 0.23587 -0.03624
# Poissons Ratio (y) = 0.18648 -0.09676
# Poissons Ratio (z) = -0.04959 -0.16746
#
# Static dielectric constant tensor:
#      x y z
#    x 2.124270 0.105720 -0.008540 
#    y 0.105720 2.090590 -0.029040 
#    z -0.008540 -0.029040 2.102500 
# 
# From -- ./inp_files/393179.got.cif
#   From: 2010.05.17/outbox.cif.g08.bks.cpg/sg2_197_cif.got.tgz:393179.got - 2010.06.03 11:33:40.
