data_PCOD9056691
_publ_section_title
;
Structure prediction by ZEFSAII (Michael W. Deem and Ramdas Pophale) SiO2 
 PCOD9056691
Probable space group: P -1
;
_chemical_formula_sum "Si O2"
_cell_formula_units_Z 16
_cell_length_a 14.840655
_cell_length_b 6.443652
_cell_length_c 9.134568
_cell_angle_alpha 80.184401
_cell_angle_beta 67.934491
_cell_angle_gamma 109.279665
_cell_volume 719.529914
_symmetry_space_group_name_H-M "P -1"
_symmetry_group_IT_number 2
_symmetry_cell_setting 'triclinic'
loop_
_space_group_symop_operation_xyz
x,y,z
-x,-y,-z
loop_
_atom_site_type_symbol
_atom_site_label
_atom_site_fract_x
_atom_site_fract_y
_atom_site_fract_z
Si Si1 0.519167 0.337352 0.626246
Si Si2 0.889591 0.887970 0.668436
Si Si3 0.154756 0.645727 0.741696
Si Si4 0.403469 0.434870 0.955576
Si Si5 0.979960 0.795991 0.919752
Si Si6 0.752850 0.458118 0.590112
Si Si7 0.752017 0.077037 0.845358
Si Si8 0.653996 0.163084 0.184113
O O1 0.500000 0.500000 0.500000
O O2 0.449434 0.359857 0.798189
O O3 0.644326 0.438485 0.580203
O O4 0.457847 0.056871 0.678036
O O5 0.810889 0.686489 0.628958
O O6 0.865573 0.106159 0.710048
O O7 0.907542 0.785724 0.824537
O O8 0.000000 0.000000 0.500000
O O9 0.090928 0.806028 0.782212
O O10 0.168901 0.565823 0.579884
O O11 0.273713 0.761489 0.724592
O O12 0.085404 0.430213 0.914750
O O13 0.371622 0.637307 0.899817
O O14 0.500000 0.500000 0.000000
O O15 0.309111 0.201751 0.103548
O O16 0.000000 0.000000 0.000000
O O17 0.715099 0.233797 0.747706
O O18 0.730043 0.119056 0.021066
#
# Coordination Sequence:
#
# PCOD9056691 Si02
#       8
#     2   2   2   2   2   2   2   2
#     4  11  26  43  66  98 136 178 221 273 332 397
#     4  12  26  43  68  99 134 175 223 280 340 399
#     4  11  25  42  67  97 132 176 221 273 334 395
#     4  11  22  40  66  95 129 174 222 270 330 394
#     4  11  24  45  69  97 132 174 224 275 331 398
#     4  12  26  44  66 100 138 174 223 279 336 398
#     4  11  23  41  67  94 129 174 219 272 333 393
#     4  11  24  44  68  98 134 176 226 275 330 397
#
# _framework density 22.236740000000001
#
# number of rings (size 3 to 8) (size 9 to 14) (size 15 to 20)
#    0.000    0.750    0.000    7.500    0.000   14.000 
#    0.000    0.000    0.000    0.000    0.000    0.000 
#    0.000    0.000    0.000    0.000    0.000    0.000 
#
# Total GULP energy -89328.392601 kJ/mol
# GULP energy per Si atom -5583.024538 kJ/mol
# Density = 2.218613 g / cm^3
# Si number density = 22.236740 Si / 1000 Ang^3
#
#
#
# Elastic Constant Matrix: (Units=GPa)
#
#
# Indices 1 2 3 4 5 6 
#
# 1 108.2468 46.0890 13.9841 7.2339 10.6220 1.9151
# 2 46.0890 91.5043 14.9480 10.6349 1.6361 6.0751
# 3 13.9841 14.9480 103.7020 26.4019 3.7290 5.4442
# 4 7.2339 10.6349 26.4019 53.0019 -9.3279 -2.8868
# 5 10.6220 1.6361 3.7290 -9.3279 41.6367 3.4695
# 6 1.9151 6.0751 5.4442 -2.8868 3.4695 33.6780
#
#
#
# Elastic Compliance Matrix: (Units=1/GPa)
#
#
# Indices 1 2 3 4 5 6 
#
# 1 0.012176 -0.005958 -0.000535 -0.000696 -0.003040 0.000722
# 2 -0.005958 0.014389 -0.000748 -0.001682 0.000842 -0.002367
# 3 -0.000535 -0.000748 0.011525 -0.005986 -0.002041 -0.002001
# 4 -0.000696 -0.001682 -0.005986 0.023452 0.005807 0.002723
# 5 -0.003040 0.000842 -0.002041 0.005807 0.026399 -0.001871
# 6 0.000722 -0.002367 -0.002001 0.002723 -0.001871 0.030828
#
#
# Mechanical properties :
#
#
# Convention : Reuss Voigt Hill
#
# Bulk Modulus (GPa) = 42.35807 50.38837 46.37322
# Shear Modulus (GPa) = 35.43016 40.89211 38.16113
#
# Velocity S-wave (km/s) = 3.99597 4.29294 4.14711
# Velocity P-wave (km/s) = 6.35456 6.87616 6.62050
#
# Compressibility (1/GPa) = 0.02360825
#
# Stress axis : x y z
#
# Youngs Moduli (GPa) = 82.12763 69.49582 86.76453
#
# Poissons Ratio (x) = 0.41408 0.04638
# Poissons Ratio (y) = 0.48934 0.06494
# Poissons Ratio (z) = 0.04390 0.05202
#
# Static dielectric constant tensor:
#      x y z
#    x 3.533550 -0.355810 -0.773330 
#    y -0.355810 2.036590 0.095050 
#    z -0.773330 0.095050 2.135550 
# 
# From -- ./inp_files/288609.got.cif
#   From: 2010.05.17/outbox.cif.g08.bks.cpg/sg2_145_cif.got.tgz:288609.got - 2010.06.03 11:33:40.
