data_PCOD9056870
_publ_section_title
;
Structure prediction by ZEFSAII (Michael W. Deem and Ramdas Pophale) SiO2 
 PCOD9056870
Probable space group: P -1
;
_chemical_formula_sum "Si O2"
_cell_formula_units_Z 16
_cell_length_a 11.396416
_cell_length_b 9.402541
_cell_length_c 10.796122
_cell_angle_alpha 49.183202
_cell_angle_beta 108.573420
_cell_angle_gamma 78.947664
_cell_volume 689.008107
_symmetry_space_group_name_H-M "P -1"
_symmetry_group_IT_number 2
_symmetry_cell_setting 'triclinic'
loop_
_space_group_symop_operation_xyz
x,y,z
-x,-y,-z
loop_
_atom_site_type_symbol
_atom_site_label
_atom_site_fract_x
_atom_site_fract_y
_atom_site_fract_z
Si Si1 0.549370 0.489324 0.881744
Si Si2 0.140726 0.661569 0.838282
Si Si3 0.358329 0.980587 0.445766
Si Si4 0.482215 0.901482 0.926598
Si Si5 0.030636 0.767011 0.199558
Si Si6 0.797814 0.739573 0.529943
Si Si7 0.782316 0.769908 0.983536
Si Si8 0.961800 0.167645 0.552118
O O1 0.427703 0.720213 0.645416
O O2 0.500000 0.500000 0.000000
O O3 0.709399 0.451712 0.967266
O O4 0.564770 0.269382 0.958812
O O5 0.152019 0.727910 0.661396
O O6 0.026725 0.901987 0.724962
O O7 0.110620 0.468091 0.916280
O O8 0.500000 0.000000 0.500000
O O9 0.238088 0.153122 0.406794
O O10 0.286447 0.040440 0.252281
O O11 0.641694 0.773143 0.985597
O O12 0.358372 0.100203 0.685266
O O13 0.500000 0.000000 0.000000
O O14 0.145365 0.523450 0.311846
O O15 0.078816 0.744076 0.372224
O O16 0.872799 0.793658 0.108907
O O17 0.000000 0.000000 0.000000
O O18 0.912104 0.788084 0.473947
#
# Coordination Sequence:
#
# PCOD9056870 Si02
#       8
#     2   2   2   2   2   2   2   2
#     4  12  21  42  71 107 140 185 243 292 347 426
#     4  11  22  40  76 104 135 188 242 294 356 413
#     4  12  24  44  73 110 149 182 243 303 355 428
#     4  12  26  44  73 109 144 190 242 293 362 430
#     4  12  31  50  69 107 152 191 238 299 367 431
#     4  12  24  46  75 105 140 197 239 294 360 424
#     4  12  26  48  72 105 147 192 235 303 364 421
#     4  11  25  46  74 107 142 188 247 297 350 439
#
# _framework density 23.221788
#
# number of rings (size 3 to 8) (size 9 to 14) (size 15 to 20)
#    0.000    0.250    7.500    1.125    3.500    4.500 
#    0.000    1.250    0.000    0.000    0.000    0.000 
#    0.000    0.000    0.000    0.000    0.000    0.000 
#
# Total GULP energy -89523.922919 kJ/mol
# GULP energy per Si atom -5595.245182 kJ/mol
# Density = 2.316893 g / cm^3
# Si number density = 23.221788 Si / 1000 Ang^3
#
#
#
# Elastic Constant Matrix: (Units=GPa)
#
#
# Indices 1 2 3 4 5 6 
#
# 1 44.6172 10.4199 -9.1847 -8.5628 11.3570 5.6411
# 2 10.4199 135.8149 37.9082 -7.6209 2.2413 7.8390
# 3 -9.1847 37.9082 110.8971 -23.1018 7.5898 -7.8561
# 4 -8.5628 -7.6209 -23.1018 50.7341 1.7747 -3.6777
# 5 11.3570 2.2413 7.5898 1.7747 27.2254 1.3170
# 6 5.6411 7.8390 -7.8561 -3.6777 1.3170 34.6979
#
#
#
# Elastic Compliance Matrix: (Units=1/GPa)
#
#
# Indices 1 2 3 4 5 6 
#
# 1 0.029673 -0.003215 0.006030 0.007669 -0.014227 -0.001380
# 2 -0.003215 0.008717 -0.003806 -0.001214 0.001885 -0.002509
# 3 0.006030 -0.003806 0.012952 0.006843 -0.006442 0.003782
# 4 0.007669 -0.001214 0.006843 0.024423 -0.006764 0.003422
# 5 -0.014227 0.001885 -0.006442 -0.006764 0.044843 -0.001990
# 6 -0.001380 -0.002509 0.003782 0.003422 -0.001990 0.030906
#
#
# Mechanical properties :
#
#
# Convention : Reuss Voigt Hill
#
# Bulk Modulus (GPa) = 20.25896 41.06843 30.66370
# Shear Modulus (GPa) = 29.42052 39.34386 34.38219
#
# Velocity S-wave (km/s) = 3.56327 4.12061 3.85203
# Velocity P-wave (km/s) = 5.06677 6.35318 5.74609
#
# Compressibility (1/GPa) = 0.04936087
#
# Stress axis : x y z
#
# Youngs Moduli (GPa) = 33.70111 114.71261 77.20769
#
# Poissons Ratio (x) = 0.36878 -0.46556
# Poissons Ratio (y) = 0.10834 0.29383
# Poissons Ratio (z) = -0.20322 0.43657
#
# Static dielectric constant tensor:
#      x y z
#    x 1.938890 0.000140 0.006050 
#    y 0.000140 1.793590 -0.001510 
#    z 0.006050 -0.001510 1.863670 
# 
# From -- ./inp_files/216355.got.cif
#   From: 2010.05.17/outbox.cif.g08.bks.cpg/sg2_109_cif.got.tgz:216355.got - 2010.06.03 11:33:40.
