data_PCOD9056148
_publ_section_title
;
Structure prediction by ZEFSAII (Michael W. Deem and Ramdas Pophale) SiO2 
 PCOD9056148
Probable space group: P -1
;
_chemical_formula_sum "Si O2"
_cell_formula_units_Z 16
_cell_length_a 13.251209
_cell_length_b 9.533341
_cell_length_c 18.402474
_cell_angle_alpha 57.123465
_cell_angle_beta 150.343614
_cell_angle_gamma 133.118176
_cell_volume 831.182933
_symmetry_space_group_name_H-M "P -1"
_symmetry_group_IT_number 2
_symmetry_cell_setting 'triclinic'
loop_
_space_group_symop_operation_xyz
x,y,z
-x,-y,-z
loop_
_atom_site_type_symbol
_atom_site_label
_atom_site_fract_x
_atom_site_fract_y
_atom_site_fract_z
Si Si1 0.171384 0.723512 0.842760
Si Si2 0.727723 0.342957 0.855643
Si Si3 0.371071 0.995155 0.494224
Si Si4 0.517240 0.619326 0.170654
Si Si5 0.499522 0.110798 0.133411
Si Si6 0.334728 0.589666 0.367977
Si Si7 0.720212 0.341455 0.356022
Si Si8 0.140190 0.057364 0.811166
O O1 0.317092 0.847909 0.829378
O O2 0.912075 0.554705 0.707253
O O3 0.147870 0.865341 0.846020
O O4 0.309827 0.625460 0.993027
O O5 0.551554 0.364030 0.794926
O O6 0.705950 0.392949 0.746367
O O7 0.646745 0.115919 0.873129
O O8 0.000000 0.500000 0.000000
O O9 0.339315 0.825218 0.575573
O O10 0.118358 0.978370 0.327092
O O11 0.500000 0.000000 0.500000
O O12 0.536607 0.199057 0.578281
O O13 0.563110 0.442351 0.241408
O O14 0.748677 0.800878 0.228555
O O15 0.643145 0.243381 0.254878
O O16 0.307093 0.148178 0.961046
O O17 0.500000 0.500000 0.500000
O O18 0.000000 0.500000 0.500000
#
# Coordination Sequence:
#
# PCOD9056148 Si02
#       8
#     2   2   2   2   2   2   2   2
#     4  11  22  43  75 109 136 180 240 290 353 406
#     4  12  23  44  71 108 140 177 239 294 343 413
#     4  12  29  48  66 102 150 185 226 296 359 412
#     4  11  23  42  76 100 140 185 230 296 340 417
#     4  11  24  44  77 102 138 186 232 293 349 418
#     4  12  26  43  69 104 143 184 233 291 354 410
#     4  12  28  48  66 105 146 184 238 283 350 430
#     4  11  21  47  73 105 140 178 239 291 347 417
#
# _framework density 19.249673999999999
#
# number of rings (size 3 to 8) (size 9 to 14) (size 15 to 20)
#    0.000    0.500    7.500    0.750    3.500    3.000 
#    0.000    4.375    0.000    0.000    0.000    0.000 
#    0.000    0.000    0.000    0.000    0.000    0.000 
#
# Total GULP energy -89348.904477 kJ/mol
# GULP energy per Si atom -5584.306530 kJ/mol
# Density = 1.920586 g / cm^3
# Si number density = 19.249674 Si / 1000 Ang^3
#
#
#
# Elastic Constant Matrix: (Units=GPa)
#
#
# Indices 1 2 3 4 5 6 
#
# 1 118.6679 46.3089 77.5464 7.6430 -4.8178 -5.7575
# 2 46.3089 132.7920 65.4733 5.9219 -0.7618 -0.7740
# 3 77.5464 65.4733 138.8736 9.2809 4.2701 -5.7052
# 4 7.6430 5.9219 9.2809 38.4060 0.4845 6.3842
# 5 -4.8178 -0.7618 4.2701 0.4845 38.9516 2.0209
# 6 -5.7575 -0.7740 -5.7052 6.3842 2.0209 37.0683
#
#
#
# Elastic Compliance Matrix: (Units=1/GPa)
#
#
# Indices 1 2 3 4 5 6 
#
# 1 0.013731 -0.001252 -0.007037 -0.001048 0.002403 0.001073
# 2 -0.001252 0.009960 -0.004022 -0.000222 0.000514 -0.000595
# 3 -0.007037 -0.004022 0.013242 -0.001353 -0.002448 0.001228
# 4 -0.001048 -0.000222 -0.001353 0.027456 -0.000062 -0.005101
# 5 0.002403 0.000514 -0.002448 -0.000062 0.026323 -0.001417
# 6 0.001073 -0.000595 0.001228 -0.005101 -0.001417 0.028276
#
#
# Mechanical properties :
#
#
# Convention : Reuss Voigt Hill
#
# Bulk Modulus (GPa) = 81.22527 85.44342 83.33435
# Shear Modulus (GPa) = 33.84952 36.28551 35.06752
#
# Velocity S-wave (km/s) = 4.19793 4.34636 4.27279
# Velocity P-wave (km/s) = 8.11074 8.34692 8.22968
#
# Compressibility (1/GPa) = 0.01231144
#
# Stress axis : x y z
#
# Youngs Moduli (GPa) = 72.82834 100.40599 75.51603
#
# Poissons Ratio (x) = 0.12573 0.53138
# Poissons Ratio (y) = 0.09120 0.30370
# Poissons Ratio (z) = 0.51247 0.40381
#
# Static dielectric constant tensor:
#      x y z
#    x 1.652420 0.009580 0.006520 
#    y 0.009580 1.631130 0.000870 
#    z 0.006520 0.000870 1.663830 
# 
# From -- ./inp_files/184184.got.cif
#   From: 2010.05.17/outbox.cif.g08.bks.cpg/sg2_93_cif.got.tgz:184184.got - 2010.06.03 11:33:40.
