data_PCOD9056650
_publ_section_title
;
Structure prediction by ZEFSAII (Michael W. Deem and Ramdas Pophale) SiO2 
 PCOD9056650
Probable space group: P -1
;
_chemical_formula_sum "Si O2"
_cell_formula_units_Z 16
_cell_length_a 11.272660
_cell_length_b 10.800988
_cell_length_c 9.394633
_cell_angle_alpha 138.189429
_cell_angle_beta 97.609991
_cell_angle_gamma 105.009528
_cell_volume 635.548269
_symmetry_space_group_name_H-M "P -1"
_symmetry_group_IT_number 2
_symmetry_cell_setting 'triclinic'
loop_
_space_group_symop_operation_xyz
x,y,z
-x,-y,-z
loop_
_atom_site_type_symbol
_atom_site_label
_atom_site_fract_x
_atom_site_fract_y
_atom_site_fract_z
Si Si1 0.910521 0.585019 0.227756
Si Si2 0.488158 0.805310 0.735892
Si Si3 0.516859 0.450706 0.123110
Si Si4 0.304621 0.335700 0.387451
Si Si5 0.197992 0.894733 0.414477
Si Si6 0.780348 0.720739 0.067904
Si Si7 0.368142 0.853460 0.186673
Si Si8 0.061714 0.027173 0.252324
O O1 0.828414 0.623577 0.118544
O O2 0.938722 0.765697 0.504113
O O3 0.067716 0.665423 0.262981
O O4 0.796548 0.337341 0.049109
O O5 0.339292 0.571580 0.536793
O O6 0.600490 0.739493 0.740873
O O7 0.548232 0.919435 0.690897
O O8 0.500000 0.000000 0.000000
O O9 0.638828 0.605526 0.387379
O O10 0.500000 0.500000 0.000000
O O11 0.376317 0.432566 0.145266
O O12 0.544737 0.256625 0.934807
O O13 0.149858 0.119069 0.201914
O O14 0.332018 0.892112 0.374562
O O15 0.228414 0.081164 0.692427
O O16 0.136686 0.958343 0.324014
O O17 0.900588 0.820694 0.053903
#
# Coordination Sequence:
#
# PCOD9056650 Si02
#       8
#     2   2   2   2   2   2   2   2
#     4   9  16  31  52  81 120 152 190 239 284 351
#     4  11  23  40  61  90 109 154 211 261 280 322
#     4  12  22  36  56  88 128 159 181 232 313 369
#     4  11  22  40  65  87 116 152 205 254 287 337
#     4   9  18  30  51  86 117 152 195 236 291 345
#     4   9  19  33  53  81 125 156 180 224 302 371
#     4  12  20  32  56  85 121 149 199 248 288 344
#     4   9  15  34  57  79 108 153 198 237 282 348
#
# _framework density 25.175115000000002
#
# number of rings (size 3 to 8) (size 9 to 14) (size 15 to 20)
#    0.000    1.750    5.000    2.625    0.000    0.500 
#    0.000    0.000    0.000    3.750    0.000    0.000 
#    0.000    0.000    0.000    0.000    0.000    0.000 
#
# Total GULP energy -89291.144491 kJ/mol
# GULP energy per Si atom -5580.696531 kJ/mol
# Density = 2.511782 g / cm^3
# Si number density = 25.175115 Si / 1000 Ang^3
#
#
#
# Elastic Constant Matrix: (Units=GPa)
#
#
# Indices 1 2 3 4 5 6 
#
# 1 99.4805 22.3137 14.7887 12.5108 3.2859 31.8669
# 2 22.3137 103.9128 4.9841 17.6066 18.7667 14.6754
# 3 14.7887 4.9841 69.0945 18.4652 -16.4818 3.1064
# 4 12.5108 17.6066 18.4652 49.0855 9.6463 10.1137
# 5 3.2859 18.7667 -16.4818 9.6463 49.7902 13.5073
# 6 31.8669 14.6754 3.1064 10.1137 13.5073 36.0232
#
#
#
# Elastic Compliance Matrix: (Units=1/GPa)
#
#
# Indices 1 2 3 4 5 6 
#
# 1 0.014889 -0.001677 -0.001719 -0.000352 0.002749 -0.013271
# 2 -0.001677 0.011215 -0.000597 -0.002463 -0.003564 -0.001006
# 3 -0.001719 -0.000597 0.019068 -0.008013 0.008416 -0.000787
# 4 -0.000352 -0.002463 -0.008013 0.026167 -0.005924 -0.003119
# 5 0.002749 -0.003564 0.008416 -0.005924 0.028044 -0.010558
# 6 -0.013271 -0.001006 -0.000787 -0.003119 -0.010558 0.044812
#
#
# Mechanical properties :
#
#
# Convention : Reuss Voigt Hill
#
# Bulk Modulus (GPa) = 26.89161 39.62900 33.26030
# Shear Modulus (GPa) = 30.38088 42.33985 36.36036
#
# Velocity S-wave (km/s) = 3.47765 4.10544 3.80451
# Velocity P-wave (km/s) = 5.17980 6.18453 5.70433
#
# Compressibility (1/GPa) = 0.03718633
#
# Stress axis : x y z
#
# Youngs Moduli (GPa) = 67.16492 89.16395 52.44307
#
# Poissons Ratio (x) = 0.14954 0.09016
# Poissons Ratio (y) = 0.11265 0.03129
# Poissons Ratio (z) = 0.11547 0.05320
#
# Static dielectric constant tensor:
#      x y z
#    x 2.037660 0.077850 0.043990 
#    y 0.077850 2.088470 0.018490 
#    z 0.043990 0.018490 2.048600 
# 
# From -- ./inp_files/423653.got.cif
#   From: 2010.05.17/outbox.cif.g08.bks.cpg/sg2_212_cif.got.tgz:423653.got - 2010.06.03 11:33:40.
