data_PCOD9056985
_publ_section_title
;
Structure prediction by ZEFSAII (Michael W. Deem and Ramdas Pophale) SiO2 
 PCOD9056985
Probable space group: P -1
;
_chemical_formula_sum "Si O2"
_cell_formula_units_Z 14
_cell_length_a 8.392226
_cell_length_b 14.300785
_cell_length_c 15.327092
_cell_angle_alpha 149.827277
_cell_angle_beta 79.212666
_cell_angle_gamma 121.871966
_cell_volume 609.121088
_symmetry_space_group_name_H-M "P -1"
_symmetry_group_IT_number 2
_symmetry_cell_setting 'triclinic'
loop_
_space_group_symop_operation_xyz
x,y,z
-x,-y,-z
loop_
_atom_site_type_symbol
_atom_site_label
_atom_site_fract_x
_atom_site_fract_y
_atom_site_fract_z
Si Si1 0.082169 0.586362 0.694572
Si Si2 0.732437 0.610774 0.022404
Si Si3 0.251063 0.791073 0.302877
Si Si4 0.250738 0.066294 0.362686
Si Si5 0.268921 0.383936 0.181655
Si Si6 0.251928 0.700595 0.955736
Si Si7 0.771099 0.054819 0.193273
O O1 0.890627 0.580756 0.739995
O O2 0.937502 0.280481 0.433347
O O3 0.249057 0.691444 0.844502
O O4 0.213024 0.781995 0.754560
O O5 0.500000 0.500000 0.000000
O O6 0.768203 0.433947 0.914399
O O7 0.698321 0.564254 0.884286
O O8 0.985540 0.929450 0.271974
O O9 0.004306 0.600569 0.229558
O O10 0.500000 0.000000 0.500000
O O11 0.265449 0.956211 0.360289
O O12 0.479511 0.394754 0.612415
O O13 0.266190 0.926588 0.170827
O O14 0.150647 0.080418 0.956801
O O15 0.492261 0.805259 0.050039
#
# Coordination Sequence:
#
# PCOD9056985 Si02
#       7
#     2   2   2   2   2   2   2
#     4  11  23  50  67  97 135 173 227 281 339 392
#     4  11  25  39  63  98 135 174 226 266 326 405
#     4  11  22  41  67  94 131 186 213 266 332 399
#     4  11  23  43  66  96 136 181 215 272 336 395
#     4  12  24  44  68 100 136 172 222 280 336 393
#     4  11  22  43  69  95 135 177 225 267 340 399
#     4  11  27  41  74  99 127 180 227 280 335 398
#
# _framework density 22.983934000000001
#
# number of rings (size 3 to 8) (size 9 to 14) (size 15 to 20)
#    0.000    0.857    5.714    2.571    4.000    2.857 
#    0.000    0.714    0.000    0.000    0.000    0.000 
#    0.000    0.000    0.000    0.000    0.000    0.000 
#
# Total GULP energy -78345.627382 kJ/mol
# GULP energy per Si atom -5596.116242 kJ/mol
# Density = 2.293162 g / cm^3
# Si number density = 22.983934 Si / 1000 Ang^3
#
#
#
# Elastic Constant Matrix: (Units=GPa)
#
#
# Indices 1 2 3 4 5 6 
#
# 1 45.9010 4.9361 37.3237 3.6061 9.3051 14.4089
# 2 4.9361 58.3703 15.3536 -11.7678 12.1195 0.3199
# 3 37.3237 15.3536 160.5158 -7.8234 20.5528 -1.0505
# 4 3.6061 -11.7678 -7.8234 23.6221 -6.4693 4.4543
# 5 9.3051 12.1195 20.5528 -6.4693 45.5181 3.3948
# 6 14.4089 0.3199 -1.0505 4.4543 3.3948 39.8985
#
#
#
# Elastic Compliance Matrix: (Units=1/GPa)
#
#
# Indices 1 2 3 4 5 6 
#
# 1 0.032611 -0.001505 -0.007457 -0.006981 -0.003077 -0.010920
# 2 -0.001505 0.019978 -0.000687 0.009097 -0.003381 -0.000363
# 3 -0.007457 -0.000687 0.008420 0.002523 -0.001945 0.002804
# 4 -0.006981 0.009097 0.002523 0.050922 0.005374 -0.003628
# 5 -0.003077 -0.003381 -0.001945 0.005374 0.025265 -0.001663
# 6 -0.010920 -0.000363 0.002804 -0.003628 -0.001663 0.029630
#
#
# Mechanical properties :
#
#
# Convention : Reuss Voigt Hill
#
# Bulk Modulus (GPa) = 23.97415 42.22377 33.09896
# Shear Modulus (GPa) = 24.99651 35.61933 30.30792
#
# Velocity S-wave (km/s) = 3.30140 3.94096 3.63527
# Velocity P-wave (km/s) = 4.99858 6.25452 5.66149
#
# Compressibility (1/GPa) = 0.04171159
#
# Stress axis : x y z
#
# Youngs Moduli (GPa) = 30.66422 50.05487 118.76670
#
# Poissons Ratio (x) = 0.07534 0.88561
# Poissons Ratio (y) = 0.04615 0.08159
# Poissons Ratio (z) = 0.22865 0.03439
#
# Static dielectric constant tensor:
#      x y z
#    x 1.873910 -0.002200 0.001760 
#    y -0.002200 1.869360 0.036060 
#    z 0.001760 0.036060 1.896060 
# 
# From -- ./inp_files/187310.got.cif
#   From: 2010.05.17/outbox.cif.g08.bks.cpg/sg2_94_cif.got.tgz:187310.got - 2010.06.03 11:33:40.
