data_PCOD9056578
_publ_section_title
;
Structure prediction by ZEFSAII (Michael W. Deem and Ramdas Pophale) SiO2 
 PCOD9056578
Probable space group: P -1
;
_chemical_formula_sum "Si O2"
_cell_formula_units_Z 14
_cell_length_a 12.135639
_cell_length_b 17.813146
_cell_length_c 9.073206
_cell_angle_alpha 113.737007
_cell_angle_beta 115.916854
_cell_angle_gamma 21.675478
_cell_volume 651.541727
_symmetry_space_group_name_H-M "P -1"
_symmetry_group_IT_number 2
_symmetry_cell_setting 'triclinic'
loop_
_space_group_symop_operation_xyz
x,y,z
-x,-y,-z
loop_
_atom_site_type_symbol
_atom_site_label
_atom_site_fract_x
_atom_site_fract_y
_atom_site_fract_z
Si Si1 0.198789 0.893290 0.174425
Si Si2 0.323743 0.526141 0.848376
Si Si3 0.149187 0.192133 0.975906
Si Si4 0.026507 0.854521 0.538896
Si Si5 0.703578 0.480839 0.524299
Si Si6 0.190401 0.979423 0.756305
Si Si7 0.824832 0.528336 0.859756
O O1 0.520683 0.654190 0.147574
O O2 0.119496 0.031194 0.299895
O O3 0.073931 0.913894 0.250586
O O4 0.000000 0.000000 0.000000
O O5 0.328546 0.518187 0.667468
O O6 0.500000 0.500000 0.000000
O O7 0.983048 0.729487 0.873801
O O8 0.936099 0.384304 0.910545
O O9 0.116369 0.118581 0.851912
O O10 0.500000 0.000000 0.000000
O O11 0.369457 0.678229 0.564083
O O12 0.081202 0.724510 0.457290
O O13 0.802637 0.027782 0.421192
O O14 0.846913 0.477974 0.665656
O O15 0.480998 0.771028 0.850080
O O16 0.000000 0.500000 0.000000
#
# Coordination Sequence:
#
# PCOD9056578 Si02
#       7
#     2   2   2   2   2   2   2
#     4  12  23  37  65 107 143 174 225 295 363 413
#     4  12  24  42  70 108 140 175 237 300 356 415
#     4  12  26  48  71  98 141 194 237 288 353 425
#     4  11  22  39  69 104 145 180 223 298 371 413
#     4  11  23  41  68 106 143 182 236 291 353 427
#     4  12  22  43  71  99 141 184 231 287 358 419
#     4  12  25  44  73 100 135 196 245 275 345 440
#
# _framework density 21.487494000000002
#
# number of rings (size 3 to 8) (size 9 to 14) (size 15 to 20)
#    0.000    0.286    7.143    3.000    2.000    0.000 
#    0.000    1.429    3.143    0.000    0.000    0.000 
#    0.000    0.000    0.000    0.000    0.000    0.000 
#
# Total GULP energy -78029.568540 kJ/mol
# GULP energy per Si atom -5573.540610 kJ/mol
# Density = 2.143859 g / cm^3
# Si number density = 21.487494 Si / 1000 Ang^3
#
#
#
# Elastic Constant Matrix: (Units=GPa)
#
#
# Indices 1 2 3 4 5 6 
#
# 1 50.3605 29.8943 20.3504 9.9777 20.8946 17.8501
# 2 29.8943 123.2743 30.1190 6.5469 -2.7781 13.0491
# 3 20.3504 30.1190 128.0826 22.0663 12.7853 0.3321
# 4 9.9777 6.5469 22.0663 34.4823 10.8551 -6.1263
# 5 20.8946 -2.7781 12.7853 10.8551 39.8330 3.7295
# 6 17.8501 13.0491 0.3321 -6.1263 3.7295 42.4887
#
#
#
# Elastic Compliance Matrix: (Units=1/GPa)
#
#
# Indices 1 2 3 4 5 6 
#
# 1 0.037607 -0.007491 -0.001552 -0.005350 -0.017099 -0.012757
# 2 -0.007491 0.010574 -0.001742 -0.000551 0.005437 -0.000643
# 3 -0.001552 -0.001742 0.009397 -0.004808 -0.001061 0.000514
# 4 -0.005350 -0.000551 -0.004808 0.037318 -0.006647 0.008418
# 5 -0.017099 0.005437 -0.001061 -0.006647 0.036478 0.001362
# 6 -0.012757 -0.000643 0.000514 0.008418 0.001362 0.030183
#
#
# Mechanical properties :
#
#
# Convention : Reuss Voigt Hill
#
# Bulk Modulus (GPa) = 27.77303 51.38275 39.57789
# Shear Modulus (GPa) = 25.62400 38.11771 31.87086
#
# Velocity S-wave (km/s) = 3.45702 4.21640 3.85545
# Velocity P-wave (km/s) = 5.37475 6.90426 6.18695
#
# Compressibility (1/GPa) = 0.03600615
#
# Stress axis : x y z
#
# Youngs Moduli (GPa) = 26.59103 94.56922 106.41996
#
# Poissons Ratio (x) = 0.70845 0.16516
# Poissons Ratio (y) = 0.19920 0.18543
# Poissons Ratio (z) = 0.04127 0.16478
#
# Static dielectric constant tensor:
#      x y z
#    x 1.748180 -0.142280 -0.109770 
#    y -0.142280 1.272300 -0.439490 
#    z -0.109770 -0.439490 1.467480 
# 
# From -- ./inp_files/279646.got.cif
#   From: 2010.05.17/outbox.cif.g08.bks.cpg/sg2_140_cif.got.tgz:279646.got - 2010.06.03 11:33:40.
