data_PCOD9056126
_publ_section_title
;
Structure prediction by ZEFSAII (Michael W. Deem and Ramdas Pophale) SiO2 
 PCOD9056126
Probable space group: P -1
;
_chemical_formula_sum "Si O2"
_cell_formula_units_Z 16
_cell_length_a 9.139863
_cell_length_b 12.496901
_cell_length_c 18.957781
_cell_angle_alpha 27.333605
_cell_angle_beta 63.871564
_cell_angle_gamma 54.399571
_cell_volume 791.170365
_symmetry_space_group_name_H-M "P -1"
_symmetry_group_IT_number 2
_symmetry_cell_setting 'triclinic'
loop_
_space_group_symop_operation_xyz
x,y,z
-x,-y,-z
loop_
_atom_site_type_symbol
_atom_site_label
_atom_site_fract_x
_atom_site_fract_y
_atom_site_fract_z
Si Si1 0.544182 0.528669 0.061959
Si Si2 0.975464 0.524100 0.784775
Si Si3 0.856957 0.592586 0.328458
Si Si4 0.113247 0.933422 0.898894
Si Si5 0.119493 0.574706 0.874393
Si Si6 0.933591 0.084999 0.694302
Si Si7 0.458661 0.799621 0.326975
Si Si8 0.404139 0.181331 0.242790
O O1 0.662126 0.555278 0.084092
O O2 0.547640 0.244987 0.219421
O O3 0.333510 0.752843 0.970090
O O4 0.646817 0.586404 0.940650
O O5 0.767548 0.750506 0.710486
O O6 0.063290 0.549137 0.679167
O O7 0.077295 0.528281 0.831894
O O8 0.971562 0.245188 0.946855
O O9 0.894802 0.374736 0.508326
O O10 0.636906 0.774559 0.263527
O O11 0.939798 0.786799 0.218545
O O12 0.042851 0.996805 0.795972
O O13 0.048027 0.880243 0.729108
O O14 0.000000 0.500000 0.000000
O O15 0.739575 0.070403 0.744745
O O16 0.500000 0.500000 0.500000
O O17 0.452657 0.933715 0.326388
#
# Coordination Sequence:
#
# PCOD9056126 Si02
#       8
#     2   2   2   2   2   2   2   2
#     4  10  20  34  65  93 111 158 219 257 293 348
#     4  11  23  38  64  96 126 161 202 267 321 353
#     4  11  25  41  60  96 132 164 198 261 326 368
#     4  11  22  41  66  91 125 168 212 254 306 383
#     4  12  20  37  66  95 119 157 222 259 297 372
#     4  11  22  40  66  91 120 170 216 249 302 378
#     4  10  21  38  59  88 122 168 206 242 304 379
#     4  10  17  36  60  85 117 159 208 249 291 371
#
# _framework density 20.223206000000001
#
# number of rings (size 3 to 8) (size 9 to 14) (size 15 to 20)
#    0.000    1.250    5.000    2.250    0.000    0.500 
#    0.000    5.000    0.000    6.750    0.000    0.000 
#    0.000    0.000    0.000    0.000    0.000    0.000 
#
# Total GULP energy -89132.660962 kJ/mol
# GULP energy per Si atom -5570.791310 kJ/mol
# Density = 2.017718 g / cm^3
# Si number density = 20.223206 Si / 1000 Ang^3
#
#
#
# Elastic Constant Matrix: (Units=GPa)
#
#
# Indices 1 2 3 4 5 6 
#
# 1 135.3283 38.3148 26.4290 -1.3256 6.6346 10.4329
# 2 38.3148 99.8083 23.6220 -2.6519 -7.0812 6.5116
# 3 26.4290 23.6220 49.1829 -12.4996 0.3156 6.2499
# 4 -1.3256 -2.6519 -12.4996 30.4867 6.6345 -7.0152
# 5 6.6346 -7.0812 0.3156 6.6345 23.9024 -14.6694
# 6 10.4329 6.5116 6.2499 -7.0152 -14.6694 28.8763
#
#
#
# Elastic Compliance Matrix: (Units=1/GPa)
#
#
# Indices 1 2 3 4 5 6 
#
# 1 0.009660 -0.003089 -0.003177 -0.001001 -0.006856 -0.005832
# 2 -0.003089 0.012737 -0.005336 -0.002147 0.006696 0.002279
# 3 -0.003177 -0.005336 0.028123 0.011413 -0.007017 -0.004528
# 4 -0.001001 -0.002147 0.011413 0.040092 -0.009672 0.003202
# 5 -0.006856 0.006696 -0.007017 -0.009672 0.070594 0.035999
# 6 -0.005832 0.002279 -0.004528 0.003202 0.035999 0.056269
#
#
# Mechanical properties :
#
#
# Convention : Reuss Voigt Hill
#
# Bulk Modulus (GPa) = 36.60644 51.22788 43.91716
# Shear Modulus (GPa) = 20.01722 29.71668 24.86695
#
# Velocity S-wave (km/s) = 3.14954 3.83748 3.51040
# Velocity P-wave (km/s) = 5.60060 6.70979 6.18013
#
# Compressibility (1/GPa) = 0.02731760
#
# Stress axis : x y z
#
# Youngs Moduli (GPa) = 103.51527 78.50994 35.55796
#
# Poissons Ratio (x) = 0.24253 0.11296
# Poissons Ratio (y) = 0.31977 0.18973
# Poissons Ratio (z) = 0.32884 0.41890
#
# Static dielectric constant tensor:
#      x y z
#    x 1.806050 -0.005930 -0.009840 
#    y -0.005930 1.734940 -0.037330 
#    z -0.009840 -0.037330 1.761380 
# 
# From -- ./inp_files/558836.got.cif
#   From: 2010.05.17/outbox.cif.g08.bks.cpg/sg2_280_cif.got.tgz:558836.got - 2010.06.03 11:33:40.
