data_PCOD9056885
_publ_section_title
;
Structure prediction by ZEFSAII (Michael W. Deem and Ramdas Pophale) SiO2 
 PCOD9056885
Probable space group: P -1
;
_chemical_formula_sum "Si O2"
_cell_formula_units_Z 16
_cell_length_a 8.396814
_cell_length_b 18.991918
_cell_length_c 4.645074
_cell_angle_alpha 89.391165
_cell_angle_beta 85.838381
_cell_angle_gamma 51.115290
_cell_volume 574.510752
_symmetry_space_group_name_H-M "P -1"
_symmetry_group_IT_number 2
_symmetry_cell_setting 'triclinic'
loop_
_space_group_symop_operation_xyz
x,y,z
-x,-y,-z
loop_
_atom_site_type_symbol
_atom_site_label
_atom_site_fract_x
_atom_site_fract_y
_atom_site_fract_z
Si Si1 0.273164 0.671098 0.534031
Si Si2 0.223143 0.297008 0.885745
Si Si3 0.110728 0.799251 0.076076
Si Si4 0.831745 0.451890 0.561544
Si Si5 0.324300 0.423230 0.901896
Si Si6 0.299957 0.048154 0.220888
Si Si7 0.776214 0.078615 0.894524
Si Si8 0.612278 0.831135 0.640756
O O1 0.252562 0.724346 0.815880
O O2 0.251969 0.594066 0.586053
O O3 0.476650 0.625654 0.321143
O O4 0.096113 0.747377 0.335753
O O5 0.302091 0.348808 0.996675
O O6 0.376000 0.219312 0.639993
O O7 0.025476 0.372570 0.723196
O O8 0.213299 0.245890 0.154149
O O9 0.203085 0.845483 0.197439
O O10 0.899119 0.877179 0.945438
O O11 0.855779 0.502031 0.300317
O O12 0.682999 0.525328 0.821944
O O13 0.338556 0.100984 0.434275
O O14 0.500000 0.000000 0.000000
O O15 0.265769 0.975954 0.311669
O O16 0.597291 0.122439 0.155548
O O17 0.000000 0.000000 0.000000
#
# Coordination Sequence:
#
# PCOD9056885 Si02
#       8
#     2   2   2   2   2   2   2   2
#     4  12  24  41  64  90 122 160 202 250 300 357
#     4  12  24  41  64  90 122 160 202 250 300 357
#     4  11  22  41  62  91 122 160 202 247 298 357
#     4  12  24  41  62  90 122 160 202 250 302 357
#     4  12  24  41  62  90 122 160 202 250 302 357
#     4   9  20  41  64  91 124 160 200 247 300 357
#     4   9  20  41  64  91 124 160 200 247 300 357
#     4  11  22  41  62  91 122 160 202 247 298 357
#
# _framework density 27.849786000000002
#
# number of rings (size 3 to 8) (size 9 to 14) (size 15 to 20)
#    0.000    1.000    0.000    7.500    0.000    0.000 
#    0.000   25.000    0.000    0.000    0.000    0.000 
#    0.000    0.000    0.000    0.000    0.000    0.000 
#
# Total GULP energy -89812.135162 kJ/mol
# GULP energy per Si atom -5613.258448 kJ/mol
# Density = 2.778640 g / cm^3
# Si number density = 27.849786 Si / 1000 Ang^3
#
#
#
# Elastic Constant Matrix: (Units=GPa)
#
#
# Indices 1 2 3 4 5 6 
#
# 1 112.3480 55.8430 18.9879 28.4306 21.4979 20.8098
# 2 55.8430 160.3502 60.8115 16.2741 3.9258 27.9234
# 3 18.9879 60.8115 134.6267 1.5696 2.7426 1.6870
# 4 28.4306 16.2741 1.5696 53.4090 -5.8688 -1.3572
# 5 21.4979 3.9258 2.7426 -5.8688 37.9568 6.5990
# 6 20.8098 27.9234 1.6870 -1.3572 6.5990 72.8835
#
#
#
# Elastic Compliance Matrix: (Units=1/GPa)
#
#
# Indices 1 2 3 4 5 6 
#
# 1 0.014839 -0.003750 -0.000101 -0.007779 -0.008840 -0.002142
# 2 -0.003750 0.009436 -0.003729 -0.000641 0.001776 -0.002631
# 3 -0.000101 -0.003729 0.009106 0.000923 -0.000297 0.001291
# 4 -0.007779 -0.000641 0.000923 0.023937 0.007726 0.002192
# 5 -0.008840 0.001776 -0.000297 0.007726 0.032550 -0.000953
# 6 -0.002142 -0.002631 0.001291 0.002192 -0.000953 0.015437
#
#
# Mechanical properties :
#
#
# Convention : Reuss Voigt Hill
#
# Bulk Modulus (GPa) = 54.88616 75.40107 65.14361
# Shear Modulus (GPa) = 39.51281 50.96204 45.23742
#
# Velocity S-wave (km/s) = 3.77076 4.28236 4.03468
# Velocity P-wave (km/s) = 6.22165 7.18223 6.71913
#
# Compressibility (1/GPa) = 0.01821953
#
# Stress axis : x y z
#
# Youngs Moduli (GPa) = 67.38994 105.97156 109.81938
#
# Poissons Ratio (x) = 0.39744 0.01111
# Poissons Ratio (y) = 0.25274 0.40955
# Poissons Ratio (z) = 0.00682 0.39520
#
# Static dielectric constant tensor:
#      x y z
#    x 2.175220 -0.110040 0.070770 
#    y -0.110040 2.234200 -0.003490 
#    z 0.070770 -0.003490 2.051010 
# 
# From -- ./inp_files/48263.got.cif
#   From: 2010.05.17/outbox.cif.g08.bks.cpg/sg2_25_cif.got.tgz:48263.got - 2010.06.03 11:33:40.
