data_PCOD9056320
_publ_section_title
;
Structure prediction by ZEFSAII (Michael W. Deem and Ramdas Pophale) SiO2 
 PCOD9056320
Probable space group: P -1
;
_chemical_formula_sum "Si O2"
_cell_formula_units_Z 12
_cell_length_a 11.224473
_cell_length_b 7.948423
_cell_length_c 11.601967
_cell_angle_alpha 100.648556
_cell_angle_beta 35.526852
_cell_angle_gamma 83.569214
_cell_volume 525.028990
_symmetry_space_group_name_H-M "P -1"
_symmetry_group_IT_number 2
_symmetry_cell_setting 'triclinic'
loop_
_space_group_symop_operation_xyz
x,y,z
-x,-y,-z
loop_
_atom_site_type_symbol
_atom_site_label
_atom_site_fract_x
_atom_site_fract_y
_atom_site_fract_z
Si Si1 0.558605 0.322753 0.018001
Si Si2 0.995321 0.762745 0.453709
Si Si3 0.759705 0.573397 0.500128
Si Si4 0.035576 0.854510 0.694404
Si Si5 0.537242 0.921092 0.113135
Si Si6 0.367305 0.033133 0.490112
O O1 0.852492 0.355193 0.355920
O O2 0.834076 0.215220 0.769545
O O3 0.500000 0.500000 0.000000
O O4 0.448863 0.378155 0.237760
O O5 0.968932 0.576562 0.411484
O O6 0.845051 0.018071 0.340659
O O7 0.919275 0.214511 0.484799
O O8 0.730730 0.922235 0.669514
O O9 0.693548 0.750692 0.483753
O O10 0.440336 0.213407 0.028379
O O11 0.758519 0.957961 0.938203
O O12 0.529363 0.874387 0.247409
O O13 0.500000 0.000000 0.500000
#
# Coordination Sequence:
#
# PCOD9056320 Si02
#       6
#     2   2   2   2   2   2
#     4  12  21  38  65 104 145 174 215 272 345 421
#     4  11  22  37  66 105 145 176 212 272 351 424
#     4  11  25  41  71 104 139 178 221 274 357 410
#     4  12  23  45  67 102 143 177 219 286 341 411
#     4  11  24  39  67 101 137 181 221 275 350 407
#     4  11  28  48  67  95 133 187 246 281 325 395
#
# _framework density 22.855879999999999
#
# number of rings (size 3 to 8) (size 9 to 14) (size 15 to 20)
#    0.000    0.667    5.000    2.500    4.667    1.333 
#    0.000    0.833    0.000    0.000    0.000    0.000 
#    0.000    0.000    0.000    0.000    0.000    0.000 
#
# Total GULP energy -66916.884618 kJ/mol
# GULP energy per Si atom -5576.407052 kJ/mol
# Density = 2.280386 g / cm^3
# Si number density = 22.855880 Si / 1000 Ang^3
#
#
#
# Elastic Constant Matrix: (Units=GPa)
#
#
# Indices 1 2 3 4 5 6 
#
# 1 129.4621 46.3036 49.1264 -14.0681 -21.3594 -23.0074
# 2 46.3036 135.3376 46.0478 -11.8741 -15.2764 -8.0664
# 3 49.1264 46.0478 137.7864 -1.1680 -46.3581 -5.0443
# 4 -14.0681 -11.8741 -1.1680 39.7141 3.0082 -3.0799
# 5 -21.3594 -15.2764 -46.3581 3.0082 39.9991 -8.7227
# 6 -23.0074 -8.0664 -5.0443 -3.0799 -8.7227 27.6025
#
#
#
# Elastic Compliance Matrix: (Units=1/GPa)
#
#
# Indices 1 2 3 4 5 6 
#
# 1 0.012750 -0.002104 -0.000813 0.004280 0.007514 0.012716
# 2 -0.002104 0.009079 -0.002411 0.001976 -0.000484 0.000526
# 3 -0.000813 -0.002411 0.014109 -0.001356 0.016461 0.006247
# 4 0.004280 0.001976 -0.001356 0.027739 0.000974 0.007301
# 5 0.007514 -0.000484 0.016461 0.000974 0.053537 0.026157
# 6 0.012716 0.000526 0.006247 0.007301 0.026157 0.057203
#
#
# Mechanical properties :
#
#
# Convention : Reuss Voigt Hill
#
# Bulk Modulus (GPa) = 39.55347 76.17133 57.86240
# Shear Modulus (GPa) = 25.83972 38.87036 32.35504
#
# Velocity S-wave (km/s) = 3.36601 4.12839 3.76654
# Velocity P-wave (km/s) = 5.69648 7.49160 6.65484
#
# Compressibility (1/GPa) = 0.02528223
#
# Stress axis : x y z
#
# Youngs Moduli (GPa) = 78.43204 110.14220 70.87850
#
# Poissons Ratio (x) = 0.23174 0.05761
# Poissons Ratio (y) = 0.16502 0.17088
# Poissons Ratio (z) = 0.06375 0.26554
#
# Static dielectric constant tensor:
#      x y z
#    x 1.823180 0.021050 -0.010390 
#    y 0.021050 2.195820 -0.042920 
#    z -0.010390 -0.042920 1.929290 
# 
# From -- ./inp_files/301056.got.cif
#   From: 2010.05.17/outbox.cif.g08.bks.cpg/sg2_151_cif.got.tgz:301056.got - 2010.06.03 11:33:40.
