data_PCOD9056594
_publ_section_title
;
Structure prediction by ZEFSAII (Michael W. Deem and Ramdas Pophale) SiO2 
 PCOD9056594
Probable space group: P -1
;
_chemical_formula_sum "Si O2"
_cell_formula_units_Z 16
_cell_length_a 14.947576
_cell_length_b 8.449384
_cell_length_c 7.262838
_cell_angle_alpha 72.432486
_cell_angle_beta 122.634337
_cell_angle_gamma 129.349759
_cell_volume 596.208774
_symmetry_space_group_name_H-M "P -1"
_symmetry_group_IT_number 2
_symmetry_cell_setting 'triclinic'
loop_
_space_group_symop_operation_xyz
x,y,z
-x,-y,-z
loop_
_atom_site_type_symbol
_atom_site_label
_atom_site_fract_x
_atom_site_fract_y
_atom_site_fract_z
Si Si1 0.210476 0.817454 0.161710
Si Si2 0.430868 0.086032 0.782400
Si Si3 0.411883 0.577870 0.893629
Si Si4 0.863379 0.067777 0.425083
Si Si5 0.821737 0.714137 0.747143
Si Si6 0.967813 0.569872 0.713960
Si Si7 0.582227 0.277989 0.548464
Si Si8 0.821434 0.839170 0.093796
O O1 0.128356 0.677184 0.298696
O O2 0.332268 0.806631 0.280415
O O3 0.236265 0.038297 0.097832
O O4 0.106949 0.671302 0.936161
O O5 0.281856 0.980200 0.718571
O O6 0.450244 0.125538 0.571956
O O7 0.533270 0.312796 0.891358
O O8 0.500000 0.000000 0.000000
O O9 0.429359 0.709938 0.689028
O O10 0.500000 0.500000 0.000000
O O11 0.267564 0.377996 0.826200
O O12 0.852416 0.918963 0.619348
O O13 0.887857 0.984858 0.292803
O O14 0.985395 0.306415 0.468758
O O15 0.894491 0.638157 0.738279
O O16 0.669674 0.518120 0.624097
O O17 0.866776 0.779818 0.984828
#
# Coordination Sequence:
#
# PCOD9056594 Si02
#       8
#     2   2   2   2   2   2   2   2
#     4   9  21  42  69  94 131 175 211 276 333 387
#     4  12  26  42  67 101 135 177 222 267 330 397
#     4  12  25  43  66  99 136 177 214 278 326 392
#     4  11  23  40  66  96 134 172 219 272 324 393
#     4  11  22  39  70  98 125 174 220 272 326 396
#     4   9  20  42  67  93 131 175 216 269 335 384
#     4  11  24  43  69  98 134 176 220 265 336 399
#     4  11  22  41  66  97 133 165 219 274 327 380
#
# _framework density 26.836237000000001
#
# number of rings (size 3 to 8) (size 9 to 14) (size 15 to 20)
#    0.000    1.250    3.750    1.875    1.750    4.500 
#    0.000    0.625    0.000    0.000    0.000    0.000 
#    0.000    0.000    0.000    0.000    0.000    0.000 
#
# Total GULP energy -89363.082148 kJ/mol
# GULP energy per Si atom -5585.192634 kJ/mol
# Density = 2.677516 g / cm^3
# Si number density = 26.836237 Si / 1000 Ang^3
#
#
#
# Elastic Constant Matrix: (Units=GPa)
#
#
# Indices 1 2 3 4 5 6 
#
# 1 81.0926 23.4640 53.5986 -19.5959 -3.7424 21.9635
# 2 23.4640 115.8103 15.6917 -32.4494 -17.2398 19.1026
# 3 53.5986 15.6917 124.0259 -27.8573 -7.4983 9.9079
# 4 -19.5959 -32.4494 -27.8573 50.0449 8.1788 -6.5378
# 5 -3.7424 -17.2398 -7.4983 8.1788 48.7279 -9.4666
# 6 21.9635 19.1026 9.9079 -6.5378 -9.4666 37.9788
#
#
#
# Elastic Compliance Matrix: (Units=1/GPa)
#
#
# Indices 1 2 3 4 5 6 
#
# 1 0.020820 -0.001345 -0.007730 0.002101 -0.002275 -0.009553
# 2 -0.001345 0.011587 0.001053 0.006723 0.002333 -0.003586
# 3 -0.007730 0.001053 0.012207 0.004485 0.001262 0.001843
# 4 0.002101 0.006723 0.004485 0.027754 -0.001703 -0.001413
# 5 -0.002275 0.002333 0.001262 -0.001703 0.022657 0.005167
# 6 -0.009553 -0.003586 0.001843 -0.001413 0.005167 0.034222
#
#
# Mechanical properties :
#
#
# Convention : Reuss Voigt Hill
#
# Bulk Modulus (GPa) = 35.00223 56.27082 45.63653
# Shear Modulus (GPa) = 32.29681 42.56196 37.42939
#
# Velocity S-wave (km/s) = 3.47288 3.98677 3.73866
# Velocity P-wave (km/s) = 5.39930 6.49663 5.97321
#
# Compressibility (1/GPa) = 0.02856961
#
# Stress axis : x y z
#
# Youngs Moduli (GPa) = 48.03123 86.30219 81.92311
#
# Poissons Ratio (x) = 0.11608 0.63324
# Poissons Ratio (y) = 0.06461 -0.08625
# Poissons Ratio (z) = 0.37127 -0.09086
#
# Static dielectric constant tensor:
#      x y z
#    x 2.067130 0.028370 0.018540 
#    y 0.028370 2.132270 -0.036270 
#    z 0.018540 -0.036270 2.126780 
# 
# From -- ./inp_files/294932.got.cif
#   From: 2010.05.17/outbox.cif.g08.bks.cpg/sg2_148_cif.got.tgz:294932.got - 2010.06.03 11:33:40.
