data_PCOD9056905
_publ_section_title
;
Structure prediction by ZEFSAII (Michael W. Deem and Ramdas Pophale) SiO2 
 PCOD9056905
Probable space group: P -1
;
_chemical_formula_sum "Si O2"
_cell_formula_units_Z 14
_cell_length_a 9.701701
_cell_length_b 14.403838
_cell_length_c 7.637905
_cell_angle_alpha 115.959799
_cell_angle_beta 48.758154
_cell_angle_gamma 127.567317
_cell_volume 634.993598
_symmetry_space_group_name_H-M "P -1"
_symmetry_group_IT_number 2
_symmetry_cell_setting 'triclinic'
loop_
_space_group_symop_operation_xyz
x,y,z
-x,-y,-z
loop_
_atom_site_type_symbol
_atom_site_label
_atom_site_fract_x
_atom_site_fract_y
_atom_site_fract_z
Si Si1 0.280777 0.388744 0.028342
Si Si2 0.385106 0.065273 0.970379
Si Si3 0.219885 0.159141 0.484128
Si Si4 0.482935 0.601330 0.498476
Si Si5 0.061601 0.580091 0.839819
Si Si6 0.192580 0.833613 0.093105
Si Si7 0.810495 0.870286 0.100847
O O1 0.349942 0.365676 0.763957
O O2 0.185245 0.251790 0.063576
O O3 0.500000 0.500000 0.000000
O O4 0.113244 0.434086 0.166324
O O5 0.240536 0.075992 0.254746
O O6 0.278090 0.924658 0.933521
O O7 0.617690 0.117845 0.890247
O O8 0.373737 0.129845 0.860317
O O9 0.425589 0.281358 0.368093
O O10 0.225497 0.127527 0.657948
O O11 0.013508 0.172926 0.653619
O O12 0.500000 0.500000 0.500000
O O13 0.256149 0.568498 0.591589
O O14 0.139231 0.709041 0.958155
O O15 0.000000 0.500000 0.000000
O O16 0.000000 0.000000 0.000000
#
# Coordination Sequence:
#
# PCOD9056905 Si02
#       7
#     2   2   2   2   2   2   2
#     4  11  26  43  66 101 136 170 229 283 330 410
#     4  11  24  41  71  96 136 174 225 276 333 403
#     4  11  22  43  68  95 136 174 225 276 335 405
#     4  11  22  41  68  95 125 180 221 268 344 400
#     4  12  22  42  70  92 135 175 218 280 341 396
#     4  11  22  41  64 103 126 173 230 272 327 409
#     4  11  23  44  68  97 139 178 219 277 344 394
#
# _framework density 22.047467999999999
#
# number of rings (size 3 to 8) (size 9 to 14) (size 15 to 20)
#    0.000    0.857    7.143    0.429    4.000    0.571 
#    0.000    7.143    0.000    0.000    0.000    0.000 
#    0.000    0.000    0.000    0.000    0.000    0.000 
#
# Total GULP energy -78014.056860 kJ/mol
# GULP energy per Si atom -5572.432633 kJ/mol
# Density = 2.199729 g / cm^3
# Si number density = 22.047468 Si / 1000 Ang^3
#
#
#
# Elastic Constant Matrix: (Units=GPa)
#
#
# Indices 1 2 3 4 5 6 
#
# 1 143.3432 56.0617 33.1110 0.3064 -42.6782 -13.6649
# 2 56.0617 155.4426 -1.7985 2.8158 3.6005 -4.4522
# 3 33.1110 -1.7985 59.2151 -2.6731 -23.0919 -9.5958
# 4 0.3064 2.8158 -2.6731 19.0754 2.4691 -1.0163
# 5 -42.6782 3.6005 -23.0919 2.4691 44.7089 0.5515
# 6 -13.6649 -4.4522 -9.5958 -1.0163 0.5515 36.3523
#
#
#
# Elastic Compliance Matrix: (Units=1/GPa)
#
#
# Indices 1 2 3 4 5 6 
#
# 1 0.013409 -0.005018 -0.002466 -0.001177 0.011951 0.003561
# 2 -0.005018 0.008361 0.001049 -0.000401 -0.004893 -0.000522
# 3 -0.002466 0.001049 0.022799 0.002169 0.009154 0.005142
# 4 -0.001177 -0.000401 0.002169 0.053271 -0.002933 0.001615
# 5 0.011951 -0.004893 0.009154 -0.002933 0.038990 0.005636
# 6 0.003561 -0.000522 0.005142 0.001615 0.005636 0.030100
#
#
# Mechanical properties :
#
#
# Convention : Reuss Voigt Hill
#
# Bulk Modulus (GPa) = 31.54640 59.19439 45.37039
# Shear Modulus (GPa) = 26.26526 38.06910 32.16718
#
# Velocity S-wave (km/s) = 3.45527 4.15985 3.82383
# Velocity P-wave (km/s) = 5.50073 7.06961 6.33393
#
# Compressibility (1/GPa) = 0.03169934
#
# Stress axis : x y z
#
# Youngs Moduli (GPa) = 74.57894 119.60587 43.86146
#
# Poissons Ratio (x) = 0.60018 0.10814
# Poissons Ratio (y) = 0.37424 -0.04601
# Poissons Ratio (z) = 0.18388 -0.12546
#
# Static dielectric constant tensor:
#      x y z
#    x 1.857410 0.061740 -0.019520 
#    y 0.061740 2.014030 -0.001450 
#    z -0.019520 -0.001450 1.787390 
# 
# From -- ./inp_files/180904.got.cif
#   From: 2010.05.17/outbox.cif.g08.bks.cpg/sg2_91_cif.got.tgz:180904.got - 2010.06.03 11:33:40.
