data_PCOD9056865
_publ_section_title
;
Structure prediction by ZEFSAII (Michael W. Deem and Ramdas Pophale) SiO2 
 PCOD9056865
Probable space group: P -1
;
_chemical_formula_sum "Si O2"
_cell_formula_units_Z 14
_cell_length_a 5.547102
_cell_length_b 11.622953
_cell_length_c 11.229488
_cell_angle_alpha 72.832123
_cell_angle_beta 96.723982
_cell_angle_gamma 122.783276
_cell_volume 580.745749
_symmetry_space_group_name_H-M "P -1"
_symmetry_group_IT_number 2
_symmetry_cell_setting 'triclinic'
loop_
_space_group_symop_operation_xyz
x,y,z
-x,-y,-z
loop_
_atom_site_type_symbol
_atom_site_label
_atom_site_fract_x
_atom_site_fract_y
_atom_site_fract_z
Si Si1 0.766578 0.662886 0.466866
Si Si2 0.419675 0.065612 0.233162
Si Si3 0.353224 0.510048 0.104543
Si Si4 0.735761 0.901595 0.280599
Si Si5 0.387490 0.792531 0.051829
Si Si6 0.097220 0.380178 0.758061
Si Si7 0.896905 0.332423 0.291469
O O1 0.500000 0.500000 0.500000
O O2 0.659041 0.768373 0.400801
O O3 0.960964 0.677115 0.360533
O O4 0.953707 0.700348 0.584309
O O5 0.579279 0.207902 0.279631
O O6 0.583735 0.982823 0.293692
O O7 0.490020 0.103489 0.084702
O O8 0.082016 0.990322 0.261981
O O9 0.312250 0.640013 0.045472
O O10 0.573404 0.556054 0.212018
O O11 0.076493 0.362535 0.171052
O O12 0.500000 0.500000 0.000000
O O13 0.612848 0.847100 0.156816
O O14 0.093081 0.744755 0.120085
O O15 0.061292 0.514396 0.725991
#
# Coordination Sequence:
#
# PCOD9056865 Si02
#       7
#     2   2   2   2   2   2   2
#     4  12  24  49  78 105 141 189 254 311 368 430
#     4  12  29  47  74 108 156 201 240 298 374 447
#     4  11  22  40  74 109 144 178 245 308 365 428
#     4  12  28  48  73 110 145 200 252 295 367 451
#     4  11  24  46  73 108 146 192 247 307 366 430
#     4  11  22  43  75 110 140 186 251 306 364 430
#     4  11  26  44  70 111 147 198 239 303 373 430
#
# _framework density 24.106933999999999
#
# number of rings (size 3 to 8) (size 9 to 14) (size 15 to 20)
#    0.000    0.571    2.857    4.714    6.000    4.571 
#    0.000    0.000    0.000    0.000    0.000    0.000 
#    0.000    0.000    0.000    0.000    0.000    0.000 
#
# Total GULP energy -78396.234769 kJ/mol
# GULP energy per Si atom -5599.731055 kJ/mol
# Density = 2.405207 g / cm^3
# Si number density = 24.106934 Si / 1000 Ang^3
#
#
#
# Elastic Constant Matrix: (Units=GPa)
#
#
# Indices 1 2 3 4 5 6 
#
# 1 81.9759 16.6194 9.9922 -6.3221 8.8582 15.5764
# 2 16.6194 74.1711 8.2133 1.2581 10.6510 26.5990
# 3 9.9922 8.2133 81.2983 3.7276 26.3665 1.6818
# 4 -6.3221 1.2581 3.7276 39.5649 -4.2870 3.5089
# 5 8.8582 10.6510 26.3665 -4.2870 42.8365 5.2251
# 6 15.5764 26.5990 1.6818 3.5089 5.2251 52.7067
#
#
#
# Elastic Compliance Matrix: (Units=1/GPa)
#
#
# Indices 1 2 3 4 5 6 
#
# 1 0.013597 -0.001658 -0.001228 0.002518 -0.001000 -0.003211
# 2 -0.001658 0.017111 -0.000470 -0.000363 -0.002703 -0.007838
# 3 -0.001228 -0.000470 0.015773 -0.002838 -0.009775 0.001255
# 4 0.002518 -0.000363 -0.002838 0.026660 0.004310 -0.002673
# 5 -0.001000 -0.002703 -0.009775 0.004310 0.030839 -0.001373
# 6 -0.003211 -0.007838 0.001255 -0.002673 -0.001373 0.024151
#
#
# Mechanical properties :
#
#
# Convention : Reuss Voigt Hill
#
# Bulk Modulus (GPa) = 25.14553 34.12170 29.63362
# Shear Modulus (GPa) = 33.76094 40.52965 37.14529
#
# Velocity S-wave (km/s) = 3.74634 4.10475 3.92963
# Velocity P-wave (km/s) = 5.40064 6.05395 5.73660
#
# Compressibility (1/GPa) = 0.03976850
#
# Stress axis : x y z
#
# Youngs Moduli (GPa) = 73.54613 58.44170 63.39896
#
# Poissons Ratio (x) = 0.09692 0.07788
# Poissons Ratio (y) = 0.12197 0.02977
# Poissons Ratio (z) = 0.09035 0.02744
#
# Static dielectric constant tensor:
#      x y z
#    x 1.966550 -0.001960 0.003970 
#    y -0.001960 1.965530 0.008320 
#    z 0.003970 0.008320 1.949770 
# 
# From -- ./inp_files/60732.got.cif
#   From: 2010.05.17/outbox.cif.g08.bks.cpg/sg2_31_cif.got.tgz:60732.got - 2010.06.03 11:33:40.
