data_PCOD9056269
_publ_section_title
;
Structure prediction by ZEFSAII (Michael W. Deem and Ramdas Pophale) SiO2 
 PCOD9056269
Probable space group: P -1
;
_chemical_formula_sum "Si O2"
_cell_formula_units_Z 12
_cell_length_a 12.652006
_cell_length_b 12.291735
_cell_length_c 12.143547
_cell_angle_alpha 121.363106
_cell_angle_beta 123.145977
_cell_angle_gamma 22.906959
_cell_volume 614.643931
_symmetry_space_group_name_H-M "P -1"
_symmetry_group_IT_number 2
_symmetry_cell_setting 'triclinic'
loop_
_space_group_symop_operation_xyz
x,y,z
-x,-y,-z
loop_
_atom_site_type_symbol
_atom_site_label
_atom_site_fract_x
_atom_site_fract_y
_atom_site_fract_z
Si Si1 0.134099 0.019124 0.201453
Si Si2 0.964601 0.594468 0.353661
Si Si3 0.996125 0.858640 0.062486
Si Si4 0.464699 0.236992 0.055946
Si Si5 0.441858 0.111848 0.201535
Si Si6 0.278612 0.416727 0.645568
O O1 0.391549 0.866735 0.315553
O O2 0.138473 0.868239 0.159591
O O3 0.138802 0.021559 0.073033
O O4 0.852081 0.337769 0.249491
O O5 0.819025 0.610395 0.345517
O O6 0.173133 0.355234 0.253641
O O7 0.147234 0.507382 0.499779
O O8 0.716497 0.895198 0.314276
O O9 0.217821 0.547178 0.036335
O O10 0.751183 0.056236 0.113689
O O11 0.406018 0.239581 0.146426
O O12 0.505564 0.075001 0.918552
#
# Coordination Sequence:
#
# PCOD9056269 Si02
#       6
#     2   2   2   2   2   2
#     4  11  22  37  59  85 114 147 184 230 280 331
#     4  11  22  37  59  85 114 147 184 230 280 331
#     4  11  22  37  59  85 114 147 184 230 280 331
#     4  11  22  37  59  85 114 147 184 230 280 331
#     4  11  22  37  59  85 114 147 184 230 280 331
#     4  11  22  37  59  85 114 147 184 230 280 331
#
# _framework density 19.523499000000001
#
# number of rings (size 3 to 8) (size 9 to 14) (size 15 to 20)
#    0.000    1.000    0.000    9.000    0.000    8.000 
#    0.000    0.000    0.000   20.000    0.000    0.000 
#    0.000    0.000    0.000    0.000    0.000    0.000 
#
# Total GULP energy -67155.796827 kJ/mol
# GULP energy per Si atom -5596.316402 kJ/mol
# Density = 1.947906 g / cm^3
# Si number density = 19.523499 Si / 1000 Ang^3
#
#
#
# Elastic Constant Matrix: (Units=GPa)
#
#
# Indices 1 2 3 4 5 6 
#
# 1 81.8060 11.4938 25.9242 -18.3874 -3.5611 4.0254
# 2 11.4938 60.9920 -12.8047 -17.0421 -1.3787 -7.2352
# 3 25.9242 -12.8047 45.3210 -9.8269 -4.2105 -1.8021
# 4 -18.3874 -17.0421 -9.8269 21.9753 -5.8455 2.7914
# 5 -3.5611 -1.3787 -4.2105 -5.8455 20.7463 3.2123
# 6 4.0254 -7.2352 -1.8021 2.7914 3.2123 32.6319
#
#
#
# Elastic Compliance Matrix: (Units=1/GPa)
#
#
# Indices 1 2 3 4 5 6 
#
# 1 0.018296 -0.002291 -0.008219 0.011902 0.005412 -0.004770
# 2 -0.002291 0.031137 0.019008 0.034104 0.014541 0.003887
# 3 -0.008219 0.019008 0.040160 0.029606 0.015825 0.003356
# 4 0.011902 0.034104 0.029606 0.106824 0.041264 -0.005471
# 5 0.005412 0.014541 0.015825 0.041264 0.065956 -0.006592
# 6 -0.004770 0.003887 0.003356 -0.005471 -0.006592 0.033397
#
#
# Mechanical properties :
#
#
# Convention : Reuss Voigt Hill
#
# Bulk Modulus (GPa) = 9.38183 26.37173 17.87678
# Shear Modulus (GPa) = 15.90820 25.97108 20.93964
#
# Velocity S-wave (km/s) = 2.85761 3.65121 3.27851
# Velocity P-wave (km/s) = 3.96279 5.59573 4.84850
#
# Compressibility (1/GPa) = 0.10658903
#
# Stress axis : x y z
#
# Youngs Moduli (GPa) = 54.65640 32.11602 24.90054
#
# Poissons Ratio (x) = 0.07358 0.20466
# Poissons Ratio (y) = 0.12523 -0.47331
# Poissons Ratio (z) = 0.44922 -0.61047
#
# Static dielectric constant tensor:
#      x y z
#    x 1.665360 -0.001830 0.008610 
#    y -0.001830 1.667430 -0.010250 
#    z 0.008610 -0.010250 1.680210 
# 
# From -- ./inp_files/63242.got.cif
#   From: 2010.05.17/outbox.cif.g08.bks.cpg/sg2_32_cif.got.tgz:63242.got - 2010.06.03 11:33:40.
