data_PCOD9056533
_publ_section_title
;
Structure prediction by ZEFSAII (Michael W. Deem and Ramdas Pophale) SiO2 
 PCOD9056533
Probable space group: P -1
;
_chemical_formula_sum "Si O2"
_cell_formula_units_Z 15
_cell_length_a 8.591986
_cell_length_b 18.418272
_cell_length_c 12.012449
_cell_angle_alpha 150.957174
_cell_angle_beta 115.401526
_cell_angle_gamma 53.186707
_cell_volume 716.460426
_symmetry_space_group_name_H-M "P -1"
_symmetry_group_IT_number 2
_symmetry_cell_setting 'triclinic'
loop_
_space_group_symop_operation_xyz
x,y,z
-x,-y,-z
loop_
_atom_site_type_symbol
_atom_site_label
_atom_site_fract_x
_atom_site_fract_y
_atom_site_fract_z
Si Si1 0.421971 0.635400 0.833583
Si Si2 0.303820 0.994767 0.401308
Si Si3 0.792489 0.925914 0.160805
Si Si4 0.470604 0.823833 0.921465
Si Si5 0.992776 0.333997 0.318765
Si Si6 0.085639 0.155163 0.334341
Si Si7 0.000000 0.000000 0.500000
Si Si8 0.662732 0.251069 0.434006
O O1 0.224342 0.639910 0.735756
O O2 0.557675 0.454866 0.695757
O O3 0.530959 0.651501 0.778769
O O4 0.369688 0.805791 0.115960
O O5 0.188892 0.140339 0.464997
O O6 0.500000 0.000000 0.500000
O O7 0.156965 0.018585 0.488946
O O8 0.614920 0.893722 0.095332
O O9 0.972439 0.873203 0.229708
O O10 0.707814 0.131689 0.395153
O O11 0.866251 0.830836 0.937431
O O12 0.243076 0.968502 0.078177
O O13 0.474672 0.784567 0.739978
O O14 0.000000 0.500000 0.500000
O O15 0.053462 0.290242 0.408020
O O16 0.870266 0.187357 0.347233
#
# Coordination Sequence:
#
# PCOD9056533 Si02
#       8
#     2   2   2   2   2   2   1   2
#     4  11  24  42  66 101 139 178 226 292 353 416
#     4  11  25  50  74  98 140 192 246 293 351 429
#     4  12  25  42  69 101 138 187 238 285 356 427
#     4  11  22  39  67 101 138 180 225 284 355 431
#     4  12  25  43  69 106 145 178 232 297 356 426
#     4  11  23  43  69  96 138 186 228 284 364 417
#     4  12  22  46  72  98 132 196 242 290 340 432
#     4  12  22  40  66  98 141 177 221 290 360 420
#
# _framework density 20.936257999999999
#
# number of rings (size 3 to 8) (size 9 to 14) (size 15 to 20)
#    0.000    0.533    5.333    4.400    3.733    0.000 
#    0.000    2.667    0.000    0.000    0.000    0.000 
#    0.000    0.000    0.000    0.000    0.000    0.000 
#
# Total GULP energy -83525.570380 kJ/mol
# GULP energy per Si atom -5568.371359 kJ/mol
# Density = 2.088861 g / cm^3
# Si number density = 20.936258 Si / 1000 Ang^3
#
#
#
# Elastic Constant Matrix: (Units=GPa)
#
#
# Indices 1 2 3 4 5 6 
#
# 1 122.9686 59.5753 46.6892 -7.9535 24.2996 0.6694
# 2 59.5753 68.4109 35.0582 3.0973 15.4162 -2.3554
# 3 46.6892 35.0582 65.0415 7.6083 17.8095 1.9250
# 4 -7.9535 3.0973 7.6083 40.3679 3.6361 5.7619
# 5 24.2996 15.4162 17.8095 3.6361 32.5041 -4.0642
# 6 0.6694 -2.3554 1.9250 5.7619 -4.0642 28.0950
#
#
#
# Elastic Compliance Matrix: (Units=1/GPa)
#
#
# Indices 1 2 3 4 5 6 
#
# 1 0.017181 -0.011364 -0.005300 0.006203 -0.005630 -0.003086
# 2 -0.011364 0.028325 -0.006688 -0.003659 -0.000390 0.003798
# 3 -0.005300 -0.006688 0.025116 -0.004376 -0.006411 -0.002185
# 4 0.006203 -0.003659 -0.004376 0.028455 -0.004519 -0.006644
# 5 -0.005630 -0.000390 -0.006411 -0.004519 0.040086 0.007266
# 6 -0.003086 0.003798 -0.002185 -0.006644 0.007266 0.038549
#
#
# Mechanical properties :
#
#
# Convention : Reuss Voigt Hill
#
# Bulk Modulus (GPa) = 41.80923 59.89627 50.85275
# Shear Modulus (GPa) = 21.51558 27.86665 24.69111
#
# Velocity S-wave (km/s) = 3.20921 3.65228 3.43789
# Velocity P-wave (km/s) = 5.80906 6.81590 6.33252
#
# Compressibility (1/GPa) = 0.02391817
#
# Stress axis : x y z
#
# Youngs Moduli (GPa) = 58.20477 35.30403 39.81454
#
# Poissons Ratio (x) = 0.40119 0.21104
# Poissons Ratio (y) = 0.66143 0.26627
# Poissons Ratio (z) = 0.30851 0.23611
#
# Static dielectric constant tensor:
#      x y z
#    x 1.779570 0.017170 -0.018910 
#    y 0.017170 1.842260 -0.003110 
#    z -0.018910 -0.003110 1.734640 
# 
# From -- ./inp_files/177338.got.cif
#   From: 2010.05.17/outbox.cif.g08.bks.cpg/sg2_89_cif.got.tgz:177338.got - 2010.06.03 11:33:40.
