data_PCOD9056368
_publ_section_title
;
Structure prediction by ZEFSAII (Michael W. Deem and Ramdas Pophale) SiO2 
 PCOD9056368
Probable space group: P -1
;
_chemical_formula_sum "Si O2"
_cell_formula_units_Z 14
_cell_length_a 9.363262
_cell_length_b 12.034411
_cell_length_c 8.600354
_cell_angle_alpha 88.629195
_cell_angle_beta 123.955329
_cell_angle_gamma 62.601395
_cell_volume 659.694059
_symmetry_space_group_name_H-M "P -1"
_symmetry_group_IT_number 2
_symmetry_cell_setting 'triclinic'
loop_
_space_group_symop_operation_xyz
x,y,z
-x,-y,-z
loop_
_atom_site_type_symbol
_atom_site_label
_atom_site_fract_x
_atom_site_fract_y
_atom_site_fract_z
Si Si1 0.816622 0.129512 0.976563
Si Si2 0.155799 0.269959 0.527982
Si Si3 0.542238 0.852904 0.032679
Si Si4 0.102861 0.042118 0.428708
Si Si5 0.441103 0.354581 0.565993
Si Si6 0.432441 0.752154 0.669747
Si Si7 0.681191 0.429892 0.246717
O O1 0.640687 0.123689 0.963165
O O2 0.681273 0.253525 0.774132
O O3 0.943304 0.136705 0.194606
O O4 0.000000 0.000000 0.000000
O O5 0.233678 0.260867 0.751995
O O6 0.195921 0.123571 0.539393
O O7 0.305600 0.294008 0.520109
O O8 0.913588 0.380771 0.338851
O O9 0.528718 0.793668 0.862582
O O10 0.500000 0.000000 0.000000
O O11 0.285828 0.893628 0.484512
O O12 0.000000 0.000000 0.500000
O O13 0.435083 0.362884 0.375448
O O14 0.361987 0.478920 0.630356
O O15 0.307893 0.700866 0.683712
O O16 0.500000 0.500000 0.000000
#
# Coordination Sequence:
#
# PCOD9056368 Si02
#       7
#     2   2   2   2   2   2   2
#     4  11  22  38  63  96 131 170 217 272 321 390
#     4  11  23  42  69  94 133 169 219 277 328 388
#     4  11  22  39  63  99 130 168 213 268 335 382
#     4  12  20  39  67  99 129 174 220 268 333 386
#     4  11  26  42  64 102 135 173 220 270 334 386
#     4  12  24  42  66  96 135 171 222 271 324 403
#     4  12  25  48  71  90 130 183 227 267 321 402
#
# _framework density 21.221955999999999
#
# number of rings (size 3 to 8) (size 9 to 14) (size 15 to 20)
#    0.000    0.571    5.714    3.429    0.000    1.714 
#    0.000    4.286    0.000    0.000    0.000    0.000 
#    0.000    0.000    0.000    0.000    0.000    0.000 
#
# Total GULP energy -78018.633755 kJ/mol
# GULP energy per Si atom -5572.759554 kJ/mol
# Density = 2.117365 g / cm^3
# Si number density = 21.221956 Si / 1000 Ang^3
#
#
#
# Elastic Constant Matrix: (Units=GPa)
#
#
# Indices 1 2 3 4 5 6 
#
# 1 47.5540 19.7156 37.2200 16.1222 -0.6979 -0.1336
# 2 19.7156 86.6486 18.1883 17.9199 -0.2571 -6.8343
# 3 37.2200 18.1883 123.3969 10.5568 10.3022 -8.8542
# 4 16.1222 17.9199 10.5568 41.6171 -11.7478 1.1394
# 5 -0.6979 -0.2571 10.3022 -11.7478 27.3901 6.4787
# 6 -0.1336 -6.8343 -8.8542 1.1394 6.4787 33.2111
#
#
#
# Elastic Compliance Matrix: (Units=1/GPa)
#
#
# Indices 1 2 3 4 5 6 
#
# 1 0.032358 -0.004080 -0.008798 -0.008083 0.001348 -0.003040
# 2 -0.004080 0.013838 0.000195 -0.005450 -0.003262 0.003707
# 3 -0.008798 0.000195 0.011708 -0.001556 -0.006338 0.004416
# 4 -0.008083 -0.005450 -0.001556 0.034769 0.016663 -0.006012
# 5 0.001348 -0.003262 -0.006338 0.016663 0.048997 -0.012485
# 6 -0.003040 0.003707 0.004416 -0.006012 -0.012485 0.034680
#
#
# Mechanical properties :
#
#
# Convention : Reuss Voigt Hill
#
# Bulk Modulus (GPa) = 30.73234 45.31636 38.02435
# Shear Modulus (GPa) = 23.52263 32.60869 28.06566
#
# Velocity S-wave (km/s) = 3.33289 3.92414 3.64054
# Velocity P-wave (km/s) = 5.41514 6.47547 5.96890
#
# Compressibility (1/GPa) = 0.03253901
#
# Stress axis : x y z
#
# Youngs Moduli (GPa) = 30.90443 72.26526 85.41257
#
# Poissons Ratio (x) = 0.29484 0.75144
# Poissons Ratio (y) = 0.12609 -0.01670
# Poissons Ratio (z) = 0.27189 -0.01413
#
# Static dielectric constant tensor:
#      x y z
#    x 1.781940 -0.053340 -0.049980 
#    y -0.053340 1.830950 0.020080 
#    z -0.049980 0.020080 1.875330 
# 
# From -- ./inp_files/175732.got.cif
#   From: 2010.05.17/outbox.cif.g08.bks.cpg/sg2_88_cif.got.tgz:175732.got - 2010.06.03 11:33:40.
