data_PCOD9056516
_publ_section_title
;
Structure prediction by ZEFSAII (Michael W. Deem and Ramdas Pophale) SiO2 
 PCOD9056516
Probable space group: P -1
;
_chemical_formula_sum "Si O2"
_cell_formula_units_Z 15
_cell_length_a 13.075917
_cell_length_b 9.440626
_cell_length_c 8.108562
_cell_angle_alpha 112.368885
_cell_angle_beta 132.565911
_cell_angle_gamma 62.875804
_cell_volume 652.140638
_symmetry_space_group_name_H-M "P -1"
_symmetry_group_IT_number 2
_symmetry_cell_setting 'triclinic'
loop_
_space_group_symop_operation_xyz
x,y,z
-x,-y,-z
loop_
_atom_site_type_symbol
_atom_site_label
_atom_site_fract_x
_atom_site_fract_y
_atom_site_fract_z
Si Si1 0.614626 0.712752 0.871502
Si Si2 0.850255 0.598927 0.799424
Si Si3 0.128245 0.080403 0.183630
Si Si4 0.500000 0.000000 0.000000
Si Si5 0.582508 0.085122 0.751554
Si Si6 0.398199 0.588333 0.073918
Si Si7 0.847873 0.415426 0.413319
Si Si8 0.832965 0.760506 0.383906
O O1 0.612888 0.542175 0.862557
O O2 0.693186 0.809135 0.132337
O O3 0.464676 0.847848 0.784161
O O4 0.720456 0.680457 0.818084
O O5 0.901820 0.735604 0.822991
O O6 0.798102 0.479403 0.569012
O O7 0.000000 0.500000 0.000000
O O8 0.176282 0.102020 0.433115
O O9 0.251405 0.986320 0.151944
O O10 0.000000 0.000000 0.000000
O O11 0.449235 0.933821 0.099670
O O12 0.500000 0.000000 0.500000
O O13 0.540771 0.271139 0.738723
O O14 0.244996 0.658690 0.843198
O O15 0.500000 0.500000 0.000000
O O16 0.834290 0.587681 0.385655
O O17 0.009188 0.294667 0.552094
#
# Coordination Sequence:
#
# PCOD9056516 Si02
#       8
#     2   2   2   1   2   2   2   2
#     4  11  22  42  68  98 135 176 233 288 349 429
#     4  11  22  39  66 101 136 173 223 292 359 420
#     4  11  24  41  67  97 135 180 231 289 358 424
#     4  12  24  46  68 100 140 192 228 284 362 420
#     4  12  27  48  71 101 145 191 236 294 363 428
#     4  11  24  42  69  97 129 180 241 281 341 430
#     4   9  19  36  63  94 129 166 220 280 342 411
#     4   9  18  37  63  89 126 175 212 273 353 406
#
# _framework density 23.001175
#
# number of rings (size 3 to 8) (size 9 to 14) (size 15 to 20)
#    0.000    1.333    4.000    1.600    7.467    0.000 
#    2.400    3.333    0.000    0.000    0.000    0.000 
#    0.000    0.000    0.000    0.000    0.000    0.000 
#
# Total GULP energy -83522.211742 kJ/mol
# GULP energy per Si atom -5568.147449 kJ/mol
# Density = 2.294882 g / cm^3
# Si number density = 23.001175 Si / 1000 Ang^3
#
#
#
# Elastic Constant Matrix: (Units=GPa)
#
#
# Indices 1 2 3 4 5 6 
#
# 1 129.3715 24.0711 45.8259 4.3327 -13.0523 -2.8200
# 2 24.0711 89.5472 40.6702 16.6133 0.7027 10.8482
# 3 45.8259 40.6702 93.2954 30.1738 -1.5518 7.9372
# 4 4.3327 16.6133 30.1738 35.9357 -5.5710 3.3732
# 5 -13.0523 0.7027 -1.5518 -5.5710 33.8564 8.7813
# 6 -2.8200 10.8482 7.9372 3.3732 8.7813 37.6202
#
#
#
# Elastic Compliance Matrix: (Units=1/GPa)
#
#
# Indices 1 2 3 4 5 6 
#
# 1 0.010463 -0.001025 -0.006364 0.005144 0.004365 0.000942
# 2 -0.001025 0.014402 -0.004784 -0.002332 -0.000549 -0.002883
# 3 -0.006364 -0.004784 0.020808 -0.014911 -0.003509 -0.001331
# 4 0.005144 -0.002332 -0.014911 0.042312 0.008733 -0.001628
# 5 0.004365 -0.000549 -0.003509 0.008733 0.034480 -0.007605
# 6 0.000942 -0.002883 -0.001331 -0.001628 -0.007605 0.029686
#
#
# Mechanical properties :
#
#
# Convention : Reuss Voigt Hill
#
# Bulk Modulus (GPa) = 46.89078 59.26096 53.07587
# Shear Modulus (GPa) = 27.23214 34.92557 31.07886
#
# Velocity S-wave (km/s) = 3.44458 3.90093 3.67984
# Velocity P-wave (km/s) = 6.02086 6.79043 6.41719
#
# Compressibility (1/GPa) = 0.02132616
#
# Stress axis : x y z
#
# Youngs Moduli (GPa) = 95.57185 69.43472 48.05886
#
# Poissons Ratio (x) = 0.07118 0.30584
# Poissons Ratio (y) = 0.09797 0.22994
# Poissons Ratio (z) = 0.60821 0.33221
#
# Static dielectric constant tensor:
#      x y z
#    x 1.740950 0.234550 0.004620 
#    y 0.234550 1.615010 -0.026350 
#    z 0.004620 -0.026350 1.850870 
# 
# From -- ./inp_files/204601.got.cif
#   From: 2010.05.17/outbox.cif.g08.bks.cpg/sg2_103_cif.got.tgz:204601.got - 2010.06.03 11:33:40.
