data_PCOD9056638
_publ_section_title
;
Structure prediction by ZEFSAII (Michael W. Deem and Ramdas Pophale) SiO2 
 PCOD9056638
Probable space group: P -1
;
_chemical_formula_sum "Si O2"
_cell_formula_units_Z 14
_cell_length_a 22.295422
_cell_length_b 5.844769
_cell_length_c 9.192529
_cell_angle_alpha 88.219635
_cell_angle_beta 38.965247
_cell_angle_gamma 110.093193
_cell_volume 610.646614
_symmetry_space_group_name_H-M "P -1"
_symmetry_group_IT_number 2
_symmetry_cell_setting 'triclinic'
loop_
_space_group_symop_operation_xyz
x,y,z
-x,-y,-z
loop_
_atom_site_type_symbol
_atom_site_label
_atom_site_fract_x
_atom_site_fract_y
_atom_site_fract_z
Si Si1 0.435754 0.159108 0.132602
Si Si2 0.270329 0.145024 0.216697
Si Si3 0.901272 0.459009 0.578128
Si Si4 0.876147 0.115366 0.978798
Si Si5 0.857100 0.800702 0.283966
Si Si6 0.266257 0.414195 0.952730
Si Si7 0.718172 0.275050 0.340554
O O1 0.349128 0.079699 0.161548
O O2 0.372882 0.025843 0.408487
O O3 0.500000 0.500000 0.000000
O O4 0.500000 0.000000 0.000000
O O5 0.210611 0.240525 0.438914
O O6 0.328531 0.354140 0.963602
O O7 0.166104 0.848813 0.353563
O O8 0.811743 0.513821 0.812481
O O9 0.000000 0.500000 0.500000
O O10 0.983827 0.688919 0.296006
O O11 0.818811 0.280618 0.064439
O O12 0.833330 0.982846 0.220396
O O13 0.823560 0.872359 0.962896
O O14 0.788529 0.503509 0.332712
O O15 0.000000 0.000000 0.000000
O O16 0.335405 0.633575 0.684717
#
# Coordination Sequence:
#
# PCOD9056638 Si02
#       7
#     2   2   2   2   2   2   2
#     4  12  30  55  82 107 143 199 271 342 396 431
#     4  12  26  44  74 109 148 196 258 309 376 453
#     4  12  23  38  67 111 158 201 235 284 374 471
#     4  11  22  40  64 104 154 198 232 288 369 462
#     4  11  24  37  68 109 158 196 245 295 374 470
#     4  11  24  41  70 103 157 194 242 289 374 453
#     4  11  24  47  71 102 147 197 243 315 384 448
#
# _framework density 22.926518000000002
#
# number of rings (size 3 to 8) (size 9 to 14) (size 15 to 20)
#    0.000    0.571    4.286    3.000   10.000    1.143 
#    0.000    1.429    0.000    0.000    0.000    0.000 
#    0.000    0.000    0.000    0.000    0.000    0.000 
#
# Total GULP energy -78071.253539 kJ/mol
# GULP energy per Si atom -5576.518110 kJ/mol
# Density = 2.287434 g / cm^3
# Si number density = 22.926518 Si / 1000 Ang^3
#
#
#
# Elastic Constant Matrix: (Units=GPa)
#
#
# Indices 1 2 3 4 5 6 
#
# 1 267.9364 51.0547 5.7700 23.1013 -3.1366 -5.8512
# 2 51.0547 101.4495 31.3504 8.0407 13.3141 -3.5383
# 3 5.7700 31.3504 102.8505 -22.1595 39.0966 -17.4115
# 4 23.1013 8.0407 -22.1595 53.7053 -23.7921 9.1316
# 5 -3.1366 13.3141 39.0966 -23.7921 46.7877 -1.9931
# 6 -5.8512 -3.5383 -17.4115 9.1316 -1.9931 34.9567
#
#
#
# Elastic Compliance Matrix: (Units=1/GPa)
#
#
# Indices 1 2 3 4 5 6 
#
# 1 0.004283 -0.002045 0.000263 -0.001680 -0.000159 0.001071
# 2 -0.002045 0.012602 -0.003509 -0.003617 -0.002631 -0.000020
# 3 0.000263 -0.003509 0.016868 0.000629 -0.012452 0.007216
# 4 -0.001680 -0.003617 0.000629 0.027537 0.014108 -0.006723
# 5 -0.000159 -0.002631 -0.012452 0.014108 0.039352 -0.007937
# 6 0.001071 -0.000020 0.007216 -0.006723 -0.007937 0.033682
#
#
# Mechanical properties :
#
#
# Convention : Reuss Voigt Hill
#
# Bulk Modulus (GPa) = 43.15795 72.06515 57.61155
# Shear Modulus (GPa) = 32.75896 52.69401 42.72649
#
# Velocity S-wave (km/s) = 3.78414 4.79935 4.32166
# Velocity P-wave (km/s) = 6.16103 7.88752 7.07712
#
# Compressibility (1/GPa) = 0.02317070
#
# Stress axis : x y z
#
# Youngs Moduli (GPa) = 233.50160 79.35241 59.28287
#
# Poissons Ratio (x) = 0.16228 -0.01559
# Poissons Ratio (y) = 0.47753 0.20802
# Poissons Ratio (z) = -0.06141 0.27845
#
# Static dielectric constant tensor:
#      x y z
#    x 1.947250 -0.065260 0.060980 
#    y -0.065260 1.875920 -0.048890 
#    z 0.060980 -0.048890 1.926660 
# 
# From -- ./inp_files/116122.got.cif
#   From: 2010.05.17/outbox.cif.g08.bks.cpg/sg2_59_cif.got.tgz:116122.got - 2010.06.03 11:33:40.
