data_PCOD9056779
_publ_section_title
;
Structure prediction by ZEFSAII (Michael W. Deem and Ramdas Pophale) SiO2 
 PCOD9056779
Probable space group: P -1
;
_chemical_formula_sum "Si O2"
_cell_formula_units_Z 16
_cell_length_a 8.970439
_cell_length_b 14.166798
_cell_length_c 8.278654
_cell_angle_alpha 135.893518
_cell_angle_beta 69.782299
_cell_angle_gamma 100.275939
_cell_volume 683.188753
_symmetry_space_group_name_H-M "P -1"
_symmetry_group_IT_number 2
_symmetry_cell_setting 'triclinic'
loop_
_space_group_symop_operation_xyz
x,y,z
-x,-y,-z
loop_
_atom_site_type_symbol
_atom_site_label
_atom_site_fract_x
_atom_site_fract_y
_atom_site_fract_z
Si Si1 0.491378 0.847406 0.888744
Si Si2 0.684299 0.525878 0.942400
Si Si3 0.619866 0.812956 0.164925
Si Si4 0.028083 0.623612 0.525089
Si Si5 0.017201 0.105217 0.482239
Si Si6 0.159622 0.873327 0.918703
Si Si7 0.773431 0.672753 0.393532
Si Si8 0.288898 0.903479 0.553587
O O1 0.305779 0.821773 0.918999
O O2 0.604527 0.742126 0.608418
O O3 0.556588 0.830621 0.026094
O O4 0.500000 0.000000 0.000000
O O5 0.692742 0.662587 0.999323
O O6 0.750338 0.554045 0.130667
O O7 0.500000 0.500000 0.000000
O O8 0.799333 0.410880 0.667217
O O9 0.466955 0.842112 0.374723
O O10 0.723363 0.938815 0.304459
O O11 0.038854 0.762086 0.791765
O O12 0.000000 0.500000 0.500000
O O13 0.890758 0.637447 0.457502
O O14 0.141095 0.212955 0.594934
O O15 0.840106 0.171074 0.588151
O O16 0.000000 0.000000 0.500000
O O17 0.077182 0.014448 0.193031
O O18 0.245489 0.899684 0.751262
#
# Coordination Sequence:
#
# PCOD9056779 Si02
#       8
#     2   2   2   2   2   2   2   2
#     4  12  23  42  69 109 141 178 226 294 371 429
#     4  12  28  51  73 100 146 202 246 289 349 432
#     4  11  24  41  73 103 145 184 238 291 356 435
#     4  12  29  49  72 103 144 199 247 293 347 426
#     4  12  25  39  72 109 143 179 229 302 375 420
#     4  12  25  45  70 104 148 183 232 296 363 429
#     4  12  26  47  75 103 143 184 243 302 354 424
#     4  11  22  40  69 105 142 181 227 299 372 414
#
# _framework density 23.419589999999999
#
# number of rings (size 3 to 8) (size 9 to 14) (size 15 to 20)
#    0.000    0.250    3.750    5.250    7.000    1.000 
#    0.000    2.500    0.000    0.000    0.000    0.000 
#    0.000    0.000    0.000    0.000    0.000    0.000 
#
# Total GULP energy -89662.568928 kJ/mol
# GULP energy per Si atom -5603.910558 kJ/mol
# Density = 2.336629 g / cm^3
# Si number density = 23.419590 Si / 1000 Ang^3
#
#
#
# Elastic Constant Matrix: (Units=GPa)
#
#
# Indices 1 2 3 4 5 6 
#
# 1 106.7591 4.5381 7.9857 3.3872 14.4258 0.4044
# 2 4.5381 101.3286 2.7789 -0.3436 2.8937 -9.7673
# 3 7.9857 2.7789 63.7277 -1.1362 -2.6955 11.9194
# 4 3.3872 -0.3436 -1.1362 36.4610 0.4688 -2.2735
# 5 14.4258 2.8937 -2.6955 0.4688 43.6570 -1.1350
# 6 0.4044 -9.7673 11.9194 -2.2735 -1.1350 42.8131
#
#
#
# Elastic Compliance Matrix: (Units=1/GPa)
#
#
# Indices 1 2 3 4 5 6 
#
# 1 0.009967 -0.000306 -0.001411 -0.000924 -0.003348 0.000091
# 2 -0.000306 0.010173 -0.000906 0.000264 -0.000565 0.002575
# 3 -0.001411 -0.000906 0.016879 0.000328 0.001439 -0.004837
# 4 -0.000924 0.000264 0.000328 0.027615 0.000049 0.001445
# 5 -0.003348 -0.000565 0.001439 0.000049 0.024142 0.000145
# 6 0.000091 0.002575 -0.004837 0.001445 0.000145 0.025371
#
#
# Mechanical properties :
#
#
# Convention : Reuss Voigt Hill
#
# Bulk Modulus (GPa) = 31.47347 33.60231 32.53789
# Shear Modulus (GPa) = 38.46644 41.68707 40.07675
#
# Velocity S-wave (km/s) = 4.05716 4.22359 4.14121
# Velocity P-wave (km/s) = 5.95110 6.17771 6.06546
#
# Compressibility (1/GPa) = 0.03177279
#
# Stress axis : x y z
#
# Youngs Moduli (GPa) = 100.33327 98.30253 59.24354
#
# Poissons Ratio (x) = 0.03013 0.08357
# Poissons Ratio (y) = 0.03075 0.05367
# Poissons Ratio (z) = 0.14153 0.08906
#
# Static dielectric constant tensor:
#      x y z
#    x 1.905380 -0.016440 0.001010 
#    y -0.016440 1.875030 0.006470 
#    z 0.001010 0.006470 1.863350 
# 
# From -- ./inp_files/209189.got.cif
#   From: 2010.05.17/outbox.cif.g08.bks.cpg/sg2_105_cif.got.tgz:209189.got - 2010.06.03 11:33:40.
