data_PCOD9056407
_publ_section_title
;
Structure prediction by ZEFSAII (Michael W. Deem and Ramdas Pophale) SiO2 
 PCOD9056407
Probable space group: P -1
;
_chemical_formula_sum "Si O2"
_cell_formula_units_Z 12
_cell_length_a 21.829595
_cell_length_b 9.389685
_cell_length_c 9.712149
_cell_angle_alpha 30.096645
_cell_angle_beta 145.173316
_cell_angle_gamma 141.759552
_cell_volume 550.098307
_symmetry_space_group_name_H-M "P -1"
_symmetry_group_IT_number 2
_symmetry_cell_setting 'triclinic'
loop_
_space_group_symop_operation_xyz
x,y,z
-x,-y,-z
loop_
_atom_site_type_symbol
_atom_site_label
_atom_site_fract_x
_atom_site_fract_y
_atom_site_fract_z
Si Si1 0.930401 0.739295 0.222167
Si Si2 0.617194 0.048195 0.254016
Si Si3 0.881713 0.715614 0.848445
Si Si4 0.420409 0.173641 0.144008
Si Si5 0.304246 0.331148 0.046706
Si Si6 0.744041 0.083334 0.177402
O O1 0.000000 0.500000 0.500000
O O2 0.878326 0.809598 0.923401
O O3 0.821422 0.637387 0.198560
O O4 0.002238 0.043336 0.169531
O O5 0.705062 0.133087 0.218512
O O6 0.648022 0.808406 0.613838
O O7 0.624367 0.335767 0.115798
O O8 0.500000 0.000000 0.000000
O O9 0.792575 0.803392 0.515001
O O10 0.843081 0.362624 0.078300
O O11 0.323842 0.166679 0.083470
O O12 0.500000 0.000000 0.500000
O O13 0.500000 0.500000 0.000000
O O14 0.361025 0.005439 0.040743
#
# Coordination Sequence:
#
# PCOD9056407 Si02
#       6
#     2   2   2   2   2   2
#     4  11  22  41  69 103 139 168 221 280 347 387
#     4  12  23  39  65 100 127 165 231 288 320 391
#     4  11  22  38  66  99 130 170 215 276 333 390
#     4  12  27  49  67  94 139 187 218 272 340 403
#     4  12  25  43  67 100 130 178 223 270 340 397
#     4  12  22  42  65  97 133 174 221 274 334 389
#
# _framework density 21.814284000000001
#
# number of rings (size 3 to 8) (size 9 to 14) (size 15 to 20)
#    0.000    0.333    5.000    4.500    2.333    0.000 
#    0.000    1.667    0.000    0.000    0.000    0.000 
#    0.000    0.000    0.000    0.000    0.000    0.000 
#
# Total GULP energy -66823.337423 kJ/mol
# GULP energy per Si atom -5568.611452 kJ/mol
# Density = 2.176463 g / cm^3
# Si number density = 21.814284 Si / 1000 Ang^3
#
#
#
# Elastic Constant Matrix: (Units=GPa)
#
#
# Indices 1 2 3 4 5 6 
#
# 1 85.7926 10.8992 10.8210 0.0810 15.4059 4.9978
# 2 10.8992 87.6546 25.7335 -2.8514 -6.6338 8.0920
# 3 10.8210 25.7335 128.0570 -4.0189 2.6234 6.3947
# 4 0.0810 -2.8514 -4.0189 36.0860 -3.0066 -5.8684
# 5 15.4059 -6.6338 2.6234 -3.0066 20.6845 3.3803
# 6 4.9978 8.0920 6.3947 -5.8684 3.3803 28.0035
#
#
#
# Elastic Compliance Matrix: (Units=1/GPa)
#
#
# Indices 1 2 3 4 5 6 
#
# 1 0.014098 -0.002457 -0.000477 -0.001321 -0.011320 -0.000608
# 2 -0.002457 0.013313 -0.002411 0.000804 0.007101 -0.003547
# 3 -0.000477 -0.002411 0.008420 0.000499 -0.001269 -0.000883
# 4 -0.001321 0.000804 0.000499 0.029095 0.004518 0.005441
# 5 -0.011320 0.007101 -0.001269 0.004518 0.060876 -0.006143
# 6 -0.000608 -0.003547 -0.000883 0.005441 -0.006143 0.038927
#
#
# Mechanical properties :
#
#
# Convention : Reuss Voigt Hill
#
# Bulk Modulus (GPa) = 39.77484 44.04573 41.91028
# Shear Modulus (GPa) = 27.20408 33.89150 30.54779
#
# Velocity S-wave (km/s) = 3.53523 3.94590 3.74619
# Velocity P-wave (km/s) = 5.91073 6.40275 6.16165
#
# Compressibility (1/GPa) = 0.02514152
#
# Stress axis : x y z
#
# Youngs Moduli (GPa) = 70.93386 75.11670 118.77156
#
# Poissons Ratio (x) = 0.18453 0.05663
# Poissons Ratio (y) = 0.17425 0.28633
# Poissons Ratio (z) = 0.03382 0.18109
#
# Static dielectric constant tensor:
#      x y z
#    x 1.806340 -0.006130 0.034030 
#    y -0.006130 1.700660 0.011680 
#    z 0.034030 0.011680 1.797840 
# 
# From -- ./inp_files/202356.got.cif
#   From: 2010.05.17/outbox.cif.g08.bks.cpg/sg2_102_cif.got.tgz:202356.got - 2010.06.03 11:33:40.
