data_PCOD9056753
_publ_section_title
;
Structure prediction by ZEFSAII (Michael W. Deem and Ramdas Pophale) SiO2 
 PCOD9056753
Probable space group: P -1
;
_chemical_formula_sum "Si O2"
_cell_formula_units_Z 16
_cell_length_a 14.247584
_cell_length_b 8.210127
_cell_length_c 13.420137
_cell_angle_alpha 75.553993
_cell_angle_beta 147.755997
_cell_angle_gamma 84.164805
_cell_volume 645.681890
_symmetry_space_group_name_H-M "P -1"
_symmetry_group_IT_number 2
_symmetry_cell_setting 'triclinic'
loop_
_space_group_symop_operation_xyz
x,y,z
-x,-y,-z
loop_
_atom_site_type_symbol
_atom_site_label
_atom_site_fract_x
_atom_site_fract_y
_atom_site_fract_z
Si Si1 0.626928 0.065782 0.196710
Si Si2 0.733424 0.776647 0.508980
Si Si3 0.807068 0.372390 0.080681
Si Si4 0.084459 0.013562 0.898290
Si Si5 0.531404 0.284998 0.577790
Si Si6 0.174490 0.200329 0.777323
Si Si7 0.412291 0.802228 0.573449
Si Si8 0.763040 0.337648 0.275229
O O1 0.766872 0.142823 0.350535
O O2 0.675292 0.866471 0.331005
O O3 0.709334 0.992257 0.169283
O O4 0.359979 0.239499 0.938337
O O5 0.620042 0.684230 0.470811
O O6 0.996001 0.617043 0.775664
O O7 0.640996 0.990454 0.454593
O O8 0.842978 0.308556 0.238102
O O9 0.840012 0.188019 0.071648
O O10 0.574659 0.593467 0.816099
O O11 0.152874 0.136790 0.877246
O O12 0.823345 0.153211 0.657894
O O13 0.224734 0.912657 0.139573
O O14 0.500000 0.500000 0.500000
O O15 0.479671 0.234145 0.432309
O O16 0.924574 0.355369 0.486742
O O17 0.500000 0.500000 0.000000
#
# Coordination Sequence:
#
# PCOD9056753 Si02
#       8
#     2   2   2   2   2   2   2   2
#     4  11  22  40  68  97 135 183 221 272 342 407
#     4  11  24  45  71  96 138 178 228 286 340 412
#     4  11  22  43  68  99 138 179 226 276 339 411
#     4  11  22  44  71  95 137 175 225 287 339 411
#     4  12  25  48  71  99 132 177 231 291 350 403
#     4  11  22  40  69  97 134 184 221 270 345 408
#     4  11  25  45  69 100 131 184 228 282 350 403
#     4  12  23  39  65 101 143 179 225 277 332 412
#
# _framework density 24.780004999999999
#
# number of rings (size 3 to 8) (size 9 to 14) (size 15 to 20)
#    0.000    0.750    5.000    4.125    0.000    1.000 
#    4.500    0.000    0.000    0.000    0.000    0.000 
#    0.000    0.000    0.000    0.000    0.000    0.000 
#
# Total GULP energy -89553.522926 kJ/mol
# GULP energy per Si atom -5597.095183 kJ/mol
# Density = 2.472360 g / cm^3
# Si number density = 24.780005 Si / 1000 Ang^3
#
#
#
# Elastic Constant Matrix: (Units=GPa)
#
#
# Indices 1 2 3 4 5 6 
#
# 1 117.3007 22.2855 43.7325 -3.0568 -5.8017 26.6149
# 2 22.2855 47.3937 22.6773 1.8811 5.3064 14.3532
# 3 43.7325 22.6773 167.6695 -5.7359 8.4279 23.7271
# 4 -3.0568 1.8811 -5.7359 35.2143 2.6747 2.2639
# 5 -5.8017 5.3064 8.4279 2.6747 52.4954 10.7789
# 6 26.6149 14.3532 23.7271 2.2639 10.7789 41.6550
#
#
#
# Elastic Compliance Matrix: (Units=1/GPa)
#
#
# Indices 1 2 3 4 5 6 
#
# 1 0.011309 -0.003014 -0.001812 0.001003 0.003025 -0.005992
# 2 -0.003014 0.025216 -0.001859 -0.001465 -0.001430 -0.005254
# 3 -0.001812 -0.001859 0.007068 0.001287 -0.000782 -0.002095
# 4 0.001003 -0.001465 0.001287 0.028988 -0.000974 -0.002193
# 5 0.003025 -0.001430 -0.000782 -0.000974 0.021013 -0.006379
# 6 -0.005992 -0.005254 -0.002095 -0.002193 -0.006379 0.032609
#
#
# Mechanical properties :
#
#
# Convention : Reuss Voigt Hill
#
# Bulk Modulus (GPa) = 33.08766 56.63938 44.86352
# Shear Modulus (GPa) = 33.41201 42.11752 37.76476
#
# Velocity S-wave (km/s) = 3.67597 4.12716 3.90808
# Velocity P-wave (km/s) = 5.60344 6.75410 6.20549
#
# Compressibility (1/GPa) = 0.03022275
#
# Stress axis : x y z
#
# Youngs Moduli (GPa) = 88.42902 39.65686 141.48367
#
# Poissons Ratio (x) = 0.11954 0.25632
# Poissons Ratio (y) = 0.26656 0.26301
# Poissons Ratio (z) = 0.16020 0.07372
#
# Static dielectric constant tensor:
#      x y z
#    x 1.931510 0.007890 0.031920 
#    y 0.007890 2.015170 -0.043230 
#    z 0.031920 -0.043230 2.062570 
# 
# From -- ./inp_files/313664.got.cif
#   From: 2010.05.17/outbox.cif.g08.bks.cpg/sg2_157_cif.got.tgz:313664.got - 2010.06.03 11:33:40.
