data_PCOD9056845
_publ_section_title
;
Structure prediction by ZEFSAII (Michael W. Deem and Ramdas Pophale) SiO2 
 PCOD9056845
Probable space group: P -1
;
_chemical_formula_sum "Si O2"
_cell_formula_units_Z 16
_cell_length_a 9.878797
_cell_length_b 12.848925
_cell_length_c 17.612865
_cell_angle_alpha 34.766352
_cell_angle_beta 38.507303
_cell_angle_gamma 36.724609
_cell_volume 710.033911
_symmetry_space_group_name_H-M "P -1"
_symmetry_group_IT_number 2
_symmetry_cell_setting 'triclinic'
loop_
_space_group_symop_operation_xyz
x,y,z
-x,-y,-z
loop_
_atom_site_type_symbol
_atom_site_label
_atom_site_fract_x
_atom_site_fract_y
_atom_site_fract_z
Si Si1 0.642354 0.162614 0.989561
Si Si2 0.769743 0.267038 0.383910
Si Si3 0.852761 0.098258 0.667896
Si Si4 0.983812 0.874636 0.901909
Si Si5 0.016143 0.601215 0.642956
Si Si6 0.533737 0.581926 0.855478
Si Si7 0.239506 0.378214 0.915976
Si Si8 0.567483 0.833876 0.298262
O O1 0.628351 0.379745 0.884167
O O2 0.440865 0.214494 0.980231
O O3 0.898498 0.006360 0.936093
O O4 0.581032 0.047096 0.154516
O O5 0.903761 0.321679 0.361930
O O6 0.673092 0.465838 0.253326
O O7 0.576050 0.201289 0.546284
O O8 0.963538 0.082798 0.359158
O O9 0.917594 0.285108 0.521232
O O10 0.590118 0.171231 0.702337
O O11 0.881366 0.016049 0.788808
O O12 0.271456 0.747372 0.844680
O O13 0.856966 0.724247 0.044006
O O14 0.173363 0.360046 0.707261
O O15 0.734859 0.660309 0.728213
O O16 0.500000 0.500000 0.000000
O O17 0.000000 0.500000 0.000000
#
# Coordination Sequence:
#
# PCOD9056845 Si02
#       8
#     2   2   2   2   2   2   2   2
#     4  12  26  44  72 106 134 180 232 284 349 398
#     4  11  22  40  72 104 134 175 225 289 350 393
#     4  11  23  42  70 105 133 173 230 289 346 399
#     4  12  26  45  72 105 137 181 230 285 344 409
#     4  11  26  42  66  99 143 183 223 278 344 408
#     4  12  28  47  68  96 144 185 231 277 335 425
#     4  12  21  41  73 105 140 170 228 292 344 397
#     4  11  23  41  69 104 135 173 228 284 345 397
#
# _framework density 22.534133000000001
#
# number of rings (size 3 to 8) (size 9 to 14) (size 15 to 20)
#    0.000    0.500    3.750    5.625    7.000    2.500 
#    0.000    0.625    0.000    0.000    0.000    0.000 
#    0.000    0.000    0.000    0.000    0.000    0.000 
#
# Total GULP energy -89612.049365 kJ/mol
# GULP energy per Si atom -5600.753085 kJ/mol
# Density = 2.248284 g / cm^3
# Si number density = 22.534133 Si / 1000 Ang^3
#
#
#
# Elastic Constant Matrix: (Units=GPa)
#
#
# Indices 1 2 3 4 5 6 
#
# 1 35.5718 11.3974 19.1809 3.6724 2.5859 -3.5470
# 2 11.3974 103.7877 22.4456 0.9851 -0.3920 2.9209
# 3 19.1809 22.4456 114.7281 -4.0851 28.4776 -15.8119
# 4 3.6724 0.9851 -4.0851 28.6895 -3.8992 13.2197
# 5 2.5859 -0.3920 28.4776 -3.8992 30.0840 -2.0945
# 6 -3.5470 2.9209 -15.8119 13.2197 -2.0945 29.2403
#
#
#
# Elastic Compliance Matrix: (Units=1/GPa)
#
#
# Indices 1 2 3 4 5 6 
#
# 1 0.032643 -0.002607 -0.004823 -0.006818 0.001175 0.004779
# 2 -0.002607 0.010615 -0.002785 0.001523 0.002962 -0.003359
# 3 -0.004823 -0.002785 0.014222 -0.002513 -0.012882 0.007598
# 4 -0.006818 0.001523 -0.002513 0.046944 0.007466 -0.023027
# 5 0.001175 0.002962 -0.012882 0.007466 0.045837 -0.007211
# 6 0.004779 -0.003359 0.007598 -0.023027 -0.007211 0.049117
#
#
# Mechanical properties :
#
#
# Convention : Reuss Voigt Hill
#
# Bulk Modulus (GPa) = 26.99009 40.01503 33.50256
# Shear Modulus (GPa) = 21.53700 31.00702 26.27201
#
# Velocity S-wave (km/s) = 3.09487 3.71347 3.41820
# Velocity P-wave (km/s) = 4.97739 6.01520 5.52073
#
# Compressibility (1/GPa) = 0.03705063
#
# Stress axis : x y z
#
# Youngs Moduli (GPa) = 30.63426 94.20776 70.31120
#
# Poissons Ratio (x) = 0.24559 0.33913
# Poissons Ratio (y) = 0.07986 0.19580
# Poissons Ratio (z) = 0.14776 0.26235
#
# Static dielectric constant tensor:
#      x y z
#    x 1.858980 -0.026030 -0.042670 
#    y -0.026030 1.934520 0.039520 
#    z -0.042670 0.039520 1.887670 
# 
# From -- ./inp_files/559632.got.cif
#   From: 2010.05.17/outbox.cif.g08.bks.cpg/sg2_280_cif.got.tgz:559632.got - 2010.06.03 11:33:40.
