data_PCOD9056907
_publ_section_title
;
Structure prediction by ZEFSAII (Michael W. Deem and Ramdas Pophale) SiO2 
 PCOD9056907
Probable space group: P -1
;
_chemical_formula_sum "Si O2"
_cell_formula_units_Z 14
_cell_length_a 7.979680
_cell_length_b 15.290097
_cell_length_c 10.502433
_cell_angle_alpha 119.179988
_cell_angle_beta 49.877587
_cell_angle_gamma 79.565525
_cell_volume 573.635586
_symmetry_space_group_name_H-M "P -1"
_symmetry_group_IT_number 2
_symmetry_cell_setting 'triclinic'
loop_
_space_group_symop_operation_xyz
x,y,z
-x,-y,-z
loop_
_atom_site_type_symbol
_atom_site_label
_atom_site_fract_x
_atom_site_fract_y
_atom_site_fract_z
Si Si1 0.749058 0.001040 0.667541
Si Si2 0.851458 0.225998 0.488764
Si Si3 0.917374 0.687605 0.697764
Si Si4 0.334145 0.399176 0.405866
Si Si5 0.703404 0.850197 0.380920
Si Si6 0.132636 0.401364 0.992489
Si Si7 0.705286 0.174478 0.274710
O O1 0.834490 0.878737 0.446951
O O2 0.860189 0.937093 0.710564
O O3 0.000000 0.000000 0.500000
O O4 0.365822 0.159497 0.974451
O O5 0.507411 0.306844 0.769697
O O6 0.800656 0.227928 0.364937
O O7 0.979664 0.294919 0.473357
O O8 0.728471 0.651719 0.718689
O O9 0.254971 0.537080 0.491343
O O10 0.637984 0.249142 0.225854
O O11 0.073997 0.486242 0.710405
O O12 0.897542 0.709107 0.090916
O O13 0.542823 0.814975 0.520264
O O14 0.500000 0.000000 0.500000
O O15 0.000000 0.500000 0.000000
O O16 0.000000 0.000000 0.000000
#
# Coordination Sequence:
#
# PCOD9056907 Si02
#       7
#     2   2   2   2   2   2   2
#     4  12  24  45  70 102 139 179 233 287 338 414
#     4  11  23  40  68  98 131 180 227 282 340 399
#     4  11  25  43  66 103 138 180 228 284 347 407
#     4  11  23  45  65  93 147 181 224 285 341 416
#     4  11  23  42  69  98 131 178 229 279 336 403
#     4  11  23  47  67  99 141 180 231 280 343 411
#     4  11  22  41  64  94 131 177 224 278 339 403
#
# _framework density 24.405737999999999
#
# number of rings (size 3 to 8) (size 9 to 14) (size 15 to 20)
#    0.000    0.857    2.857    6.429    0.000    1.143 
#    7.714    0.000    0.000    0.000    0.000    0.000 
#    0.000    0.000    0.000    0.000    0.000    0.000 
#
# Total GULP energy -78002.396584 kJ/mol
# GULP energy per Si atom -5571.599756 kJ/mol
# Density = 2.435019 g / cm^3
# Si number density = 24.405738 Si / 1000 Ang^3
#
#
#
# Elastic Constant Matrix: (Units=GPa)
#
#
# Indices 1 2 3 4 5 6 
#
# 1 47.0904 20.2170 13.7331 5.4850 -0.5705 3.6789
# 2 20.2170 147.3936 15.4506 37.9688 -12.3321 -8.6420
# 3 13.7331 15.4506 83.4310 24.2879 0.7127 15.1499
# 4 5.4850 37.9688 24.2879 43.6325 -6.9408 -7.5819
# 5 -0.5705 -12.3321 0.7127 -6.9408 27.6766 7.8416
# 6 3.6789 -8.6420 15.1499 -7.5819 7.8416 45.8885
#
#
#
# Elastic Compliance Matrix: (Units=1/GPa)
#
#
# Indices 1 2 3 4 5 6 
#
# 1 0.023611 -0.003396 -0.003587 0.001775 -0.000200 -0.001021
# 2 -0.003396 0.009374 0.001153 -0.008048 0.002066 -0.000026
# 3 -0.003587 0.001153 0.016882 -0.011271 -0.000901 -0.006777
# 4 0.001775 -0.008048 -0.011271 0.037951 0.004095 0.007634
# 5 -0.000200 0.002066 -0.000901 0.004095 0.039626 -0.005392
# 6 -0.001021 -0.000026 -0.006777 0.007634 -0.005392 0.026289
#
#
# Mechanical properties :
#
#
# Convention : Reuss Voigt Hill
#
# Bulk Modulus (GPa) = 26.17381 41.85737 34.01559
# Shear Modulus (GPa) = 28.06955 38.67381 33.37168
#
# Velocity S-wave (km/s) = 3.39502 3.98505 3.70181
# Velocity P-wave (km/s) = 5.11038 6.19371 5.67794
#
# Compressibility (1/GPa) = 0.03820613
#
# Stress axis : x y z
#
# Youngs Moduli (GPa) = 42.35392 106.67740 59.23366
#
# Poissons Ratio (x) = 0.36231 0.21247
# Poissons Ratio (y) = 0.14385 -0.06829
# Poissons Ratio (z) = 0.15193 -0.12299
#
# Static dielectric constant tensor:
#      x y z
#    x 2.097420 0.033260 0.001550 
#    y 0.033260 2.114980 0.079960 
#    z 0.001550 0.079960 2.006160 
# 
# From -- ./inp_files/187793.got.cif
#   From: 2010.05.17/outbox.cif.g08.bks.cpg/sg2_94_cif.got.tgz:187793.got - 2010.06.03 11:33:40.
