data_PCOD9056641
_publ_section_title
;
Structure prediction by ZEFSAII (Michael W. Deem and Ramdas Pophale) SiO2 
 PCOD9056641
Probable space group: P -1
;
_chemical_formula_sum "Si O2"
_cell_formula_units_Z 16
_cell_length_a 17.258320
_cell_length_b 8.951849
_cell_length_c 4.788215
_cell_angle_alpha 83.928685
_cell_angle_beta 108.761912
_cell_angle_gamma 85.501314
_cell_volume 691.527597
_symmetry_space_group_name_H-M "P -1"
_symmetry_group_IT_number 2
_symmetry_cell_setting 'triclinic'
loop_
_space_group_symop_operation_xyz
x,y,z
-x,-y,-z
loop_
_atom_site_type_symbol
_atom_site_label
_atom_site_fract_x
_atom_site_fract_y
_atom_site_fract_z
Si Si1 0.650382 0.595564 0.213666
Si Si2 0.843098 0.219650 0.377169
Si Si3 0.174938 0.440170 0.862844
Si Si4 0.333895 0.764245 0.601263
Si Si5 0.415974 0.221020 0.369685
Si Si6 0.049850 0.855394 0.957646
Si Si7 0.931368 0.621623 0.758881
Si Si8 0.594586 0.098974 0.837801
O O1 0.736640 0.616727 0.155793
O O2 0.649915 0.417100 0.307005
O O3 0.638076 0.694706 0.460828
O O4 0.580721 0.655720 0.895912
O O5 0.827164 0.378519 0.161258
O O6 0.757533 0.182307 0.407317
O O7 0.888089 0.109129 0.221763
O O8 0.901034 0.231629 0.711167
O O9 0.148431 0.369050 0.133377
O O10 0.102248 0.416509 0.570568
O O11 0.345475 0.805414 0.286256
O O12 0.392704 0.860564 0.833297
O O13 0.502736 0.161624 0.623521
O O14 0.387745 0.075020 0.205713
O O15 0.980810 0.763999 0.765390
O O16 0.000000 0.000000 0.000000
O O17 0.000000 0.500000 0.000000
#
# Coordination Sequence:
#
# PCOD9056641 Si02
#       8
#     2   2   2   2   2   2   2   2
#     4  11  24  42  66  99 131 161 213 275 310 360
#     4  11  22  43  63  85 128 162 198 258 312 365
#     4  11  22  40  64  93 118 160 208 257 308 360
#     4  11  24  42  69  96 125 171 217 254 318 385
#     4  11  24  44  66  94 135 167 205 267 314 370
#     4  12  25  41  59  90 125 160 205 257 308 360
#     4  12  21  39  67  86 117 164 211 249 300 374
#     4  11  24  44  66  94 131 175 209 246 322 395
#
# _framework density 23.137181000000002
#
# number of rings (size 3 to 8) (size 9 to 14) (size 15 to 20)
#    0.000    0.750    2.500    5.250    0.000    9.000 
#   13.500    0.000    0.000    0.000    0.000    0.000 
#    0.000    0.000    0.000    0.000    0.000    0.000 
#
# Total GULP energy -89552.765335 kJ/mol
# GULP energy per Si atom -5597.047833 kJ/mol
# Density = 2.308452 g / cm^3
# Si number density = 23.137181 Si / 1000 Ang^3
#
#
#
# Elastic Constant Matrix: (Units=GPa)
#
#
# Indices 1 2 3 4 5 6 
#
# 1 89.7564 29.9063 -0.9376 3.0565 -13.0521 -20.8440
# 2 29.9063 69.8627 -2.5055 10.6273 3.0683 -21.6132
# 3 -0.9376 -2.5055 63.5245 12.7912 -11.2540 -10.1617
# 4 3.0565 10.6273 12.7912 22.7406 5.9951 -11.4907
# 5 -13.0521 3.0683 -11.2540 5.9951 37.8742 9.3906
# 6 -20.8440 -21.6132 -10.1617 -11.4907 9.3906 31.7168
#
#
#
# Elastic Compliance Matrix: (Units=1/GPa)
#
#
# Indices 1 2 3 4 5 6 
#
# 1 0.014729 -0.004726 0.001460 0.001481 0.004109 0.006247
# 2 -0.004726 0.020937 0.002382 -0.002800 -0.005265 0.012469
# 3 0.001460 0.002382 0.020421 -0.014188 0.008241 0.001545
# 4 0.001481 -0.002800 -0.014188 0.072549 -0.021715 0.027232
# 5 0.004109 -0.005265 0.008241 -0.021715 0.038472 -0.017505
# 6 0.006247 0.012469 0.001545 0.027232 -0.017505 0.059675
#
#
# Mechanical properties :
#
#
# Convention : Reuss Voigt Hill
#
# Bulk Modulus (GPa) = 18.40965 30.67444 24.54205
# Shear Modulus (GPa) = 20.27098 31.57835 25.92466
#
# Velocity S-wave (km/s) = 2.96315 3.69837 3.35098
# Velocity P-wave (km/s) = 4.43633 5.61459 5.05987
#
# Compressibility (1/GPa) = 0.05431933
#
# Stress axis : x y z
#
# Youngs Moduli (GPa) = 67.89327 47.76259 48.96812
#
# Poissons Ratio (x) = 0.22572 -0.07150
# Poissons Ratio (y) = 0.32085 -0.11663
# Poissons Ratio (z) = -0.09914 -0.11375
#
# Static dielectric constant tensor:
#      x y z
#    x 1.864860 -0.048740 0.013680 
#    y -0.048740 1.841180 -0.004100 
#    z 0.013680 -0.004100 1.859140 
# 
# From -- ./inp_files/105216.got.cif
#   From: 2010.05.17/outbox.cif.g08.bks.cpg/sg2_53_cif.got.tgz:105216.got - 2010.06.03 11:33:40.
