data_PCOD9056961
_publ_section_title
;
Structure prediction by ZEFSAII (Michael W. Deem and Ramdas Pophale) SiO2 
 PCOD9056961
Probable space group: P -1
;
_chemical_formula_sum "Si O2"
_cell_formula_units_Z 16
_cell_length_a 11.608040
_cell_length_b 8.455264
_cell_length_c 10.836822
_cell_angle_alpha 122.035332
_cell_angle_beta 118.637340
_cell_angle_gamma 87.367660
_cell_volume 759.712664
_symmetry_space_group_name_H-M "P -1"
_symmetry_group_IT_number 2
_symmetry_cell_setting 'triclinic'
loop_
_space_group_symop_operation_xyz
x,y,z
-x,-y,-z
loop_
_atom_site_type_symbol
_atom_site_label
_atom_site_fract_x
_atom_site_fract_y
_atom_site_fract_z
Si Si1 0.962202 0.488482 0.621509
Si Si2 0.116061 0.785613 0.027464
Si Si3 0.686548 0.602993 0.498965
Si Si4 0.358212 0.826148 0.364923
Si Si5 0.787875 0.924375 0.471719
Si Si6 0.406485 0.413619 0.281489
Si Si7 0.855506 0.893883 0.022172
Si Si8 0.900692 0.053286 0.357631
O O1 0.826150 0.558638 0.588919
O O2 0.926280 0.258045 0.523754
O O3 0.000000 0.500000 0.500000
O O4 0.066953 0.612428 0.828960
O O5 0.148288 0.992113 0.059008
O O6 0.249203 0.788095 0.178656
O O7 0.980519 0.794849 0.038988
O O8 0.722275 0.756794 0.468673
O O9 0.559079 0.421086 0.320558
O O10 0.624042 0.650168 0.616831
O O11 0.390685 0.627979 0.336170
O O12 0.500000 0.000000 0.500000
O O13 0.278007 0.904871 0.461760
O O14 0.950954 0.981465 0.595217
O O15 0.788230 0.893413 0.311598
O O16 0.283069 0.267898 0.089078
O O17 0.863407 0.055015 0.197255
#
# Coordination Sequence:
#
# PCOD9056961 Si02
#       8
#     2   2   2   2   2   2   2   2
#     4  12  22  43  71 104 136 178 229 278 343 409
#     4  11  24  41  72 100 140 174 230 287 331 399
#     4  11  22  44  67  97 130 186 225 279 341 401
#     4  12  25  43  68 105 141 178 225 281 344 405
#     4  11  22  41  66  96 137 178 222 275 344 402
#     4  11  25  40  70  96 136 177 231 281 336 403
#     4  11  22  44  67 104 131 179 234 280 334 406
#     4  11  24  41  70 101 137 180 222 284 346 396
#
# _framework density 21.060594999999999
#
# number of rings (size 3 to 8) (size 9 to 14) (size 15 to 20)
#    0.000    0.750    6.250    1.500    1.750    2.500 
#    0.000    2.500    0.000    0.000    0.000    0.000 
#    0.000    0.000    0.000    0.000    0.000    0.000 
#
# Total GULP energy -89088.899093 kJ/mol
# GULP energy per Si atom -5568.056193 kJ/mol
# Density = 2.101266 g / cm^3
# Si number density = 21.060595 Si / 1000 Ang^3
#
#
#
# Elastic Constant Matrix: (Units=GPa)
#
#
# Indices 1 2 3 4 5 6 
#
# 1 106.1346 19.4654 48.1742 -10.9187 10.1195 19.4144
# 2 19.4654 63.3607 28.3537 -9.3141 14.4661 10.4308
# 3 48.1742 28.3537 123.4514 -1.3267 17.5465 3.4385
# 4 -10.9187 -9.3141 -1.3267 34.2292 0.8031 3.1936
# 5 10.1195 14.4661 17.5465 0.8031 29.2908 -5.4756
# 6 19.4144 10.4308 3.4385 3.1936 -5.4756 36.6075
#
#
#
# Elastic Compliance Matrix: (Units=1/GPa)
#
#
# Indices 1 2 3 4 5 6 
#
# 1 0.013859 0.000955 -0.004757 0.005363 -0.004100 -0.008256
# 2 0.000955 0.022085 -0.003571 0.007247 -0.010929 -0.008731
# 3 -0.004757 -0.003571 0.011079 -0.002208 -0.002743 0.002282
# 4 0.005363 0.007247 -0.002208 0.033774 -0.006651 -0.008643
# 5 -0.004100 -0.010929 -0.002743 -0.006651 0.045189 0.012886
# 6 -0.008256 -0.008731 0.002282 -0.008643 0.012886 0.036650
#
#
# Mechanical properties :
#
#
# Convention : Reuss Voigt Hill
#
# Bulk Modulus (GPa) = 30.98109 53.88146 42.43128
# Shear Modulus (GPa) = 26.57570 33.15572 29.86571
#
# Velocity S-wave (km/s) = 3.55613 3.97205 3.76983
# Velocity P-wave (km/s) = 5.62173 6.83197 6.25618
#
# Compressibility (1/GPa) = 0.03227775
#
# Stress axis : x y z
#
# Youngs Moduli (GPa) = 72.15492 45.27972 90.25809
#
# Poissons Ratio (x) = -0.04323 0.42937
# Poissons Ratio (y) = -0.06889 0.32227
# Poissons Ratio (z) = 0.34325 0.16167
#
# Static dielectric constant tensor:
#      x y z
#    x 1.789060 0.048990 0.023510 
#    y 0.048990 1.838100 -0.037520 
#    z 0.023510 -0.037520 1.879840 
# 
# From -- ./inp_files/418477.got.cif
#   From: 2010.05.17/outbox.cif.g08.bks.cpg/sg2_210_cif.got.tgz:418477.got - 2010.06.03 11:33:40.
