data_PCOD9056116
_publ_section_title
;
Structure prediction by ZEFSAII (Michael W. Deem and Ramdas Pophale) SiO2 
 PCOD9056116
Probable space group: P -1
;
_chemical_formula_sum "Si O2"
_cell_formula_units_Z 15
_cell_length_a 8.277266
_cell_length_b 15.695900
_cell_length_c 19.815716
_cell_angle_alpha 16.751545
_cell_angle_beta 82.667684
_cell_angle_gamma 76.631318
_cell_volume 680.335405
_symmetry_space_group_name_H-M "P -1"
_symmetry_group_IT_number 2
_symmetry_cell_setting 'triclinic'
loop_
_space_group_symop_operation_xyz
x,y,z
-x,-y,-z
loop_
_atom_site_type_symbol
_atom_site_label
_atom_site_fract_x
_atom_site_fract_y
_atom_site_fract_z
Si Si1 0.945181 0.646185 0.160381
Si Si2 0.826747 0.408507 0.583733
Si Si3 0.494045 0.641232 0.700234
Si Si4 0.119280 0.628257 0.761553
Si Si5 0.691355 0.778742 0.182888
Si Si6 0.367359 0.406545 0.126030
Si Si7 0.726993 0.406024 0.737885
Si Si8 0.000000 0.500000 0.000000
O O1 0.964959 0.479484 0.214834
O O2 0.799308 0.587087 0.258909
O O3 0.122039 0.517490 0.291098
O O4 0.887323 0.026532 0.866156
O O5 0.702327 0.563111 0.409804
O O6 0.720643 0.526445 0.570171
O O7 0.000000 0.500000 0.500000
O O8 0.314706 0.588418 0.762080
O O9 0.617362 0.501004 0.866052
O O10 0.571891 0.512537 0.720106
O O11 0.442318 0.020962 0.414148
O O12 0.118713 0.440555 0.971341
O O13 0.000000 0.000000 0.500000
O O14 0.500000 0.000000 0.000000
O O15 0.780890 0.025662 0.013940
O O16 0.500000 0.500000 0.000000
O O17 0.169407 0.523666 0.018894
#
# Coordination Sequence:
#
# PCOD9056116 Si02
#       8
#     2   2   2   2   2   2   2   1
#     4  11  24  42  70 104 136 187 240 289 361 430
#     4  11  21  46  71 100 139 181 233 293 360 438
#     4  11  25  46  68 102 144 188 238 302 365 421
#     4  12  26  47  70 101 150 190 242 302 361 428
#     4  11  23  44  70 102 139 175 225 300 360 426
#     4  11  24  45  71 100 142 188 247 304 357 428
#     4  11  23  41  70 104 136 181 242 288 358 439
#     4  12  24  46  70 104 136 190 250 300 358 430
#
# _framework density 22.047948999999999
#
# number of rings (size 3 to 8) (size 9 to 14) (size 15 to 20)
#    0.000    0.800    5.333    2.400    1.867    4.267 
#    7.200    0.000    0.000    0.000    0.000    0.000 
#    0.000    0.000    0.000    0.000    0.000    0.000 
#
# Total GULP energy -83579.954563 kJ/mol
# GULP energy per Si atom -5571.996971 kJ/mol
# Density = 2.199777 g / cm^3
# Si number density = 22.047949 Si / 1000 Ang^3
#
#
#
# Elastic Constant Matrix: (Units=GPa)
#
#
# Indices 1 2 3 4 5 6 
#
# 1 115.8275 42.9057 25.2760 19.6135 14.1845 -10.7734
# 2 42.9057 193.3642 39.6511 23.8949 -2.8017 -10.5652
# 3 25.2760 39.6511 39.5914 25.5392 0.9115 0.5988
# 4 19.6135 23.8949 25.5392 38.0111 1.7748 -5.2191
# 5 14.1845 -2.8017 0.9115 1.7748 28.2609 4.8079
# 6 -10.7734 -10.5652 0.5988 -5.2191 4.8079 52.6531
#
#
#
# Elastic Compliance Matrix: (Units=1/GPa)
#
#
# Indices 1 2 3 4 5 6 
#
# 1 0.011403 -0.001272 -0.005366 -0.000838 -0.006068 0.002610
# 2 -0.001272 0.006779 -0.006640 0.000956 0.001268 0.001154
# 3 -0.005366 -0.006640 0.055688 -0.031519 0.003323 -0.006491
# 4 -0.000838 0.000956 -0.031519 0.048167 -0.002407 0.005373
# 5 -0.006068 0.001268 0.003323 -0.002407 0.039427 -0.004864
# 6 0.002610 0.001154 -0.006491 0.005373 -0.004864 0.020808
#
#
# Mechanical properties :
#
#
# Convention : Reuss Voigt Hill
#
# Bulk Modulus (GPa) = 21.13539 62.71652 41.92596
# Shear Modulus (GPa) = 22.26186 39.84838 31.05512
#
# Velocity S-wave (km/s) = 3.18103 4.25591 3.75711
# Velocity P-wave (km/s) = 4.80612 7.25656 6.15453
#
# Compressibility (1/GPa) = 0.04731400
#
# Stress axis : x y z
#
# Youngs Moduli (GPa) = 87.69425 147.51948 17.95732
#
# Poissons Ratio (x) = 0.18761 0.09636
# Poissons Ratio (y) = 0.11153 0.11924
# Poissons Ratio (z) = 0.47056 0.97956
#
# Static dielectric constant tensor:
#      x y z
#    x 1.777210 -0.023310 -0.004040 
#    y -0.023310 1.764130 0.026000 
#    z -0.004040 0.026000 1.819000 
# 
# From -- ./inp_files/561058.got.cif
#   From: 2010.05.17/outbox.cif.g08.bks.cpg/sg2_281_cif.got.tgz:561058.got - 2010.06.03 11:33:40.
