data_PCOD9056324
_publ_section_title
;
Structure prediction by ZEFSAII (Michael W. Deem and Ramdas Pophale) SiO2 
 PCOD9056324
Probable space group: P -1
;
_chemical_formula_sum "Si O2"
_cell_formula_units_Z 16
_cell_length_a 9.465163
_cell_length_b 16.872902
_cell_length_c 11.354631
_cell_angle_alpha 145.621778
_cell_angle_beta 124.656549
_cell_angle_gamma 49.610946
_cell_volume 777.471791
_symmetry_space_group_name_H-M "P -1"
_symmetry_group_IT_number 2
_symmetry_cell_setting 'triclinic'
loop_
_space_group_symop_operation_xyz
x,y,z
-x,-y,-z
loop_
_atom_site_type_symbol
_atom_site_label
_atom_site_fract_x
_atom_site_fract_y
_atom_site_fract_z
Si Si1 0.956449 0.850677 0.828828
Si Si2 0.269804 0.153022 0.503902
Si Si3 0.965335 0.153134 0.744133
Si Si4 0.637721 0.378832 0.245145
Si Si5 0.710898 0.978396 0.094237
Si Si6 0.384471 0.807952 0.207778
Si Si7 0.959752 0.352660 0.771796
Si Si8 0.633302 0.321546 0.445670
O O1 0.860415 0.803956 0.617745
O O2 0.143217 0.709818 0.775784
O O3 0.820370 0.902021 0.936036
O O4 0.000000 0.000000 0.000000
O O5 0.441332 0.206400 0.645292
O O6 0.144394 0.226264 0.647705
O O7 0.338580 0.970993 0.323670
O O8 0.162555 0.121480 0.863062
O O9 0.798226 0.182100 0.794230
O O10 0.912519 0.288003 0.790831
O O11 0.000000 0.000000 0.500000
O O12 0.602772 0.326872 0.296574
O O13 0.552359 0.560629 0.437004
O O14 0.557561 0.318495 0.022259
O O15 0.704141 0.149225 0.310881
O O16 0.500000 0.000000 0.000000
O O17 0.794052 0.379946 0.632764
O O18 0.000000 0.500000 0.000000
#
# Coordination Sequence:
#
# PCOD9056324 Si02
#       8
#     2   2   2   2   2   2   2   2
#     4  12  20  42  68  97 131 180 232 279 340 410
#     4  11  22  37  67 101 134 175 240 281 333 416
#     4  12  24  45  71  95 140 186 227 286 351 406
#     4  11  22  40  71  96 135 182 227 275 354 406
#     4  12  26  43  72 104 134 181 235 288 344 419
#     4  11  22  40  67 101 133 184 230 287 339 417
#     4  12  25  44  69 102 141 183 233 285 352 415
#     4  11  23  43  69 102 142 181 228 292 351 406
#
# _framework density 20.579525
#
# number of rings (size 3 to 8) (size 9 to 14) (size 15 to 20)
#    0.000    0.500    7.500    0.750    1.750    3.000 
#    0.000    4.375    0.000    0.000    0.000    0.000 
#    0.000    0.000    0.000    0.000    0.000    0.000 
#
# Total GULP energy -89408.066464 kJ/mol
# GULP energy per Si atom -5588.004154 kJ/mol
# Density = 2.053269 g / cm^3
# Si number density = 20.579525 Si / 1000 Ang^3
#
#
#
# Elastic Constant Matrix: (Units=GPa)
#
#
# Indices 1 2 3 4 5 6 
#
# 1 84.1862 27.9991 45.0370 -2.8883 -18.3722 -22.3908
# 2 27.9991 48.4079 17.6749 -14.6948 0.5347 -5.4840
# 3 45.0370 17.6749 108.9967 -13.6899 -11.3770 1.3879
# 4 -2.8883 -14.6948 -13.6899 40.8418 -13.2120 -1.0537
# 5 -18.3722 0.5347 -11.3770 -13.2120 32.3529 -1.0314
# 6 -22.3908 -5.4840 1.3879 -1.0537 -1.0314 36.4213
#
#
#
# Elastic Compliance Matrix: (Units=1/GPa)
#
#
# Indices 1 2 3 4 5 6 
#
# 1 0.026877 -0.010999 -0.008191 -0.000204 0.012976 0.015540
# 2 -0.010999 0.029293 0.000648 0.008983 -0.002904 -0.002199
# 3 -0.008191 0.000648 0.013261 0.004504 0.001673 -0.005266
# 4 -0.000204 0.008983 0.004504 0.034254 0.015387 0.002482
# 5 0.012976 -0.002904 0.001673 0.015387 0.045492 0.009210
# 6 0.015540 -0.002199 -0.005266 0.002482 0.009210 0.037213
#
#
# Mechanical properties :
#
#
# Convention : Reuss Voigt Hill
#
# Bulk Modulus (GPa) = 30.91533 47.00141 38.95837
# Shear Modulus (GPa) = 21.34421 31.98184 26.66303
#
# Velocity S-wave (km/s) = 3.22399 3.94644 3.60336
# Velocity P-wave (km/s) = 5.37715 6.60714 6.02362
#
# Compressibility (1/GPa) = 0.03234642
#
# Stress axis : x y z
#
# Youngs Moduli (GPa) = 37.20721 34.13770 75.40736
#
# Poissons Ratio (x) = 0.37549 0.61763
# Poissons Ratio (y) = 0.40926 -0.04885
# Poissons Ratio (z) = 0.30475 -0.02211
#
# Static dielectric constant tensor:
#      x y z
#    x 1.722840 -0.021040 0.017440 
#    y -0.021040 1.682180 0.007380 
#    z 0.017440 0.007380 1.713410 
# 
# From -- ./inp_files/403624.got.cif
#   From: 2010.05.17/outbox.cif.g08.bks.cpg/sg2_202_cif.got.tgz:403624.got - 2010.06.03 11:33:40.
