data_PCOD9056651
_publ_section_title
;
Structure prediction by ZEFSAII (Michael W. Deem and Ramdas Pophale) SiO2 
 PCOD9056651
Probable space group: P -1
;
_chemical_formula_sum "Si O2"
_cell_formula_units_Z 16
_cell_length_a 17.157030
_cell_length_b 14.189306
_cell_length_c 12.798931
_cell_angle_alpha 28.167336
_cell_angle_beta 131.048506
_cell_angle_gamma 149.827066
_cell_volume 662.254681
_symmetry_space_group_name_H-M "P -1"
_symmetry_group_IT_number 2
_symmetry_cell_setting 'triclinic'
loop_
_space_group_symop_operation_xyz
x,y,z
-x,-y,-z
loop_
_atom_site_type_symbol
_atom_site_label
_atom_site_fract_x
_atom_site_fract_y
_atom_site_fract_z
Si Si1 0.254955 0.354001 0.909740
Si Si2 0.919476 0.509501 0.010809
Si Si3 0.936192 0.760884 0.338159
Si Si4 0.208079 0.877664 0.518272
Si Si5 0.490104 0.361965 0.888843
Si Si6 0.654272 0.973794 0.712291
Si Si7 0.637059 0.361530 0.820248
Si Si8 0.237187 0.235077 0.661865
O O1 0.193281 0.398473 0.716301
O O2 0.454035 0.698362 0.773332
O O3 0.264461 0.129197 0.110709
O O4 0.107668 0.147599 0.070716
O O5 0.809548 0.510501 0.857154
O O6 0.800459 0.223667 0.274048
O O7 0.080083 0.842771 0.890274
O O8 0.000000 0.500000 0.000000
O O9 0.846741 0.701858 0.420706
O O10 0.022166 0.683302 0.515730
O O11 0.357889 0.282370 0.263003
O O12 0.252592 0.808747 0.524838
O O13 0.567075 0.352293 0.872651
O O14 0.373836 0.353128 0.744811
O O15 0.371857 0.038181 0.174959
O O16 0.679981 0.591328 0.546301
O O17 0.500000 0.000000 0.000000
#
# Coordination Sequence:
#
# PCOD9056651 Si02
#       8
#     2   2   2   2   2   2   2   2
#     4   9  16  31  59  96 128 165 211 252 311 378
#     4  12  26  45  64  94 133 167 213 272 323 375
#     4  10  18  32  63  95 126 166 210 253 318 374
#     4  11  21  39  67  99 133 170 212 259 317 387
#     4  12  21  41  69  95 127 173 212 261 322 384
#     4  10  17  36  62  97 133 171 209 256 316 384
#     4  12  27  46  67  93 123 167 225 270 318 382
#     4  12  24  42  68  93 126 169 213 267 327 376
#
# _framework density 24.159887000000001
#
# number of rings (size 3 to 8) (size 9 to 14) (size 15 to 20)
#    0.000    1.000    5.000    4.500    0.000    0.000 
#    0.000    1.250    5.500    0.000    0.000    0.000 
#    0.000    0.000    0.000    0.000    0.000    0.000 
#
# Total GULP energy -89382.810553 kJ/mol
# GULP energy per Si atom -5586.425660 kJ/mol
# Density = 2.410490 g / cm^3
# Si number density = 24.159887 Si / 1000 Ang^3
#
#
#
# Elastic Constant Matrix: (Units=GPa)
#
#
# Indices 1 2 3 4 5 6 
#
# 1 142.3568 29.1633 4.8227 -3.0306 -44.5213 -4.5721
# 2 29.1633 121.2254 20.6160 17.2014 -4.4204 21.2534
# 3 4.8227 20.6160 84.9614 13.2434 -22.5294 -9.9653
# 4 -3.0306 17.2014 13.2434 36.2692 -10.9967 -1.4195
# 5 -44.5213 -4.4204 -22.5294 -10.9967 34.6017 8.2817
# 6 -4.5721 21.2534 -9.9653 -1.4195 8.2817 39.4260
#
#
#
# Elastic Compliance Matrix: (Units=1/GPa)
#
#
# Indices 1 2 3 4 5 6 
#
# 1 0.017363 -0.005977 0.006629 0.010707 0.029009 0.001203
# 2 -0.005977 0.012484 -0.004958 -0.007978 -0.010228 -0.006815
# 3 0.006629 -0.004958 0.017806 0.002412 0.019305 0.003974
# 4 0.010707 -0.007978 0.002412 0.039446 0.026379 0.002031
# 5 0.029009 -0.010228 0.019305 0.026379 0.086711 -0.003507
# 6 0.001203 -0.006815 0.003974 0.002031 -0.003507 0.030991
#
#
# Mechanical properties :
#
#
# Convention : Reuss Voigt Hill
#
# Bulk Modulus (GPa) = 25.61363 50.86084 38.23723
# Shear Modulus (GPa) = 22.08208 41.65549 31.86879
#
# Velocity S-wave (km/s) = 3.02652 4.15680 3.63585
# Velocity P-wave (km/s) = 4.77889 6.64351 5.78680
#
# Compressibility (1/GPa) = 0.03904171
#
# Stress axis : x y z
#
# Youngs Moduli (GPa) = 57.59266 80.10270 56.16049
#
# Poissons Ratio (x) = 0.47877 -0.37229
# Poissons Ratio (y) = 0.34423 0.27844
# Poissons Ratio (z) = -0.38179 0.39715
#
# Static dielectric constant tensor:
#      x y z
#    x 1.972640 -0.084140 0.005020 
#    y -0.084140 1.886630 -0.038520 
#    z 0.005020 -0.038520 2.304350 
# 
# From -- ./inp_files/466033.got.cif
#   From: 2010.05.17/outbox.cif.g08.bks.cpg/sg2_234_cif.got.tgz:466033.got - 2010.06.03 11:33:40.
