data_PCOD9056420
_publ_section_title
;
Structure prediction by ZEFSAII (Michael W. Deem and Ramdas Pophale) SiO2 
 PCOD9056420
Probable space group: P -1
;
_chemical_formula_sum "Si O2"
_cell_formula_units_Z 16
_cell_length_a 22.327314
_cell_length_b 12.828910
_cell_length_c 19.422926
_cell_angle_alpha 19.133208
_cell_angle_beta 26.828984
_cell_angle_gamma 37.037803
_cell_volume 784.303503
_symmetry_space_group_name_H-M "P -1"
_symmetry_group_IT_number 2
_symmetry_cell_setting 'triclinic'
loop_
_space_group_symop_operation_xyz
x,y,z
-x,-y,-z
loop_
_atom_site_type_symbol
_atom_site_label
_atom_site_fract_x
_atom_site_fract_y
_atom_site_fract_z
Si Si1 0.446165 0.160032 0.310740
Si Si2 0.441167 0.435990 0.429117
Si Si3 0.149758 0.450280 0.258521
Si Si4 0.557953 0.561549 0.077239
Si Si5 0.151204 0.159985 0.590870
Si Si6 0.553898 0.838584 0.191168
Si Si7 0.151812 0.660573 0.401559
Si Si8 0.147101 0.195291 0.828217
O O1 0.281241 0.021377 0.554972
O O2 0.525250 0.898097 0.372650
O O3 0.500000 0.500000 0.000000
O O4 0.481112 0.267436 0.287022
O O5 0.519963 0.734157 0.211888
O O6 0.275945 0.370043 0.636377
O O7 0.495792 0.494676 0.258572
O O8 0.279658 0.404007 0.113095
O O9 0.153888 0.306881 0.420310
O O10 0.998167 0.283144 0.486049
O O11 0.166059 0.843437 0.003825
O O12 0.526108 0.893724 0.876003
O O13 0.169356 0.459732 0.440187
O O14 0.002216 0.899072 0.923101
O O15 0.500000 0.500000 0.500000
O O16 0.716317 0.017611 0.925958
O O17 0.149806 0.420711 0.618125
#
# Coordination Sequence:
#
# PCOD9056420 Si02
#       8
#     2   2   2   2   2   2   2   2
#     4  12  22  40  68 104 134 165 226 280 326 383
#     4  12  26  42  69  98 135 174 223 271 339 392
#     4  11  24  39  68 103 134 171 218 280 331 386
#     4  12  24  44  67  99 133 171 227 279 325 395
#     4  11  22  38  69 100 138 165 220 274 337 381
#     4  12  28  46  68  92 136 183 224 270 333 408
#     4  11  24  42  64  99 137 178 218 266 338 399
#     4  11  22  40  68 100 137 168 218 272 337 387
#
# _framework density 20.400266999999999
#
# number of rings (size 3 to 8) (size 9 to 14) (size 15 to 20)
#    0.000    0.500    5.000    4.500    7.000    0.000 
#    0.000    2.500    0.000    0.000    0.000    0.000 
#    0.000    0.000    0.000    0.000    0.000    0.000 
#
# Total GULP energy -89583.960360 kJ/mol
# GULP energy per Si atom -5598.997523 kJ/mol
# Density = 2.035383 g / cm^3
# Si number density = 20.400267 Si / 1000 Ang^3
#
#
#
# Elastic Constant Matrix: (Units=GPa)
#
#
# Indices 1 2 3 4 5 6 
#
# 1 113.5912 27.9000 44.9776 14.2480 -27.0614 -15.0881
# 2 27.9000 46.2802 10.0516 14.0903 -13.3540 -22.1748
# 3 44.9776 10.0516 101.1605 21.8398 -12.3918 -9.5373
# 4 14.2480 14.0903 21.8398 36.5774 -11.2459 -7.0572
# 5 -27.0614 -13.3540 -12.3918 -11.2459 42.9537 8.3530
# 6 -15.0881 -22.1748 -9.5373 -7.0572 8.3530 39.1255
#
#
#
# Elastic Compliance Matrix: (Units=1/GPa)
#
#
# Indices 1 2 3 4 5 6 
#
# 1 0.013366 -0.006078 -0.005081 0.001819 0.005619 -0.000401
# 2 -0.006078 0.036204 0.003017 -0.009364 0.002604 0.016666
# 3 -0.005081 0.003017 0.013471 -0.007043 -0.000588 0.001890
# 4 0.001819 -0.009364 -0.007043 0.036034 0.005845 -0.001071
# 5 0.005619 0.002604 -0.000588 0.005845 0.029323 -0.001706
# 6 -0.000401 0.016666 0.001890 -0.001071 -0.001706 0.035481
#
#
# Mechanical properties :
#
#
# Convention : Reuss Voigt Hill
#
# Bulk Modulus (GPa) = 21.38740 47.43225 34.40983
# Shear Modulus (GPa) = 25.54295 35.60482 30.57389
#
# Velocity S-wave (km/s) = 3.54233 4.18223 3.87550
# Velocity P-wave (km/s) = 5.21895 6.82808 6.07701
#
# Compressibility (1/GPa) = 0.04675650
#
# Stress axis : x y z
#
# Youngs Moduli (GPa) = 74.81944 27.62112 74.23311
#
# Poissons Ratio (x) = 0.16789 0.37716
# Poissons Ratio (y) = 0.45479 -0.22397
# Poissons Ratio (z) = 0.38014 -0.08334
#
# Static dielectric constant tensor:
#      x y z
#    x 1.798350 -0.025140 0.018230 
#    y -0.025140 1.710180 0.007710 
#    z 0.018230 0.007710 1.725570 
# 
# From -- ./inp_files/306633.got.cif
#   From: 2010.05.17/outbox.cif.g08.bks.cpg/sg2_154_cif.got.tgz:306633.got - 2010.06.03 11:33:40.
