data_PCOD9056352
_publ_section_title
;
Structure prediction by ZEFSAII (Michael W. Deem and Ramdas Pophale) SiO2 
 PCOD9056352
Probable space group: P -1
;
_chemical_formula_sum "Si O2"
_cell_formula_units_Z 14
_cell_length_a 9.548537
_cell_length_b 12.145947
_cell_length_c 15.163001
_cell_angle_alpha 27.820596
_cell_angle_beta 50.605531
_cell_angle_gamma 39.743224
_cell_volume 518.621071
_symmetry_space_group_name_H-M "P -1"
_symmetry_group_IT_number 2
_symmetry_cell_setting 'triclinic'
loop_
_space_group_symop_operation_xyz
x,y,z
-x,-y,-z
loop_
_atom_site_type_symbol
_atom_site_label
_atom_site_fract_x
_atom_site_fract_y
_atom_site_fract_z
Si Si1 0.948934 0.303847 0.835083
Si Si2 0.269738 0.354950 0.547916
Si Si3 0.943956 0.960696 0.452337
Si Si4 0.605022 0.784139 0.729357
Si Si5 0.319361 0.414314 0.966628
Si Si6 0.344649 0.894012 0.283860
Si Si7 0.287642 0.873834 0.124904
O O1 0.069790 0.388406 0.658666
O O2 0.690687 0.551630 0.781359
O O3 0.084683 0.196534 0.950666
O O4 0.000000 0.000000 0.000000
O O5 0.469967 0.239920 0.620053
O O6 0.219599 0.649967 0.320232
O O7 0.374068 0.096080 0.616391
O O8 0.185512 0.787097 0.434920
O O9 0.792722 0.845865 0.599786
O O10 0.000000 0.000000 0.500000
O O11 0.808037 0.260149 0.242768
O O12 0.632964 0.621404 0.923874
O O13 0.539002 0.236490 0.945076
O O14 0.215704 0.234322 0.114606
O O15 0.400627 0.853867 0.186988
#
# Coordination Sequence:
#
# PCOD9056352 Si02
#       7
#     2   2   2   2   2   2   2
#     4  12  29  49  71  97 129 182 242 287 332 391
#     4  11  24  47  68 104 137 177 223 278 345 406
#     4  12  21  36  62 100 142 176 218 260 330 424
#     4  11  24  45  69  95 136 179 220 281 338 398
#     4  11  22  38  62 101 138 178 217 261 338 412
#     4  11  22  38  65 104 144 180 210 274 340 414
#     4  12  23  43  69 100 144 175 223 279 337 407
#
# _framework density 26.994662999999999
#
# number of rings (size 3 to 8) (size 9 to 14) (size 15 to 20)
#    0.000    0.571    7.143    3.000    2.000    1.143 
#    0.000    0.714    0.000    0.000    0.000    0.000 
#    0.000    0.000    0.000    0.000    0.000    0.000 
#
# Total GULP energy -78451.413410 kJ/mol
# GULP energy per Si atom -5603.672386 kJ/mol
# Density = 2.693322 g / cm^3
# Si number density = 26.994663 Si / 1000 Ang^3
#
#
#
# Elastic Constant Matrix: (Units=GPa)
#
#
# Indices 1 2 3 4 5 6 
#
# 1 77.0240 15.9453 28.3242 4.2771 3.9818 -9.3229
# 2 15.9453 171.9738 37.7370 14.7070 1.3358 -5.1782
# 3 28.3242 37.7370 177.1757 19.6479 3.0095 -10.1515
# 4 4.2771 14.7070 19.6479 56.2039 -5.9552 -6.8395
# 5 3.9818 1.3358 3.0095 -5.9552 48.1034 4.7006
# 6 -9.3229 -5.1782 -10.1515 -6.8395 4.7006 35.8628
#
#
#
# Elastic Compliance Matrix: (Units=1/GPa)
#
#
# Indices 1 2 3 4 5 6 
#
# 1 0.014314 -0.000803 -0.001913 0.000041 -0.001355 0.003249
# 2 -0.000803 0.006230 -0.001051 -0.001200 -0.000208 0.000192
# 3 -0.001913 -0.001051 0.006431 -0.001773 -0.000522 0.000902
# 4 0.000041 -0.001200 -0.001773 0.019294 0.002264 0.002718
# 5 -0.001355 -0.000208 -0.000522 0.002264 0.021505 -0.002917
# 6 0.003249 0.000192 0.000902 0.002718 -0.002917 0.029912
#
#
# Mechanical properties :
#
#
# Convention : Reuss Voigt Hill
#
# Bulk Modulus (GPa) = 51.43536 65.57629 58.50582
# Shear Modulus (GPa) = 44.76345 50.97848 47.87097
#
# Velocity S-wave (km/s) = 4.07656 4.35036 4.21568
# Velocity P-wave (km/s) = 6.42285 7.04125 6.73915
#
# Compressibility (1/GPa) = 0.01944188
#
# Stress axis : x y z
#
# Youngs Moduli (GPa) = 69.86402 160.51558 155.49901
#
# Poissons Ratio (x) = 0.12883 0.29742
# Poissons Ratio (y) = 0.05607 0.16343
# Poissons Ratio (z) = 0.13363 0.16870
#
# Static dielectric constant tensor:
#      x y z
#    x 2.236920 0.027200 -0.016640 
#    y 0.027200 2.151220 -0.044330 
#    z -0.016640 -0.044330 2.121650 
# 
# From -- ./inp_files/477652.got.cif
#   From: 2010.05.17/outbox.cif.g08.bks.cpg/sg2_239_cif.got.tgz:477652.got - 2010.06.03 11:33:40.
