data_PCOD9056202
_publ_section_title
;
Structure prediction by ZEFSAII (Michael W. Deem and Ramdas Pophale) SiO2 
 PCOD9056202
Probable space group: P -1
;
_chemical_formula_sum "Si O2"
_cell_formula_units_Z 16
_cell_length_a 9.123770
_cell_length_b 11.542136
_cell_length_c 11.579907
_cell_angle_alpha 94.964278
_cell_angle_beta 46.865214
_cell_angle_gamma 123.009960
_cell_volume 659.765426
_symmetry_space_group_name_H-M "P -1"
_symmetry_group_IT_number 2
_symmetry_cell_setting 'triclinic'
loop_
_space_group_symop_operation_xyz
x,y,z
-x,-y,-z
loop_
_atom_site_type_symbol
_atom_site_label
_atom_site_fract_x
_atom_site_fract_y
_atom_site_fract_z
Si Si1 0.129650 0.359181 0.623395
Si Si2 0.679745 0.859620 0.696272
Si Si3 0.467084 0.942561 0.158142
Si Si4 0.810181 0.708492 0.780894
Si Si5 0.789287 0.872692 0.009394
Si Si6 0.463568 0.681402 0.560749
Si Si7 0.724829 0.466868 0.670898
Si Si8 0.595247 0.125152 0.555249
O O1 0.201693 0.496394 0.677803
O O2 0.278095 0.303792 0.589431
O O3 0.283022 0.450951 0.428233
O O4 0.819039 0.217663 0.747265
O O5 0.663145 0.745624 0.783248
O O6 0.515991 0.766538 0.660011
O O7 0.557346 0.928979 0.823340
O O8 0.000000 0.000000 0.500000
O O9 0.702543 0.950309 0.984449
O O10 0.529373 0.946538 0.260462
O O11 0.694913 0.533607 0.809643
O O12 0.097919 0.789988 0.576685
O O13 0.876039 0.799977 0.872592
O O14 0.521741 0.716062 0.199300
O O15 0.000000 0.000000 0.000000
O O16 0.436408 0.763386 0.479900
O O17 0.000000 0.500000 0.500000
O O18 0.500000 0.000000 0.500000
#
# Coordination Sequence:
#
# PCOD9056202 Si02
#       8
#     2   2   2   2   2   2   2   2
#     4  11  22  40  69 108 132 179 241 303 346 401
#     4  12  21  42  70 101 143 186 245 292 351 427
#     4  12  23  45  71  99 142 193 240 290 354 433
#     4  12  25  44  70 102 144 195 232 290 371 422
#     4  12  29  47  68 110 152 184 236 300 367 427
#     4  11  22  35  63 107 143 163 238 310 342 401
#     4  12  22  47  78 103 134 189 248 288 343 437
#     4  12  21  36  70 105 133 184 242 292 348 419
#
# _framework density 24.251042999999999
#
# number of rings (size 3 to 8) (size 9 to 14) (size 15 to 20)
#    0.000    0.250    7.500    2.625    0.000    1.500 
#    0.000    0.000    0.000    2.250    0.000    0.000 
#    0.000    0.000    0.000    0.000    0.000    0.000 
#
# Total GULP energy -89394.570482 kJ/mol
# GULP energy per Si atom -5587.160655 kJ/mol
# Density = 2.419585 g / cm^3
# Si number density = 24.251043 Si / 1000 Ang^3
#
#
#
# Elastic Constant Matrix: (Units=GPa)
#
#
# Indices 1 2 3 4 5 6 
#
# 1 154.9373 68.9152 32.9108 8.9150 -6.1946 -6.3230
# 2 68.9152 209.9097 31.6635 20.6071 -3.6432 14.8745
# 3 32.9108 31.6635 54.5755 13.4781 -2.2826 1.8287
# 4 8.9150 20.6071 13.4781 28.8037 4.3438 0.0183
# 5 -6.1946 -3.6432 -2.2826 4.3438 34.0028 10.1285
# 6 -6.3230 14.8745 1.8287 0.0183 10.1285 61.9074
#
#
#
# Elastic Compliance Matrix: (Units=1/GPa)
#
#
# Indices 1 2 3 4 5 6 
#
# 1 0.008353 -0.002328 -0.003924 0.000845 0.000469 0.001451
# 2 -0.002328 0.006195 -0.001268 -0.003288 0.001132 -0.001873
# 3 -0.003924 -0.001268 0.023882 -0.009400 0.002304 -0.001176
# 4 0.000845 -0.003288 -0.009400 0.042246 -0.006903 0.002271
# 5 0.000469 0.001132 0.002304 -0.006903 0.032314 -0.005577
# 6 0.001451 -0.001873 -0.001176 0.002271 -0.005577 0.017698
#
#
# Mechanical properties :
#
#
# Convention : Reuss Voigt Hill
#
# Bulk Modulus (GPa) = 42.75400 76.26684 59.51042
# Shear Modulus (GPa) = 32.56813 44.00498 38.28656
#
# Velocity S-wave (km/s) = 3.66861 4.26439 3.97767
# Velocity P-wave (km/s) = 5.96766 7.46752 6.75932
#
# Compressibility (1/GPa) = 0.02338963
#
# Stress axis : x y z
#
# Youngs Moduli (GPa) = 119.72411 161.42949 41.87170
#
# Poissons Ratio (x) = 0.37580 0.16430
# Poissons Ratio (y) = 0.27871 0.05310
# Poissons Ratio (z) = 0.46979 0.20472
#
# Static dielectric constant tensor:
#      x y z
#    x 0.712280 0.579060 2.207190 
#    y 0.579060 1.833080 -1.069820 
#    z 2.207190 -1.069820 -1.992730 
# 
# From -- ./inp_files/392564.got.cif
#   From: 2010.05.17/outbox.cif.g08.bks.cpg/sg2_197_cif.got.tgz:392564.got - 2010.06.03 11:33:40.
