data_PCOD9056966
_publ_section_title
;
Structure prediction by ZEFSAII (Michael W. Deem and Ramdas Pophale) SiO2 
 PCOD9056966
Probable space group: P -1
;
_chemical_formula_sum "Si O2"
_cell_formula_units_Z 16
_cell_length_a 15.573790
_cell_length_b 15.490430
_cell_length_c 16.144391
_cell_angle_alpha 40.201842
_cell_angle_beta 18.397023
_cell_angle_gamma 38.200691
_cell_volume 756.876167
_symmetry_space_group_name_H-M "P -1"
_symmetry_group_IT_number 2
_symmetry_cell_setting 'triclinic'
loop_
_space_group_symop_operation_xyz
x,y,z
-x,-y,-z
loop_
_atom_site_type_symbol
_atom_site_label
_atom_site_fract_x
_atom_site_fract_y
_atom_site_fract_z
Si Si1 0.688023 0.101482 0.730364
Si Si2 0.512490 0.140195 0.685772
Si Si3 0.595094 0.420282 0.146880
Si Si4 0.726810 0.283083 0.721006
Si Si5 0.114119 0.826173 0.825812
Si Si6 0.986211 0.612636 0.357044
Si Si7 0.638221 0.835034 0.739884
Si Si8 0.269640 0.078559 0.583834
O O1 0.566480 0.182739 0.697396
O O2 0.700362 0.203249 0.719811
O O3 0.000000 0.000000 0.500000
O O4 0.500000 0.000000 0.000000
O O5 0.644789 0.207061 0.441731
O O6 0.669178 0.973759 0.654997
O O7 0.186133 0.154050 0.957002
O O8 0.482386 0.560601 0.200279
O O9 0.823872 0.299342 0.074476
O O10 0.315280 0.373344 0.421005
O O11 0.741873 0.443721 0.909901
O O12 0.051679 0.276819 0.448098
O O13 0.612480 0.207603 0.955617
O O14 0.129086 0.964266 0.760105
O O15 0.953165 0.774419 0.291946
O O16 0.000000 0.500000 0.500000
O O17 0.583389 0.874032 0.665576
O O18 0.500000 0.000000 0.500000
#
# Coordination Sequence:
#
# PCOD9056966 Si02
#       8
#     2   2   2   2   2   2   2   2
#     4  12  22  40  69 104 132 162 224 273 334 407
#     4  11  22  41  66  99 133 166 214 282 331 390
#     4  12  26  44  66  92 136 182 220 268 343 403
#     4  12  23  44  66  99 134 174 213 274 345 395
#     4  11  25  43  65  96 137 177 223 270 334 396
#     4  12  26  45  67  97 133 176 233 286 331 394
#     4  11  23  40  66  97 132 170 219 275 337 385
#     4  11  24  44  67  98 130 179 234 277 327 386
#
# _framework density 21.139520999999998
#
# number of rings (size 3 to 8) (size 9 to 14) (size 15 to 20)
#    0.000    0.500    3.750    5.625    1.750    3.500 
#    0.000    1.250    0.000    0.000    0.000    0.000 
#    0.000    0.000    0.000    0.000    0.000    0.000 
#
# Total GULP energy -89545.882791 kJ/mol
# GULP energy per Si atom -5596.617674 kJ/mol
# Density = 2.109141 g / cm^3
# Si number density = 21.139521 Si / 1000 Ang^3
#
#
#
# Elastic Constant Matrix: (Units=GPa)
#
#
# Indices 1 2 3 4 5 6 
#
# 1 139.8641 49.5970 38.0973 2.4846 -8.9287 9.1751
# 2 49.5970 114.9749 12.4072 4.9241 8.3378 8.4589
# 3 38.0973 12.4072 101.2174 10.2414 0.0085 13.9327
# 4 2.4846 4.9241 10.2414 24.5691 -5.6647 5.9287
# 5 -8.9287 8.3378 0.0085 -5.6647 26.3989 7.7966
# 6 9.1751 8.4589 13.9327 5.9287 7.7966 28.1323
#
#
#
# Elastic Compliance Matrix: (Units=1/GPa)
#
#
# Indices 1 2 3 4 5 6 
#
# 1 0.010129 -0.004419 -0.003218 0.003367 0.006390 -0.002861
# 2 -0.004419 0.011091 0.000633 -0.003392 -0.005756 0.000103
# 3 -0.003218 0.000633 0.011967 -0.004073 -0.001006 -0.003930
# 4 0.003367 -0.003392 -0.004073 0.049800 0.016799 -0.013212
# 5 0.006390 -0.005756 -0.001006 0.016799 0.050610 -0.017422
# 6 -0.002861 0.000103 -0.003930 -0.013212 -0.017422 0.046008
#
#
# Mechanical properties :
#
#
# Convention : Reuss Voigt Hill
#
# Bulk Modulus (GPa) = 52.14177 61.80659 56.97418
# Shear Modulus (GPa) = 24.99933 32.88372 28.94152
#
# Velocity S-wave (km/s) = 3.44261 3.94833 3.70411
# Velocity P-wave (km/s) = 6.36562 7.07720 6.73082
#
# Compressibility (1/GPa) = 0.01917848
#
# Stress axis : x y z
#
# Youngs Moduli (GPa) = 98.72270 90.16572 83.56592
#
# Poissons Ratio (x) = 0.39847 0.26893
# Poissons Ratio (y) = 0.43629 -0.05293
# Poissons Ratio (z) = 0.31771 -0.05711
#
# Static dielectric constant tensor:
#      x y z
#    x 1.765080 0.007510 0.017430 
#    y 0.007510 1.778600 0.007960 
#    z 0.017430 0.007960 1.762580 
# 
# From -- ./inp_files/534216.got.cif
#   From: 2010.05.17/outbox.cif.g08.bks.cpg/sg2_268_cif.got.tgz:534216.got - 2010.06.03 11:33:40.
