data_PCOD9056187
_publ_section_title
;
Structure prediction by ZEFSAII (Michael W. Deem and Ramdas Pophale) SiO2 
 PCOD9056187
Probable space group: P -1
;
_chemical_formula_sum "Si O2"
_cell_formula_units_Z 14
_cell_length_a 9.920133
_cell_length_b 12.063927
_cell_length_c 10.579871
_cell_angle_alpha 50.514746
_cell_angle_beta 65.102223
_cell_angle_gamma 34.590335
_cell_volume 539.376193
_symmetry_space_group_name_H-M "P -1"
_symmetry_group_IT_number 2
_symmetry_cell_setting 'triclinic'
loop_
_space_group_symop_operation_xyz
x,y,z
-x,-y,-z
loop_
_atom_site_type_symbol
_atom_site_label
_atom_site_fract_x
_atom_site_fract_y
_atom_site_fract_z
Si Si1 0.146805 0.046466 0.342527
Si Si2 0.271023 0.848075 0.972773
Si Si3 0.800641 0.474769 0.512441
Si Si4 0.375571 0.420002 0.750795
Si Si5 0.944318 0.691687 0.232100
Si Si6 0.159489 0.948070 0.674890
Si Si7 0.190232 0.267393 0.010513
O O1 0.600358 0.579119 0.411324
O O2 0.054780 0.001979 0.308697
O O3 0.286994 0.069015 0.206306
O O4 0.270213 0.890316 0.533556
O O5 0.441226 0.664162 0.153313
O O6 0.316373 0.779889 0.856183
O O7 0.252946 0.035280 0.853857
O O8 0.000000 0.000000 0.000000
O O9 0.814907 0.460109 0.669673
O O10 0.028067 0.196468 0.588279
O O11 0.865505 0.589807 0.369520
O O12 0.112020 0.688152 0.697416
O O13 0.366317 0.254776 0.897486
O O14 0.961076 0.685111 0.079637
O O15 0.000000 0.500000 0.000000
#
# Coordination Sequence:
#
# PCOD9056187 Si02
#       7
#     2   2   2   2   2   2   2
#     4   9  17  34  57  77 107 141 170 213 266 314
#     4  11  22  35  53  78 107 139 180 223 263 305
#     4   8  16  32  53  77 105 138 174 213 261 312
#     4   9  19  34  54  81 107 137 178 217 257 315
#     4   9  17  32  54  77 104 140 171 212 264 308
#     4   9  18  33  54  78 107 140 172 213 264 313
#     4   9  17  31  55  81 105 135 171 210 261 317
#
# _framework density 25.955908999999998
#
# number of rings (size 3 to 8) (size 9 to 14) (size 15 to 20)
#    0.000    2.857    0.000    1.714    0.000    2.857 
#    0.000    7.143    0.000   20.571    0.000    0.000 
#    0.000    0.000    0.000    0.000    0.000    0.000 
#
# Total GULP energy -78150.302625 kJ/mol
# GULP energy per Si atom -5582.164473 kJ/mol
# Density = 2.589683 g / cm^3
# Si number density = 25.955909 Si / 1000 Ang^3
#
#
#
# Elastic Constant Matrix: (Units=GPa)
#
#
# Indices 1 2 3 4 5 6 
#
# 1 133.9116 24.6865 73.7889 1.7800 43.8861 9.3647
# 2 24.6865 60.9364 23.1675 1.6495 21.1432 6.7388
# 3 73.7889 23.1675 158.7805 10.0464 61.9179 0.5953
# 4 1.7800 1.6495 10.0464 42.5232 15.2385 9.7659
# 5 43.8861 21.1432 61.9179 15.2385 94.0532 -7.2760
# 6 9.3647 6.7388 0.5953 9.7659 -7.2760 37.5759
#
#
#
# Elastic Compliance Matrix: (Units=1/GPa)
#
#
# Indices 1 2 3 4 5 6 
#
# 1 0.011105 -0.001673 -0.003930 0.002384 -0.002882 -0.003583
# 2 -0.001673 0.019024 -0.000665 0.001755 -0.003663 -0.004150
# 3 -0.003930 -0.000665 0.010010 -0.000620 -0.004488 0.000232
# 4 0.002384 0.001755 -0.000620 0.027926 -0.006350 -0.009387
# 5 -0.002882 -0.003663 -0.004488 -0.006350 0.017282 0.006443
# 6 -0.003583 -0.004150 0.000232 -0.009387 0.006443 0.031933
#
#
# Mechanical properties :
#
#
# Convention : Reuss Voigt Hill
#
# Bulk Modulus (GPa) = 36.22969 66.32381 51.27675
# Shear Modulus (GPa) = 35.96645 50.29615 43.13130
#
# Velocity S-wave (km/s) = 3.72650 4.40677 4.08084
# Velocity P-wave (km/s) = 5.70125 7.17640 6.48093
#
# Compressibility (1/GPa) = 0.02760167
#
# Stress axis : x y z
#
# Youngs Moduli (GPa) = 90.04956 52.56604 99.89916
#
# Poissons Ratio (x) = 0.08795 0.39264
# Poissons Ratio (y) = 0.15066 0.06645
# Poissons Ratio (z) = 0.35393 0.03496
#
# Static dielectric constant tensor:
#      x y z
#    x 2.062590 -0.016870 0.038310 
#    y -0.016870 2.122740 0.005130 
#    z 0.038310 0.005130 2.097390 
# 
# From -- ./inp_files/432558.got.cif
#   From: 2010.05.17/outbox.cif.g08.bks.cpg/sg2_217_cif.got.tgz:432558.got - 2010.06.03 11:33:40.
