data_PCOD9056111
_publ_section_title
;
Structure prediction by ZEFSAII (Michael W. Deem and Ramdas Pophale) SiO2 
 PCOD9056111
Probable space group: P -1
;
_chemical_formula_sum "Si O2"
_cell_formula_units_Z 12
_cell_length_a 9.933377
_cell_length_b 9.178449
_cell_length_c 8.804857
_cell_angle_alpha 115.654142
_cell_angle_beta 76.542865
_cell_angle_gamma 73.175107
_cell_volume 630.210181
_symmetry_space_group_name_H-M "P -1"
_symmetry_group_IT_number 2
_symmetry_cell_setting 'triclinic'
loop_
_space_group_symop_operation_xyz
x,y,z
-x,-y,-z
loop_
_atom_site_type_symbol
_atom_site_label
_atom_site_fract_x
_atom_site_fract_y
_atom_site_fract_z
Si Si1 0.857175 0.036991 0.164518
Si Si2 0.859498 0.657772 0.521184
Si Si3 0.329444 0.551412 0.630747
Si Si4 0.345412 0.636857 0.016688
Si Si5 0.011538 0.825256 0.326513
Si Si6 0.336174 0.003280 0.065093
O O1 0.779871 0.249531 0.316933
O O2 0.920780 0.908260 0.232483
O O3 0.735959 0.999019 0.080628
O O4 0.000000 0.000000 0.000000
O O5 0.739485 0.584012 0.462858
O O6 0.775113 0.823185 0.732650
O O7 0.000000 0.500000 0.500000
O O8 0.352190 0.824935 0.067117
O O9 0.500000 0.500000 0.500000
O O10 0.330862 0.565884 0.820420
O O11 0.069596 0.273820 0.602821
O O12 0.500000 0.500000 0.000000
O O13 0.189001 0.690262 0.178045
O O14 0.000000 0.000000 0.500000
O O15 0.500000 0.000000 0.000000
#
# Coordination Sequence:
#
# PCOD9056111 Si02
#       6
#     2   2   2   2   2   2
#     4  11  21  46  70  93 135 178 224 274 335 397
#     4  12  26  42  70 104 132 175 230 276 336 400
#     4  11  25  44  68 100 138 177 220 279 339 399
#     4  11  26  45  66  99 139 178 222 277 343 397
#     4  12  24  44  72 100 134 179 229 282 333 401
#     4  11  24  45  67  98 136 179 219 278 337 398
#
# _framework density 19.041266
#
# number of rings (size 3 to 8) (size 9 to 14) (size 15 to 20)
#    0.000    0.667    5.000    4.000    7.000    2.000 
#    0.000    2.500    0.000    0.000    0.000    0.000 
#    0.000    0.000    0.000    0.000    0.000    0.000 
#
# Total GULP energy -67132.959477 kJ/mol
# GULP energy per Si atom -5594.413290 kJ/mol
# Density = 1.899793 g / cm^3
# Si number density = 19.041266 Si / 1000 Ang^3
#
#
#
# Elastic Constant Matrix: (Units=GPa)
#
#
# Indices 1 2 3 4 5 6 
#
# 1 150.9480 54.4387 40.7838 -5.6851 3.8061 8.9588
# 2 54.4387 160.5204 46.0513 3.3228 0.2409 -0.6567
# 3 40.7838 46.0513 94.3905 10.1020 3.2944 9.3565
# 4 -5.6851 3.3228 10.1020 31.3445 -0.5931 -5.1908
# 5 3.8061 0.2409 3.2944 -0.5931 45.2791 -0.4985
# 6 8.9588 -0.6567 9.3565 -5.1908 -0.4985 30.3729
#
#
#
# Elastic Compliance Matrix: (Units=1/GPa)
#
#
# Indices 1 2 3 4 5 6 
#
# 1 0.008277 -0.002096 -0.002664 0.002363 -0.000474 -0.001270
# 2 -0.002096 0.007840 -0.003118 0.000094 0.000382 0.001771
# 3 -0.002664 -0.003118 0.014358 -0.005572 -0.000929 -0.004672
# 4 0.002363 0.000094 -0.005572 0.035302 0.000747 0.007067
# 5 -0.000474 0.000382 -0.000929 0.000747 0.022211 0.000926
# 6 -0.001270 0.001771 -0.004672 0.007067 0.000926 0.035999
#
#
# Mechanical properties :
#
#
# Convention : Reuss Voigt Hill
#
# Bulk Modulus (GPa) = 67.94129 76.48960 72.21545
# Shear Modulus (GPa) = 34.56621 39.03831 36.80226
#
# Velocity S-wave (km/s) = 4.26529 4.53282 4.40109
# Velocity P-wave (km/s) = 7.74697 8.22514 7.98963
#
# Compressibility (1/GPa) = 0.01471859
#
# Stress axis : x y z
#
# Youngs Moduli (GPa) = 120.81925 127.55258 69.64532
#
# Poissons Ratio (x) = 0.26737 0.18553
# Poissons Ratio (y) = 0.25325 0.21717
# Poissons Ratio (z) = 0.32186 0.39773
#
# Static dielectric constant tensor:
#      x y z
#    x 1.623240 0.003020 -0.006110 
#    y 0.003020 1.642130 0.009000 
#    z -0.006110 0.009000 1.658520 
# 
# From -- ./inp_files/394771.got.cif
#   From: 2010.05.17/outbox.cif.g08.bks.cpg/sg2_198_cif.got.tgz:394771.got - 2010.06.03 11:33:40.
