data_PCOD9056990
_publ_section_title
;
Structure prediction by ZEFSAII (Michael W. Deem and Ramdas Pophale) SiO2 
 PCOD9056990
Probable space group: P -1
;
_chemical_formula_sum "Si O2"
_cell_formula_units_Z 16
_cell_length_a 9.345621
_cell_length_b 21.616852
_cell_length_c 18.200346
_cell_angle_alpha 26.979194
_cell_angle_beta 37.240569
_cell_angle_gamma 29.430876
_cell_volume 816.366100
_symmetry_space_group_name_H-M "P -1"
_symmetry_group_IT_number 2
_symmetry_cell_setting 'triclinic'
loop_
_space_group_symop_operation_xyz
x,y,z
-x,-y,-z
loop_
_atom_site_type_symbol
_atom_site_label
_atom_site_fract_x
_atom_site_fract_y
_atom_site_fract_z
Si Si1 0.750262 0.823196 0.544165
Si Si2 0.439145 0.624783 0.460312
Si Si3 0.671317 0.546934 0.933337
Si Si4 0.677515 0.758874 0.979845
Si Si5 0.657136 0.823518 0.085386
Si Si6 0.238327 0.037145 0.758337
Si Si7 0.239444 0.662703 0.258124
Si Si8 0.183392 0.752369 0.026439
O O1 0.712782 0.677901 0.735834
O O2 0.711418 0.871146 0.423336
O O3 0.097048 0.741116 0.500923
O O4 0.500000 0.000000 0.500000
O O5 0.500000 0.500000 0.500000
O O6 0.542657 0.729597 0.272077
O O7 0.647137 0.508295 0.565265
O O8 0.978829 0.378806 0.010063
O O9 0.500000 0.500000 0.000000
O O10 0.501384 0.637623 0.982133
O O11 0.592007 0.842269 0.006590
O O12 0.520310 0.666502 0.134835
O O13 0.533681 0.899438 0.826950
O O14 0.990278 0.745227 0.050831
O O15 0.500000 0.000000 0.000000
O O16 0.002219 0.176569 0.764480
O O17 0.126588 0.931495 0.879766
O O18 0.139666 0.685460 0.190883
#
# Coordination Sequence:
#
# PCOD9056990 Si02
#       8
#     2   2   2   2   2   2   2   2
#     4  12  24  43  67 100 134 180 227 273 330 409
#     4  12  23  41  69  99 131 181 226 275 331 401
#     4  12  25  43  67  95 140 179 218 272 340 405
#     4  11  22  41  67  96 132 182 218 269 342 400
#     4  12  23  40  66  96 133 173 223 274 333 393
#     4  11  23  42  69 101 136 171 229 283 328 396
#     4  11  22  41  68 102 133 171 229 283 330 389
#     4  11  24  40  64 102 134 173 219 278 336 393
#
# _framework density 19.599050999999999
#
# number of rings (size 3 to 8) (size 9 to 14) (size 15 to 20)
#    0.000    0.500    6.250    3.750    0.000    3.500 
#    0.000    1.875    0.000    0.000    0.000    0.000 
#    0.000    0.000    0.000    0.000    0.000    0.000 
#
# Total GULP energy -89338.026557 kJ/mol
# GULP energy per Si atom -5583.626660 kJ/mol
# Density = 1.955444 g / cm^3
# Si number density = 19.599051 Si / 1000 Ang^3
#
#
#
# Elastic Constant Matrix: (Units=GPa)
#
#
# Indices 1 2 3 4 5 6 
#
# 1 64.3316 10.5139 26.6722 -5.5739 8.3933 -6.4241
# 2 10.5139 123.4973 36.0199 -0.9096 2.4277 -10.7580
# 3 26.6722 36.0199 115.4311 -12.3949 17.2321 0.1297
# 4 -5.5739 -0.9096 -12.3949 25.9119 1.9017 8.2223
# 5 8.3933 2.4277 17.2321 1.9017 34.3708 1.4303
# 6 -6.4241 -10.7580 0.1297 8.2223 1.4303 33.8222
#
#
#
# Elastic Compliance Matrix: (Units=1/GPa)
#
#
# Indices 1 2 3 4 5 6 
#
# 1 0.017820 -0.000155 -0.003511 0.001357 -0.002786 0.003137
# 2 -0.000155 0.009341 -0.003302 -0.002475 0.001024 0.003513
# 3 -0.003511 -0.003302 0.011934 0.006180 -0.005108 -0.003049
# 4 0.001357 -0.002475 0.006180 0.045779 -0.005311 -0.011457
# 5 -0.002786 0.001024 -0.005108 -0.005311 0.032568 -0.000270
# 6 0.003137 0.003513 -0.003049 -0.011457 -0.000270 0.034088
#
#
# Mechanical properties :
#
#
# Convention : Reuss Voigt Hill
#
# Bulk Modulus (GPa) = 39.74581 49.96357 44.85469
# Shear Modulus (GPa) = 28.76000 34.15790 31.45895
#
# Velocity S-wave (km/s) = 3.83485 4.17926 4.01075
# Velocity P-wave (km/s) = 6.31914 6.98831 6.66213
#
# Compressibility (1/GPa) = 0.02515988
#
# Stress axis : x y z
#
# Youngs Moduli (GPa) = 56.11728 107.05337 83.79239
#
# Poissons Ratio (x) = 0.01660 0.29420
# Poissons Ratio (y) = 0.00870 0.27665
# Poissons Ratio (z) = 0.19703 0.35345
#
# Static dielectric constant tensor:
#      x y z
#    x 1.346170 0.431040 -0.021800 
#    y 0.431040 1.133700 0.041440 
#    z -0.021800 0.041440 1.665380 
# 
# From -- ./inp_files/562646.got.cif
#   From: 2010.05.17/outbox.cif.g08.bks.cpg/sg2_282_cif.got.tgz:562646.got - 2010.06.03 11:33:40.
