data_PCOD9056554
_publ_section_title
;
Structure prediction by ZEFSAII (Michael W. Deem and Ramdas Pophale) SiO2 
 PCOD9056554
Probable space group: P -1
;
_chemical_formula_sum "Si O2"
_cell_formula_units_Z 14
_cell_length_a 12.366847
_cell_length_b 12.114037
_cell_length_c 4.957258
_cell_angle_alpha 115.160852
_cell_angle_beta 119.125427
_cell_angle_gamma 70.509756
_cell_volume 579.609754
_symmetry_space_group_name_H-M "P -1"
_symmetry_group_IT_number 2
_symmetry_cell_setting 'triclinic'
loop_
_space_group_symop_operation_xyz
x,y,z
-x,-y,-z
loop_
_atom_site_type_symbol
_atom_site_label
_atom_site_fract_x
_atom_site_fract_y
_atom_site_fract_z
Si Si1 0.587835 0.811799 0.727720
Si Si2 0.930372 0.132676 0.469824
Si Si3 0.360397 0.470575 0.346519
Si Si4 0.297124 0.848500 0.417530
Si Si5 0.769729 0.404411 0.171109
Si Si6 0.984882 0.745535 0.799399
Si Si7 0.721050 0.883600 0.470458
O O1 0.626228 0.665694 0.659375
O O2 0.442371 0.845061 0.658130
O O3 0.610375 0.858034 0.504845
O O4 0.678103 0.870292 0.099177
O O5 0.789174 0.146479 0.417264
O O6 0.956215 0.157534 0.218212
O O7 0.000000 0.000000 0.500000
O O8 0.992576 0.228305 0.832687
O O9 0.500000 0.500000 0.500000
O O10 0.280764 0.561580 0.557907
O O11 0.289603 0.489190 0.995650
O O12 0.254786 0.975697 0.332618
O O13 0.281555 0.720025 0.118799
O O14 0.920640 0.377571 0.296941
O O15 0.839607 0.780991 0.588120
#
# Coordination Sequence:
#
# PCOD9056554 Si02
#       7
#     2   2   2   2   2   2   2
#     4  12  28  45  69  99 141 191 226 273 346 415
#     4  11  22  39  68 100 137 180 225 282 330 399
#     4  12  25  48  71 100 135 173 244 292 333 390
#     4  11  25  43  73 106 143 175 230 283 353 405
#     4  11  25  43  76 105 127 177 236 302 335 382
#     4  11  24  43  67 103 138 181 227 279 348 397
#     4  12  27  46  66 103 151 184 216 270 349 446
#
# _framework density 24.154181000000001
#
# number of rings (size 3 to 8) (size 9 to 14) (size 15 to 20)
#    0.000    0.571    2.857    5.143    4.000    2.286 
#    0.000    4.286    0.000    0.000    0.000    0.000 
#    0.000    0.000    0.000    0.000    0.000    0.000 
#
# Total GULP energy -78414.373681 kJ/mol
# GULP energy per Si atom -5601.026692 kJ/mol
# Density = 2.409921 g / cm^3
# Si number density = 24.154181 Si / 1000 Ang^3
#
#
#
# Elastic Constant Matrix: (Units=GPa)
#
#
# Indices 1 2 3 4 5 6 
#
# 1 92.2875 12.7465 13.9258 5.1934 9.0224 -25.3313
# 2 12.7465 94.9197 2.7350 -2.5389 0.2555 -0.7427
# 3 13.9258 2.7350 43.4159 -0.1323 -0.5122 -10.3432
# 4 5.1934 -2.5389 -0.1323 40.6207 -3.7652 7.8282
# 5 9.0224 0.2555 -0.5122 -3.7652 34.1148 -12.3159
# 6 -25.3313 -0.7427 -10.3432 7.8282 -12.3159 54.7021
#
#
#
# Elastic Compliance Matrix: (Units=1/GPa)
#
#
# Indices 1 2 3 4 5 6 
#
# 1 0.013427 -0.001754 -0.002877 -0.003102 -0.001876 0.005671
# 2 -0.001754 0.010801 -0.000311 0.001077 0.000196 -0.000834
# 3 -0.002877 -0.000311 0.024952 -0.000099 0.002561 0.003972
# 4 -0.003102 0.001077 -0.000099 0.026179 0.001989 -0.004739
# 5 -0.001876 0.000196 0.002561 0.001989 0.032464 0.006642
# 6 0.005671 -0.000834 0.003972 -0.004739 0.006642 0.023821
#
#
# Mechanical properties :
#
#
# Convention : Reuss Voigt Hill
#
# Bulk Modulus (GPa) = 25.44732 32.15973 28.80353
# Shear Modulus (GPa) = 32.33629 39.30191 35.81910
#
# Velocity S-wave (km/s) = 3.66286 4.03814 3.85507
# Velocity P-wave (km/s) = 5.33357 5.92329 5.63615
#
# Compressibility (1/GPa) = 0.03929686
#
# Stress axis : x y z
#
# Youngs Moduli (GPa) = 74.47852 92.58027 40.07764
#
# Poissons Ratio (x) = 0.16236 0.11529
# Poissons Ratio (y) = 0.13061 0.01247
# Poissons Ratio (z) = 0.21425 0.02880
#
# Static dielectric constant tensor:
#      x y z
#    x 1.893430 -0.037240 0.043040 
#    y -0.037240 1.935880 0.018180 
#    z 0.043040 0.018180 1.939760 
# 
# From -- ./inp_files/72451.got.cif
#   From: 2010.05.17/outbox.cif.g08.bks.cpg/sg2_37_cif.got.tgz:72451.got - 2010.06.03 11:33:40.
