data_PCOD9056007
_publ_section_title
;
Structure prediction by ZEFSAII (Michael W. Deem and Ramdas Pophale) SiO2 
 PCOD9056007
Probable space group: P -1
;
_chemical_formula_sum "Si O2"
_cell_formula_units_Z 15
_cell_length_a 11.028997
_cell_length_b 12.040650
_cell_length_c 7.345050
_cell_angle_alpha 67.016816
_cell_angle_beta 60.250592
_cell_angle_gamma 42.205479
_cell_volume 568.462624
_symmetry_space_group_name_H-M "P -1"
_symmetry_group_IT_number 2
_symmetry_cell_setting 'triclinic'
loop_
_space_group_symop_operation_xyz
x,y,z
-x,-y,-z
loop_
_atom_site_type_symbol
_atom_site_label
_atom_site_fract_x
_atom_site_fract_y
_atom_site_fract_z
Si Si1 0.780640 0.666293 0.086081
Si Si2 0.500000 0.000000 0.500000
Si Si3 0.421106 0.724104 0.280273
Si Si4 0.745093 0.376338 0.800297
Si Si5 0.836121 0.957164 0.263638
Si Si6 0.236015 0.736641 0.750035
Si Si7 0.167159 0.095457 0.132354
Si Si8 0.227366 0.366634 0.460393
O O1 0.628742 0.659044 0.132711
O O2 0.753854 0.684884 0.311131
O O3 0.753691 0.818899 0.941281
O O4 0.000000 0.500000 0.000000
O O5 0.644673 0.018309 0.451705
O O6 0.639431 0.811964 0.616579
O O7 0.350837 0.669980 0.219426
O O8 0.397552 0.674704 0.525272
O O9 0.273360 0.923477 0.259604
O O10 0.290388 0.631307 0.956180
O O11 0.699680 0.541283 0.685444
O O12 0.973441 0.222986 0.701353
O O13 0.849794 0.088705 0.215832
O O14 0.810332 0.941510 0.078534
O O15 0.061558 0.774746 0.750344
O O16 0.000000 0.500000 0.500000
#
# Coordination Sequence:
#
# PCOD9056007 Si02
#       8
#     2   1   2   2   2   2   2   2
#     4  12  30  53  73 117 171 209 281 343 406 516
#     4  12  24  46  82 126 160 212 288 332 398 520
#     4  12  26  49  82 119 160 218 274 337 423 486
#     4  11  24  49  79 118 164 219 269 342 423 485
#     4  11  21  44  79 116 166 205 281 336 399 510
#     4  11  23  45  83 121 161 209 279 337 402 510
#     4  11  22  48  78 113 159 219 263 339 420 478
#     4  12  26  53  84 118 169 221 270 345 424 479
#
# _framework density 26.386959999999998
#
# number of rings (size 3 to 8) (size 9 to 14) (size 15 to 20)
#    0.000    0.533    5.333    3.200    1.867    1.600 
#    7.200    2.667    0.000    0.000    0.000    0.000 
#    0.000    0.000    0.000    0.000    0.000    0.000 
#
# Total GULP energy -83954.446586 kJ/mol
# GULP energy per Si atom -5596.963106 kJ/mol
# Density = 2.632690 g / cm^3
# Si number density = 26.386960 Si / 1000 Ang^3
#
#
#
# Elastic Constant Matrix: (Units=GPa)
#
#
# Indices 1 2 3 4 5 6 
#
# 1 187.9348 46.4045 70.5167 -9.9734 -32.8586 -6.7006
# 2 46.4045 143.7881 55.4214 -27.6628 -27.0370 2.3569
# 3 70.5167 55.4214 100.3780 -21.0276 -22.1110 3.7100
# 4 -9.9734 -27.6628 -21.0276 42.8477 -0.2180 -14.4024
# 5 -32.8586 -27.0370 -22.1110 -0.2180 39.2958 -8.4063
# 6 -6.7006 2.3569 3.7100 -14.4024 -8.4063 37.0930
#
#
#
# Elastic Compliance Matrix: (Units=1/GPa)
#
#
# Indices 1 2 3 4 5 6 
#
# 1 0.008039 0.000255 -0.004606 0.000946 0.005040 0.003406
# 2 0.000255 0.010569 -0.003378 0.006497 0.006409 0.003687
# 3 -0.004606 -0.003378 0.016906 0.005234 0.003476 0.000511
# 4 0.000946 0.006497 0.005234 0.035677 0.011774 0.015756
# 5 0.005040 0.006409 0.003476 0.011774 0.038995 0.013564
# 6 0.003406 0.003687 0.000511 0.015756 0.013564 0.036481
#
#
# Mechanical properties :
#
#
# Convention : Reuss Voigt Hill
#
# Bulk Modulus (GPa) = 49.85993 86.30957 68.08475
# Shear Modulus (GPa) = 29.61908 41.16454 35.39181
#
# Velocity S-wave (km/s) = 3.35399 3.95401 3.66630
# Velocity P-wave (km/s) = 5.82544 7.32296 6.61670
#
# Compressibility (1/GPa) = 0.02005618
#
# Stress axis : x y z
#
# Youngs Moduli (GPa) = 124.39272 94.61557 59.15073
#
# Poissons Ratio (x) = -0.02408 0.27243
# Poissons Ratio (y) = -0.03166 0.19980
# Poissons Ratio (z) = 0.57292 0.31959
#
# Static dielectric constant tensor:
#      x y z
#    x 2.005300 -0.033770 -0.003030 
#    y -0.033770 2.093170 0.119630 
#    z -0.003030 0.119630 2.158210 
# 
# From -- ./inp_files/257383.got.cif
#   From: 2010.05.17/outbox.cif.g08.bks.cpg/sg2_129_cif.got.tgz:257383.got - 2010.06.03 11:33:40.
