data_PCOD9056333
_publ_section_title
;
Structure prediction by ZEFSAII (Michael W. Deem and Ramdas Pophale) SiO2 
 PCOD9056333
Probable space group: P -1
;
_chemical_formula_sum "Si O2"
_cell_formula_units_Z 16
_cell_length_a 7.029119
_cell_length_b 16.008757
_cell_length_c 8.251229
_cell_angle_alpha 92.432560
_cell_angle_beta 55.374156
_cell_angle_gamma 116.411897
_cell_volume 655.831960
_symmetry_space_group_name_H-M "P -1"
_symmetry_group_IT_number 2
_symmetry_cell_setting 'triclinic'
loop_
_space_group_symop_operation_xyz
x,y,z
-x,-y,-z
loop_
_atom_site_type_symbol
_atom_site_label
_atom_site_fract_x
_atom_site_fract_y
_atom_site_fract_z
Si Si1 0.916436 0.213086 0.620361
Si Si2 0.086630 0.413694 0.591128
Si Si3 0.627277 0.104084 0.034296
Si Si4 0.366587 0.413286 0.784999
Si Si5 0.465362 0.272104 0.551695
Si Si6 0.993477 0.552588 0.838660
Si Si7 0.104107 0.077148 0.813536
Si Si8 0.716887 0.007688 0.525990
O O1 0.948445 0.313644 0.549699
O O2 0.212568 0.242827 0.549770
O O3 0.689599 0.180736 0.870109
O O4 0.833242 0.114687 0.554372
O O5 0.160170 0.390675 0.732414
O O6 0.372860 0.484653 0.377022
O O7 0.949683 0.476651 0.710058
O O8 0.923472 0.125265 0.934541
O O9 0.500000 0.000000 0.000000
O O10 0.449366 0.081335 0.275646
O O11 0.444279 0.332008 0.717498
O O12 0.230671 0.419626 0.014533
O O13 0.402806 0.168798 0.646719
O O14 0.729406 0.348457 0.330698
O O15 0.000000 0.500000 0.000000
O O16 0.066667 0.011337 0.668782
O O17 0.000000 0.000000 0.000000
O O18 0.500000 0.000000 0.500000
#
# Coordination Sequence:
#
# PCOD9056333 Si02
#       8
#     2   2   2   2   2   2   2   2
#     4   9  18  33  53  81 115 142 181 241 287 329
#     4   8  14  26  44  74 113 139 166 219 282 332
#     4   9  20  37  56  81 110 141 187 247 288 329
#     4   8  14  27  45  72 115 139 168 217 281 336
#     4   9  19  31  49  82 113 143 180 233 286 327
#     4   9  15  26  49  78 115 142 172 222 285 346
#     4  11  22  38  57  77 114 154 198 239 281 343
#     4  11  22  38  57  75 109 155 196 235 290 343
#
# _framework density 24.396491999999999
#
# number of rings (size 3 to 8) (size 9 to 14) (size 15 to 20)
#    0.000    2.750    1.250    2.250    0.000    8.500 
#    0.000    6.250    0.000    0.000    0.000    7.000 
#    0.000    0.000    0.000    0.000    0.000    2.500 
#
# Total GULP energy -89217.231766 kJ/mol
# GULP energy per Si atom -5576.076985 kJ/mol
# Density = 2.434096 g / cm^3
# Si number density = 24.396492 Si / 1000 Ang^3
#
#
#
# Elastic Constant Matrix: (Units=GPa)
#
#
# Indices 1 2 3 4 5 6 
#
# 1 43.8173 15.2062 13.2354 0.2425 -0.6522 2.2144
# 2 15.2062 185.7963 76.5813 -16.5634 -5.4504 4.8095
# 3 13.2354 76.5813 185.9891 2.9357 -13.3694 -0.9856
# 4 0.2425 -16.5634 2.9357 39.6790 -10.1864 -1.9123
# 5 -0.6522 -5.4504 -13.3694 -10.1864 24.5944 4.7320
# 6 2.2144 4.8095 -0.9856 -1.9123 4.7320 28.8835
#
#
#
# Elastic Compliance Matrix: (Units=1/GPa)
#
#
# Indices 1 2 3 4 5 6 
#
# 1 0.023765 -0.001550 -0.001073 -0.000881 -0.000353 -0.001601
# 2 -0.001550 0.007027 -0.002721 0.003530 0.001729 -0.001194
# 3 -0.001073 -0.002721 0.006777 -0.000948 0.002607 0.000277
# 4 -0.000881 0.003530 -0.000948 0.030005 0.012799 -0.000663
# 5 -0.000353 0.001729 0.002607 0.012799 0.049171 -0.007380
# 6 -0.001601 -0.001194 0.000277 -0.000663 -0.007380 0.036118
#
#
# Mechanical properties :
#
#
# Convention : Reuss Voigt Hill
#
# Bulk Modulus (GPa) = 37.20110 69.51651 53.35881
# Shear Modulus (GPa) = 28.98365 39.33668 34.16016
#
# Velocity S-wave (km/s) = 3.45051 4.01982 3.74599
# Velocity P-wave (km/s) = 5.58179 7.07824 6.37408
#
# Compressibility (1/GPa) = 0.02688092
#
# Stress axis : x y z
#
# Youngs Moduli (GPa) = 42.07942 142.31005 147.55576
#
# Poissons Ratio (x) = 0.22061 0.15830
# Poissons Ratio (y) = 0.06523 0.40147
# Poissons Ratio (z) = 0.04514 0.38720
#
# Static dielectric constant tensor:
#      x y z
#    x 2.211440 0.003370 0.001280 
#    y 0.003370 1.986870 -0.015210 
#    z 0.001280 -0.015210 1.995140 
# 
# From -- ./inp_files/202733.got.cif
#   From: 2010.05.17/outbox.cif.g08.bks.cpg/sg2_102_cif.got.tgz:202733.got - 2010.06.03 11:33:40.
