data_PCOD9056811
_publ_section_title
;
Structure prediction by ZEFSAII (Michael W. Deem and Ramdas Pophale) SiO2 
 PCOD9056811
Probable space group: P -1
;
_chemical_formula_sum "Si O2"
_cell_formula_units_Z 16
_cell_length_a 9.639554
_cell_length_b 9.239546
_cell_length_c 19.146893
_cell_angle_alpha 141.549416
_cell_angle_beta 122.598166
_cell_angle_gamma 79.278748
_cell_volume 797.700112
_symmetry_space_group_name_H-M "P -1"
_symmetry_group_IT_number 2
_symmetry_cell_setting 'triclinic'
loop_
_space_group_symop_operation_xyz
x,y,z
-x,-y,-z
loop_
_atom_site_type_symbol
_atom_site_label
_atom_site_fract_x
_atom_site_fract_y
_atom_site_fract_z
Si Si1 0.405528 0.684540 0.561128
Si Si2 0.809965 0.485664 0.414555
Si Si3 0.239523 0.818743 0.120169
Si Si4 0.206995 0.061096 0.066951
Si Si5 0.081406 0.224861 0.891033
Si Si6 0.703075 0.065538 0.106630
Si Si7 0.767311 0.983903 0.597288
Si Si8 0.666388 0.359027 0.624384
O O1 0.500000 0.500000 0.500000
O O2 0.316404 0.616688 0.588160
O O3 0.274158 0.621292 0.433677
O O4 0.570644 0.976125 0.715991
O O5 0.754291 0.305786 0.263428
O O6 0.809237 0.754378 0.491998
O O7 0.000000 0.500000 0.500000
O O8 0.053329 0.833212 0.100493
O O9 0.265519 0.902509 0.078481
O O10 0.194551 0.528798 0.019644
O O11 0.311168 0.372363 0.231560
O O12 0.211171 0.948966 0.950010
O O13 0.000000 0.000000 0.000000
O O14 0.229078 0.114423 0.897740
O O15 0.924419 0.100269 0.742540
O O16 0.500000 0.000000 0.000000
O O17 0.553391 0.834600 0.507130
O O18 0.770894 0.220701 0.641830
#
# Coordination Sequence:
#
# PCOD9056811 Si02
#       8
#     2   2   2   2   2   2   2   2
#     4  12  22  43  73 104 132 183 240 287 337 413
#     4  12  26  47  73  99 146 193 230 280 366 428
#     4  11  22  40  70 104 138 177 235 295 344 408
#     4  12  24  42  68 106 136 179 240 293 344 415
#     4  11  23  42  68 104 141 182 229 293 360 405
#     4  12  27  46  68 101 143 189 230 284 359 429
#     4  11  22  44  66 108 137 181 229 297 354 406
#     4  11  24  38  75 107 137 172 242 300 340 408
#
# _framework density 20.057663999999999
#
# number of rings (size 3 to 8) (size 9 to 14) (size 15 to 20)
#    0.000    0.500    6.250    2.250    3.500    1.000 
#    0.000    4.375    0.000    0.000    0.000    0.000 
#    0.000    0.000    0.000    0.000    0.000    0.000 
#
# Total GULP energy -89146.764346 kJ/mol
# GULP energy per Si atom -5571.672772 kJ/mol
# Density = 2.001201 g / cm^3
# Si number density = 20.057664 Si / 1000 Ang^3
#
#
#
# Elastic Constant Matrix: (Units=GPa)
#
#
# Indices 1 2 3 4 5 6 
#
# 1 100.1293 38.7039 51.2071 -2.4681 -17.2010 -7.4693
# 2 38.7039 115.2009 41.9085 -17.1129 -16.1374 -8.6010
# 3 51.2071 41.9085 128.9292 -12.8153 -21.5487 13.9497
# 4 -2.4681 -17.1129 -12.8153 36.7550 0.6063 3.7313
# 5 -17.2010 -16.1374 -21.5487 0.6063 38.9507 -11.0397
# 6 -7.4693 -8.6010 13.9497 3.7313 -11.0397 37.2818
#
#
#
# Elastic Compliance Matrix: (Units=1/GPa)
#
#
# Indices 1 2 3 4 5 6 
#
# 1 0.014706 -0.002375 -0.005245 -0.002618 0.004322 0.005903
# 2 -0.002375 0.011672 -0.002259 0.004054 0.003522 0.003700
# 3 -0.005245 -0.002259 0.011794 0.003276 0.001563 -0.005850
# 4 -0.002618 0.004054 0.003276 0.030414 0.000839 -0.003611
# 5 0.004322 0.003522 0.001563 0.000839 0.032944 0.010765
# 6 0.005903 0.003700 -0.005850 -0.003611 0.010765 0.034597
#
#
# Mechanical properties :
#
#
# Convention : Reuss Voigt Hill
#
# Bulk Modulus (GPa) = 54.31167 67.54426 60.92797
# Shear Modulus (GPa) = 30.85972 36.76018 33.80995
#
# Velocity S-wave (km/s) = 3.92669 4.28568 4.11011
# Velocity P-wave (km/s) = 6.90616 7.63135 7.27780
#
# Compressibility (1/GPa) = 0.01841225
#
# Stress axis : x y z
#
# Youngs Moduli (GPa) = 67.99965 85.67352 84.79138
#
# Poissons Ratio (x) = 0.20350 0.44474
# Poissons Ratio (y) = 0.16152 0.19157
# Poissons Ratio (z) = 0.35667 0.19356
#
# Static dielectric constant tensor:
#      x y z
#    x 1.706030 0.034180 0.043530 
#    y 0.034180 1.760990 -0.012870 
#    z 0.043530 -0.012870 1.714780 
# 
# From -- ./inp_files/557704.got.cif
#   From: 2010.05.17/outbox.cif.g08.bks.cpg/sg2_279_cif.got.tgz:557704.got - 2010.06.03 11:33:40.
