data_PCOD9056895
_publ_section_title
;
Structure prediction by ZEFSAII (Michael W. Deem and Ramdas Pophale) SiO2 
 PCOD9056895
Probable space group: P -1
;
_chemical_formula_sum "Si O2"
_cell_formula_units_Z 14
_cell_length_a 9.625926
_cell_length_b 14.685981
_cell_length_c 6.978313
_cell_angle_alpha 83.631612
_cell_angle_beta 134.038674
_cell_angle_gamma 107.094164
_cell_volume 671.542237
_symmetry_space_group_name_H-M "P -1"
_symmetry_group_IT_number 2
_symmetry_cell_setting 'triclinic'
loop_
_space_group_symop_operation_xyz
x,y,z
-x,-y,-z
loop_
_atom_site_type_symbol
_atom_site_label
_atom_site_fract_x
_atom_site_fract_y
_atom_site_fract_z
Si Si1 0.324447 0.375650 0.311803
Si Si2 0.650472 0.934642 0.684780
Si Si3 0.882713 0.385256 0.385169
Si Si4 0.996665 0.048450 0.282008
Si Si5 0.944856 0.251992 0.155817
Si Si6 0.427332 0.538262 0.111769
Si Si7 0.648962 0.274664 0.541947
O O1 0.274579 0.450211 0.101685
O O2 0.395878 0.423856 0.574041
O O3 0.514349 0.345978 0.424206
O O4 0.134356 0.285307 0.185817
O O5 0.507060 0.829292 0.631817
O O6 0.787293 0.931771 0.627383
O O7 0.500000 0.000000 0.500000
O O8 0.820155 0.980532 0.995983
O O9 0.982043 0.325515 0.352577
O O10 0.812818 0.325019 0.525996
O O11 0.000000 0.500000 0.500000
O O12 0.679344 0.385546 0.076086
O O13 0.936409 0.145789 0.232556
O O14 0.000000 0.000000 0.500000
O O15 0.757169 0.259162 0.845741
O O16 0.500000 0.500000 0.000000
#
# Coordination Sequence:
#
# PCOD9056895 Si02
#       7
#     2   2   2   2   2   2   2
#     4  11  24  42  68  92 139 182 229 284 347 408
#     4  11  25  48  75 103 144 181 234 295 360 427
#     4  12  27  43  68 105 142 182 241 290 340 417
#     4  11  27  47  73 108 143 180 233 302 358 419
#     4  12  26  45  68 102 140 181 236 288 354 420
#     4  11  22  41  63  95 133 181 229 287 340 400
#     4  12  25  46  71 100 136 192 230 281 358 421
#
# _framework density 20.847536000000002
#
# number of rings (size 3 to 8) (size 9 to 14) (size 15 to 20)
#    0.000    0.571    5.714    1.714    4.000    4.000 
#    2.571    0.000    0.000    0.000    0.000    0.000 
#    0.000    0.000    0.000    0.000    0.000    0.000 
#
# Total GULP energy -78206.079328 kJ/mol
# GULP energy per Si atom -5586.148523 kJ/mol
# Density = 2.080009 g / cm^3
# Si number density = 20.847536 Si / 1000 Ang^3
#
#
#
# Elastic Constant Matrix: (Units=GPa)
#
#
# Indices 1 2 3 4 5 6 
#
# 1 97.3912 36.2672 37.2393 2.3232 -8.2466 -2.6195
# 2 36.2672 135.6062 50.4146 -0.9780 -13.7407 8.2800
# 3 37.2393 50.4146 80.5125 -9.5844 -11.9670 3.0682
# 4 2.3232 -0.9780 -9.5844 38.0957 1.7474 5.1916
# 5 -8.2466 -13.7407 -11.9670 1.7474 28.6891 3.0353
# 6 -2.6195 8.2800 3.0682 5.1916 3.0353 36.6276
#
#
#
# Elastic Compliance Matrix: (Units=1/GPa)
#
#
# Indices 1 2 3 4 5 6 
#
# 1 0.013066 -0.001588 -0.005316 -0.002485 0.000714 0.002032
# 2 -0.001588 0.010122 -0.005254 -0.000798 0.002466 -0.002053
# 3 -0.005316 -0.005254 0.019442 0.005156 0.003950 -0.001879
# 4 -0.002485 -0.000798 0.005156 0.028290 -0.000201 -0.004422
# 5 0.000714 0.002466 0.003950 -0.000201 0.038324 -0.003984
# 6 0.002032 -0.002053 -0.001879 -0.004422 -0.003984 0.029026
#
#
# Mechanical properties :
#
#
# Convention : Reuss Voigt Hill
#
# Bulk Modulus (GPa) = 54.60404 62.37245 58.48824
# Shear Modulus (GPa) = 29.64030 33.32174 31.48102
#
# Velocity S-wave (km/s) = 3.77472 4.00228 3.89016
# Velocity P-wave (km/s) = 6.72659 7.16526 6.94939
#
# Compressibility (1/GPa) = 0.01831366
#
# Stress axis : x y z
#
# Youngs Moduli (GPa) = 76.53259 98.79914 51.43582
#
# Poissons Ratio (x) = 0.15685 0.27346
# Poissons Ratio (y) = 0.12150 0.27024
# Poissons Ratio (z) = 0.40689 0.51908
#
# Static dielectric constant tensor:
#      x y z
#    x 1.762700 -0.000180 0.010460 
#    y -0.000180 1.750540 0.029810 
#    z 0.010460 0.029810 1.743520 
# 
# From -- ./inp_files/37727.got.cif
#   From: 2010.05.17/outbox.cif.g08.bks.cpg/sg2_19_cif.got.tgz:37727.got - 2010.06.03 11:33:40.
