data_PCOD9056716
_publ_section_title
;
Structure prediction by ZEFSAII (Michael W. Deem and Ramdas Pophale) SiO2 
 PCOD9056716
Probable space group: P -1
;
_chemical_formula_sum "Si O2"
_cell_formula_units_Z 16
_cell_length_a 6.790612
_cell_length_b 22.707276
_cell_length_c 8.618849
_cell_angle_alpha 46.160723
_cell_angle_beta 48.932840
_cell_angle_gamma 67.116301
_cell_volume 717.346539
_symmetry_space_group_name_H-M "P -1"
_symmetry_group_IT_number 2
_symmetry_cell_setting 'triclinic'
loop_
_space_group_symop_operation_xyz
x,y,z
-x,-y,-z
loop_
_atom_site_type_symbol
_atom_site_label
_atom_site_fract_x
_atom_site_fract_y
_atom_site_fract_z
Si Si1 0.411159 0.333896 0.184430
Si Si2 0.864112 0.915876 0.155569
Si Si3 0.282456 0.529172 0.441742
Si Si4 0.649418 0.168622 0.300710
Si Si5 0.669225 0.182096 0.897555
Si Si6 0.849285 0.367417 0.404034
Si Si7 0.861253 0.911666 0.793583
Si Si8 0.570013 0.571348 0.706072
O O1 0.543786 0.251828 0.255035
O O2 0.368788 0.349808 0.360523
O O3 0.124361 0.342423 0.248130
O O4 0.595477 0.401057 0.867812
O O5 0.569535 0.901399 0.396950
O O6 0.048157 0.846868 0.239429
O O7 0.853993 0.917020 0.973381
O O8 0.000000 0.000000 0.000000
O O9 0.500000 0.500000 0.500000
O O10 0.106813 0.573805 0.573184
O O11 0.227092 0.452490 0.488574
O O12 0.936442 0.153451 0.236092
O O13 0.646652 0.167828 0.118539
O O14 0.675548 0.279910 0.687943
O O15 0.427237 0.124576 0.050334
O O16 0.696337 0.416288 0.270345
O O17 0.000000 0.000000 0.500000
O O18 0.500000 0.500000 0.000000
#
# Coordination Sequence:
#
# PCOD9056716 Si02
#       8
#     2   2   2   2   2   2   2   2
#     4  11  22  41  65  94 134 170 217 272 325 385
#     4  11  24  44  69  96 132 169 215 271 329 395
#     4   9  20  41  62  91 128 169 215 261 325 387
#     4  11  24  42  66  98 134 174 216 274 328 387
#     4  11  24  42  66  98 132 175 219 268 331 392
#     4  11  22  40  67  91 133 174 214 270 330 388
#     4  11  26  45  68  99 133 172 223 270 324 397
#     4   9  22  39  61  94 128 165 219 263 319 391
#
# _framework density 22.304421000000001
#
# number of rings (size 3 to 8) (size 9 to 14) (size 15 to 20)
#    0.000    1.500    2.500    1.500    1.750   11.000 
#    0.000    2.500    0.000    0.000    0.000    0.000 
#    0.000    0.000    0.000    0.000    0.000    0.000 
#
# Total GULP energy -89336.349389 kJ/mol
# GULP energy per Si atom -5583.521837 kJ/mol
# Density = 2.225366 g / cm^3
# Si number density = 22.304421 Si / 1000 Ang^3
#
#
#
# Elastic Constant Matrix: (Units=GPa)
#
#
# Indices 1 2 3 4 5 6 
#
# 1 97.0358 23.0558 11.5314 3.7430 4.6715 -3.1759
# 2 23.0558 93.9997 -9.1346 8.4922 7.6209 -5.6017
# 3 11.5314 -9.1346 63.3182 1.1997 0.1688 -5.8486
# 4 3.7430 8.4922 1.1997 27.7829 -5.9273 -7.0504
# 5 4.6715 7.6209 0.1688 -5.9273 29.6241 1.8744
# 6 -3.1759 -5.6017 -5.8486 -7.0504 1.8744 29.7809
#
#
#
# Elastic Compliance Matrix: (Units=1/GPa)
#
#
# Indices 1 2 3 4 5 6 
#
# 1 0.011366 -0.002852 -0.002456 -0.000790 -0.001208 0.000082
# 2 -0.002852 0.012332 0.002550 -0.003798 -0.003614 0.001845
# 3 -0.002456 0.002550 0.016940 -0.000440 -0.000674 0.003483
# 4 -0.000790 -0.003798 -0.000440 0.041279 0.008836 0.008331
# 5 -0.001208 -0.003614 -0.000674 0.008836 0.036722 -0.001160
# 6 0.000082 0.001845 0.003483 0.008331 -0.001160 0.036664
#
#
# Mechanical properties :
#
#
# Convention : Reuss Voigt Hill
#
# Bulk Modulus (GPa) = 28.47106 33.91767 31.19437
# Shear Modulus (GPa) = 28.98121 32.69766 30.83943
#
# Velocity S-wave (km/s) = 3.60856 3.83296 3.72245
# Velocity P-wave (km/s) = 5.49133 5.90156 5.70014
#
# Compressibility (1/GPa) = 0.03512338
#
# Stress axis : x y z
#
# Youngs Moduli (GPa) = 87.97907 81.09103 59.03092
#
# Poissons Ratio (x) = 0.23130 0.14496
# Poissons Ratio (y) = 0.25094 -0.15056
# Poissons Ratio (z) = 0.21605 -0.20682
#
# Static dielectric constant tensor:
#      x y z
#    x 1.831240 -0.007380 -0.027580 
#    y -0.007380 1.891450 -0.012950 
#    z -0.027580 -0.012950 1.791700 
# 
# From -- ./inp_files/142513.got.cif
#   From: 2010.05.17/outbox.cif.g08.bks.cpg/sg2_72_cif.got.tgz:142513.got - 2010.06.03 11:33:40.
