data_PCOD9056235
_publ_section_title
;
Structure prediction by ZEFSAII (Michael W. Deem and Ramdas Pophale) SiO2 
 PCOD9056235
Probable space group: P -1
;
_chemical_formula_sum "Si O2"
_cell_formula_units_Z 12
_cell_length_a 22.039411
_cell_length_b 6.226075
_cell_length_c 9.833073
_cell_angle_alpha 106.863762
_cell_angle_beta 145.284169
_cell_angle_gamma 57.931477
_cell_volume 620.524047
_symmetry_space_group_name_H-M "P -1"
_symmetry_group_IT_number 2
_symmetry_cell_setting 'triclinic'
loop_
_space_group_symop_operation_xyz
x,y,z
-x,-y,-z
loop_
_atom_site_type_symbol
_atom_site_label
_atom_site_fract_x
_atom_site_fract_y
_atom_site_fract_z
Si Si1 0.864035 0.501868 0.689870
Si Si2 0.035278 0.821079 0.664266
Si Si3 0.561517 0.086540 0.012820
Si Si4 0.336439 0.579644 0.600423
Si Si5 0.131912 0.028129 0.111943
Si Si6 0.842860 0.688961 0.383067
O O1 0.749968 0.458935 0.460561
O O2 0.824639 0.759113 0.758218
O O3 0.892073 0.555025 0.598399
O O4 0.986301 0.240001 0.929952
O O5 0.115915 0.521443 0.701142
O O6 0.911425 0.849861 0.511090
O O7 0.000000 0.000000 0.500000
O O8 0.108419 0.910304 0.912312
O O9 0.607086 0.258041 0.205962
O O10 0.691723 0.855071 0.145657
O O11 0.455756 0.280562 0.743912
O O12 0.500000 0.000000 0.000000
O O13 0.235893 0.769394 0.337439
#
# Coordination Sequence:
#
# PCOD9056235 Si02
#       6
#     2   2   2   2   2   2
#     4  11  22  36  64  94 126 150 208 263 305 357
#     4  11  25  40  61  89 131 164 199 248 311 371
#     4  11  22  40  63  93 124 158 209 256 301 362
#     4  11  22  36  63  93 123 158 200 263 305 353
#     4  11  23  36  60  95 123 161 202 256 310 356
#     4  11  23  41  61  95 120 165 205 247 309 369
#
# _framework density 19.338494000000001
#
# number of rings (size 3 to 8) (size 9 to 14) (size 15 to 20)
#    0.000    1.000    5.000    1.500    4.667    0.000 
#    0.000    0.833    0.000    5.000    0.000    0.000 
#    0.000    0.000    0.000    0.000    0.000    0.000 
#
# Total GULP energy -66835.668781 kJ/mol
# GULP energy per Si atom -5569.639065 kJ/mol
# Density = 1.929448 g / cm^3
# Si number density = 19.338494 Si / 1000 Ang^3
#
#
#
# Elastic Constant Matrix: (Units=GPa)
#
#
# Indices 1 2 3 4 5 6 
#
# 1 97.0300 44.8896 48.7637 3.1810 19.0237 18.5503
# 2 44.8896 103.6463 53.4745 3.8785 -1.0933 -3.8983
# 3 48.7637 53.4745 134.3939 -24.0176 -5.8485 1.7075
# 4 3.1810 3.8785 -24.0176 53.6953 -4.9447 7.5132
# 5 19.0237 -1.0933 -5.8485 -4.9447 33.4968 0.6131
# 6 18.5503 -3.8983 1.7075 7.5132 0.6131 36.3642
#
#
#
# Elastic Compliance Matrix: (Units=1/GPa)
#
#
# Indices 1 2 3 4 5 6 
#
# 1 0.021068 -0.006332 -0.006190 -0.003380 -0.013565 -0.010208
# 2 -0.006332 0.014869 -0.004116 -0.003065 0.002808 0.005603
# 3 -0.006190 -0.004116 0.012847 0.006942 0.006638 0.000567
# 4 -0.003380 -0.003065 0.006942 0.023292 0.006540 -0.003853
# 5 -0.013565 0.002808 0.006638 0.006540 0.039684 0.004889
# 6 -0.010208 0.005603 0.000567 -0.003853 0.004889 0.033995
#
#
# Mechanical properties :
#
#
# Convention : Reuss Voigt Hill
#
# Bulk Modulus (GPa) = 64.47674 69.92510 67.20092
# Shear Modulus (GPa) = 27.14468 37.24075 32.19271
#
# Velocity S-wave (km/s) = 3.75061 4.39308 4.08450
# Velocity P-wave (km/s) = 7.22285 7.87205 7.55443
#
# Compressibility (1/GPa) = 0.01550947
#
# Stress axis : x y z
#
# Youngs Moduli (GPa) = 47.46529 67.25413 77.84167
#
# Poissons Ratio (x) = 0.42584 0.48181
# Poissons Ratio (y) = 0.30054 0.32037
# Poissons Ratio (z) = 0.29379 0.27679
#
# Static dielectric constant tensor:
#      x y z
#    x 1.685370 0.018910 0.014680 
#    y 0.018910 1.746100 -0.030790 
#    z 0.014680 -0.030790 1.710590 
# 
# From -- ./inp_files/41094.got.cif
#   From: 2010.05.17/outbox.cif.g08.bks.cpg/sg2_21_cif.got.tgz:41094.got - 2010.06.03 11:33:40.
