data_PCOD9056563
_publ_section_title
;
Structure prediction by ZEFSAII (Michael W. Deem and Ramdas Pophale) SiO2 
 PCOD9056563
Probable space group: P -1
;
_chemical_formula_sum "Si O2"
_cell_formula_units_Z 16
_cell_length_a 15.414137
_cell_length_b 12.176020
_cell_length_c 9.487778
_cell_angle_alpha 135.382222
_cell_angle_beta 45.331285
_cell_angle_gamma 142.228138
_cell_volume 724.170590
_symmetry_space_group_name_H-M "P -1"
_symmetry_group_IT_number 2
_symmetry_cell_setting 'triclinic'
loop_
_space_group_symop_operation_xyz
x,y,z
-x,-y,-z
loop_
_atom_site_type_symbol
_atom_site_label
_atom_site_fract_x
_atom_site_fract_y
_atom_site_fract_z
Si Si1 0.680305 0.113941 0.886275
Si Si2 0.223647 0.954546 0.871843
Si Si3 0.316339 0.030588 0.533131
Si Si4 0.469680 0.631061 0.058782
Si Si5 0.805951 0.519070 0.254513
Si Si6 0.080970 0.904185 0.265650
Si Si7 0.656067 0.295735 0.484118
Si Si8 0.630770 0.594495 0.321293
O O1 0.754249 0.017168 0.789285
O O2 0.718728 0.122488 0.685462
O O3 0.750570 0.316817 0.065556
O O4 0.500000 0.000000 0.000000
O O5 0.246540 0.786916 0.715829
O O6 0.208510 0.963306 0.729179
O O7 0.377002 0.157457 0.923595
O O8 0.100168 0.922324 0.091715
O O9 0.484288 0.124599 0.486265
O O10 0.330076 0.206607 0.600636
O O11 0.349321 0.640077 0.294453
O O12 0.500000 0.500000 0.000000
O O13 0.417133 0.543832 0.884963
O O14 0.716092 0.463362 0.453499
O O15 0.763586 0.616733 0.277174
O O16 0.979289 0.682248 0.229274
O O17 0.000000 0.000000 0.500000
O O18 0.500000 0.500000 0.500000
#
# Coordination Sequence:
#
# PCOD9056563 Si02
#       8
#     2   2   2   2   2   2   2   2
#     4  12  24  46  76 108 140 189 250 302 354 431
#     4  11  25  43  67  96 149 189 243 290 374 430
#     4  11  22  41  65 106 136 186 237 308 349 421
#     4  11  22  39  68 107 140 188 244 307 360 420
#     4  12  26  43  70 106 146 186 242 293 371 432
#     4  12  29  48  73 105 150 198 237 301 375 441
#     4  11  22  41  69 101 147 183 241 299 369 426
#     4  12  23  38  66 103 144 178 244 295 355 420
#
# _framework density 22.094239999999999
#
# number of rings (size 3 to 8) (size 9 to 14) (size 15 to 20)
#    0.000    0.500    6.250    2.625   10.500    0.000 
#    0.000    4.375    0.000    0.000    0.000    0.000 
#    0.000    0.000    0.000    0.000    0.000    0.000 
#
# Total GULP energy -89478.098841 kJ/mol
# GULP energy per Si atom -5592.381178 kJ/mol
# Density = 2.204395 g / cm^3
# Si number density = 22.094240 Si / 1000 Ang^3
#
#
#
# Elastic Constant Matrix: (Units=GPa)
#
#
# Indices 1 2 3 4 5 6 
#
# 1 80.5916 12.7175 36.2778 -7.7595 -3.3718 -14.7077
# 2 12.7175 78.2101 52.6840 -11.6307 6.7112 -3.6449
# 3 36.2778 52.6840 189.2481 -22.2050 22.3367 -5.6899
# 4 -7.7595 -11.6307 -22.2050 37.8936 -7.9915 5.5271
# 5 -3.3718 6.7112 22.3367 -7.9915 51.1322 -2.6454
# 6 -14.7077 -3.6449 -5.6899 5.5271 -2.6454 30.0857
#
#
#
# Elastic Compliance Matrix: (Units=1/GPa)
#
#
# Indices 1 2 3 4 5 6 
#
# 1 0.015208 -0.000344 -0.002832 0.000926 0.002788 0.006932
# 2 -0.000344 0.015972 -0.004094 0.002365 0.000068 0.000564
# 3 -0.002832 -0.004094 0.007499 0.002160 -0.002644 -0.001091
# 4 0.000926 0.002365 0.002160 0.029849 0.003263 -0.004049
# 5 0.002788 0.000068 -0.002644 0.003263 0.021509 0.002163
# 6 0.006932 0.000564 -0.001091 -0.004049 0.002163 0.037423
#
#
# Mechanical properties :
#
#
# Convention : Reuss Voigt Hill
#
# Bulk Modulus (GPa) = 41.42469 61.26760 51.34614
# Shear Modulus (GPa) = 33.32287 40.24702 36.78494
#
# Velocity S-wave (km/s) = 3.88779 4.27266 4.08476
# Velocity P-wave (km/s) = 6.24043 7.22019 6.74812
#
# Compressibility (1/GPa) = 0.02414019
#
# Stress axis : x y z
#
# Youngs Moduli (GPa) = 65.75432 62.60973 133.34658
#
# Poissons Ratio (x) = 0.02154 0.37758
# Poissons Ratio (y) = 0.02262 0.54592
# Poissons Ratio (z) = 0.18619 0.25633
#
# Static dielectric constant tensor:
#      x y z
#    x 1.881770 0.003070 -0.018710 
#    y 0.003070 1.833260 0.003780 
#    z -0.018710 0.003780 1.838400 
# 
# From -- ./inp_files/308477.got.cif
#   From: 2010.05.17/outbox.cif.g08.bks.cpg/sg2_155_cif.got.tgz:308477.got - 2010.06.03 11:33:40.
