data_PCOD9056484
_publ_section_title
;
Structure prediction by ZEFSAII (Michael W. Deem and Ramdas Pophale) SiO2 
 PCOD9056484
Probable space group: P -1
;
_chemical_formula_sum "Si O2"
_cell_formula_units_Z 12
_cell_length_a 10.045150
_cell_length_b 9.762405
_cell_length_c 17.982113
_cell_angle_alpha 33.125442
_cell_angle_beta 140.803867
_cell_angle_gamma 138.669773
_cell_volume 581.906767
_symmetry_space_group_name_H-M "P -1"
_symmetry_group_IT_number 2
_symmetry_cell_setting 'triclinic'
loop_
_space_group_symop_operation_xyz
x,y,z
-x,-y,-z
loop_
_atom_site_type_symbol
_atom_site_label
_atom_site_fract_x
_atom_site_fract_y
_atom_site_fract_z
Si Si1 0.612525 0.176631 0.172016
Si Si2 0.902924 0.767601 0.660888
Si Si3 0.379601 0.495018 0.829748
Si Si4 0.244959 0.301633 0.533950
Si Si5 0.657378 0.824543 0.672619
Si Si6 0.069046 0.660486 0.380210
O O1 0.585117 0.273385 0.199293
O O2 0.871113 0.313134 0.200823
O O3 0.590754 0.869025 0.300454
O O4 0.455251 0.270419 0.006356
O O5 0.770417 0.658796 0.578404
O O6 0.758279 0.720962 0.692613
O O7 0.007531 0.085371 0.550343
O O8 0.130720 0.401588 0.735919
O O9 0.526136 0.601560 0.772696
O O10 0.257615 0.555331 0.471918
O O11 0.851797 0.035196 0.704467
O O12 0.500000 0.000000 0.500000
O O13 0.000000 0.500000 0.500000
#
# Coordination Sequence:
#
# PCOD9056484 Si02
#       6
#     2   2   2   2   2   2
#     4   9  19  39  64  85 122 165 188 242 309 349
#     4   9  17  35  62  85 119 155 197 240 293 348
#     4  11  22  39  64  89 119 160 201 239 299 357
#     4   9  16  35  62  83 113 162 194 232 299 347
#     4  12  23  36  62  94 115 155 207 244 290 354
#     4  12  20  38  63  88 122 152 198 253 291 345
#
# _framework density 20.621860999999999
#
# number of rings (size 3 to 8) (size 9 to 14) (size 15 to 20)
#    1.000    0.667    5.000    1.000    0.000    0.667 
#    0.000   10.000    3.667    0.000    0.000    0.000 
#    0.000    0.000    0.000    0.000    0.000    0.000 
#
# Total GULP energy -66999.956831 kJ/mol
# GULP energy per Si atom -5583.329736 kJ/mol
# Density = 2.057492 g / cm^3
# Si number density = 20.621861 Si / 1000 Ang^3
#
#
#
# Elastic Constant Matrix: (Units=GPa)
#
#
# Indices 1 2 3 4 5 6 
#
# 1 125.3071 15.9215 23.0625 1.9047 -7.6094 -27.6325
# 2 15.9215 44.6698 21.3459 0.8802 -6.4923 -12.6047
# 3 23.0625 21.3459 114.6145 17.0768 13.1087 -11.5140
# 4 1.9047 0.8802 17.0768 13.6065 -7.6541 -1.5959
# 5 -7.6094 -6.4923 13.1087 -7.6541 23.1112 -0.7256
# 6 -27.6325 -12.6047 -11.5140 -1.5959 -0.7256 34.8544
#
#
#
# Elastic Compliance Matrix: (Units=1/GPa)
#
#
# Indices 1 2 3 4 5 6 
#
# 1 0.010967 0.002116 -0.004655 0.011295 0.010859 0.008665
# 2 0.002116 0.035719 -0.014472 0.034204 0.030644 0.012019
# 3 -0.004655 -0.014472 0.022796 -0.046721 -0.034134 -0.004244
# 4 0.011295 0.034204 -0.046721 0.188013 0.102617 0.016635
# 5 0.010859 0.030644 -0.034134 0.102617 0.109282 0.015388
# 6 0.008665 0.012019 -0.004244 0.016635 0.015388 0.039587
#
#
# Mechanical properties :
#
#
# Convention : Reuss Voigt Hill
#
# Bulk Modulus (GPa) = 28.20064 45.02792 36.61428
# Shear Modulus (GPa) = 11.05694 29.26517 20.16105
#
# Velocity S-wave (km/s) = 2.31806 3.77123 3.13014
# Velocity P-wave (km/s) = 4.56830 6.39103 5.55494
#
# Compressibility (1/GPa) = 0.03546019
#
# Stress axis : x y z
#
# Youngs Moduli (GPa) = 91.18406 27.99643 43.86807
#
# Poissons Ratio (x) = -0.05925 0.20421
# Poissons Ratio (y) = -0.19298 0.63485
# Poissons Ratio (z) = 0.42448 0.40516
#
# Static dielectric constant tensor:
#      x y z
#    x 1.791470 0.023510 0.026870 
#    y 0.023510 1.755380 0.008300 
#    z 0.026870 0.008300 1.705980 
# 
# From -- ./inp_files/492170.got.cif
#   From: 2010.05.17/outbox.cif.g08.bks.cpg/sg2_247_cif.got.tgz:492170.got - 2010.06.03 11:33:40.
