data_PCOD9056207
_publ_section_title
;
Structure prediction by ZEFSAII (Michael W. Deem and Ramdas Pophale) SiO2 
 PCOD9056207
Probable space group: P -1
;
_chemical_formula_sum "Si O2"
_cell_formula_units_Z 16
_cell_length_a 9.318815
_cell_length_b 29.967158
_cell_length_c 11.853232
_cell_angle_alpha 148.252581
_cell_angle_beta 130.107466
_cell_angle_gamma 29.829709
_cell_volume 809.216259
_symmetry_space_group_name_H-M "P -1"
_symmetry_group_IT_number 2
_symmetry_cell_setting 'triclinic'
loop_
_space_group_symop_operation_xyz
x,y,z
-x,-y,-z
loop_
_atom_site_type_symbol
_atom_site_label
_atom_site_fract_x
_atom_site_fract_y
_atom_site_fract_z
Si Si1 0.181868 0.090940 0.097711
Si Si2 0.219289 0.400313 0.245917
Si Si3 0.719318 0.912360 0.594239
Si Si4 0.664850 0.711402 0.706159
Si Si5 0.334182 0.650203 0.758978
Si Si6 0.924461 0.056821 0.211432
Si Si7 0.078895 0.201305 0.912205
Si Si8 0.855525 0.362137 0.918633
O O1 0.208362 0.099905 0.263354
O O2 0.922230 0.242396 0.235842
O O3 0.500000 0.000000 0.000000
O O4 0.100592 0.019280 0.891025
O O5 0.420286 0.300026 0.241298
O O6 0.419623 0.364178 0.168994
O O7 0.996161 0.555210 0.507106
O O8 0.004965 0.399150 0.102102
O O9 0.835446 0.953548 0.669948
O O10 0.926677 0.761701 0.328846
O O11 0.347902 0.037170 0.667705
O O12 0.419627 0.782281 0.636380
O O13 0.715402 0.792329 0.926872
O O14 0.500000 0.500000 0.500000
O O15 0.161083 0.726059 0.952563
O O16 0.000000 0.000000 0.000000
O O17 0.896697 0.293419 0.906393
O O18 0.500000 0.500000 0.000000
#
# Coordination Sequence:
#
# PCOD9056207 Si02
#       8
#     2   2   2   2   2   2   2   2
#     4  11  22  38  63  98 132 154 203 264 321 376
#     4  10  22  36  63  89 128 162 213 252 317 364
#     4  11  22  41  65  91 127 166 205 260 312 370
#     4  10  17  36  60  96 119 159 204 272 303 363
#     4  12  24  39  64  98 129 164 197 265 326 366
#     4  10  18  32  62  89 121 152 207 257 311 358
#     4  11  22  41  61  91 126 159 211 257 316 367
#     4  11  26  44  63  88 123 172 220 255 301 379
#
# _framework density 19.772217999999999
#
# number of rings (size 3 to 8) (size 9 to 14) (size 15 to 20)
#    0.000    1.250    5.000    2.625    3.500    0.000 
#    0.000    2.500    0.000    0.000    0.000    0.000 
#    0.000    0.000    0.000    0.000    0.000    0.000 
#
# Total GULP energy -89297.085985 kJ/mol
# GULP energy per Si atom -5581.067874 kJ/mol
# Density = 1.972722 g / cm^3
# Si number density = 19.772218 Si / 1000 Ang^3
#
#
#
# Elastic Constant Matrix: (Units=GPa)
#
#
# Indices 1 2 3 4 5 6 
#
# 1 117.1138 43.7005 29.5947 16.1626 -21.5606 5.9568
# 2 43.7005 114.7535 37.8010 28.1877 -10.0294 15.1392
# 3 29.5947 37.8010 86.3413 19.3178 -10.6646 5.4166
# 4 16.1626 28.1877 19.3178 33.3092 2.9145 -2.7823
# 5 -21.5606 -10.0294 -10.6646 2.9145 26.2203 3.7154
# 6 5.9568 15.1392 5.4166 -2.7823 3.7154 24.6817
#
#
#
# Elastic Compliance Matrix: (Units=1/GPa)
#
#
# Indices 1 2 3 4 5 6 
#
# 1 0.012151 -0.001699 -0.000755 -0.005231 0.010162 -0.003845
# 2 -0.001699 0.014928 -0.001734 -0.012267 0.006491 -0.010726
# 3 -0.000755 -0.001734 0.015446 -0.008025 0.006460 -0.004021
# 4 -0.005231 -0.012267 -0.008025 0.051026 -0.020681 0.019413
# 5 0.010162 0.006491 0.006460 -0.020681 0.056553 -0.018696
# 6 -0.003845 -0.010726 -0.004021 0.019413 -0.018696 0.053908
#
#
# Mechanical properties :
#
#
# Convention : Reuss Voigt Hill
#
# Bulk Modulus (GPa) = 29.28241 60.04457 44.66349
# Shear Modulus (GPa) = 22.34437 30.64973 26.49705
#
# Velocity S-wave (km/s) = 3.36533 3.94145 3.66473
# Velocity P-wave (km/s) = 5.47198 7.15175 6.36750
#
# Compressibility (1/GPa) = 0.03415019
#
# Stress axis : x y z
#
# Youngs Moduli (GPa) = 82.29439 66.98826 64.74346
#
# Poissons Ratio (x) = 0.11379 0.04886
# Poissons Ratio (y) = 0.13979 0.11228
# Poissons Ratio (z) = 0.06210 0.11617
#
# Static dielectric constant tensor:
#      x y z
#    x 1.713820 -0.019790 0.002130 
#    y -0.019790 1.753530 0.048070 
#    z 0.002130 0.048070 1.739620 
# 
# From -- ./inp_files/305056.got.cif
#   From: 2010.05.17/outbox.cif.g08.bks.cpg/sg2_153_cif.got.tgz:305056.got - 2010.06.03 11:33:40.
