data_PCOD9056070
_publ_section_title
;
Structure prediction by ZEFSAII (Michael W. Deem and Ramdas Pophale) SiO2 
 PCOD9056070
Probable space group: P -1
;
_chemical_formula_sum "Si O2"
_cell_formula_units_Z 16
_cell_length_a 11.521342
_cell_length_b 8.803301
_cell_length_c 8.154453
_cell_angle_alpha 100.448761
_cell_angle_beta 111.095775
_cell_angle_gamma 110.979297
_cell_volume 673.256565
_symmetry_space_group_name_H-M "P -1"
_symmetry_group_IT_number 2
_symmetry_cell_setting 'triclinic'
loop_
_space_group_symop_operation_xyz
x,y,z
-x,-y,-z
loop_
_atom_site_type_symbol
_atom_site_label
_atom_site_fract_x
_atom_site_fract_y
_atom_site_fract_z
Si Si1 0.849079 0.474210 0.350240
Si Si2 0.116557 0.168075 0.681882
Si Si3 0.124206 0.236526 0.071424
Si Si4 0.727280 0.964584 0.760174
Si Si5 0.903683 0.334653 0.027203
Si Si6 0.631866 0.855717 0.319879
Si Si7 0.580535 0.432206 0.658623
Si Si8 0.419846 0.813155 0.655202
O O1 0.853896 0.661238 0.374546
O O2 0.838684 0.395229 0.149721
O O3 0.709323 0.336979 0.343685
O O4 0.000000 0.500000 0.500000
O O5 0.076885 0.198821 0.850651
O O6 0.255610 0.142997 0.750288
O O7 0.000000 0.000000 0.500000
O O8 0.158938 0.088060 0.124700
O O9 0.271666 0.410612 0.191756
O O10 0.014664 0.269135 0.130969
O O11 0.699367 0.902563 0.546213
O O12 0.584528 0.868606 0.775866
O O13 0.786442 0.170590 0.841652
O O14 0.000000 0.500000 0.000000
O O15 0.509750 0.660169 0.245129
O O16 0.589672 0.008059 0.296774
O O17 0.500000 0.500000 0.500000
O O18 0.599488 0.276459 0.550659
#
# Coordination Sequence:
#
# PCOD9056070 Si02
#       8
#     2   2   2   2   2   2   2   2
#     4  12  28  47  75 104 145 193 239 307 362 432
#     4  12  28  47  70 106 147 189 243 300 363 427
#     4  12  26  47  75 104 143 189 243 296 363 432
#     4  11  26  47  76 105 143 192 241 295 364 435
#     4  12  28  48  70 105 142 188 247 301 359 435
#     4  11  25  43  74 105 150 190 235 298 362 431
#     4  11  21  45  74 109 142 187 239 299 358 437
#     4  11  25  46  74 110 147 190 240 295 371 428
#
# _framework density 23.765086
#
# number of rings (size 3 to 8) (size 9 to 14) (size 15 to 20)
#    0.000    0.500    3.750    4.875   10.500    1.000 
#    0.000    0.000    0.000    0.000    0.000    0.000 
#    0.000    0.000    0.000    0.000    0.000    0.000 
#
# Total GULP energy -89561.034613 kJ/mol
# GULP energy per Si atom -5597.564663 kJ/mol
# Density = 2.371100 g / cm^3
# Si number density = 23.765086 Si / 1000 Ang^3
#
#
#
# Elastic Constant Matrix: (Units=GPa)
#
#
# Indices 1 2 3 4 5 6 
#
# 1 125.6764 32.8096 0.9130 2.2737 1.0862 -0.0793
# 2 32.8096 113.1012 4.9243 22.2741 16.4741 -4.3708
# 3 0.9130 4.9243 52.3044 20.0996 7.3642 4.2811
# 4 2.2737 22.2741 20.0996 42.4171 -0.3902 6.1574
# 5 1.0862 16.4741 7.3642 -0.3902 32.2795 1.3119
# 6 -0.0793 -4.3708 4.2811 6.1574 1.3119 57.5077
#
#
#
# Elastic Compliance Matrix: (Units=1/GPa)
#
#
# Indices 1 2 3 4 5 6 
#
# 1 0.008708 -0.003007 -0.000600 0.001462 0.001411 -0.000361
# 2 -0.003007 0.012222 0.002766 -0.007881 -0.006933 0.001721
# 3 -0.000600 0.002766 0.025020 -0.013334 -0.007258 -0.000060
# 4 0.001462 -0.007881 -0.013334 0.034528 0.007573 -0.003474
# 5 0.001411 -0.006933 -0.007258 0.007573 0.036283 -0.001623
# 6 -0.000361 0.001721 -0.000060 -0.003474 -0.001623 0.017933
#
#
# Mechanical properties :
#
#
# Convention : Reuss Voigt Hill
#
# Bulk Modulus (GPa) = 22.59059 40.93063 31.76061
# Shear Modulus (GPa) = 33.08376 43.26986 38.17681
#
# Velocity S-wave (km/s) = 3.73516 4.27163 4.01237
# Velocity P-wave (km/s) = 5.30361 6.44899 5.90414
#
# Compressibility (1/GPa) = 0.04426621
#
# Stress axis : x y z
#
# Youngs Moduli (GPa) = 114.84345 81.82019 39.96839
#
# Poissons Ratio (x) = 0.24605 0.02397
# Poissons Ratio (y) = 0.34536 -0.11053
# Poissons Ratio (z) = 0.06888 -0.22628
#
# Static dielectric constant tensor:
#      x y z
#    x 1.931850 0.058460 0.065500 
#    y 0.058460 2.033250 0.016340 
#    z 0.065500 0.016340 1.895380 
# 
# From -- ./inp_files/245146.got.cif
#   From: 2010.05.17/outbox.cif.g08.bks.cpg/sg2_123_cif.got.tgz:245146.got - 2010.06.03 11:33:40.
