data_PCOD9056160
_publ_section_title
;
Structure prediction by ZEFSAII (Michael W. Deem and Ramdas Pophale) SiO2 
 PCOD9056160
Probable space group: P -1
;
_chemical_formula_sum "Si O2"
_cell_formula_units_Z 13
_cell_length_a 4.651225
_cell_length_b 15.195675
_cell_length_c 7.449818
_cell_angle_alpha 87.973795
_cell_angle_beta 70.846635
_cell_angle_gamma 114.175302
_cell_volume 444.884542
_symmetry_space_group_name_H-M "P -1"
_symmetry_group_IT_number 2
_symmetry_cell_setting 'triclinic'
loop_
_space_group_symop_operation_xyz
x,y,z
-x,-y,-z
loop_
_atom_site_type_symbol
_atom_site_label
_atom_site_fract_x
_atom_site_fract_y
_atom_site_fract_z
Si Si1 0.500000 0.500000 0.500000
Si Si2 0.557621 0.849653 0.325977
Si Si3 0.360971 0.077737 0.065478
Si Si4 0.160873 0.457613 0.196276
Si Si5 0.020888 0.737202 0.897793
Si Si6 0.010530 0.126165 0.420312
Si Si7 0.345154 0.645026 0.285124
O O1 0.283952 0.442252 0.366349
O O2 0.446570 0.596889 0.433621
O O3 0.762191 0.896430 0.099200
O O4 0.679531 0.691076 0.088454
O O5 0.288030 0.738448 0.335497
O O6 0.358338 0.910886 0.417713
O O7 0.672120 0.179031 0.063740
O O8 0.096713 0.053526 0.284082
O O9 0.500000 0.000000 0.000000
O O10 0.055239 0.548117 0.245926
O O11 0.500000 0.500000 0.000000
O O12 0.912188 0.355342 0.166278
O O13 0.961723 0.789790 0.731943
O O14 0.254552 0.161561 0.537929
#
# Coordination Sequence:
#
# PCOD9056160 Si02
#       7
#     1   2   2   2   2   2   2
#     4   8  16  34  70 114 158 196 268 310 384 474
#     4  12  26  51  83 113 165 209 265 328 408 476
#     4  12  30  54  81 118 159 207 272 340 403 478
#     4   8  17  33  68 107 151 199 253 310 379 465
#     4  11  21  49  78 111 162 208 260 332 397 461
#     4  12  27  50  82 117 155 212 265 333 403 478
#     4   9  19  40  76 116 155 212 251 323 387 475
#
# _framework density 29.221063000000001
#
# number of rings (size 3 to 8) (size 9 to 14) (size 15 to 20)
#    0.923    0.615    3.077    1.846    0.000    1.846 
#    0.000    1.538    3.385    0.000    0.000    0.000 
#    0.000    0.000    0.000    0.000    0.000    0.000 
#
# Total GULP energy -72794.184741 kJ/mol
# GULP energy per Si atom -5599.552672 kJ/mol
# Density = 2.915455 g / cm^3
# Si number density = 29.221063 Si / 1000 Ang^3
#
#
#
# Elastic Constant Matrix: (Units=GPa)
#
#
# Indices 1 2 3 4 5 6 
#
# 1 123.9339 42.2188 55.9708 15.3506 21.3477 -5.0763
# 2 42.2188 172.9158 63.4420 40.7588 -5.3117 -1.0027
# 3 55.9708 63.4420 193.5529 6.2856 10.0751 -4.9996
# 4 15.3506 40.7588 6.2856 72.5008 -10.5692 -2.8493
# 5 21.3477 -5.3117 10.0751 -10.5692 60.3664 -0.7635
# 6 -5.0763 -1.0027 -4.9996 -2.8493 -0.7635 55.7560
#
#
#
# Elastic Compliance Matrix: (Units=1/GPa)
#
#
# Indices 1 2 3 4 5 6 
#
# 1 0.010473 -0.001414 -0.002299 -0.001746 -0.003743 0.000582
# 2 -0.001414 0.007813 -0.002083 -0.003800 0.000865 -0.000357
# 3 -0.002299 -0.002083 0.006503 0.001071 -0.000263 0.000387
# 4 -0.001746 -0.003800 0.001071 0.016679 0.003034 0.000763
# 5 -0.003743 0.000865 -0.000263 0.003034 0.018541 0.000060
# 6 0.000582 -0.000357 0.000387 0.000763 0.000060 0.018056
#
#
# Mechanical properties :
#
#
# Convention : Reuss Voigt Hill
#
# Bulk Modulus (GPa) = 75.76646 90.40732 83.08689
# Shear Modulus (GPa) = 53.16012 59.64269 56.40141
#
# Velocity S-wave (km/s) = 4.26988 4.52274 4.39813
# Velocity P-wave (km/s) = 7.09184 7.63412 7.36797
#
# Compressibility (1/GPa) = 0.01319845
#
# Stress axis : x y z
#
# Youngs Moduli (GPa) = 95.48014 127.99465 153.77666
#
# Poissons Ratio (x) = 0.18096 0.35348
# Poissons Ratio (y) = 0.13499 0.32030
# Poissons Ratio (z) = 0.21948 0.26660
#
# Static dielectric constant tensor:
#      x y z
#    x 2.146380 -0.007570 -0.034270 
#    y -0.007570 2.267390 0.049820 
#    z -0.034270 0.049820 2.230710 
# 
# From -- ./inp_files/136253.got.cif
#   From: 2010.05.17/outbox.cif.g08.bks.cpg/sg2_69_cif.got.tgz:136253.got - 2010.06.03 11:33:40.
