data_PCOD9056724
_publ_section_title
;
Structure prediction by ZEFSAII (Michael W. Deem and Ramdas Pophale) SiO2 
 PCOD9056724
Probable space group: P -1
;
_chemical_formula_sum "Si O2"
_cell_formula_units_Z 12
_cell_length_a 7.481412
_cell_length_b 12.305218
_cell_length_c 9.925487
_cell_angle_alpha 126.367658
_cell_angle_beta 93.008312
_cell_angle_gamma 123.025700
_cell_volume 512.574303
_symmetry_space_group_name_H-M "P -1"
_symmetry_group_IT_number 2
_symmetry_cell_setting 'triclinic'
loop_
_space_group_symop_operation_xyz
x,y,z
-x,-y,-z
loop_
_atom_site_type_symbol
_atom_site_label
_atom_site_fract_x
_atom_site_fract_y
_atom_site_fract_z
Si Si1 0.225992 0.061439 0.234558
Si Si2 0.818127 0.483259 0.164296
Si Si3 0.038089 0.675491 0.592728
Si Si4 0.617849 0.491408 0.630090
Si Si5 0.298269 0.062757 0.921146
Si Si6 0.901827 0.640061 0.995319
O O1 0.466331 0.268315 0.463099
O O2 0.301895 0.088251 0.100372
O O3 0.972269 0.020607 0.201197
O O4 0.130065 0.870792 0.155533
O O5 0.897818 0.608027 0.393672
O O6 0.012479 0.461467 0.131803
O O7 0.832194 0.580964 0.103900
O O8 0.543661 0.266902 0.018860
O O9 0.908044 0.662806 0.713472
O O10 0.000000 0.500000 0.500000
O O11 0.293296 0.901330 0.763839
O O12 0.500000 0.500000 0.500000
O O13 0.660732 0.558702 0.834343
#
# Coordination Sequence:
#
# PCOD9056724 Si02
#       6
#     2   2   2   2   2   2
#     4  11  22  40  67  96 127 170 215 259 319 380
#     4  11  26  44  64  96 135 164 215 267 323 376
#     4  12  23  40  66 100 125 168 219 261 313 381
#     4  12  22  42  67  96 130 166 215 263 313 386
#     4  11  23  40  67  98 126 169 217 263 314 382
#     4  11  26  45  64  95 132 173 207 269 326 372
#
# _framework density 23.411238999999998
#
# number of rings (size 3 to 8) (size 9 to 14) (size 15 to 20)
#    0.000    0.667    6.667    1.000    2.333    3.333 
#    0.000    5.000    0.000    0.000    0.000    0.000 
#    0.000    0.000    0.000    0.000    0.000    0.000 
#
# Total GULP energy -66993.854174 kJ/mol
# GULP energy per Si atom -5582.821181 kJ/mol
# Density = 2.335795 g / cm^3
# Si number density = 23.411239 Si / 1000 Ang^3
#
#
#
# Elastic Constant Matrix: (Units=GPa)
#
#
# Indices 1 2 3 4 5 6 
#
# 1 42.9381 21.9064 11.1941 -5.7767 3.2906 -3.3821
# 2 21.9064 202.5539 89.2859 -1.6535 13.5798 -0.7253
# 3 11.1941 89.2859 144.6522 14.5555 10.8533 -2.8226
# 4 -5.7767 -1.6535 14.5555 57.2309 -6.1653 4.8215
# 5 3.2906 13.5798 10.8533 -6.1653 23.7188 3.0078
# 6 -3.3821 -0.7253 -2.8226 4.8215 3.0078 33.7182
#
#
#
# Elastic Compliance Matrix: (Units=1/GPa)
#
#
# Indices 1 2 3 4 5 6 
#
# 1 0.025238 -0.002345 -0.000570 0.002263 -0.001596 0.002252
# 2 -0.002345 0.007162 -0.004223 0.000913 -0.001551 -0.000427
# 3 -0.000570 -0.004223 0.010155 -0.003226 -0.003172 0.001446
# 4 0.002263 0.000913 -0.003226 0.019492 0.006131 -0.003358
# 5 -0.001596 -0.001551 -0.003172 0.006131 0.047016 -0.005530
# 6 0.002252 -0.000427 0.001446 -0.003358 -0.005530 0.030969
#
#
# Mechanical properties :
#
#
# Convention : Reuss Voigt Hill
#
# Bulk Modulus (GPa) = 35.36132 70.54633 52.95383
# Shear Modulus (GPa) = 30.53740 40.78412 35.66076
#
# Velocity S-wave (km/s) = 3.61555 4.17834 3.90710
# Velocity P-wave (km/s) = 5.70674 7.31280 6.55911
#
# Compressibility (1/GPa) = 0.02827948
#
# Stress axis : x y z
#
# Youngs Moduli (GPa) = 39.62232 139.62535 98.47691
#
# Poissons Ratio (x) = 0.32740 0.05611
# Poissons Ratio (y) = 0.09291 0.41588
# Poissons Ratio (z) = 0.02258 0.58965
#
# Static dielectric constant tensor:
#      x y z
#    x 2.191210 -0.080680 -0.037420 
#    y -0.080680 1.859420 0.096300 
#    z -0.037420 0.096300 1.983200 
# 
# From -- ./inp_files/173777.got.cif
#   From: 2010.05.17/outbox.cif.g08.bks.cpg/sg2_87_cif.got.tgz:173777.got - 2010.06.03 11:33:40.
