data_PCOD9056583
_publ_section_title
;
Structure prediction by ZEFSAII (Michael W. Deem and Ramdas Pophale) SiO2 
 PCOD9056583
Probable space group: P -1
;
_chemical_formula_sum "Si O2"
_cell_formula_units_Z 14
_cell_length_a 29.372205
_cell_length_b 29.128243
_cell_length_c 15.557332
_cell_angle_alpha 16.416914
_cell_angle_beta 16.799094
_cell_angle_gamma 10.128491
_cell_volume 638.353383
_symmetry_space_group_name_H-M "P -1"
_symmetry_group_IT_number 2
_symmetry_cell_setting 'triclinic'
loop_
_space_group_symop_operation_xyz
x,y,z
-x,-y,-z
loop_
_atom_site_type_symbol
_atom_site_label
_atom_site_fract_x
_atom_site_fract_y
_atom_site_fract_z
Si Si1 0.505453 0.162512 0.750066
Si Si2 0.427396 0.427042 0.572900
Si Si3 0.056135 0.752582 0.419009
Si Si4 0.911743 0.937384 0.702910
Si Si5 0.170879 0.025190 0.744480
Si Si6 0.646070 0.554970 0.846209
Si Si7 0.241979 0.253279 0.568420
O O1 0.412502 0.277801 0.808252
O O2 0.305318 0.437835 0.560727
O O3 0.817264 0.954294 0.557552
O O4 0.500000 0.000000 0.000000
O O5 0.156334 0.691073 0.639525
O O6 0.495792 0.522269 0.215444
O O7 0.664780 0.207471 0.607029
O O8 0.913338 0.813210 0.480556
O O9 0.167483 0.840584 0.052744
O O10 0.000000 0.000000 0.500000
O O11 0.829269 0.843348 0.071561
O O12 0.928494 0.263167 0.820182
O O13 0.456590 0.801961 0.674625
O O14 0.698765 0.640773 0.670509
O O15 0.000000 0.500000 0.500000
O O16 0.500000 0.000000 0.500000
#
# Coordination Sequence:
#
# PCOD9056583 Si02
#       7
#     2   2   2   2   2   2   2
#     4  12  25  42  65  96 141 188 228 278 339 408
#     4  12  24  44  69  99 138 178 228 274 343 414
#     4  11  22  42  62  96 136 174 234 279 331 391
#     4  12  26  46  72 101 134 176 221 280 350 416
#     4  11  22  39  69  95 130 180 228 284 333 386
#     4  12  23  42  70 100 135 178 232 286 337 405
#     4  12  26  47  70 101 135 171 221 283 350 409
#
# _framework density 21.931425999999998
#
# number of rings (size 3 to 8) (size 9 to 14) (size 15 to 20)
#    0.000    0.286    2.857    6.857    0.000    5.714 
#    0.000    0.000    0.000    0.000    0.000    0.000 
#    0.000    0.000    0.000    0.000    0.000    0.000 
#
# Total GULP energy -78343.360833 kJ/mol
# GULP energy per Si atom -5595.954345 kJ/mol
# Density = 2.188151 g / cm^3
# Si number density = 21.931426 Si / 1000 Ang^3
#
#
#
# Elastic Constant Matrix: (Units=GPa)
#
#
# Indices 1 2 3 4 5 6 
#
# 1 136.8062 49.6912 26.0301 -31.5740 -19.6252 -28.2734
# 2 49.6912 185.9226 14.1139 -45.9110 18.3596 -48.1049
# 3 26.0301 14.1139 59.9122 -3.3911 -14.2418 21.1968
# 4 -31.5740 -45.9110 -3.3911 36.2694 -8.6333 24.1833
# 5 -19.6252 18.3596 -14.2418 -8.6333 46.5009 -14.4830
# 6 -28.2734 -48.1049 21.1968 24.1833 -14.4830 91.1152
#
#
#
# Elastic Compliance Matrix: (Units=1/GPa)
#
#
# Indices 1 2 3 4 5 6 
#
# 1 0.011887 -0.000559 -0.004049 0.008797 0.006579 0.003046
# 2 -0.000559 0.008555 -0.002752 0.007863 -0.002204 0.002546
# 3 -0.004049 -0.002752 0.022902 0.001276 0.004230 -0.007704
# 4 0.008797 0.007863 0.001276 0.051112 0.008747 -0.005592
# 5 0.006579 -0.002204 0.004230 0.008747 0.028738 0.002141
# 6 0.003046 0.002546 -0.007704 -0.005592 0.002141 0.016881
#
#
# Mechanical properties :
#
#
# Convention : Reuss Voigt Hill
#
# Bulk Modulus (GPa) = 34.93584 62.47904 48.70744
# Shear Modulus (GPa) = 30.42571 54.29747 42.36159
#
# Velocity S-wave (km/s) = 3.72870 4.98112 4.39971
# Velocity P-wave (km/s) = 5.87382 7.85063 6.93304
#
# Compressibility (1/GPa) = 0.02862390
#
# Stress axis : x y z
#
# Youngs Moduli (GPa) = 84.12889 116.89153 43.66508
#
# Poissons Ratio (x) = 0.06532 0.17678
# Poissons Ratio (y) = 0.04701 0.12017
# Poissons Ratio (z) = 0.34060 0.32170
#
# Static dielectric constant tensor:
#      x y z
#    x 1.805010 0.013640 0.029550 
#    y 0.013640 1.742000 0.030330 
#    z 0.029550 0.030330 1.842720 
# 
# From -- ./inp_files/48243.got.cif
#   From: 2010.05.17/outbox.cif.g08.bks.cpg/sg2_25_cif.got.tgz:48243.got - 2010.06.03 11:33:40.
