data_PCOD9056652
_publ_section_title
;
Structure prediction by ZEFSAII (Michael W. Deem and Ramdas Pophale) SiO2 
 PCOD9056652
Probable space group: P -1
;
_chemical_formula_sum "Si O2"
_cell_formula_units_Z 14
_cell_length_a 9.253354
_cell_length_b 19.849050
_cell_length_c 16.781926
_cell_angle_alpha 19.567370
_cell_angle_beta 49.256232
_cell_angle_gamma 38.687112
_cell_volume 592.634353
_symmetry_space_group_name_H-M "P -1"
_symmetry_group_IT_number 2
_symmetry_cell_setting 'triclinic'
loop_
_space_group_symop_operation_xyz
x,y,z
-x,-y,-z
loop_
_atom_site_type_symbol
_atom_site_label
_atom_site_fract_x
_atom_site_fract_y
_atom_site_fract_z
Si Si1 0.197147 0.013817 0.096860
Si Si2 0.699811 0.650463 0.232057
Si Si3 0.741749 0.472469 0.934077
Si Si4 0.216684 0.845440 0.444021
Si Si5 0.047857 0.082905 0.809462
Si Si6 0.883782 0.541857 0.102444
Si Si7 0.465965 0.118884 0.588863
O O1 0.405667 0.875777 0.106175
O O2 0.298670 0.813954 0.357551
O O3 0.940711 0.094819 0.065587
O O4 0.174845 0.251537 0.874214
O O5 0.774351 0.611569 0.156006
O O6 0.810445 0.375894 0.538243
O O7 0.671516 0.669530 0.667790
O O8 0.841012 0.550540 0.881844
O O9 0.500000 0.500000 0.000000
O O10 0.971253 0.157136 0.191396
O O11 0.144255 0.665227 0.687201
O O12 0.426832 0.796114 0.480404
O O13 0.275049 0.082254 0.731687
O O14 0.000000 0.000000 0.000000
O O15 0.709180 0.820113 0.808835
#
# Coordination Sequence:
#
# PCOD9056652 Si02
#       7
#     2   2   2   2   2   2   2
#     4  11  22  40  65  88 135 184 224 265 333 386
#     4  11  22  41  62  92 140 182 221 273 321 394
#     4  11  25  49  73  98 136 174 221 288 347 404
#     4  11  24  43  72  99 136 182 220 281 342 397
#     4  12  25  38  62 100 138 184 227 266 325 397
#     4  11  23  45  69 100 140 178 221 279 341 393
#     4  11  24  45  67 103 135 173 232 279 328 410
#
# _framework density 23.623334
#
# number of rings (size 3 to 8) (size 9 to 14) (size 15 to 20)
#    0.000    0.857    5.714    1.286    4.000    6.857 
#    0.000    1.429    0.000    0.000    0.000    0.000 
#    0.000    0.000    0.000    0.000    0.000    0.000 
#
# Total GULP energy -78308.325763 kJ/mol
# GULP energy per Si atom -5593.451840 kJ/mol
# Density = 2.356957 g / cm^3
# Si number density = 23.623334 Si / 1000 Ang^3
#
#
#
# Elastic Constant Matrix: (Units=GPa)
#
#
# Indices 1 2 3 4 5 6 
#
# 1 195.0555 39.9864 68.3469 -2.5944 -32.4881 -28.5563
# 2 39.9864 63.3329 22.6327 15.8364 -2.8244 -20.0719
# 3 68.3469 22.6327 121.0663 2.6839 -10.9101 -8.1145
# 4 -2.5944 15.8364 2.6839 18.4534 -12.0788 -4.1310
# 5 -32.4881 -2.8244 -10.9101 -12.0788 52.4474 10.1270
# 6 -28.5563 -20.0719 -8.1145 -4.1310 10.1270 35.8318
#
#
#
# Elastic Compliance Matrix: (Units=1/GPa)
#
#
# Indices 1 2 3 4 5 6 
#
# 1 0.009560 -0.007012 -0.003557 0.013246 0.007407 0.002319
# 2 -0.007012 0.032845 -0.001795 -0.034922 -0.013336 0.012148
# 3 -0.003557 -0.001795 0.010518 -0.000841 -0.000006 -0.001554
# 4 0.013246 -0.034922 -0.000841 0.105491 0.031596 -0.005964
# 5 0.007407 -0.013336 -0.000006 0.031596 0.031533 -0.006838
# 6 0.002319 0.012148 -0.001554 -0.005964 -0.006838 0.037454
#
#
# Mechanical properties :
#
#
# Convention : Reuss Voigt Hill
#
# Bulk Modulus (GPa) = 35.46694 71.26518 53.36606
# Shear Modulus (GPa) = 19.11847 37.91245 28.51546
#
# Velocity S-wave (km/s) = 2.84791 4.01043 3.47809
# Velocity P-wave (km/s) = 5.08530 7.18871 6.22647
#
# Compressibility (1/GPa) = 0.02819527
#
# Stress axis : x y z
#
# Youngs Moduli (GPa) = 104.60390 30.44561 95.07911
#
# Poissons Ratio (x) = 0.21347 0.33818
# Poissons Ratio (y) = 0.73343 0.17071
# Poissons Ratio (z) = 0.37206 0.05466
#
# Static dielectric constant tensor:
#      x y z
#    x 1.922530 -0.008390 -0.031760 
#    y -0.008390 1.955520 -0.005010 
#    z -0.031760 -0.005010 1.888810 
# 
# From -- ./inp_files/315633.got.cif
#   From: 2010.05.17/outbox.cif.g08.bks.cpg/sg2_158_cif.got.tgz:315633.got - 2010.06.03 11:33:40.
