data_PCOD9056704
_publ_section_title
;
Structure prediction by ZEFSAII (Michael W. Deem and Ramdas Pophale) SiO2 
 PCOD9056704
Probable space group: P -1
;
_chemical_formula_sum "Si O2"
_cell_formula_units_Z 16
_cell_length_a 9.310700
_cell_length_b 12.416292
_cell_length_c 18.077816
_cell_angle_alpha 29.278350
_cell_angle_beta 40.085082
_cell_angle_gamma 40.317256
_cell_volume 627.387822
_symmetry_space_group_name_H-M "P -1"
_symmetry_group_IT_number 2
_symmetry_cell_setting 'triclinic'
loop_
_space_group_symop_operation_xyz
x,y,z
-x,-y,-z
loop_
_atom_site_type_symbol
_atom_site_label
_atom_site_fract_x
_atom_site_fract_y
_atom_site_fract_z
Si Si1 0.154360 0.914965 0.780864
Si Si2 0.272256 0.160361 0.716499
Si Si3 0.904047 0.524955 0.114460
Si Si4 0.181293 0.137075 0.329076
Si Si5 0.616316 0.563925 0.839724
Si Si6 0.440982 0.697906 0.118861
Si Si7 0.190492 0.664739 0.391832
Si Si8 0.610201 0.784623 0.204433
O O1 0.423598 0.774543 0.749528
O O2 0.145232 0.003355 0.816784
O O3 0.053637 0.133702 0.636892
O O4 0.006411 0.738117 0.938010
O O5 0.191824 0.408451 0.561002
O O6 0.242014 0.207016 0.786587
O O7 0.552945 0.031486 0.676908
O O8 0.709454 0.539494 0.120585
O O9 0.752244 0.587453 0.211533
O O10 0.100385 0.284347 0.197401
O O11 0.186587 0.329937 0.272888
O O12 0.000000 0.000000 0.500000
O O13 0.660396 0.363723 0.881463
O O14 0.500000 0.500000 0.000000
O O15 0.299691 0.665791 0.266178
O O16 0.442941 0.961218 0.961071
O O17 0.363132 0.732874 0.341451
#
# Coordination Sequence:
#
# PCOD9056704 Si02
#       8
#     2   2   2   2   2   2   2   2
#     4  11  22  42  65  98 134 173 225 279 326 395
#     4  11  26  42  67  95 139 176 221 279 333 390
#     4  11  22  41  68 101 133 173 230 270 331 401
#     4  11  24  45  67  95 139 176 216 275 342 401
#     4  11  24  43  67 102 136 167 226 282 326 394
#     4  11  22  41  70  96 131 176 221 277 330 394
#     4  11  22  45  63  96 135 177 222 271 333 399
#     4  11  22  40  67 100 131 175 226 276 326 393
#
# _framework density 25.502568
#
# number of rings (size 3 to 8) (size 9 to 14) (size 15 to 20)
#    0.000    1.000    3.750    4.500    0.000    3.000 
#    0.000    8.125    0.000    0.000    0.000    0.000 
#    0.000    0.000    0.000    0.000    0.000    0.000 
#
# Total GULP energy -89646.040620 kJ/mol
# GULP energy per Si atom -5602.877539 kJ/mol
# Density = 2.544452 g / cm^3
# Si number density = 25.502568 Si / 1000 Ang^3
#
#
#
# Elastic Constant Matrix: (Units=GPa)
#
#
# Indices 1 2 3 4 5 6 
#
# 1 139.4340 32.4471 35.7078 -5.3773 -13.5230 -2.5912
# 2 32.4471 62.0485 17.7881 -18.8573 0.3987 -5.7996
# 3 35.7078 17.7881 100.7386 -26.4270 1.0846 -7.1243
# 4 -5.3773 -18.8573 -26.4270 26.1534 -4.4566 12.1862
# 5 -13.5230 0.3987 1.0846 -4.4566 39.6116 -17.8532
# 6 -2.5912 -5.7996 -7.1243 12.1862 -17.8532 63.3372
#
#
#
# Elastic Compliance Matrix: (Units=1/GPa)
#
#
# Indices 1 2 3 4 5 6 
#
# 1 0.009642 -0.005688 -0.003993 -0.006315 0.003478 0.001620
# 2 -0.005688 0.024126 0.002822 0.019747 -0.000823 -0.001737
# 3 -0.003993 0.002822 0.015278 0.017337 -0.000625 -0.001698
# 4 -0.006315 0.019747 0.017337 0.073699 0.000743 -0.010470
# 5 0.003478 -0.000823 -0.000625 0.000743 0.030328 0.008402
# 6 0.001620 -0.001737 -0.001698 -0.010470 0.008402 0.019888
#
#
# Mechanical properties :
#
#
# Convention : Reuss Voigt Hill
#
# Bulk Modulus (GPa) = 28.30509 52.67856 40.49182
# Shear Modulus (GPa) = 25.19477 40.23899 32.71688
#
# Velocity S-wave (km/s) = 3.14655 3.97651 3.58563
# Velocity P-wave (km/s) = 4.93194 6.46410 5.74929
#
# Compressibility (1/GPa) = 0.03532934
#
# Stress axis : x y z
#
# Youngs Moduli (GPa) = 103.71553 41.44949 65.45226
#
# Poissons Ratio (x) = 0.23574 0.26135
# Poissons Ratio (y) = 0.58988 -0.18472
# Poissons Ratio (z) = 0.41413 -0.11698
#
# Static dielectric constant tensor:
#      x y z
#    x 2.031370 -0.013280 0.021020 
#    y -0.013280 2.142670 0.008430 
#    z 0.021020 0.008430 1.958720 
# 
# From -- ./inp_files/559500.got.cif
#   From: 2010.05.17/outbox.cif.g08.bks.cpg/sg2_280_cif.got.tgz:559500.got - 2010.06.03 11:33:40.
