data_PCOD9056875
_publ_section_title
;
Structure prediction by ZEFSAII (Michael W. Deem and Ramdas Pophale) SiO2 
 PCOD9056875
Probable space group: P -1
;
_chemical_formula_sum "Si O2"
_cell_formula_units_Z 16
_cell_length_a 9.036321
_cell_length_b 9.633384
_cell_length_c 10.301906
_cell_angle_alpha 104.440239
_cell_angle_beta 118.776425
_cell_angle_gamma 73.976151
_cell_volume 748.238903
_symmetry_space_group_name_H-M "P -1"
_symmetry_group_IT_number 2
_symmetry_cell_setting 'triclinic'
loop_
_space_group_symop_operation_xyz
x,y,z
-x,-y,-z
loop_
_atom_site_type_symbol
_atom_site_label
_atom_site_fract_x
_atom_site_fract_y
_atom_site_fract_z
Si Si1 0.511737 0.753507 0.716826
Si Si2 0.198927 0.106781 0.021079
Si Si3 0.899313 0.327832 0.017234
Si Si4 0.824236 0.097852 0.396289
Si Si5 0.724248 0.803017 0.198361
Si Si6 0.361773 0.776441 0.950898
Si Si7 0.803878 0.486966 0.750803
Si Si8 0.978294 0.360155 0.539623
O O1 0.344201 0.819358 0.577142
O O2 0.429219 0.748621 0.825788
O O3 0.623390 0.598024 0.693270
O O4 0.652722 0.857964 0.812566
O O5 0.206019 0.213994 0.924093
O O6 0.253501 0.940530 0.961195
O O7 0.010282 0.164933 0.009161
O O8 0.754180 0.330629 0.064778
O O9 0.041663 0.422144 0.139902
O O10 0.814233 0.384902 0.857938
O O11 0.905523 0.232287 0.402700
O O12 0.736218 0.970894 0.267956
O O13 0.000000 0.000000 0.500000
O O14 0.843494 0.708531 0.331093
O O15 0.533425 0.772861 0.106918
O O16 0.850331 0.406710 0.616571
O O17 0.000000 0.500000 0.500000
#
# Coordination Sequence:
#
# PCOD9056875 Si02
#       8
#     2   2   2   2   2   2   2   2
#     4  10  20  36  62  91 120 160 202 250 312 369
#     4  10  17  36  63  93 125 155 191 261 319 362
#     4  10  22  36  60  94 128 159 192 260 314 366
#     4  10  21  39  64  87 117 170 209 249 306 360
#     4  10  19  40  65  90 123 155 214 255 310 360
#     4  11  20  33  66 100 117 153 205 263 306 368
#     4  10  23  42  57  85 131 164 200 247 321 366
#     4  11  25  41  65  87 121 173 214 251 293 375
#
# _framework density 21.383543
#
# number of rings (size 3 to 8) (size 9 to 14) (size 15 to 20)
#    0.000    1.750    3.750    1.125    3.500    2.000 
#    0.000    0.000    0.000    2.250    0.000    0.000 
#    0.000    0.000    0.000    0.000    0.000    0.000 
#
# Total GULP energy -89127.688703 kJ/mol
# GULP energy per Si atom -5570.480544 kJ/mol
# Density = 2.133487 g / cm^3
# Si number density = 21.383543 Si / 1000 Ang^3
#
#
#
# Elastic Constant Matrix: (Units=GPa)
#
#
# Indices 1 2 3 4 5 6 
#
# 1 105.1400 33.8722 21.2734 -11.3459 11.2592 -7.7001
# 2 33.8722 97.2876 28.3608 -9.8474 8.3760 -1.1038
# 3 21.2734 28.3608 48.2828 -8.8452 14.0327 -4.9532
# 4 -11.3459 -9.8474 -8.8452 26.6401 -9.7836 2.8445
# 5 11.2592 8.3760 14.0327 -9.7836 31.7845 -6.3080
# 6 -7.7001 -1.1038 -4.9532 2.8445 -6.3080 34.7421
#
#
#
# Elastic Compliance Matrix: (Units=1/GPa)
#
#
# Indices 1 2 3 4 5 6 
#
# 1 0.011442 -0.002931 -0.002369 0.002395 -0.001160 0.001698
# 2 -0.002931 0.013315 -0.006522 0.001914 0.000765 -0.001174
# 3 -0.002369 -0.006522 0.028865 0.002674 -0.009061 0.001519
# 4 0.002395 0.001914 0.002674 0.044247 0.010955 -0.000661
# 5 -0.001160 0.000765 -0.009061 0.010955 0.040005 0.004842
# 6 0.001698 -0.001174 0.001519 -0.000661 0.004842 0.030272
#
#
# Mechanical properties :
#
#
# Convention : Reuss Voigt Hill
#
# Bulk Modulus (GPa) = 33.35802 46.41367 39.88585
# Shear Modulus (GPa) = 24.77899 29.78025 27.27962
#
# Velocity S-wave (km/s) = 3.40779 3.73590 3.57561
# Velocity P-wave (km/s) = 5.57833 6.35309 5.97827
#
# Compressibility (1/GPa) = 0.02997780
#
# Stress axis : x y z
#
# Youngs Moduli (GPa) = 87.39715 75.10215 34.64371
#
# Poissons Ratio (x) = 0.22016 0.08208
# Poissons Ratio (y) = 0.25620 0.22594
# Poissons Ratio (z) = 0.20706 0.48980
#
# Static dielectric constant tensor:
#      x y z
#    x 1.780890 -0.038740 -0.017320 
#    y -0.038740 1.811320 0.001570 
#    z -0.017320 0.001570 1.927290 
# 
# From -- ./inp_files/271476.got.cif
#   From: 2010.05.17/outbox.cif.g08.bks.cpg/sg2_136_cif.got.tgz:271476.got - 2010.06.03 11:33:40.
