data_PCOD9056925
_publ_section_title
;
Structure prediction by ZEFSAII (Michael W. Deem and Ramdas Pophale) SiO2 
 PCOD9056925
Probable space group: P -1
;
_chemical_formula_sum "Si O2"
_cell_formula_units_Z 16
_cell_length_a 9.374186
_cell_length_b 8.228334
_cell_length_c 16.177607
_cell_angle_alpha 77.774607
_cell_angle_beta 108.661765
_cell_angle_gamma 51.326362
_cell_volume 766.798043
_symmetry_space_group_name_H-M "P -1"
_symmetry_group_IT_number 2
_symmetry_cell_setting 'triclinic'
loop_
_space_group_symop_operation_xyz
x,y,z
-x,-y,-z
loop_
_atom_site_type_symbol
_atom_site_label
_atom_site_fract_x
_atom_site_fract_y
_atom_site_fract_z
Si Si1 0.641318 0.174115 0.848821
Si Si2 0.790648 0.632480 0.164869
Si Si3 0.358872 0.090694 0.594120
Si Si4 0.957264 0.672221 0.045160
Si Si5 0.379368 0.441751 0.253612
Si Si6 0.207980 0.056124 0.281593
Si Si7 0.264641 0.658864 0.393489
Si Si8 0.005977 0.550937 0.380847
O O1 0.431885 0.259832 0.846820
O O2 0.585947 0.415246 0.804996
O O3 0.688829 0.073899 0.774942
O O4 0.865267 0.922015 0.964872
O O5 0.770239 0.761924 0.066151
O O6 0.918332 0.621966 0.263966
O O7 0.971104 0.345258 0.200241
O O8 0.594656 0.993249 0.636821
O O9 0.193965 0.255514 0.467727
O O10 0.209804 0.296091 0.617107
O O11 0.418806 0.855310 0.659839
O O12 0.185223 0.507824 0.158445
O O13 0.000000 0.500000 0.000000
O O14 0.304834 0.557374 0.319249
O O15 0.158513 0.927904 0.335383
O O16 0.500000 0.500000 0.500000
O O17 0.120986 0.633545 0.413184
#
# Coordination Sequence:
#
# PCOD9056925 Si02
#       8
#     2   2   2   2   2   2   2   2
#     4  11  25  45  65 100 134 170 231 281 330 398
#     4  12  24  43  71  99 128 186 219 276 338 401
#     4  11  22  42  64  97 135 181 218 277 329 403
#     4  12  23  46  73  96 131 182 226 279 340 391
#     4  11  25  43  68  95 136 179 218 281 340 387
#     4  11  22  41  65  94 136 168 226 275 330 394
#     4  11  23  40  65  98 133 174 219 278 329 404
#     4  11  24  40  67 100 136 177 229 268 334 408
#
# _framework density 20.865988000000002
#
# number of rings (size 3 to 8) (size 9 to 14) (size 15 to 20)
#    0.000    0.750    6.250    0.750    3.500    1.000 
#    0.000    1.875    0.000    0.000    0.000    0.000 
#    0.000    0.000    0.000    0.000    0.000    0.000 
#
# Total GULP energy -89324.000798 kJ/mol
# GULP energy per Si atom -5582.750050 kJ/mol
# Density = 2.081850 g / cm^3
# Si number density = 20.865988 Si / 1000 Ang^3
#
#
#
# Elastic Constant Matrix: (Units=GPa)
#
#
# Indices 1 2 3 4 5 6 
#
# 1 92.4085 29.0527 39.4522 -3.5927 -11.2784 -0.1664
# 2 29.0527 70.2301 31.8328 -7.8749 -4.6759 2.7914
# 3 39.4522 31.8328 75.9868 -5.4523 -8.6399 8.0105
# 4 -3.5927 -7.8749 -5.4523 48.1740 7.0352 -10.1223
# 5 -11.2784 -4.6759 -8.6399 7.0352 34.0803 -4.0163
# 6 -0.1664 2.7914 8.0105 -10.1223 -4.0163 30.7766
#
#
#
# Elastic Compliance Matrix: (Units=1/GPa)
#
#
# Indices 1 2 3 4 5 6 
#
# 1 0.014907 -0.003207 -0.006292 -0.000088 0.003199 0.002398
# 2 -0.003207 0.018504 -0.006035 0.002289 -0.000458 0.000568
# 3 -0.006292 -0.006035 0.019583 -0.000423 0.001610 -0.004513
# 4 -0.000088 0.002289 -0.000423 0.023100 -0.003765 0.007008
# 5 0.003199 -0.000458 0.001610 -0.003765 0.031825 0.002555
# 6 0.002398 0.000568 -0.004513 0.007008 0.002555 0.036267
#
#
# Mechanical properties :
#
#
# Convention : Reuss Voigt Hill
#
# Bulk Modulus (GPa) = 45.60310 48.81120 47.20715
# Shear Modulus (GPa) = 27.38787 31.82536 29.60662
#
# Velocity S-wave (km/s) = 3.62686 3.90965 3.77091
# Velocity P-wave (km/s) = 6.28024 6.61997 6.45234
#
# Compressibility (1/GPa) = 0.02192833
#
# Stress axis : x y z
#
# Youngs Moduli (GPa) = 67.08141 54.04092 51.06414
#
# Poissons Ratio (x) = 0.17332 0.32127
# Poissons Ratio (y) = 0.21515 0.30815
# Poissons Ratio (z) = 0.42205 0.32611
#
# Static dielectric constant tensor:
#      x y z
#    x 1.768230 0.024640 -0.043720 
#    y 0.024640 1.739440 -0.009870 
#    z -0.043720 -0.009870 1.795790 
# 
# From -- ./inp_files/188911.got.cif
#   From: 2010.05.17/outbox.cif.g08.bks.cpg/sg2_95_cif.got.tgz:188911.got - 2010.06.03 11:33:40.
