data_PCOD9056035
_publ_section_title
;
Structure prediction by ZEFSAII (Michael W. Deem and Ramdas Pophale) SiO2 
 PCOD9056035
Probable space group: P -1
;
_chemical_formula_sum "Si O2"
_cell_formula_units_Z 16
_cell_length_a 11.952300
_cell_length_b 12.009349
_cell_length_c 11.884413
_cell_angle_alpha 144.395662
_cell_angle_beta 111.235252
_cell_angle_gamma 93.484369
_cell_volume 699.747861
_symmetry_space_group_name_H-M "P -1"
_symmetry_group_IT_number 2
_symmetry_cell_setting 'triclinic'
loop_
_space_group_symop_operation_xyz
x,y,z
-x,-y,-z
loop_
_atom_site_type_symbol
_atom_site_label
_atom_site_fract_x
_atom_site_fract_y
_atom_site_fract_z
Si Si1 0.301149 0.077414 0.603435
Si Si2 0.274188 0.766229 0.157898
Si Si3 0.905176 0.355138 0.661899
Si Si4 0.709995 0.518445 0.674004
Si Si5 0.206648 0.358639 0.448414
Si Si6 0.341010 0.084752 0.228921
Si Si7 0.360502 0.499881 0.848665
Si Si8 0.138964 0.908096 0.805031
O O1 0.278867 0.212777 0.610219
O O2 0.345646 0.933112 0.432408
O O3 0.157728 0.871291 0.461355
O O4 0.449579 0.308781 0.919572
O O5 0.334832 0.933079 0.204650
O O6 0.306590 0.578917 0.995504
O O7 0.084822 0.597198 0.953540
O O8 0.795770 0.429766 0.692036
O O9 0.892803 0.251541 0.447574
O O10 0.737213 0.509855 0.543729
O O11 0.523264 0.331097 0.476891
O O12 0.787706 0.806717 0.964308
O O13 0.238367 0.164051 0.290644
O O14 0.307080 0.523441 0.729010
O O15 0.026564 0.225145 0.300747
O O16 0.259425 0.935132 0.959525
#
# Coordination Sequence:
#
# PCOD9056035 Si02
#       8
#     2   2   2   2   2   2   2   2
#     4  11  27  46  67  98 138 176 233 279 330 401
#     4  12  24  46  69  99 138 180 225 279 339 395
#     4  12  27  43  71 104 136 181 228 274 338 409
#     4  11  26  42  70 106 140 176 220 284 338 408
#     4  11  21  45  70 101 140 176 224 272 348 399
#     4  11  24  43  72 102 142 177 220 282 342 402
#     4  11  25  44  73  97 129 186 224 282 335 400
#     4  11  24  43  69 104 139 180 219 279 340 407
#
# _framework density 22.865379000000001
#
# number of rings (size 3 to 8) (size 9 to 14) (size 15 to 20)
#    0.000    0.750    2.500    6.000    5.250    3.000 
#    0.000    0.000    0.000    0.000    0.000    0.000 
#    0.000    0.000    0.000    0.000    0.000    0.000 
#
# Total GULP energy -89561.312437 kJ/mol
# GULP energy per Si atom -5597.582027 kJ/mol
# Density = 2.281334 g / cm^3
# Si number density = 22.865379 Si / 1000 Ang^3
#
#
#
# Elastic Constant Matrix: (Units=GPa)
#
#
# Indices 1 2 3 4 5 6 
#
# 1 43.9591 -1.2500 -1.7713 -0.1550 -7.5041 -5.9482
# 2 -1.2500 78.1206 35.5956 21.6543 5.6730 3.8709
# 3 -1.7713 35.5956 65.1998 -1.8632 17.3077 4.5802
# 4 -0.1550 21.6543 -1.8632 24.3107 4.6815 0.3354
# 5 -7.5041 5.6730 17.3077 4.6815 26.9523 -1.9634
# 6 -5.9482 3.8709 4.5802 0.3354 -1.9634 23.8821
#
#
#
# Elastic Compliance Matrix: (Units=1/GPa)
#
#
# Indices 1 2 3 4 5 6 
#
# 1 0.025463 0.002278 -0.003995 -0.004297 0.010479 0.007661
# 2 0.002278 0.029615 -0.020494 -0.030443 0.012935 0.001189
# 3 -0.003995 -0.020494 0.033805 0.025413 -0.023390 -0.006436
# 4 -0.004297 -0.030443 0.025413 0.074930 -0.024419 -0.004070
# 5 0.010479 0.012935 -0.023390 -0.024419 0.057291 0.010052
# 6 0.007661 0.001189 -0.006436 -0.004070 0.010052 0.045706
#
#
# Mechanical properties :
#
#
# Convention : Reuss Voigt Hill
#
# Bulk Modulus (GPa) = 22.49126 28.04758 25.26942
# Shear Modulus (GPa) = 15.33502 25.34271 20.33886
#
# Velocity S-wave (km/s) = 2.59253 3.33279 2.98569
# Velocity P-wave (km/s) = 4.33813 5.20606 4.79178
#
# Compressibility (1/GPa) = 0.04446171
#
# Stress axis : x y z
#
# Youngs Moduli (GPa) = 39.27334 33.76612 29.58158
#
# Poissons Ratio (x) = -0.07692 0.11817
# Poissons Ratio (y) = -0.08946 0.60624
# Poissons Ratio (z) = 0.15689 0.69200
#
# Static dielectric constant tensor:
#      x y z
#    x 1.845390 -0.019250 -0.029930 
#    y -0.019250 1.835430 -0.009750 
#    z -0.029930 -0.009750 1.856780 
# 
# From -- ./inp_files/398882.got.cif
#   From: 2010.05.17/outbox.cif.g08.bks.cpg/sg2_200_cif.got.tgz:398882.got - 2010.06.03 11:33:40.
