data_PCOD9056155
_publ_section_title
;
Structure prediction by ZEFSAII (Michael W. Deem and Ramdas Pophale) SiO2 
 PCOD9056155
Probable space group: P -1
;
_chemical_formula_sum "Si O2"
_cell_formula_units_Z 14
_cell_length_a 8.467203
_cell_length_b 8.292554
_cell_length_c 9.511508
_cell_angle_alpha 93.481967
_cell_angle_beta 59.950617
_cell_angle_gamma 76.787403
_cell_volume 550.486749
_symmetry_space_group_name_H-M "P -1"
_symmetry_group_IT_number 2
_symmetry_cell_setting 'triclinic'
loop_
_space_group_symop_operation_xyz
x,y,z
-x,-y,-z
loop_
_atom_site_type_symbol
_atom_site_label
_atom_site_fract_x
_atom_site_fract_y
_atom_site_fract_z
Si Si1 0.116338 0.957749 0.250911
Si Si2 0.723786 0.172804 0.427588
Si Si3 0.813902 0.514809 0.489576
Si Si4 0.496386 0.663596 0.097503
Si Si5 0.355761 0.192044 0.221131
Si Si6 0.760537 0.013582 0.118597
Si Si7 0.697242 0.713549 0.276349
O O1 0.181361 0.115897 0.286469
O O2 0.893435 0.007014 0.394796
O O3 0.277577 0.787239 0.219626
O O4 0.139157 0.963679 0.070184
O O5 0.760042 0.343618 0.476800
O O6 0.508020 0.178403 0.559304
O O7 0.754480 0.155567 0.245219
O O8 0.662216 0.652640 0.658480
O O9 0.816866 0.597206 0.339437
O O10 0.000000 0.500000 0.500000
O O11 0.620302 0.620345 0.180787
O O12 0.500000 0.500000 0.000000
O O13 0.603208 0.757478 0.950194
O O14 0.539512 0.045005 0.179033
O O15 0.810645 0.831475 0.161788
#
# Coordination Sequence:
#
# PCOD9056155 Si02
#       7
#     2   2   2   2   2   2   2
#     4  11  23  46  72 101 149 188 228 284 362 426
#     4  12  26  43  72 104 143 184 238 292 358 417
#     4  12  27  47  70 102 147 192 235 301 355 415
#     4  11  24  44  75 108 143 186 237 290 353 427
#     4  11  21  48  72  94 150 191 228 282 365 424
#     4  11  23  46  71 103 138 192 236 287 352 433
#     4  12  25  46  73 106 140 189 241 296 351 416
#
# _framework density 25.432039
#
# number of rings (size 3 to 8) (size 9 to 14) (size 15 to 20)
#    0.000    0.571    5.714    3.000    4.000    0.571 
#    5.143    1.429    0.000    0.000    0.000    0.000 
#    0.000    0.000    0.000    0.000    0.000    0.000 
#
# Total GULP energy -78362.619542 kJ/mol
# GULP energy per Si atom -5597.329967 kJ/mol
# Density = 2.537415 g / cm^3
# Si number density = 25.432039 Si / 1000 Ang^3
#
#
#
# Elastic Constant Matrix: (Units=GPa)
#
#
# Indices 1 2 3 4 5 6 
#
# 1 109.6691 45.7603 36.4176 -9.7287 28.2762 1.5521
# 2 45.7603 111.0478 49.5378 5.7773 29.1972 8.3254
# 3 36.4176 49.5378 121.5116 -12.8537 49.8657 6.5967
# 4 -9.7287 5.7773 -12.8537 52.6207 5.3966 22.7698
# 5 28.2762 29.1972 49.8657 5.3966 55.2750 9.9739
# 6 1.5521 8.3254 6.5967 22.7698 9.9739 43.3106
#
#
#
# Elastic Compliance Matrix: (Units=1/GPa)
#
#
# Indices 1 2 3 4 5 6 
#
# 1 0.012236 -0.004104 0.000284 0.003447 -0.004604 -0.000445
# 2 -0.004104 0.012850 -0.004030 -0.003123 -0.000767 0.000109
# 3 0.000284 -0.004030 0.015699 0.006563 -0.012420 -0.002217
# 4 0.003447 -0.003123 0.006563 0.028261 -0.006279 -0.013934
# 5 -0.004604 -0.000767 -0.012420 -0.006279 0.033049 -0.002106
# 6 -0.000445 0.000109 -0.002217 -0.013934 -0.002106 0.031232
#
#
# Mechanical properties :
#
#
# Convention : Reuss Voigt Hill
#
# Bulk Modulus (GPa) = 39.86519 67.29555 53.58037
# Shear Modulus (GPa) = 31.76847 44.27545 38.02196
#
# Velocity S-wave (km/s) = 3.53817 4.17697 3.87077
# Velocity P-wave (km/s) = 5.69216 7.05558 6.41022
#
# Compressibility (1/GPa) = 0.02508454
#
# Stress axis : x y z
#
# Youngs Moduli (GPa) = 81.72870 77.81958 63.69879
#
# Poissons Ratio (x) = 0.31940 -0.01811
# Poissons Ratio (y) = 0.33544 0.25671
# Poissons Ratio (z) = -0.02324 0.31362
#
# Static dielectric constant tensor:
#      x y z
#    x 2.081830 -0.056900 -0.008280 
#    y -0.056900 2.018100 -0.004830 
#    z -0.008280 -0.004830 2.039450 
# 
# From -- ./inp_files/158493.got.cif
#   From: 2010.05.17/outbox.cif.g08.bks.cpg/sg2_80_cif.got.tgz:158493.got - 2010.06.03 11:33:40.
