data_PCOD9056535
_publ_section_title
;
Structure prediction by ZEFSAII (Michael W. Deem and Ramdas Pophale) SiO2 
 PCOD9056535
Probable space group: P -1
;
_chemical_formula_sum "Si O2"
_cell_formula_units_Z 16
_cell_length_a 12.626478
_cell_length_b 14.810693
_cell_length_c 11.408040
_cell_angle_alpha 152.124245
_cell_angle_beta 69.718009
_cell_angle_gamma 129.232593
_cell_volume 625.741205
_symmetry_space_group_name_H-M "P -1"
_symmetry_group_IT_number 2
_symmetry_cell_setting 'triclinic'
loop_
_space_group_symop_operation_xyz
x,y,z
-x,-y,-z
loop_
_atom_site_type_symbol
_atom_site_label
_atom_site_fract_x
_atom_site_fract_y
_atom_site_fract_z
Si Si1 0.803818 0.223924 0.278385
Si Si2 0.347160 0.572856 0.332302
Si Si3 0.796079 0.225180 0.783202
Si Si4 0.835286 0.910232 0.561037
Si Si5 0.523789 0.723928 0.672686
Si Si6 0.258057 0.521113 0.719964
Si Si7 0.080958 0.960127 0.825963
Si Si8 0.792073 0.511358 0.934457
O O1 0.718326 0.303368 0.455260
O O2 0.000000 0.500000 0.500000
O O3 0.798384 0.040088 0.159431
O O4 0.708847 0.040466 0.987365
O O5 0.475584 0.662554 0.484934
O O6 0.193907 0.228127 0.005351
O O7 0.359262 0.613230 0.234932
O O8 0.765128 0.981226 0.577513
O O9 0.716473 0.278933 0.965976
O O10 0.743131 0.239578 0.692831
O O11 0.000000 0.500000 0.000000
O O12 0.751955 0.703687 0.471090
O O13 0.830290 0.710937 0.253324
O O14 0.017031 0.234376 0.902088
O O15 0.500000 0.500000 0.500000
O O16 0.392242 0.690173 0.757926
O O17 0.074694 0.326828 0.512355
O O18 0.000000 0.000000 0.000000
#
# Coordination Sequence:
#
# PCOD9056535 Si02
#       8
#     2   2   2   2   2   2   2   2
#     4  12  26  44  70  98 138 191 237 285 349 430
#     4  12  24  41  68 102 144 182 230 292 351 430
#     4   9  20  37  61 102 140 185 241 293 336 413
#     4   9  18  36  62  96 139 181 233 289 339 405
#     4  12  26  49  67 102 152 186 230 294 363 420
#     4  11  22  39  67 101 145 184 233 289 350 418
#     4  12  22  40  62 103 142 184 232 286 343 433
#     4   9  19  34  62  99 136 178 234 286 345 405
#
# _framework density 25.569678
#
# number of rings (size 3 to 8) (size 9 to 14) (size 15 to 20)
#    0.000    1.250    5.000    1.125    3.500    0.000 
#    6.750    0.000    0.000    6.000    0.000    0.000 
#    0.000    0.000    0.000    0.125    0.000    0.000 
#
# Total GULP energy -89413.556182 kJ/mol
# GULP energy per Si atom -5588.347261 kJ/mol
# Density = 2.551148 g / cm^3
# Si number density = 25.569678 Si / 1000 Ang^3
#
#
#
# Elastic Constant Matrix: (Units=GPa)
#
#
# Indices 1 2 3 4 5 6 
#
# 1 132.6974 24.2153 23.4836 11.4301 1.3781 -52.0997
# 2 24.2153 104.4582 3.8048 18.0751 11.0877 -22.0406
# 3 23.4836 3.8048 68.4614 9.3244 29.2806 -7.9094
# 4 11.4301 18.0751 9.3244 29.1156 -14.1901 -2.4502
# 5 1.3781 11.0877 29.2806 -14.1901 55.8891 -5.8730
# 6 -52.0997 -22.0406 -7.9094 -2.4502 -5.8730 54.7579
#
#
#
# Elastic Compliance Matrix: (Units=1/GPa)
#
#
# Indices 1 2 3 4 5 6 
#
# 1 0.013126 -0.000510 -0.004237 -0.001014 0.002995 0.011947
# 2 -0.000510 0.013741 0.005541 -0.013994 -0.008719 0.004285
# 3 -0.004237 0.005541 0.027273 -0.020650 -0.020631 -0.000998
# 4 -0.001014 -0.013994 -0.020650 0.064140 0.029533 -0.003543
# 5 0.002995 -0.008719 -0.020631 0.029533 0.038041 0.001761
# 6 0.011947 0.004285 -0.000998 -0.003543 0.001761 0.031240
#
#
# Mechanical properties :
#
#
# Convention : Reuss Voigt Hill
#
# Bulk Modulus (GPa) = 17.94390 45.40269 31.67329
# Shear Modulus (GPa) = 24.44422 44.89339 34.66881
#
# Velocity S-wave (km/s) = 3.09525 4.19469 3.68619
# Velocity P-wave (km/s) = 4.45051 6.42305 5.52551
#
# Compressibility (1/GPa) = 0.05572926
#
# Stress axis : x y z
#
# Youngs Moduli (GPa) = 76.18628 72.77728 36.66592
#
# Poissons Ratio (x) = 0.03712 0.15534
# Poissons Ratio (y) = 0.03886 -0.20318
# Poissons Ratio (z) = 0.32277 -0.40329
#
# Static dielectric constant tensor:
#      x y z
#    x 2.146890 -0.010420 -0.026500 
#    y -0.010420 2.062130 0.048700 
#    z -0.026500 0.048700 2.020240 
# 
# From -- ./inp_files/434365.got.cif
#   From: 2010.05.17/outbox.cif.g08.bks.cpg/sg2_218_cif.got.tgz:434365.got - 2010.06.03 11:33:40.
