data_PCOD9056392
_publ_section_title
;
Structure prediction by ZEFSAII (Michael W. Deem and Ramdas Pophale) SiO2 
 PCOD9056392
Probable space group: P -1
;
_chemical_formula_sum "Si O2"
_cell_formula_units_Z 14
_cell_length_a 17.128166
_cell_length_b 4.949222
_cell_length_c 8.575322
_cell_angle_alpha 93.196672
_cell_angle_beta 63.529939
_cell_angle_gamma 70.615855
_cell_volume 595.717157
_symmetry_space_group_name_H-M "P -1"
_symmetry_group_IT_number 2
_symmetry_cell_setting 'triclinic'
loop_
_space_group_symop_operation_xyz
x,y,z
-x,-y,-z
loop_
_atom_site_type_symbol
_atom_site_label
_atom_site_fract_x
_atom_site_fract_y
_atom_site_fract_z
Si Si1 0.920163 0.941713 0.471904
Si Si2 0.205214 0.384715 0.426282
Si Si3 0.229321 0.297338 0.775179
Si Si4 0.412769 0.014298 0.184668
Si Si5 0.968240 0.204209 0.942401
Si Si6 0.539833 0.534379 0.689055
Si Si7 0.651208 0.335072 0.272476
O O1 0.835397 0.262603 0.532019
O O2 0.029498 0.129519 0.047353
O O3 0.000000 0.000000 0.500000
O O4 0.970647 0.802791 0.260037
O O5 0.127125 0.271325 0.427197
O O6 0.221202 0.295644 0.593327
O O7 0.305002 0.221938 0.243619
O O8 0.132037 0.540482 0.936500
O O9 0.311362 0.407668 0.752718
O O10 0.259748 0.974340 0.808329
O O11 0.419576 0.692731 0.212651
O O12 0.434076 0.183708 0.318346
O O13 0.500000 0.000000 0.000000
O O14 0.592668 0.355966 0.484485
O O15 0.426950 0.629737 0.787182
#
# Coordination Sequence:
#
# PCOD9056392 Si02
#       7
#     2   2   2   2   2   2   2
#     4  12  26  47  68  98 136 175 222 280 342 398
#     4  12  23  44  73  91 127 181 225 266 336 399
#     4  12  21  39  67  96 129 164 221 266 330 398
#     4  12  25  43  66  93 132 175 226 266 312 404
#     4  12  23  40  68  99 128 163 219 286 323 393
#     4  11  22  41  64  93 130 168 214 269 334 373
#     4  11  22  38  65  96 130 166 206 275 332 386
#
# _framework density 23.501086999999998
#
# number of rings (size 3 to 8) (size 9 to 14) (size 15 to 20)
#    0.000    0.286    5.714    4.286    0.000    2.286 
#    7.714    0.000    0.000    0.000    0.000    0.000 
#    0.000    0.000    0.000    0.000    0.000    0.000 
#
# Total GULP energy -78176.646824 kJ/mol
# GULP energy per Si atom -5584.046202 kJ/mol
# Density = 2.344760 g / cm^3
# Si number density = 23.501087 Si / 1000 Ang^3
#
#
#
# Elastic Constant Matrix: (Units=GPa)
#
#
# Indices 1 2 3 4 5 6 
#
# 1 83.8509 0.8269 5.0680 8.8404 -21.9335 12.0885
# 2 0.8269 65.3445 20.2038 22.3494 -1.8577 -3.5391
# 3 5.0680 20.2038 78.9685 21.8171 -39.3968 -14.4205
# 4 8.8404 22.3494 21.8171 27.1505 -8.2412 -16.5881
# 5 -21.9335 -1.8577 -39.3968 -8.2412 28.7501 6.0070
# 6 12.0885 -3.5391 -14.4205 -16.5881 6.0070 42.7310
#
#
#
# Elastic Compliance Matrix: (Units=1/GPa)
#
#
# Indices 1 2 3 4 5 6 
#
# 1 0.043031 -0.002457 0.055834 -0.040079 0.102605 -0.023517
# 2 -0.002457 0.025401 -0.013480 -0.020174 -0.023166 -0.006325
# 3 0.055834 -0.013480 0.125389 -0.063659 0.201062 -0.027574
# 4 -0.040079 -0.020174 -0.063659 0.117572 -0.095277 0.047219
# 5 0.102605 -0.023166 0.201062 -0.095277 0.370676 -0.052188
# 6 -0.023517 -0.006325 -0.027574 0.047219 -0.052188 0.045893
#
#
# Mechanical properties :
#
#
# Convention : Reuss Voigt Hill
#
# Bulk Modulus (GPa) = 3.65474 31.15124 17.40299
# Shear Modulus (GPa) = 6.76250 33.19733 19.97992
#
# Velocity S-wave (km/s) = 1.69817 3.76252 2.91893
# Velocity P-wave (km/s) = 2.32455 5.67093 4.33376
#
# Compressibility (1/GPa) = 0.27361703
#
# Stress axis : x y z
#
# Youngs Moduli (GPa) = 23.23932 39.36814 7.97515
#
# Poissons Ratio (x) = 0.09671 -0.44529
# Poissons Ratio (y) = 0.05709 0.10750
# Poissons Ratio (z) = -1.29755 0.53068
#
# Static dielectric constant tensor:
#      x y z
#    x 1.939100 -0.004910 0.036220 
#    y -0.004910 1.826490 0.024430 
#    z 0.036220 0.024430 1.904000 
# 
# From -- ./inp_files/339331.got.cif
#   From: 2010.05.17/outbox.cif.g08.bks.cpg/sg2_170_cif.got.tgz:339331.got - 2010.06.03 11:33:40.
