data_PCOD9056391
_publ_section_title
;
Structure prediction by ZEFSAII (Michael W. Deem and Ramdas Pophale) SiO2 
 PCOD9056391
Probable space group: P -1
;
_chemical_formula_sum "Si O2"
_cell_formula_units_Z 14
_cell_length_a 7.904829
_cell_length_b 10.612184
_cell_length_c 7.661814
_cell_angle_alpha 100.369736
_cell_angle_beta 81.302374
_cell_angle_gamma 120.423405
_cell_volume 543.809582
_symmetry_space_group_name_H-M "P -1"
_symmetry_group_IT_number 2
_symmetry_cell_setting 'triclinic'
loop_
_space_group_symop_operation_xyz
x,y,z
-x,-y,-z
loop_
_atom_site_type_symbol
_atom_site_label
_atom_site_fract_x
_atom_site_fract_y
_atom_site_fract_z
Si Si1 0.022310 0.146105 0.115479
Si Si2 0.431477 0.110894 0.454846
Si Si3 0.589138 0.621061 0.360877
Si Si4 0.246954 0.432723 0.989818
Si Si5 0.865744 0.372297 0.799807
Si Si6 0.360694 0.836610 0.918987
Si Si7 0.031302 0.828017 0.466712
O O1 0.841866 0.169026 0.094832
O O2 0.017216 0.154224 0.324297
O O3 0.207492 0.276653 0.027663
O O4 0.000000 0.000000 0.000000
O O5 0.477441 0.254180 0.597827
O O6 0.540635 0.181337 0.273858
O O7 0.500000 0.000000 0.500000
O O8 0.200596 0.991392 0.423425
O O9 0.500000 0.500000 0.500000
O O10 0.576340 0.530553 0.164588
O O11 0.821679 0.738292 0.384007
O O12 0.074250 0.424845 0.881453
O O13 0.188625 0.499827 0.183848
O O14 0.875800 0.278595 0.613612
O O15 0.692706 0.273193 0.939731
O O16 0.500000 0.000000 0.000000
#
# Coordination Sequence:
#
# PCOD9056391 Si02
#       7
#     2   2   2   2   2   2   2
#     4  11  24  41  64  99 135 172 220 279 339 401
#     4  12  24  43  68 105 138 177 228 285 338 407
#     4  11  25  46  71  98 138 184 231 278 342 411
#     4   9  20  40  63  90 130 171 215 276 328 400
#     4   9  19  39  64  93 125 172 222 266 337 396
#     4  11  22  38  65  96 128 171 218 272 335 398
#     4  11  23  43  69 101 134 183 226 283 341 410
#
# _framework density 25.744305000000001
#
# number of rings (size 3 to 8) (size 9 to 14) (size 15 to 20)
#    0.000    1.429    2.857    2.143    2.000    1.714 
#    2.571    0.714    0.000    0.000    0.000    0.000 
#    0.000    0.000    0.000    0.000    0.000    0.000 
#
# Total GULP energy -78186.057319 kJ/mol
# GULP energy per Si atom -5584.718380 kJ/mol
# Density = 2.568571 g / cm^3
# Si number density = 25.744305 Si / 1000 Ang^3
#
#
#
# Elastic Constant Matrix: (Units=GPa)
#
#
# Indices 1 2 3 4 5 6 
#
# 1 64.0661 18.7813 11.8410 6.0540 -18.2171 -1.9685
# 2 18.7813 123.5154 34.5465 19.7367 -10.4008 -10.2788
# 3 11.8410 34.5465 191.1709 22.7979 -17.9315 -18.0956
# 4 6.0540 19.7367 22.7979 58.6107 5.5337 -9.1467
# 5 -18.2171 -10.4008 -17.9315 5.5337 22.9462 4.8774
# 6 -1.9685 -10.2788 -18.0956 -9.1467 4.8774 49.4721
#
#
#
# Elastic Compliance Matrix: (Units=1/GPa)
#
#
# Indices 1 2 3 4 5 6 
#
# 1 0.021451 -0.001466 0.001005 -0.004120 0.018499 -0.001669
# 2 -0.001466 0.009324 -0.000924 -0.002782 0.002853 0.000745
# 3 0.001005 -0.000924 0.006283 -0.002600 0.005681 0.001105
# 4 -0.004120 -0.002782 -0.002600 0.021142 -0.012394 0.003438
# 5 0.018499 0.002853 0.005681 -0.012394 0.068180 -0.005606
# 6 -0.001669 0.000745 0.001105 0.003438 -0.005606 0.021894
#
#
# Mechanical properties :
#
#
# Convention : Reuss Voigt Hill
#
# Bulk Modulus (GPa) = 29.16422 56.56555 42.86489
# Shear Modulus (GPa) = 30.77386 47.11136 38.94261
#
# Velocity S-wave (km/s) = 3.46116 4.28246 3.89352
# Velocity P-wave (km/s) = 5.22741 6.81706 6.07446
#
# Compressibility (1/GPa) = 0.03428859
#
# Stress axis : x y z
#
# Youngs Moduli (GPa) = 46.61754 107.24606 159.15113
#
# Poissons Ratio (x) = 0.15718 -0.15991
# Poissons Ratio (y) = 0.06832 0.14710
# Poissons Ratio (z) = -0.04684 0.09913
#
# Static dielectric constant tensor:
#      x y z
#    x 2.115070 0.105140 -0.018480 
#    y 0.105140 1.798600 0.068990 
#    z -0.018480 0.068990 2.103630 
# 
# From -- ./inp_files/189017.got.cif
#   From: 2010.05.17/outbox.cif.g08.bks.cpg/sg2_95_cif.got.tgz:189017.got - 2010.06.03 11:33:40.
