data_PCOD9056098
_publ_section_title
;
Structure prediction by ZEFSAII (Michael W. Deem and Ramdas Pophale) SiO2 
 PCOD9056098
Probable space group: P -1
;
_chemical_formula_sum "Si O2"
_cell_formula_units_Z 16
_cell_length_a 9.891595
_cell_length_b 15.784807
_cell_length_c 10.904738
_cell_angle_alpha 66.575101
_cell_angle_beta 98.990886
_cell_angle_gamma 43.921739
_cell_volume 778.793379
_symmetry_space_group_name_H-M "P -1"
_symmetry_group_IT_number 2
_symmetry_cell_setting 'triclinic'
loop_
_space_group_symop_operation_xyz
x,y,z
-x,-y,-z
loop_
_atom_site_type_symbol
_atom_site_label
_atom_site_fract_x
_atom_site_fract_y
_atom_site_fract_z
Si Si1 0.249368 0.960354 0.258682
Si Si2 0.510670 0.367046 0.407172
Si Si3 0.826752 0.360874 0.410158
Si Si4 0.538848 0.115117 0.916728
Si Si5 0.709476 0.960454 0.529518
Si Si6 0.315045 0.827399 0.688796
Si Si7 0.334127 0.765026 0.012216
Si Si8 0.957609 0.711682 0.267187
O O1 0.390041 0.783255 0.423373
O O2 0.428684 0.905166 0.213787
O O3 0.204443 0.049816 0.319877
O O4 0.961643 0.102489 0.077253
O O5 0.731571 0.319175 0.479790
O O6 0.512101 0.338650 0.280518
O O7 0.222092 0.565533 0.304318
O O8 0.046081 0.216527 0.418810
O O9 0.941267 0.355665 0.540085
O O10 0.562371 0.559695 0.199264
O O11 0.235043 0.259461 0.819924
O O12 0.605204 0.177046 0.939641
O O13 0.758662 0.915638 0.115664
O O14 0.500000 0.000000 0.500000
O O15 0.600068 0.115923 0.354844
O O16 0.335134 0.787487 0.854952
O O17 0.000000 0.000000 0.500000
#
# Coordination Sequence:
#
# PCOD9056098 Si02
#       8
#     2   2   2   2   2   2   2   2
#     4  11  22  41  65  96 128 173 217 264 329 386
#     4  11  22  41  70  92 129 169 221 268 319 391
#     4  12  24  41  65  98 131 168 222 269 320 389
#     4  11  25  43  64  90 135 170 218 268 331 387
#     4  11  23  41  69  97 132 173 215 270 330 383
#     4  11  21  46  67  94 129 171 210 266 327 382
#     4  12  24  40  68  96 127 172 220 265 325 388
#     4  11  25  43  63  94 129 175 214 274 325 383
#
# _framework density 20.544601
#
# number of rings (size 3 to 8) (size 9 to 14) (size 15 to 20)
#    0.000    0.750    3.750    4.500    0.000    8.000 
#    0.000    1.250    0.000    0.000    0.000    0.000 
#    0.000    0.000    0.000    0.000    0.000    0.000 
#
# Total GULP energy -89508.363061 kJ/mol
# GULP energy per Si atom -5594.272691 kJ/mol
# Density = 2.049784 g / cm^3
# Si number density = 20.544601 Si / 1000 Ang^3
#
#
#
# Elastic Constant Matrix: (Units=GPa)
#
#
# Indices 1 2 3 4 5 6 
#
# 1 88.4119 1.0247 20.8001 -8.5632 24.5177 -4.0347
# 2 1.0247 80.4705 22.4636 0.2595 15.4972 -10.0277
# 3 20.8001 22.4636 54.3256 -0.8281 1.6668 -8.9818
# 4 -8.5632 0.2595 -0.8281 24.5564 -11.1777 0.2644
# 5 24.5177 15.4972 1.6668 -11.1777 34.0749 1.7955
# 6 -4.0347 -10.0277 -8.9818 0.2644 1.7955 35.1328
#
#
#
# Elastic Compliance Matrix: (Units=1/GPa)
#
#
# Indices 1 2 3 4 5 6 
#
# 1 0.017206 0.005109 -0.007903 -0.001073 -0.014784 0.002177
# 2 0.005109 0.017734 -0.008257 -0.004693 -0.013100 0.004242
# 3 -0.007903 -0.008257 0.025054 0.002143 0.008778 0.002676
# 4 -0.001073 -0.004693 0.002143 0.049165 0.019049 -0.002258
# 5 -0.014784 -0.013100 0.008778 0.019049 0.052078 -0.005998
# 6 0.002177 0.004242 0.002676 -0.002258 -0.005998 0.030932
#
#
# Mechanical properties :
#
#
# Convention : Reuss Voigt Hill
#
# Bulk Modulus (GPa) = 26.39187 34.64277 30.51732
# Shear Modulus (GPa) = 22.03607 30.68078 26.35843
#
# Velocity S-wave (km/s) = 3.27860 3.86861 3.58576
# Velocity P-wave (km/s) = 5.21597 6.07073 5.65951
#
# Compressibility (1/GPa) = 0.03789045
#
# Stress axis : x y z
#
# Youngs Moduli (GPa) = 58.11927 56.39030 39.91451
#
# Poissons Ratio (x) = -0.28810 0.31545
# Poissons Ratio (y) = -0.29693 0.32958
# Poissons Ratio (z) = 0.45933 0.46562
#
# Static dielectric constant tensor:
#      x y z
#    x 1.731070 0.001180 0.003670 
#    y 0.001180 1.716500 0.008380 
#    z 0.003670 0.008380 1.709350 
# 
# From -- ./inp_files/242573.got.cif
#   From: 2010.05.17/outbox.cif.g08.bks.cpg/sg2_122_cif.got.tgz:242573.got - 2010.06.03 11:33:40.
