data_PCOD9056685
_publ_section_title
;
Structure prediction by ZEFSAII (Michael W. Deem and Ramdas Pophale) SiO2 
 PCOD9056685
Probable space group: P -1
;
_chemical_formula_sum "Si O2"
_cell_formula_units_Z 12
_cell_length_a 9.869270
_cell_length_b 4.977084
_cell_length_c 13.735121
_cell_angle_alpha 110.023425
_cell_angle_beta 69.391297
_cell_angle_gamma 99.644586
_cell_volume 592.476043
_symmetry_space_group_name_H-M "P -1"
_symmetry_group_IT_number 2
_symmetry_cell_setting 'triclinic'
loop_
_space_group_symop_operation_xyz
x,y,z
-x,-y,-z
loop_
_atom_site_type_symbol
_atom_site_label
_atom_site_fract_x
_atom_site_fract_y
_atom_site_fract_z
Si Si1 0.212694 0.320128 0.371042
Si Si2 0.068880 0.328189 0.217781
Si Si3 0.017113 0.280028 0.881861
Si Si4 0.903468 0.145717 0.423939
Si Si5 0.294812 0.250634 0.689831
Si Si6 0.515962 0.269260 0.380789
O O1 0.175861 0.624898 0.464180
O O2 0.362224 0.222950 0.361546
O O3 0.204292 0.346648 0.259445
O O4 0.070490 0.115747 0.410471
O O5 0.051754 0.588667 0.182352
O O6 0.937883 0.288695 0.325590
O O7 0.057403 0.034157 0.123502
O O8 0.184972 0.248119 0.807754
O O9 0.000000 0.500000 0.000000
O O10 0.802085 0.867857 0.392226
O O11 0.366852 0.563868 0.696680
O O12 0.419152 0.024936 0.639543
O O13 0.500000 0.500000 0.500000
#
# Coordination Sequence:
#
# PCOD9056685 Si02
#       6
#     2   2   2   2   2   2
#     4   9  19  37  58  90 125 167 190 241 293 367
#     4   9  20  37  58  90 115 147 203 251 292 350
#     4  11  22  40  66  88 111 152 212 267 298 332
#     4   8  17  37  57  89 117 165 200 236 285 359
#     4  11  23  40  59  88 124 157 206 248 290 364
#     4  12  24  38  57  90 134 165 191 229 308 367
#
# _framework density 20.253983999999999
#
# number of rings (size 3 to 8) (size 9 to 14) (size 15 to 20)
#    1.000    1.000    1.667    3.000    0.000    1.333 
#    0.000    3.333    0.000    6.000    0.000    0.000 
#    0.000    0.000    0.000    0.000    0.000    0.000 
#
# Total GULP energy -66999.372158 kJ/mol
# GULP energy per Si atom -5583.281013 kJ/mol
# Density = 2.020788 g / cm^3
# Si number density = 20.253984 Si / 1000 Ang^3
#
#
#
# Elastic Constant Matrix: (Units=GPa)
#
#
# Indices 1 2 3 4 5 6 
#
# 1 143.6889 23.8930 18.8055 6.3192 16.4402 0.9960
# 2 23.8930 63.0641 -10.7547 1.2919 4.4336 -5.9067
# 3 18.8055 -10.7547 71.8818 24.7609 0.5252 -2.7814
# 4 6.3192 1.2919 24.7609 29.4686 -1.3806 -2.5276
# 5 16.4402 4.4336 0.5252 -1.3806 18.8375 0.6466
# 6 0.9960 -5.9067 -2.7814 -2.5276 0.6466 26.7885
#
#
#
# Elastic Compliance Matrix: (Units=1/GPa)
#
#
# Indices 1 2 3 4 5 6 
#
# 1 0.008656 -0.003423 -0.002878 0.000301 -0.006606 -0.001188
# 2 -0.003423 0.018718 0.005368 -0.004310 -0.002036 0.004454
# 3 -0.002878 0.005368 0.021631 -0.017665 -0.000714 0.001887
# 4 0.000301 -0.004310 -0.017665 0.049276 0.004796 0.001738
# 5 -0.006606 -0.002036 -0.000714 0.004796 0.059745 -0.001267
# 6 -0.001188 0.004454 0.001887 0.001738 -0.001267 0.038746
#
#
# Mechanical properties :
#
#
# Convention : Reuss Voigt Hill
#
# Bulk Modulus (GPa) = 21.21399 38.05804 29.63601
# Shear Modulus (GPa) = 23.32612 31.46498 27.39555
#
# Velocity S-wave (km/s) = 3.39732 3.94575 3.68176
# Velocity P-wave (km/s) = 5.08781 6.29204 5.72169
#
# Compressibility (1/GPa) = 0.04713871
#
# Stress axis : x y z
#
# Youngs Moduli (GPa) = 115.52397 53.42449 46.22945
#
# Poissons Ratio (x) = 0.18289 0.13305
# Poissons Ratio (y) = 0.39548 -0.24817
# Poissons Ratio (z) = 0.33249 -0.28679
#
# Static dielectric constant tensor:
#      x y z
#    x 1.751480 0.008500 0.023220 
#    y 0.008500 1.756830 -0.037580 
#    z 0.023220 -0.037580 1.749600 
# 
# From -- ./inp_files/372738.got.cif
#   From: 2010.05.17/outbox.cif.g08.bks.cpg/sg2_187_cif.got.tgz:372738.got - 2010.06.03 11:33:40.
