data_PCOD9056390
_publ_section_title
;
Structure prediction by ZEFSAII (Michael W. Deem and Ramdas Pophale) SiO2 
 PCOD9056390
Probable space group: P -1
;
_chemical_formula_sum "Si O2"
_cell_formula_units_Z 16
_cell_length_a 16.277773
_cell_length_b 8.165188
_cell_length_c 12.607280
_cell_angle_alpha 73.447831
_cell_angle_beta 152.810169
_cell_angle_gamma 112.263658
_cell_volume 703.188145
_symmetry_space_group_name_H-M "P -1"
_symmetry_group_IT_number 2
_symmetry_cell_setting 'triclinic'
loop_
_space_group_symop_operation_xyz
x,y,z
-x,-y,-z
loop_
_atom_site_type_symbol
_atom_site_label
_atom_site_fract_x
_atom_site_fract_y
_atom_site_fract_z
Si Si1 0.170120 0.181398 0.649609
Si Si2 0.779014 0.874854 0.505183
Si Si3 0.143715 0.209562 0.855575
Si Si4 0.071342 0.322700 0.109480
Si Si5 0.330501 0.837729 0.294763
Si Si6 0.941298 0.436739 0.325162
Si Si7 0.610001 0.244732 0.849117
Si Si8 0.387582 0.361019 0.286663
O O1 0.289281 0.156231 0.690477
O O2 0.228682 0.226828 0.830378
O O3 0.094496 0.340773 0.488173
O O4 0.000000 0.000000 0.500000
O O5 0.846473 0.726790 0.676024
O O6 0.593495 0.892590 0.346172
O O7 0.961885 0.042991 0.683673
O O8 0.073026 0.380967 0.774906
O O9 0.305076 0.223262 0.122552
O O10 0.226946 0.323898 0.199271
O O11 0.000000 0.500000 0.000000
O O12 0.870218 0.176817 0.881679
O O13 0.296041 0.820901 0.131341
O O14 0.418733 0.673502 0.449772
O O15 0.500000 0.000000 0.500000
O O16 0.000000 0.500000 0.500000
O O17 0.746836 0.287956 0.100048
O O18 0.579232 0.437120 0.752220
#
# Coordination Sequence:
#
# PCOD9056390 Si02
#       8
#     2   2   2   2   2   2   2   2
#     4   9  19  39  64  90 121 162 215 262 329 387
#     4  11  22  38  65  96 127 169 217 275 332 384
#     4   9  21  39  64  87 128 175 210 272 330 381
#     4  12  24  40  68  94 131 184 218 264 341 392
#     4  12  25  39  61  97 132 173 221 269 325 393
#     4   9  19  40  65  86 119 168 215 263 328 386
#     4  11  22  41  63  92 132 168 217 278 322 390
#     4  11  23  44  62  90 138 171 223 272 320 398
#
# _framework density 22.753513000000002
#
# number of rings (size 3 to 8) (size 9 to 14) (size 15 to 20)
#    0.000    1.500    2.500    2.625    3.500    2.000 
#    0.000   11.250    2.750    0.000    0.000    0.000 
#    0.000    0.000    0.000    0.000    0.000    0.000 
#
# Total GULP energy -89201.433794 kJ/mol
# GULP energy per Si atom -5575.089612 kJ/mol
# Density = 2.270172 g / cm^3
# Si number density = 22.753513 Si / 1000 Ang^3
#
#
#
# Elastic Constant Matrix: (Units=GPa)
#
#
# Indices 1 2 3 4 5 6 
#
# 1 80.7457 0.4648 50.1090 -5.1752 -7.1960 7.8250
# 2 0.4648 46.8896 2.4603 0.8518 -10.6202 -2.9941
# 3 50.1090 2.4603 126.0963 14.9574 -13.9079 5.0051
# 4 -5.1752 0.8518 14.9574 27.7601 -5.4269 -2.7494
# 5 -7.1960 -10.6202 -13.9079 -5.4269 40.7579 4.3200
# 6 7.8250 -2.9941 5.0051 -2.7494 4.3200 22.8949
#
#
#
# Elastic Compliance Matrix: (Units=1/GPa)
#
#
# Indices 1 2 3 4 5 6 
#
# 1 0.018270 0.000307 -0.007780 0.007601 0.002085 -0.003984
# 2 0.000307 0.022761 -0.000081 0.000733 0.005856 0.001873
# 3 -0.007780 -0.000081 0.012206 -0.007788 0.001872 -0.001309
# 4 0.007601 0.000733 -0.007788 0.042785 0.004196 0.003547
# 5 0.002085 0.005856 0.001872 0.004196 0.028175 -0.005168
# 6 -0.003984 0.001873 -0.001309 0.003547 -0.005168 0.046972
#
#
# Mechanical properties :
#
#
# Convention : Reuss Voigt Hill
#
# Bulk Modulus (GPa) = 26.22761 39.97777 33.10269
# Shear Modulus (GPa) = 25.12746 31.66241 28.39494
#
# Velocity S-wave (km/s) = 3.32676 3.73438 3.53645
# Velocity P-wave (km/s) = 5.12916 6.01683 5.59064
#
# Compressibility (1/GPa) = 0.03812776
#
# Stress axis : x y z
#
# Youngs Moduli (GPa) = 54.73507 43.93567 81.92812
#
# Poissons Ratio (x) = -0.01348 0.63738
# Poissons Ratio (y) = -0.01680 0.00667
# Poissons Ratio (z) = 0.42582 0.00358
#
# Static dielectric constant tensor:
#      x y z
#    x 1.857740 0.038790 -0.074910 
#    y 0.038790 1.983660 -0.058700 
#    z -0.074910 -0.058700 1.907900 
# 
# From -- ./inp_files/203815.got.cif
#   From: 2010.05.17/outbox.cif.g08.bks.cpg/sg2_102_cif.got.tgz:203815.got - 2010.06.03 11:33:40.
