data_PCOD9056450
_publ_section_title
;
Structure prediction by ZEFSAII (Michael W. Deem and Ramdas Pophale) SiO2 
 PCOD9056450
Probable space group: P -1
;
_chemical_formula_sum "Si O2"
_cell_formula_units_Z 16
_cell_length_a 6.548779
_cell_length_b 22.534319
_cell_length_c 5.333263
_cell_angle_alpha 111.898234
_cell_angle_beta 106.893697
_cell_angle_gamma 74.089421
_cell_volume 686.454830
_symmetry_space_group_name_H-M "P -1"
_symmetry_group_IT_number 2
_symmetry_cell_setting 'triclinic'
loop_
_space_group_symop_operation_xyz
x,y,z
-x,-y,-z
loop_
_atom_site_type_symbol
_atom_site_label
_atom_site_fract_x
_atom_site_fract_y
_atom_site_fract_z
Si Si1 0.541658 0.735677 0.346157
Si Si2 0.496500 0.926459 0.815131
Si Si3 0.523934 0.137172 0.788221
Si Si4 0.659770 0.400481 0.552679
Si Si5 0.829651 0.298287 0.073757
Si Si6 0.101422 0.371447 0.959403
Si Si7 0.751344 0.523304 0.522058
Si Si8 0.197214 0.184722 0.099694
O O1 0.449688 0.794494 0.213064
O O2 0.633280 0.770388 0.667954
O O3 0.743596 0.685474 0.225569
O O4 0.329250 0.702785 0.223964
O O5 0.410438 0.914902 0.490718
O O6 0.739125 0.881439 0.824681
O O7 0.389852 0.893206 0.959699
O O8 0.500000 0.000000 0.000000
O O9 0.267256 0.158307 0.806011
O O10 0.683777 0.334136 0.300836
O O11 0.877933 0.399438 0.783290
O O12 0.670732 0.456483 0.437391
O O13 0.425619 0.428978 0.636477
O O14 0.965136 0.228898 0.095270
O O15 0.015347 0.338770 0.124052
O O16 0.226471 0.428843 0.162362
O O17 0.000000 0.500000 0.500000
#
# Coordination Sequence:
#
# PCOD9056450 Si02
#       8
#     2   2   2   2   2   2   2   2
#     4  11  22  39  60  91 129 164 211 267 321 382
#     4   9  17  34  65  97 128 177 220 256 322 385
#     4   9  19  35  60  93 133 171 213 268 321 371
#     4  11  25  41  61  88 114 160 206 256 327 387
#     4  12  23  38  64  91 119 166 211 257 332 382
#     4  12  23  39  63  88 118 159 207 263 322 387
#     4  11  24  44  61  83 122 154 205 266 317 390
#     4   9  21  38  59  92 129 160 212 265 311 380
#
# _framework density 23.308161999999999
#
# number of rings (size 3 to 8) (size 9 to 14) (size 15 to 20)
#    0.750    0.750    5.000    0.750    0.000    3.500 
#    0.000    0.000    0.000    3.750    0.000    0.000 
#    0.000    0.000    0.000    0.000    0.000    0.000 
#
# Total GULP energy -89096.426372 kJ/mol
# GULP energy per Si atom -5568.526648 kJ/mol
# Density = 2.325511 g / cm^3
# Si number density = 23.308162 Si / 1000 Ang^3
#
#
#
# Elastic Constant Matrix: (Units=GPa)
#
#
# Indices 1 2 3 4 5 6 
#
# 1 62.1778 21.2837 29.9995 2.4846 16.4807 -7.0828
# 2 21.2837 78.3756 38.7453 15.8259 5.4689 -19.1521
# 3 29.9995 38.7453 120.0631 7.4337 -4.4954 -7.8081
# 4 2.4846 15.8259 7.4337 34.8090 -7.3552 -4.4568
# 5 16.4807 5.4689 -4.4954 -7.3552 38.1760 -13.1908
# 6 -7.0828 -19.1521 -7.8081 -4.4568 -13.1908 17.9373
#
#
#
# Elastic Compliance Matrix: (Units=1/GPa)
#
#
# Indices 1 2 3 4 5 6 
#
# 1 0.022622 -0.004116 -0.005171 -0.002377 -0.012946 -0.007823
# 2 -0.004116 0.022093 -0.004140 -0.004918 0.004989 0.022609
# 3 -0.005171 -0.004140 0.011249 0.001319 0.005331 0.002683
# 4 -0.002377 -0.004918 0.001319 0.035253 0.013090 0.012770
# 5 -0.012946 0.004989 0.005331 0.013090 0.048556 0.041495
# 6 -0.007823 0.022609 0.002683 0.012770 0.041495 0.111656
#
#
# Mechanical properties :
#
#
# Convention : Reuss Voigt Hill
#
# Bulk Modulus (GPa) = 34.34987 48.96371 41.65679
# Shear Modulus (GPa) = 17.36203 29.55699 23.45951
#
# Velocity S-wave (km/s) = 2.73223 3.56490 3.17597
# Velocity P-wave (km/s) = 4.97219 6.16420 5.60000
#
# Compressibility (1/GPa) = 0.02911220
#
# Stress axis : x y z
#
# Youngs Moduli (GPa) = 44.20546 45.26365 88.89502
#
# Poissons Ratio (x) = 0.18628 0.45964
# Poissons Ratio (y) = 0.18193 0.36799
# Poissons Ratio (z) = 0.22857 0.18737
#
# Static dielectric constant tensor:
#      x y z
#    x 2.022410 0.045850 0.011120 
#    y 0.045850 1.969150 -0.042580 
#    z 0.011120 -0.042580 1.944210 
# 
# From -- ./inp_files/13620.got.cif
#   From: 2010.05.17/outbox.cif.g08.bks.cpg/sg2_7_cif.got.tgz:13620.got - 2010.06.03 11:33:40.
