data_PCOD9056465
_publ_section_title
;
Structure prediction by ZEFSAII (Michael W. Deem and Ramdas Pophale) SiO2 
 PCOD9056465
Probable space group: P -1
;
_chemical_formula_sum "Si O2"
_cell_formula_units_Z 16
_cell_length_a 13.431198
_cell_length_b 8.431055
_cell_length_c 11.515938
_cell_angle_alpha 56.724602
_cell_angle_beta 60.113573
_cell_angle_gamma 98.333598
_cell_volume 771.960895
_symmetry_space_group_name_H-M "P -1"
_symmetry_group_IT_number 2
_symmetry_cell_setting 'triclinic'
loop_
_space_group_symop_operation_xyz
x,y,z
-x,-y,-z
loop_
_atom_site_type_symbol
_atom_site_label
_atom_site_fract_x
_atom_site_fract_y
_atom_site_fract_z
Si Si1 0.761724 0.500876 0.967772
Si Si2 0.850225 0.314543 0.600011
Si Si3 0.425984 0.732328 0.621005
Si Si4 0.955022 0.013024 0.650699
Si Si5 0.090260 0.721018 0.943434
Si Si6 0.741920 0.546086 0.690290
Si Si7 0.311788 0.246179 0.555021
Si Si8 0.177780 0.455126 0.698342
O O1 0.882512 0.756925 0.843731
O O2 0.820579 0.342659 0.004324
O O3 0.730171 0.529473 0.842118
O O4 0.631902 0.397036 0.170620
O O5 0.736720 0.325756 0.734775
O O6 0.844653 0.399979 0.441373
O O7 0.000000 0.500000 0.500000
O O8 0.846163 0.083889 0.688725
O O9 0.543019 0.708908 0.506296
O O10 0.290952 0.625883 0.660052
O O11 0.500000 0.000000 0.500000
O O12 0.000000 0.000000 0.500000
O O13 0.101835 0.227969 0.528814
O O14 0.974514 0.722533 0.085231
O O15 0.000000 0.500000 0.000000
O O16 0.198940 0.967698 0.720460
O O17 0.651687 0.606826 0.644446
O O18 0.243635 0.335274 0.644890
#
# Coordination Sequence:
#
# PCOD9056465 Si02
#       8
#     2   2   2   2   2   2   2   2
#     4  11  22  39  62  94 126 166 217 264 319 382
#     4   9  18  37  61  95 132 160 201 267 335 377
#     4  12  25  45  62  91 134 179 217 264 321 394
#     4   9  17  32  59  91 125 154 203 267 318 366
#     4  12  21  39  65  98 127 164 222 272 323 382
#     4   9  20  37  61  90 125 163 210 265 323 373
#     4  11  24  42  63  92 131 173 211 272 324 387
#     4  11  23  41  68  96 127 171 220 269 328 382
#
# _framework density 20.726437000000001
#
# number of rings (size 3 to 8) (size 9 to 14) (size 15 to 20)
#    0.000    1.500    2.500    3.750    0.000    3.500 
#    4.500    0.000    0.000    3.000    0.000    0.000 
#    0.000    0.000    0.000    0.000    0.000    0.000 
#
# Total GULP energy -89256.051948 kJ/mol
# GULP energy per Si atom -5578.503247 kJ/mol
# Density = 2.067926 g / cm^3
# Si number density = 20.726437 Si / 1000 Ang^3
#
#
#
# Elastic Constant Matrix: (Units=GPa)
#
#
# Indices 1 2 3 4 5 6 
#
# 1 93.1956 28.8885 23.2708 5.1447 5.9249 -15.0141
# 2 28.8885 84.2291 29.9222 -3.1928 6.9137 -15.1899
# 3 23.2708 29.9222 86.4606 6.8101 3.7349 -5.4999
# 4 5.1447 -3.1928 6.8101 27.3656 -5.0974 4.4965
# 5 5.9249 6.9137 3.7349 -5.0974 30.9908 5.0818
# 6 -15.0141 -15.1899 -5.4999 4.4965 5.0818 32.7684
#
#
#
# Elastic Compliance Matrix: (Units=1/GPa)
#
#
# Indices 1 2 3 4 5 6 
#
# 1 0.013378 -0.002819 -0.001822 -0.003912 -0.003265 0.005560
# 2 -0.002819 0.015688 -0.004352 0.001990 -0.003002 0.005443
# 3 -0.001822 -0.004352 0.013920 -0.003847 -0.001019 0.000170
# 4 -0.003912 0.001990 -0.003847 0.041563 0.009017 -0.008618
# 5 -0.003265 -0.003002 -0.001019 0.009017 0.036808 -0.010004
# 6 0.005560 0.005443 0.000170 -0.008618 -0.010004 0.038351
#
#
# Mechanical properties :
#
#
# Convention : Reuss Voigt Hill
#
# Bulk Modulus (GPa) = 39.99722 47.56093 43.77907
# Shear Modulus (GPa) = 26.87779 30.34521 28.61150
#
# Velocity S-wave (km/s) = 3.60500 3.83048 3.71945
# Velocity P-wave (km/s) = 6.05538 6.52382 6.29396
#
# Compressibility (1/GPa) = 0.02500174
#
# Stress axis : x y z
#
# Youngs Moduli (GPa) = 74.74863 63.74137 71.83745
#
# Poissons Ratio (x) = 0.17966 0.13092
# Poissons Ratio (y) = 0.21068 0.31261
# Poissons Ratio (z) = 0.13622 0.27738
#
# Static dielectric constant tensor:
#      x y z
#    x 1.844230 0.023310 -0.017120 
#    y 0.023310 1.787600 -0.008080 
#    z -0.017120 -0.008080 1.726880 
# 
# From -- ./inp_files/208720.got.cif
#   From: 2010.05.17/outbox.cif.g08.bks.cpg/sg2_105_cif.got.tgz:208720.got - 2010.06.03 11:33:40.
