data_PCOD9056648
_publ_section_title
;
Structure prediction by ZEFSAII (Michael W. Deem and Ramdas Pophale) SiO2 
 PCOD9056648
Probable space group: P -1
;
_chemical_formula_sum "Si O2"
_cell_formula_units_Z 16
_cell_length_a 14.238658
_cell_length_b 13.571422
_cell_length_c 11.610237
_cell_angle_alpha 137.203827
_cell_angle_beta 31.256785
_cell_angle_gamma 136.114629
_cell_volume 762.592396
_symmetry_space_group_name_H-M "P -1"
_symmetry_group_IT_number 2
_symmetry_cell_setting 'triclinic'
loop_
_space_group_symop_operation_xyz
x,y,z
-x,-y,-z
loop_
_atom_site_type_symbol
_atom_site_label
_atom_site_fract_x
_atom_site_fract_y
_atom_site_fract_z
Si Si1 0.901782 0.047043 0.756034
Si Si2 0.999202 0.365679 0.968538
Si Si3 0.151427 0.600446 0.592729
Si Si4 0.430857 0.272437 0.717621
Si Si5 0.424701 0.365065 0.555359
Si Si6 0.116277 0.313325 0.240218
Si Si7 0.503953 0.034684 0.159213
Si Si8 0.833665 0.017045 0.380440
O O1 0.890222 0.215444 0.889909
O O2 0.031150 0.041391 0.724618
O O3 0.685540 0.979636 0.960786
O O4 0.000000 0.000000 0.500000
O O5 0.204121 0.344002 0.754880
O O6 0.000000 0.500000 0.000000
O O7 0.906259 0.386783 0.204541
O O8 0.355811 0.717423 0.462010
O O9 0.151489 0.432773 0.409822
O O10 0.993842 0.635110 0.705704
O O11 0.459529 0.386736 0.675271
O O12 0.294385 0.114356 0.678415
O O13 0.316316 0.310781 0.977113
O O14 0.500000 0.500000 0.500000
O O15 0.488186 0.209836 0.335235
O O16 0.975553 0.154957 0.287358
O O17 0.321971 0.941321 0.339233
O O18 0.500000 0.000000 0.000000
#
# Coordination Sequence:
#
# PCOD9056648 Si02
#       8
#     2   2   2   2   2   2   2   2
#     4  12  23  42  67  98 144 183 229 291 347 415
#     4  12  23  41  69  99 136 184 229 284 353 414
#     4  11  25  45  68  99 142 181 233 286 349 412
#     4  11  22  45  67  96 138 176 232 291 336 414
#     4  11  22  40  64  99 131 178 228 279 341 411
#     4  11  25  45  69 100 139 185 230 288 343 419
#     4  11  22  42  61  96 140 176 225 289 338 410
#     4  11  24  42  71 101 136 185 236 281 355 408
#
# _framework density 20.981062999999999
#
# number of rings (size 3 to 8) (size 9 to 14) (size 15 to 20)
#    0.000    0.750    5.000    3.750    1.750    2.500 
#    2.250    0.000    0.000    0.000    0.000    0.000 
#    0.000    0.000    0.000    0.000    0.000    0.000 
#
# Total GULP energy -89193.672255 kJ/mol
# GULP energy per Si atom -5574.604516 kJ/mol
# Density = 2.093331 g / cm^3
# Si number density = 20.981063 Si / 1000 Ang^3
#
#
#
# Elastic Constant Matrix: (Units=GPa)
#
#
# Indices 1 2 3 4 5 6 
#
# 1 36.5891 14.7462 42.8040 3.7787 -0.6327 14.6254
# 2 14.7462 79.6107 52.8905 -6.6087 28.0018 -3.4203
# 3 42.8040 52.8905 180.0748 -20.7347 4.6939 3.4575
# 4 3.7787 -6.6087 -20.7347 37.0556 11.6404 -2.0755
# 5 -0.6327 28.0018 4.6939 11.6404 38.9465 -15.8797
# 6 14.6254 -3.4203 3.4575 -2.0755 -15.8797 31.8794
#
#
#
# Elastic Compliance Matrix: (Units=1/GPa)
#
#
# Indices 1 2 3 4 5 6 
#
# 1 0.056984 -0.003341 -0.013764 -0.015178 -0.001350 -0.026669
# 2 -0.003341 0.024572 -0.004736 0.008692 -0.022096 -0.005757
# 3 -0.013764 -0.004736 0.010724 0.006078 0.002669 0.006368
# 4 -0.015178 0.008692 0.006078 0.039428 -0.018842 0.000418
# 5 -0.001350 -0.022096 0.002669 -0.018842 0.057119 0.025185
# 6 -0.026669 -0.005757 0.006368 0.000418 0.025185 0.054867
#
#
# Mechanical properties :
#
#
# Convention : Reuss Voigt Hill
#
# Bulk Modulus (GPa) = 20.57723 57.46179 39.01951
# Shear Modulus (GPa) = 16.47038 33.96521 25.21779
#
# Velocity S-wave (km/s) = 2.80485 4.02786 3.47065
# Velocity P-wave (km/s) = 4.50759 7.00560 5.89054
#
# Compressibility (1/GPa) = 0.04859740
#
# Stress axis : x y z
#
# Youngs Moduli (GPa) = 17.54893 40.69624 93.24963
#
# Poissons Ratio (x) = 0.13599 1.28349
# Poissons Ratio (y) = 0.05864 0.44160
# Poissons Ratio (z) = 0.24154 0.19272
#
# Static dielectric constant tensor:
#      x y z
#    x 1.797690 0.092490 -0.089820 
#    y 0.092490 1.985150 -0.123060 
#    z -0.089820 -0.123060 1.873160 
# 
# From -- ./inp_files/455040.got.cif
#   From: 2010.05.17/outbox.cif.g08.bks.cpg/sg2_228_cif.got.tgz:455040.got - 2010.06.03 11:33:40.
