data_PCOD9056933
_publ_section_title
;
Structure prediction by ZEFSAII (Michael W. Deem and Ramdas Pophale) SiO2 
 PCOD9056933
Probable space group: P -1
;
_chemical_formula_sum "Si O2"
_cell_formula_units_Z 16
_cell_length_a 8.723125
_cell_length_b 16.579065
_cell_length_c 12.981071
_cell_angle_alpha 152.372625
_cell_angle_beta 102.826493
_cell_angle_gamma 70.680668
_cell_volume 810.616864
_symmetry_space_group_name_H-M "P -1"
_symmetry_group_IT_number 2
_symmetry_cell_setting 'triclinic'
loop_
_space_group_symop_operation_xyz
x,y,z
-x,-y,-z
loop_
_atom_site_type_symbol
_atom_site_label
_atom_site_fract_x
_atom_site_fract_y
_atom_site_fract_z
Si Si1 0.691119 0.230336 0.262009
Si Si2 0.438966 0.344592 0.538724
Si Si3 0.624509 0.475087 0.894900
Si Si4 0.133624 0.590358 0.661748
Si Si5 0.143919 0.928621 0.523237
Si Si6 0.592052 0.869423 0.273739
Si Si7 0.646214 0.009826 0.808380
Si Si8 0.008316 0.001663 0.816779
O O1 0.548654 0.303258 0.405622
O O2 0.755569 0.380738 0.384594
O O3 0.849600 0.102564 0.201083
O O4 0.632942 0.122862 0.039886
O O5 0.528326 0.438437 0.738969
O O6 0.257577 0.467975 0.623519
O O7 0.423720 0.158225 0.372986
O O8 0.771056 0.288663 0.722204
O O9 0.500000 0.500000 0.000000
O O10 0.665892 0.663790 0.094367
O O11 0.000000 0.500000 0.500000
O O12 0.046605 0.786846 0.920145
O O13 0.274469 0.039926 0.648037
O O14 0.076516 0.967023 0.672583
O O15 0.000000 0.000000 0.500000
O O16 0.458265 0.875031 0.170438
O O17 0.500000 0.000000 0.500000
O O18 0.840511 0.945399 0.738352
#
# Coordination Sequence:
#
# PCOD9056933 Si02
#       8
#     2   2   2   2   2   2   2   2
#     4  11  22  41  65  95 135 179 227 276 339 399
#     4  12  23  42  67 101 132 176 232 281 330 411
#     4  12  25  45  75 100 132 179 232 279 348 411
#     4  11  24  39  63  98 138 181 224 276 334 408
#     4  12  27  47  71 102 137 174 228 293 341 407
#     4  12  24  47  71 102 134 180 228 282 343 406
#     4  11  22  41  71  95 136 184 216 281 345 398
#     4  11  23  44  63  97 140 176 221 283 345 400
#
# _framework density 19.738054000000002
#
# number of rings (size 3 to 8) (size 9 to 14) (size 15 to 20)
#    0.000    0.500    3.750    6.000    1.750    2.500 
#    2.250    0.000    0.000    0.000    0.000    0.000 
#    0.000    0.000    0.000    0.000    0.000    0.000 
#
# Total GULP energy -89512.182453 kJ/mol
# GULP energy per Si atom -5594.511403 kJ/mol
# Density = 1.969313 g / cm^3
# Si number density = 19.738054 Si / 1000 Ang^3
#
#
#
# Elastic Constant Matrix: (Units=GPa)
#
#
# Indices 1 2 3 4 5 6 
#
# 1 72.8691 28.4650 60.1848 -2.5812 -3.5798 2.3620
# 2 28.4650 126.6491 52.2317 3.5992 -9.4354 -15.7863
# 3 60.1848 52.2317 101.5228 8.0172 -0.7404 14.1960
# 4 -2.5812 3.5992 8.0172 48.4667 8.4060 -5.0843
# 5 -3.5798 -9.4354 -0.7404 8.4060 33.3783 -0.2542
# 6 2.3620 -15.7863 14.1960 -5.0843 -0.2542 55.2451
#
#
#
# Elastic Compliance Matrix: (Units=1/GPa)
#
#
# Indices 1 2 3 4 5 6 
#
# 1 0.028896 0.002031 -0.019190 0.004693 0.002102 0.004718
# 2 0.002031 0.011603 -0.007941 0.000561 0.003221 0.005336
# 3 -0.019190 -0.007941 0.026963 -0.005407 -0.002411 -0.008886
# 4 0.004693 0.000561 -0.005407 0.023003 -0.005225 0.003442
# 5 0.002102 0.003221 -0.002411 -0.005225 0.032366 0.001118
# 6 0.004718 0.005336 -0.008886 0.003442 0.001118 0.022029
#
#
# Mechanical properties :
#
#
# Convention : Reuss Voigt Hill
#
# Bulk Modulus (GPa) = 57.92584 64.75599 61.34092
# Shear Modulus (GPa) = 24.89857 38.09531 31.49694
#
# Velocity S-wave (km/s) = 3.55554 4.39799 3.99901
# Velocity P-wave (km/s) = 6.80197 7.65955 7.24346
#
# Compressibility (1/GPa) = 0.01726345
#
# Stress axis : x y z
#
# Youngs Moduli (GPa) = 34.60679 86.18276 37.08736
#
# Poissons Ratio (x) = -0.17503 0.71171
# Poissons Ratio (y) = -0.07028 0.29449
# Poissons Ratio (z) = 0.66410 0.68434
#
# Static dielectric constant tensor:
#      x y z
#    x 1.579500 0.064570 -0.025900 
#    y 0.064570 1.648050 0.040880 
#    z -0.025900 0.040880 1.664330 
# 
# From -- ./inp_files/226845.got.cif
#   From: 2010.05.17/outbox.cif.g08.bks.cpg/sg2_114_cif.got.tgz:226845.got - 2010.06.03 11:33:40.
