data_PCOD9056374
_publ_section_title
;
Structure prediction by ZEFSAII (Michael W. Deem and Ramdas Pophale) SiO2 
 PCOD9056374
Probable space group: P -1
;
_chemical_formula_sum "Si O2"
_cell_formula_units_Z 16
_cell_length_a 10.854078
_cell_length_b 16.850612
_cell_length_c 9.331611
_cell_angle_alpha 122.891445
_cell_angle_beta 102.559895
_cell_angle_gamma 126.116882
_cell_volume 706.103403
_symmetry_space_group_name_H-M "P -1"
_symmetry_group_IT_number 2
_symmetry_cell_setting 'triclinic'
loop_
_space_group_symop_operation_xyz
x,y,z
-x,-y,-z
loop_
_atom_site_type_symbol
_atom_site_label
_atom_site_fract_x
_atom_site_fract_y
_atom_site_fract_z
Si Si1 0.915762 0.262590 0.859114
Si Si2 0.328690 0.961021 0.701281
Si Si3 0.725454 0.945704 0.634288
Si Si4 0.170952 0.169380 0.095538
Si Si5 0.409764 0.040391 0.112286
Si Si6 0.259861 0.452455 0.390185
Si Si7 0.032073 0.612962 0.525841
Si Si8 0.343108 0.706190 0.088611
O O1 0.873601 0.213823 0.631122
O O2 0.796504 0.288221 0.887042
O O3 0.766660 0.076046 0.703746
O O4 0.168644 0.417411 0.170041
O O5 0.554260 0.031469 0.853338
O O6 0.457143 0.132023 0.822777
O O7 0.252523 0.935477 0.821179
O O8 0.662645 0.925768 0.763849
O O9 0.490221 0.754074 0.303303
O O10 0.981137 0.052083 0.797247
O O11 0.225147 0.317457 0.279849
O O12 0.459306 0.325160 0.299555
O O13 0.000000 0.000000 0.000000
O O14 0.693390 0.225886 0.310590
O O15 0.067215 0.372766 0.375693
O O16 0.000000 0.500000 0.500000
O O17 0.846775 0.486525 0.222036
#
# Coordination Sequence:
#
# PCOD9056374 Si02
#       8
#     2   2   2   2   2   2   2   2
#     4  10  17  36  61  89 131 166 196 261 332 384
#     4  10  19  31  55  88 126 167 200 246 320 387
#     4  10  21  37  64  92 123 163 220 262 308 392
#     4  10  24  44  70  90 118 180 229 267 303 369
#     4  11  21  33  56  96 130 158 205 257 320 389
#     4  10  23  45  65  94 131 168 223 262 313 391
#     4  12  24  36  58  96 138 169 191 266 342 383
#     4  11  19  37  56  93 130 165 196 251 345 385
#
# _framework density 22.659573000000002
#
# number of rings (size 3 to 8) (size 9 to 14) (size 15 to 20)
#    0.000    1.500    5.000    0.750    7.000    0.500 
#    2.250    0.625    0.000    4.500    0.000    0.000 
#    0.000    0.000    0.000    0.000    0.000    0.000 
#
# Total GULP energy -89118.349657 kJ/mol
# GULP energy per Si atom -5569.896854 kJ/mol
# Density = 2.260800 g / cm^3
# Si number density = 22.659573 Si / 1000 Ang^3
#
#
#
# Elastic Constant Matrix: (Units=GPa)
#
#
# Indices 1 2 3 4 5 6 
#
# 1 43.8160 24.8069 34.5185 -5.9865 20.5232 1.6738
# 2 24.8069 118.1318 49.2430 -9.1196 5.7537 8.4412
# 3 34.5185 49.2430 156.3789 -33.7299 20.5098 21.3465
# 4 -5.9865 -9.1196 -33.7299 43.6123 6.4695 -2.5026
# 5 20.5232 5.7537 20.5098 6.4695 25.3997 4.2269
# 6 1.6738 8.4412 21.3465 -2.5026 4.2269 21.4934
#
#
#
# Elastic Compliance Matrix: (Units=1/GPa)
#
#
# Indices 1 2 3 4 5 6 
#
# 1 0.048356 -0.007155 -0.002599 0.009602 -0.039549 0.010521
# 2 -0.007155 0.010830 -0.002768 -0.001958 0.006469 -0.002448
# 3 -0.002599 -0.002768 0.011882 0.008961 -0.007831 -0.007928
# 4 0.009602 -0.001958 0.008961 0.034191 -0.023204 -0.000334
# 5 -0.039549 0.006469 -0.007831 -0.023204 0.083906 -0.010886
# 6 0.010521 -0.002448 -0.007928 -0.000334 -0.010886 0.056644
#
#
# Mechanical properties :
#
#
# Convention : Reuss Voigt Hill
#
# Bulk Modulus (GPa) = 21.72758 59.49594 40.61176
# Shear Modulus (GPa) = 17.47067 32.08497 24.77782
#
# Velocity S-wave (km/s) = 2.77971 3.76700 3.31037
# Velocity P-wave (km/s) = 4.46228 6.72561 5.70726
#
# Compressibility (1/GPa) = 0.04602446
#
# Stress axis : x y z
#
# Youngs Moduli (GPa) = 20.67998 92.33594 84.16185
#
# Poissons Ratio (x) = 0.66070 0.21871
# Poissons Ratio (y) = 0.14797 0.23292
# Poissons Ratio (z) = 0.05374 0.25555
#
# Static dielectric constant tensor:
#      x y z
#    x 1.905350 -0.085770 -0.022220 
#    y -0.085770 2.024280 -0.010230 
#    z -0.022220 -0.010230 2.064350 
# 
# From -- ./inp_files/279709.got.cif
#   From: 2010.05.17/outbox.cif.g08.bks.cpg/sg2_140_cif.got.tgz:279709.got - 2010.06.03 11:33:40.
