data_PCOD9056224
_publ_section_title
;
Structure prediction by ZEFSAII (Michael W. Deem and Ramdas Pophale) SiO2 
 PCOD9056224
Probable space group: P -1
;
_chemical_formula_sum "Si O2"
_cell_formula_units_Z 16
_cell_length_a 20.197054
_cell_length_b 10.983276
_cell_length_c 18.066746
_cell_angle_alpha 44.795335
_cell_angle_beta 20.517513
_cell_angle_gamma 32.144283
_cell_volume 668.517455
_symmetry_space_group_name_H-M "P -1"
_symmetry_group_IT_number 2
_symmetry_cell_setting 'triclinic'
loop_
_space_group_symop_operation_xyz
x,y,z
-x,-y,-z
loop_
_atom_site_type_symbol
_atom_site_label
_atom_site_fract_x
_atom_site_fract_y
_atom_site_fract_z
Si Si1 0.747620 0.551301 0.269022
Si Si2 0.256002 0.842946 0.902536
Si Si3 0.863422 0.356478 0.005499
Si Si4 0.428292 0.483898 0.163130
Si Si5 0.325964 0.785402 0.483220
Si Si6 0.835931 0.496507 0.366460
Si Si7 0.826031 0.833588 0.638303
Si Si8 0.688921 0.066238 0.844364
O O1 0.483769 0.753511 0.404150
O O2 0.809061 0.304331 0.311877
O O3 0.708122 0.620954 0.366158
O O4 0.000000 0.500000 0.000000
O O5 0.298666 0.781585 0.970457
O O6 0.573825 0.655529 0.624646
O O7 0.072025 0.124183 0.945016
O O8 0.147584 0.750017 0.010769
O O9 0.966416 0.478581 0.828530
O O10 0.569600 0.562656 0.266200
O O11 0.349088 0.707814 0.196927
O O12 0.147893 0.556728 0.425984
O O13 0.500000 0.500000 0.000000
O O14 0.176217 0.034706 0.485830
O O15 0.040260 0.193664 0.284908
O O16 0.740644 0.990084 0.736441
O O17 0.589188 0.846770 0.874650
#
# Coordination Sequence:
#
# PCOD9056224 Si02
#       8
#     2   2   2   2   2   2   2   2
#     4  11  22  36  61  97 134 168 212 286 343 399
#     4  11  26  44  65  97 141 184 227 281 350 424
#     4  11  23  43  69  98 135 178 227 291 344 406
#     4  12  28  46  68 104 146 188 227 284 360 426
#     4  11  22  39  67  99 136 171 225 282 347 405
#     4  12  22  43  71 101 132 176 242 287 342 412
#     4  11  23  45  73 106 134 184 236 296 340 408
#     4  11  24  41  79 105 131 184 241 298 334 412
#
# _framework density 23.933558999999999
#
# number of rings (size 3 to 8) (size 9 to 14) (size 15 to 20)
#    0.000    0.750    5.000    2.250    1.750    3.500 
#    2.250    0.000    0.000    0.000    0.000    0.000 
#    0.000    0.000    0.000    0.000    0.000    0.000 
#
# Total GULP energy -89631.606169 kJ/mol
# GULP energy per Si atom -5601.975386 kJ/mol
# Density = 2.387909 g / cm^3
# Si number density = 23.933559 Si / 1000 Ang^3
#
#
#
# Elastic Constant Matrix: (Units=GPa)
#
#
# Indices 1 2 3 4 5 6 
#
# 1 81.4407 11.6379 19.1224 -7.3522 5.5606 -43.1032
# 2 11.6379 75.9586 15.8050 3.9504 -11.7790 -25.5679
# 3 19.1224 15.8050 98.7153 -22.9964 -12.5118 0.4291
# 4 -7.3522 3.9504 -22.9964 37.3266 -1.1069 0.0805
# 5 5.5606 -11.7790 -12.5118 -1.1069 31.5482 -6.7286
# 6 -43.1032 -25.5679 0.4291 0.0805 -6.7286 46.5886
#
#
#
# Elastic Compliance Matrix: (Units=1/GPa)
#
#
# Indices 1 2 3 4 5 6 
#
# 1 0.029689 0.007933 -0.006712 0.000861 0.001957 0.032164
# 2 0.007933 0.021356 -0.004696 -0.003369 0.008946 0.020401
# 3 -0.006712 -0.004696 0.014629 0.008317 0.003733 -0.008397
# 4 0.000861 -0.003369 0.008317 0.032527 0.002865 -0.000771
# 5 0.001957 0.008946 0.003733 0.002865 0.038897 0.012299
# 6 0.032164 0.020401 -0.008397 -0.000771 0.012299 0.064274
#
#
# Mechanical properties :
#
#
# Convention : Reuss Voigt Hill
#
# Bulk Modulus (GPa) = 17.02864 38.80502 27.91683
# Shear Modulus (GPa) = 21.93982 37.06262 29.50122
#
# Velocity S-wave (km/s) = 3.03098 3.93945 3.51469
# Velocity P-wave (km/s) = 4.40222 6.07793 5.30663
#
# Compressibility (1/GPa) = 0.05872460
#
# Stress axis : x y z
#
# Youngs Moduli (GPa) = 33.68283 46.82468 68.35638
#
# Poissons Ratio (x) = -0.37147 0.45883
# Poissons Ratio (y) = -0.26722 0.32099
# Poissons Ratio (z) = 0.22609 0.21988
#
# Static dielectric constant tensor:
#      x y z
#    x 2.007980 -0.083040 0.066880 
#    y -0.083040 1.912390 -0.034020 
#    z 0.066880 -0.034020 1.979890 
# 
# From -- ./inp_files/577951.got.cif
#   From: 2010.05.17/outbox.cif.g08.bks.cpg/sg2_289_cif.got.tgz:577951.got - 2010.06.03 11:33:40.
