data_PCOD9056687
_publ_section_title
;
Structure prediction by ZEFSAII (Michael W. Deem and Ramdas Pophale) SiO2 
 PCOD9056687
Probable space group: P -1
;
_chemical_formula_sum "Si O2"
_cell_formula_units_Z 16
_cell_length_a 9.817538
_cell_length_b 7.996314
_cell_length_c 14.785276
_cell_angle_alpha 113.821563
_cell_angle_beta 91.473976
_cell_angle_gamma 46.394643
_cell_volume 710.663992
_symmetry_space_group_name_H-M "P -1"
_symmetry_group_IT_number 2
_symmetry_cell_setting 'triclinic'
loop_
_space_group_symop_operation_xyz
x,y,z
-x,-y,-z
loop_
_atom_site_type_symbol
_atom_site_label
_atom_site_fract_x
_atom_site_fract_y
_atom_site_fract_z
Si Si1 0.495402 0.503938 0.892500
Si Si2 0.215540 0.857240 0.821277
Si Si3 0.694516 0.935427 0.789822
Si Si4 0.757076 0.730984 0.556018
Si Si5 0.594742 0.679836 0.384353
Si Si6 0.294555 0.206732 0.910744
Si Si7 0.855215 0.393578 0.847807
Si Si8 0.095871 0.447992 0.772719
O O1 0.271547 0.741880 0.898710
O O2 0.636767 0.521336 0.856607
O O3 0.601878 0.208949 0.804674
O O4 0.500000 0.500000 0.000000
O O5 0.342700 0.585269 0.704273
O O6 0.277784 0.008167 0.853103
O O7 0.987271 0.103116 0.834707
O O8 0.715524 0.774664 0.672032
O O9 0.905920 0.757753 0.804697
O O10 0.529320 0.029852 0.878784
O O11 0.665589 0.651742 0.481503
O O12 0.000000 0.500000 0.500000
O O13 0.635209 0.025070 0.574041
O O14 0.731358 0.684813 0.326975
O O15 0.197279 0.388824 0.857795
O O16 0.182280 0.404901 0.037435
O O17 0.988615 0.354784 0.762556
#
# Coordination Sequence:
#
# PCOD9056687 Si02
#       8
#     2   2   2   2   2   2   2   2
#     4  12  25  39  63  98 132 171 223 264 318 390
#     4  11  24  43  64  94 136 172 215 272 316 386
#     4  12  23  42  68  94 132 172 218 272 331 383
#     4  11  23  43  71  97 124 165 222 281 335 381
#     4  11  23  43  71  97 125 168 224 274 327 390
#     4  11  24  43  62  95 138 182 215 258 320 390
#     4  11  26  41  64  96 139 183 215 257 321 388
#     4  11  22  40  66  93 128 172 216 262 325 389
#
# _framework density 22.514154000000001
#
# number of rings (size 3 to 8) (size 9 to 14) (size 15 to 20)
#    0.000    0.750    5.000    3.000    3.500    1.500 
#    0.000    0.625    0.000    4.500    0.000    0.000 
#    0.000    0.000    0.000    0.000    0.000    0.000 
#
# Total GULP energy -89362.394041 kJ/mol
# GULP energy per Si atom -5585.149628 kJ/mol
# Density = 2.246291 g / cm^3
# Si number density = 22.514154 Si / 1000 Ang^3
#
#
#
# Elastic Constant Matrix: (Units=GPa)
#
#
# Indices 1 2 3 4 5 6 
#
# 1 70.7733 32.4225 16.6510 16.8192 -4.0629 11.5002
# 2 32.4225 134.8887 41.6140 9.0270 4.8798 -17.4535
# 3 16.6510 41.6140 92.4307 18.4949 18.3888 4.8706
# 4 16.8192 9.0270 18.4949 33.1628 -1.0668 -4.0108
# 5 -4.0629 4.8798 18.3888 -1.0668 39.8951 8.4524
# 6 11.5002 -17.4535 4.8706 -4.0108 8.4524 42.0136
#
#
#
# Elastic Compliance Matrix: (Units=1/GPa)
#
#
# Indices 1 2 3 4 5 6 
#
# 1 0.021220 -0.006108 0.000698 -0.010595 0.004494 -0.010342
# 2 -0.006108 0.011120 -0.004764 0.003587 -0.001267 0.007441
# 3 0.000698 -0.004764 0.015978 -0.008602 -0.006178 -0.003601
# 4 -0.010595 0.003587 -0.008602 0.040481 0.001640 0.008922
# 5 0.004494 -0.001267 -0.006178 0.001640 0.030037 -0.006927
# 6 -0.010342 0.007441 -0.003601 0.008922 -0.006927 0.032387
#
#
# Mechanical properties :
#
#
# Convention : Reuss Voigt Hill
#
# Bulk Modulus (GPa) = 35.75144 53.27419 44.51281
# Shear Modulus (GPa) = 27.64067 36.84133 32.24100
#
# Velocity S-wave (km/s) = 3.50766 4.04959 3.78833
# Velocity P-wave (km/s) = 5.68497 6.75125 6.24093
#
# Compressibility (1/GPa) = 0.02797091
#
# Stress axis : x y z
#
# Youngs Moduli (GPa) = 47.12579 89.92962 62.58568
#
# Poissons Ratio (x) = 0.54925 -0.04368
# Poissons Ratio (y) = 0.28782 0.29815
# Poissons Ratio (z) = -0.03289 0.42841
#
# Static dielectric constant tensor:
#      x y z
#    x 1.882750 -0.017040 0.003770 
#    y -0.017040 1.887920 0.009430 
#    z 0.003770 0.009430 1.850950 
# 
# From -- ./inp_files/515933.got.cif
#   From: 2010.05.17/outbox.cif.g08.bks.cpg/sg2_258_cif.got.tgz:515933.got - 2010.06.03 11:33:40.
