data_PCOD9056963
_publ_section_title
;
Structure prediction by ZEFSAII (Michael W. Deem and Ramdas Pophale) SiO2 
 PCOD9056963
Probable space group: P -1
;
_chemical_formula_sum "Si O2"
_cell_formula_units_Z 14
_cell_length_a 9.113611
_cell_length_b 8.807590
_cell_length_c 16.003426
_cell_angle_alpha 139.039867
_cell_angle_beta 129.046140
_cell_angle_gamma 73.811853
_cell_volume 603.092782
_symmetry_space_group_name_H-M "P -1"
_symmetry_group_IT_number 2
_symmetry_cell_setting 'triclinic'
loop_
_space_group_symop_operation_xyz
x,y,z
-x,-y,-z
loop_
_atom_site_type_symbol
_atom_site_label
_atom_site_fract_x
_atom_site_fract_y
_atom_site_fract_z
Si Si1 0.107335 0.140052 0.737407
Si Si2 0.941144 0.404934 0.531943
Si Si3 0.744202 0.020417 0.951363
Si Si4 0.785425 0.632599 0.705027
Si Si5 0.706569 0.219305 0.635648
Si Si6 0.665729 0.463330 0.153599
Si Si7 0.263693 0.358022 0.059524
O O1 0.258130 0.364348 0.828374
O O2 0.876394 0.114853 0.624514
O O3 0.146769 0.893959 0.626696
O O4 0.131946 0.203022 0.870600
O O5 0.805184 0.540786 0.581799
O O6 0.000000 0.500000 0.500000
O O7 0.144035 0.480509 0.692529
O O8 0.697271 0.844573 0.779933
O O9 0.731465 0.837342 0.948530
O O10 0.604839 0.175582 0.982913
O O11 0.978849 0.226960 0.117338
O O12 0.675471 0.385931 0.618295
O O13 0.792399 0.428057 0.827002
O O14 0.500000 0.000000 0.500000
O O15 0.486074 0.493255 0.153757
#
# Coordination Sequence:
#
# PCOD9056963 Si02
#       7
#     2   2   2   2   2   2   2
#     4  12  23  41  65  97 131 173 214 271 324 384
#     4  11  23  40  66  92 131 175 220 259 326 387
#     4   9  18  38  66  89 130 166 217 257 325 377
#     4   9  19  38  63  93 123 175 207 266 320 383
#     4  11  23  41  67  95 131 172 214 270 326 383
#     4  11  22  41  66  97 130 174 214 271 322 381
#     4  11  24  39  66  98 133 169 221 260 324 391
#
# _framework density 23.213676
#
# number of rings (size 3 to 8) (size 9 to 14) (size 15 to 20)
#    0.000    1.429    2.857    4.286    2.000    0.000 
#    2.571    0.000    0.000    6.000    0.000    0.000 
#    0.000    0.000    0.000    0.000    0.000    0.000 
#
# Total GULP energy -78310.086721 kJ/mol
# GULP energy per Si atom -5593.577623 kJ/mol
# Density = 2.316084 g / cm^3
# Si number density = 23.213676 Si / 1000 Ang^3
#
#
#
# Elastic Constant Matrix: (Units=GPa)
#
#
# Indices 1 2 3 4 5 6 
#
# 1 92.9105 32.7809 31.4972 9.9372 -19.8337 26.2058
# 2 32.7809 81.4545 40.7888 25.5169 -21.1684 20.0623
# 3 31.4972 40.7888 95.7926 15.8151 -31.9912 0.4486
# 4 9.9372 25.5169 15.8151 27.6789 2.3564 6.2257
# 5 -19.8337 -21.1684 -31.9912 2.3564 57.9738 1.1886
# 6 26.2058 20.0623 0.4486 6.2257 1.1886 29.5563
#
#
#
# Elastic Compliance Matrix: (Units=1/GPa)
#
#
# Indices 1 2 3 4 5 6 
#
# 1 0.017484 0.000321 -0.004288 -0.000959 0.004092 -0.015618
# 2 0.000321 0.026349 -0.005623 -0.018591 0.007680 -0.014477
# 3 -0.004288 -0.005623 0.017087 -0.005405 0.005959 0.008258
# 4 -0.000959 -0.018591 -0.005405 0.057316 -0.012469 0.001980
# 5 0.004092 0.007680 0.005959 -0.012469 0.025399 -0.007327
# 6 -0.015618 -0.014477 0.008258 0.001980 -0.007327 0.057260
#
#
# Mechanical properties :
#
#
# Convention : Reuss Voigt Hill
#
# Bulk Modulus (GPa) = 23.95697 53.36571 38.66134
# Shear Modulus (GPa) = 21.36851 34.04787 27.70819
#
# Velocity S-wave (km/s) = 3.03729 3.83393 3.45862
# Velocity P-wave (km/s) = 4.75844 6.52974 5.71315
#
# Compressibility (1/GPa) = 0.04174151
#
# Stress axis : x y z
#
# Youngs Moduli (GPa) = 57.19362 37.95214 58.52331
#
# Poissons Ratio (x) = -0.01218 0.25093
# Poissons Ratio (y) = -0.01836 0.32907
# Poissons Ratio (z) = 0.24523 0.21340
#
# Static dielectric constant tensor:
#      x y z
#    x 1.880030 -0.026760 -0.017780 
#    y -0.026760 1.833830 -0.019010 
#    z -0.017780 -0.019010 1.921840 
# 
# From -- ./inp_files/181497.got.cif
#   From: 2010.05.17/outbox.cif.g08.bks.cpg/sg2_91_cif.got.tgz:181497.got - 2010.06.03 11:33:40.
