data_PCOD9056565
_publ_section_title
;
Structure prediction by ZEFSAII (Michael W. Deem and Ramdas Pophale) SiO2 
 PCOD9056565
Probable space group: P -1
;
_chemical_formula_sum "Si O2"
_cell_formula_units_Z 11
_cell_length_a 6.326393
_cell_length_b 12.563466
_cell_length_c 16.057673
_cell_angle_alpha 152.679071
_cell_angle_beta 45.223175
_cell_angle_gamma 130.749305
_cell_volume 414.393561
_symmetry_space_group_name_H-M "P -1"
_symmetry_group_IT_number 2
_symmetry_cell_setting 'triclinic'
loop_
_space_group_symop_operation_xyz
x,y,z
-x,-y,-z
loop_
_atom_site_type_symbol
_atom_site_label
_atom_site_fract_x
_atom_site_fract_y
_atom_site_fract_z
Si Si1 0.079892 0.523155 0.398179
Si Si2 0.107389 0.808000 0.433442
Si Si3 0.722932 0.401165 0.168679
Si Si4 0.500000 0.500000 0.000000
Si Si5 0.777321 0.198854 0.853611
Si Si6 0.287737 0.868233 0.852151
O O1 0.134817 0.750189 0.484198
O O2 0.395901 0.413375 0.231840
O O3 0.000000 0.500000 0.500000
O O4 0.797081 0.381221 0.337712
O O5 0.842974 0.634527 0.344630
O O6 0.383512 0.712161 0.241420
O O7 0.013868 0.070839 0.643397
O O8 0.717461 0.192226 0.090824
O O9 0.922846 0.352624 0.998271
O O10 0.558271 0.335608 0.951928
O O11 0.575751 0.996194 0.818313
O O12 0.000000 0.000000 0.000000
#
# Coordination Sequence:
#
# PCOD9056565 Si02
#       6
#     2   2   2   1   2   2
#     4  11  22  41  70 106 144 176 225 289 355 423
#     4  11  26  47  71 104 139 185 237 292 344 416
#     4  11  23  45  71 107 144 177 230 290 354 421
#     4  12  26  54  68  98 146 182 252 292 326 420
#     4  12  24  46  74 100 142 192 230 288 352 406
#     4  11  22  39  68 110 144 176 224 286 351 423
#
# _framework density 26.544815
#
# number of rings (size 3 to 8) (size 9 to 14) (size 15 to 20)
#    0.000    0.727    3.636    4.364    2.545    3.636 
#    3.273    1.818    0.000    0.000    0.000    0.000 
#    0.000    0.000    0.000    0.000    0.000    0.000 
#
# Total GULP energy -61293.569274 kJ/mol
# GULP energy per Si atom -5572.142661 kJ/mol
# Density = 2.648440 g / cm^3
# Si number density = 26.544815 Si / 1000 Ang^3
#
#
#
# Elastic Constant Matrix: (Units=GPa)
#
#
# Indices 1 2 3 4 5 6 
#
# 1 81.2188 50.2540 42.0878 1.5018 -5.6712 -31.0790
# 2 50.2540 145.6298 28.4253 -17.1780 -4.0615 -55.8427
# 3 42.0878 28.4253 154.5780 -23.1031 -14.1677 -30.8832
# 4 1.5018 -17.1780 -23.1031 47.0981 -8.7819 -2.2927
# 5 -5.6712 -4.0615 -14.1677 -8.7819 59.3879 0.9418
# 6 -31.0790 -55.8427 -30.8832 -2.2927 0.9418 74.1569
#
#
#
# Elastic Compliance Matrix: (Units=1/GPa)
#
#
# Indices 1 2 3 4 5 6 
#
# 1 0.018784 -0.005538 -0.004520 -0.004830 -0.000404 0.001675
# 2 -0.005538 0.012181 0.001902 0.006223 0.001554 0.007817
# 3 -0.004520 0.001902 0.009207 0.006035 0.002731 0.003524
# 4 -0.004830 0.006223 0.006035 0.027921 0.005438 0.005969
# 5 -0.000404 0.001554 0.002731 0.005438 0.018329 0.002074
# 6 0.001675 0.007817 0.003524 0.005969 0.002074 0.021699
#
#
# Mechanical properties :
#
#
# Convention : Reuss Voigt Hill
#
# Bulk Modulus (GPa) = 41.91317 69.21785 55.56551
# Shear Modulus (GPa) = 37.76838 53.50589 45.63714
#
# Velocity S-wave (km/s) = 3.77612 4.49450 4.15088
# Velocity P-wave (km/s) = 5.90220 7.28468 6.62957
#
# Compressibility (1/GPa) = 0.02385885
#
# Stress axis : x y z
#
# Youngs Moduli (GPa) = 53.23779 82.09262 108.61858
#
# Poissons Ratio (x) = 0.45465 0.49098
# Poissons Ratio (y) = 0.29485 -0.20661
# Poissons Ratio (z) = 0.24064 -0.15615
#
# Static dielectric constant tensor:
#      x y z
#    x 2.177790 0.028870 0.028710 
#    y 0.028870 2.164610 0.021150 
#    z 0.028710 0.021150 2.191760 
# 
# From -- ./inp_files/58763.got.cif
#   From: 2010.05.17/outbox.cif.g08.bks.cpg/sg2_30_cif.got.tgz:58763.got - 2010.06.03 11:33:40.
