data_PCOD9056815
_publ_section_title
;
Structure prediction by ZEFSAII (Michael W. Deem and Ramdas Pophale) SiO2 
 PCOD9056815
Probable space group: P -1
;
_chemical_formula_sum "Si O2"
_cell_formula_units_Z 16
_cell_length_a 9.014143
_cell_length_b 13.120796
_cell_length_c 11.270105
_cell_angle_alpha 71.638431
_cell_angle_beta 88.199504
_cell_angle_gamma 39.464440
_cell_volume 752.906215
_symmetry_space_group_name_H-M "P -1"
_symmetry_group_IT_number 2
_symmetry_cell_setting 'triclinic'
loop_
_space_group_symop_operation_xyz
x,y,z
-x,-y,-z
loop_
_atom_site_type_symbol
_atom_site_label
_atom_site_fract_x
_atom_site_fract_y
_atom_site_fract_z
Si Si1 0.033800 0.059797 0.619496
Si Si2 0.698610 0.535546 0.201233
Si Si3 0.729047 0.748291 0.097784
Si Si4 0.459705 0.396042 0.548968
Si Si5 0.824620 0.205650 0.951005
Si Si6 0.022918 0.132880 0.326274
Si Si7 0.762454 0.920255 0.878673
Si Si8 0.955373 0.292292 0.714569
O O1 0.738205 0.198764 0.582376
O O2 0.092925 0.065846 0.484695
O O3 0.077656 0.134243 0.678981
O O4 0.136071 0.880716 0.706146
O O5 0.833995 0.568076 0.155382
O O6 0.614600 0.593641 0.320480
O O7 0.457218 0.667229 0.074436
O O8 0.855231 0.336880 0.258874
O O9 0.860254 0.745799 0.195192
O O10 0.443637 0.907580 0.092921
O O11 0.744749 0.805736 0.954566
O O12 0.500000 0.500000 0.500000
O O13 0.229737 0.518847 0.418922
O O14 0.815544 0.291717 0.807118
O O15 0.966767 0.192210 0.050392
O O16 0.000000 0.000000 0.000000
O O17 0.253898 0.032091 0.272953
#
# Coordination Sequence:
#
# PCOD9056815 Si02
#       8
#     2   2   2   2   2   2   2   2
#     4  10  19  37  63  93 115 157 194 253 297 353
#     4  12  21  37  63  96 118 156 194 254 298 350
#     4  10  23  39  63  84 119 160 208 238 290 355
#     4  10  17  36  63  90 113 146 204 250 289 338
#     4  11  19  34  65  90 112 151 212 249 282 340
#     4  11  22  36  61  86 131 150 194 246 312 347
#     4  10  22  41  56  86 119 168 197 243 290 355
#     4  10  19  37  64  92 113 150 206 249 288 348
#
# _framework density 21.250986000000001
#
# number of rings (size 3 to 8) (size 9 to 14) (size 15 to 20)
#    0.000    1.500    6.250    1.500    0.000    1.500 
#    0.000    0.625   11.000    0.000    0.000    0.000 
#    0.000    0.000    0.000    0.000    0.000    0.000 
#
# Total GULP energy -89167.937740 kJ/mol
# GULP energy per Si atom -5572.996109 kJ/mol
# Density = 2.120262 g / cm^3
# Si number density = 21.250986 Si / 1000 Ang^3
#
#
#
# Elastic Constant Matrix: (Units=GPa)
#
#
# Indices 1 2 3 4 5 6 
#
# 1 104.3215 26.5780 37.3543 -2.7978 -20.4160 17.1542
# 2 26.5780 43.4801 13.0845 4.2248 -16.7276 13.5995
# 3 37.3543 13.0845 76.2762 2.8265 -26.8798 -3.6834
# 4 -2.7978 4.2248 2.8265 33.4873 -0.8737 -11.8452
# 5 -20.4160 -16.7276 -26.8798 -0.8737 43.8044 -6.8670
# 6 17.1542 13.5995 -3.6834 -11.8452 -6.8670 25.2468
#
#
#
# Elastic Compliance Matrix: (Units=1/GPa)
#
#
# Indices 1 2 3 4 5 6 
#
# 1 0.014523 -0.003918 -0.007052 -0.001046 -0.000553 -0.009427
# 2 -0.003918 0.036650 -0.002434 -0.012040 0.007121 -0.021147
# 3 -0.007052 -0.002434 0.021464 0.003043 0.011163 0.013698
# 4 -0.001046 -0.012040 0.003043 0.040727 0.001867 0.027256
# 5 -0.000553 0.007121 0.011163 0.001867 0.033454 0.008144
# 6 -0.009427 -0.021147 0.013698 0.027256 0.008144 0.074407
#
#
# Mechanical properties :
#
#
# Convention : Reuss Voigt Hill
#
# Bulk Modulus (GPa) = 21.81997 42.01236 31.91616
# Shear Modulus (GPa) = 18.98921 30.31176 24.65048
#
# Velocity S-wave (km/s) = 2.99250 3.78083 3.40953
# Velocity P-wave (km/s) = 4.71489 6.23475 5.52731
#
# Compressibility (1/GPa) = 0.04582959
#
# Stress axis : x y z
#
# Youngs Moduli (GPa) = 68.85785 27.28511 46.59056
#
# Poissons Ratio (x) = 0.10690 0.32853
# Poissons Ratio (y) = 0.26977 0.11341
# Poissons Ratio (z) = 0.48555 0.06641
#
# Static dielectric constant tensor:
#      x y z
#    x 1.785600 0.037830 0.022260 
#    y 0.037830 1.933960 -0.050740 
#    z 0.022260 -0.050740 1.860860 
# 
# From -- ./inp_files/398797.got.cif
#   From: 2010.05.17/outbox.cif.g08.bks.cpg/sg2_200_cif.got.tgz:398797.got - 2010.06.03 11:33:40.
