data_PCOD9056190
_publ_section_title
;
Structure prediction by ZEFSAII (Michael W. Deem and Ramdas Pophale) SiO2 
 PCOD9056190
Probable space group: P -1
;
_chemical_formula_sum "Si O2"
_cell_formula_units_Z 16
_cell_length_a 9.432352
_cell_length_b 12.486057
_cell_length_c 19.548178
_cell_angle_alpha 33.734387
_cell_angle_beta 45.905538
_cell_angle_gamma 51.415805
_cell_volume 912.377730
_symmetry_space_group_name_H-M "P -1"
_symmetry_group_IT_number 2
_symmetry_cell_setting 'triclinic'
loop_
_space_group_symop_operation_xyz
x,y,z
-x,-y,-z
loop_
_atom_site_type_symbol
_atom_site_label
_atom_site_fract_x
_atom_site_fract_y
_atom_site_fract_z
Si Si1 0.335494 0.368619 0.343637
Si Si2 0.747288 0.215153 0.358643
Si Si3 0.554578 0.927369 0.656888
Si Si4 0.179145 0.087826 0.074073
Si Si5 0.556846 0.692499 0.915791
Si Si6 0.135158 0.079214 0.644238
Si Si7 0.582954 0.203898 0.946253
Si Si8 0.975949 0.493758 0.929148
O O1 0.536130 0.287503 0.358235
O O2 0.360288 0.254262 0.323666
O O3 0.342305 0.596147 0.211806
O O4 0.164809 0.286347 0.490169
O O5 0.856769 0.068555 0.344116
O O6 0.696962 0.094329 0.505803
O O7 0.866293 0.398605 0.223460
O O8 0.557897 0.854955 0.771236
O O9 0.332271 0.005108 0.662872
O O10 0.064509 0.943013 0.235673
O O11 0.272704 0.975062 0.036879
O O12 0.363208 0.172042 0.007202
O O13 0.014064 0.267840 0.017977
O O14 0.768620 0.612914 0.918375
O O15 0.500000 0.500000 0.000000
O O16 0.427370 0.773302 0.980869
O O17 0.000000 0.500000 0.000000
#
# Coordination Sequence:
#
# PCOD9056190 Si02
#       8
#     2   2   2   2   2   2   2   2
#     4   9  16  33  56  81 112 140 181 225 277 328
#     4   9  16  31  56  82 108 141 184 229 267 324
#     4   9  19  32  54  84 112 140 178 231 284 318
#     4  11  22  35  55  85 112 145 188 229 272 326
#     4  12  22  35  58  83 113 144 183 235 278 322
#     4   9  17  32  55  83 110 145 180 224 276 333
#     4  11  22  36  55  84 113 146 184 232 277 320
#     4  12  20  35  59  82 109 146 194 224 267 332
#
# _framework density 17.536595999999999
#
# number of rings (size 3 to 8) (size 9 to 14) (size 15 to 20)
#    0.000    1.750    5.000    2.250    0.000    1.000 
#    0.000    2.500    0.000    0.750    0.000    0.000 
#    0.000    0.000    0.000    0.000    0.000    0.000 
#
# Total GULP energy -89159.199167 kJ/mol
# GULP energy per Si atom -5572.449948 kJ/mol
# Density = 1.749668 g / cm^3
# Si number density = 17.536596 Si / 1000 Ang^3
#
#
#
# Elastic Constant Matrix: (Units=GPa)
#
#
# Indices 1 2 3 4 5 6 
#
# 1 32.3511 9.0870 37.7232 1.2292 14.9584 6.8282
# 2 9.0870 85.2891 48.0346 6.2052 13.3472 11.2373
# 3 37.7232 48.0346 152.3609 4.5551 8.9966 12.7331
# 4 1.2292 6.2052 4.5551 18.5760 1.2040 -1.6098
# 5 14.9584 13.3472 8.9966 1.2040 31.9719 1.6888
# 6 6.8282 11.2373 12.7331 -1.6098 1.6888 18.0067
#
#
#
# Elastic Compliance Matrix: (Units=1/GPa)
#
#
# Indices 1 2 3 4 5 6 
#
# 1 0.062233 0.008437 -0.015032 -0.002850 -0.027461 -0.015914
# 2 0.008437 0.017202 -0.006070 -0.005053 -0.008740 -0.009274
# 3 -0.015032 -0.006070 0.011792 -0.000226 0.006228 0.000545
# 4 -0.002850 -0.005053 -0.000226 0.056519 0.000883 0.009364
# 5 -0.027461 -0.008740 0.006228 0.000883 0.045605 0.007266
# 6 -0.015914 -0.009274 0.000545 0.009364 0.007266 0.067128
#
#
# Mechanical properties :
#
#
# Convention : Reuss Voigt Hill
#
# Bulk Modulus (GPa) = 15.17499 51.07674 33.12587
# Shear Modulus (GPa) = 16.24570 25.38799 20.81685
#
# Velocity S-wave (km/s) = 3.04697 3.80901 3.44910
# Velocity P-wave (km/s) = 4.58811 6.96662 5.89850
#
# Compressibility (1/GPa) = 0.06589789
#
# Stress axis : x y z
#
# Youngs Moduli (GPa) = 16.06858 58.13335 84.80248
#
# Poissons Ratio (x) = -0.49046 1.27471
# Poissons Ratio (y) = -0.13557 0.51474
# Poissons Ratio (z) = 0.24154 0.35286
#
# Static dielectric constant tensor:
#      x y z
#    x 3.689380 -0.372850 -0.722470 
#    y -0.372850 1.655460 0.118170 
#    z -0.722470 0.118170 1.877390 
# 
# From -- ./inp_files/558928.got.cif
#   From: 2010.05.17/outbox.cif.g08.bks.cpg/sg2_280_cif.got.tgz:558928.got - 2010.06.03 11:33:40.
