data_PCOD9056294
_publ_section_title
;
Structure prediction by ZEFSAII (Michael W. Deem and Ramdas Pophale) SiO2 
 PCOD9056294
Probable space group: P -1
;
_chemical_formula_sum "Si O2"
_cell_formula_units_Z 12
_cell_length_a 18.107025
_cell_length_b 12.534501
_cell_length_c 5.142417
_cell_angle_alpha 119.237460
_cell_angle_beta 109.451482
_cell_angle_gamma 28.718645
_cell_volume 476.553668
_symmetry_space_group_name_H-M "P -1"
_symmetry_group_IT_number 2
_symmetry_cell_setting 'triclinic'
loop_
_space_group_symop_operation_xyz
x,y,z
-x,-y,-z
loop_
_atom_site_type_symbol
_atom_site_label
_atom_site_fract_x
_atom_site_fract_y
_atom_site_fract_z
Si Si1 0.095604 0.176842 0.763800
Si Si2 0.756734 0.251049 0.677653
Si Si3 0.142936 0.358735 0.292147
Si Si4 0.381104 0.342127 0.763305
Si Si5 0.336658 0.161381 0.781748
Si Si6 0.095211 0.770481 0.582266
O O1 0.127424 0.234417 0.084017
O O2 0.958911 0.258528 0.733112
O O3 0.250064 0.884332 0.541991
O O4 0.019007 0.356807 0.650561
O O5 0.813660 0.246189 0.481153
O O6 0.622089 0.515590 0.961058
O O7 0.917048 0.040349 0.790994
O O8 0.269570 0.227947 0.065781
O O9 0.205461 0.309145 0.586383
O O10 0.388301 0.230575 0.865197
O O11 0.214802 0.553712 0.670285
O O12 0.519611 0.121711 0.465819
#
# Coordination Sequence:
#
# PCOD9056294 Si02
#       6
#     2   2   2   2   2   2
#     4   9  20  39  66  87 124 156 206 257 300 358
#     4   9  19  37  61  94 117 155 203 262 302 349
#     4  11  23  45  59  95 121 166 202 244 307 367
#     4  11  22  37  63  90 121 159 205 254 304 359
#     4  11  26  39  66  86 130 162 202 246 304 370
#     4   9  18  36  60  94 111 154 200 260 300 342
#
# _framework density 25.180792
#
# number of rings (size 3 to 8) (size 9 to 14) (size 15 to 20)
#    1.000    1.000    1.667    1.500    2.333    4.000 
#    6.000    1.667    0.000    0.000    0.000    0.000 
#    0.000    0.000    0.000    0.000    0.000    0.000 
#
# Total GULP energy -67027.129647 kJ/mol
# GULP energy per Si atom -5585.594137 kJ/mol
# Density = 2.512348 g / cm^3
# Si number density = 25.180792 Si / 1000 Ang^3
#
#
#
# Elastic Constant Matrix: (Units=GPa)
#
#
# Indices 1 2 3 4 5 6 
#
# 1 57.3213 27.3866 46.0018 10.7899 -0.3021 20.6041
# 2 27.3866 93.1106 49.7770 33.5881 7.2347 14.1099
# 3 46.0018 49.7770 101.3410 28.6607 2.6603 18.0486
# 4 10.7899 33.5881 28.6607 61.6782 4.2245 18.5817
# 5 -0.3021 7.2347 2.6603 4.2245 58.1387 8.6284
# 6 20.6041 14.1099 18.0486 18.5817 8.6284 19.0568
#
#
#
# Elastic Compliance Matrix: (Units=1/GPa)
#
#
# Indices 1 2 3 4 5 6 
#
# 1 0.048178 -0.004722 -0.014787 0.017003 0.008440 -0.054989
# 2 -0.004722 0.016810 -0.004924 -0.007621 -0.002190 0.005744
# 3 -0.014787 -0.004924 0.019358 -0.005932 -0.001040 0.007554
# 4 0.017003 -0.007621 -0.005932 0.032044 0.005011 -0.040637
# 5 0.008440 -0.002190 -0.001040 0.005011 0.020254 -0.020575
# 6 -0.054989 0.005744 0.007554 -0.040637 -0.020575 0.149460
#
#
# Mechanical properties :
#
#
# Convention : Reuss Voigt Hill
#
# Bulk Modulus (GPa) = 28.18414 55.34485 41.76450
# Shear Modulus (GPa) = 14.41774 36.34859 25.38316
#
# Velocity S-wave (km/s) = 2.39544 3.80347 3.17840
# Velocity P-wave (km/s) = 4.34371 6.42769 5.48557
#
# Compressibility (1/GPa) = 0.03548094
#
# Stress axis : x y z
#
# Youngs Moduli (GPa) = 20.75632 59.49012 51.65855
#
# Poissons Ratio (x) = 0.28089 0.76388
# Poissons Ratio (y) = 0.09800 0.25435
# Poissons Ratio (z) = 0.30693 0.29290
#
# Static dielectric constant tensor:
#      x y z
#    x 2.038510 0.002450 0.048550 
#    y 0.002450 2.027600 0.085090 
#    z 0.048550 0.085090 2.130480 
# 
# From -- ./inp_files/117946.got.cif
#   From: 2010.05.17/outbox.cif.g08.bks.cpg/sg2_59_cif.got.tgz:117946.got - 2010.06.03 11:33:40.
