data_PCOD9056519
_publ_section_title
;
Structure prediction by ZEFSAII (Michael W. Deem and Ramdas Pophale) SiO2 
 PCOD9056519
Probable space group: P -1
;
_chemical_formula_sum "Si O2"
_cell_formula_units_Z 14
_cell_length_a 6.319903
_cell_length_b 8.516270
_cell_length_c 13.705203
_cell_angle_alpha 94.428180
_cell_angle_beta 119.898264
_cell_angle_gamma 63.493806
_cell_volume 562.133182
_symmetry_space_group_name_H-M "P -1"
_symmetry_group_IT_number 2
_symmetry_cell_setting 'triclinic'
loop_
_space_group_symop_operation_xyz
x,y,z
-x,-y,-z
loop_
_atom_site_type_symbol
_atom_site_label
_atom_site_fract_x
_atom_site_fract_y
_atom_site_fract_z
Si Si1 0.733333 0.001676 0.892478
Si Si2 0.252798 0.958364 0.626033
Si Si3 0.691980 0.749370 0.455994
Si Si4 0.780206 0.447985 0.320819
Si Si5 0.317528 0.336393 0.185968
Si Si6 0.121971 0.917121 0.284656
Si Si7 0.854609 0.669730 0.177424
O O1 0.797648 0.020921 0.793567
O O2 0.458132 0.163673 0.885978
O O3 0.713863 0.817649 0.888674
O O4 0.000000 0.000000 0.000000
O O5 0.276936 0.136105 0.619729
O O6 0.150571 0.956480 0.712716
O O7 0.539239 0.773880 0.683988
O O8 0.000000 0.000000 0.500000
O O9 0.702649 0.569031 0.407089
O O10 0.373496 0.864241 0.416247
O O11 0.928274 0.714748 0.586059
O O12 0.536885 0.411911 0.221355
O O13 0.849385 0.558319 0.263844
O O14 0.012949 0.507573 0.129586
O O15 0.062160 0.753769 0.238189
#
# Coordination Sequence:
#
# PCOD9056519 Si02
#       7
#     2   2   2   2   2   2   2
#     4  12  29  54  78 103 137 190 253 319 379 424
#     4  12  25  42  68 112 154 201 242 282 361 443
#     4  11  22  39  66 104 151 202 235 281 352 434
#     4  11  23  39  67 109 150 191 236 287 354 437
#     4  12  25  44  75 106 145 193 241 306 360 432
#     4  12  23  48  72 101 156 192 239 305 352 431
#     4  12  25  47  73 107 149 185 246 304 368 433
#
# _framework density 24.90513
#
# number of rings (size 3 to 8) (size 9 to 14) (size 15 to 20)
#    0.000    0.286    8.571    0.000    4.000    2.286 
#    0.000    2.857    0.000    0.000    0.000    0.000 
#    0.000    0.000    0.000    0.000    0.000    0.000 
#
# Total GULP energy -78022.824687 kJ/mol
# GULP energy per Si atom -5573.058906 kJ/mol
# Density = 2.484844 g / cm^3
# Si number density = 24.905130 Si / 1000 Ang^3
#
#
#
# Elastic Constant Matrix: (Units=GPa)
#
#
# Indices 1 2 3 4 5 6 
#
# 1 103.1253 58.2263 31.1755 2.9864 28.6099 -12.0646
# 2 58.2263 151.1445 15.4002 -0.2733 18.6251 -9.2900
# 3 31.1755 15.4002 70.2564 10.1729 34.4405 -5.0725
# 4 2.9864 -0.2733 10.1729 25.6929 6.6581 11.2274
# 5 28.6099 18.6251 34.4405 6.6581 45.3776 -2.8194
# 6 -12.0646 -9.2900 -5.0725 11.2274 -2.8194 50.5385
#
#
#
# Elastic Compliance Matrix: (Units=1/GPa)
#
#
# Indices 1 2 3 4 5 6 
#
# 1 0.014890 -0.004680 -0.002883 -0.000269 -0.005104 0.002180
# 2 -0.004680 0.008508 0.000726 0.000492 -0.001143 0.000347
# 3 -0.002883 0.000726 0.024137 -0.006163 -0.015748 0.002358
# 4 -0.000269 0.000492 -0.006163 0.047064 -0.002957 -0.011213
# 5 -0.005104 -0.001143 -0.015748 -0.002957 0.038097 -0.000227
# 6 0.002180 0.000347 0.002358 -0.011213 -0.000227 0.023086
#
#
# Mechanical properties :
#
#
# Convention : Reuss Voigt Hill
#
# Bulk Modulus (GPa) = 29.53325 59.34777 44.44051
# Shear Modulus (GPa) = 27.66376 38.97007 33.31692
#
# Velocity S-wave (km/s) = 3.33643 3.95997 3.66150
# Velocity P-wave (km/s) = 5.16976 6.69252 5.97981
#
# Compressibility (1/GPa) = 0.03386014
#
# Stress axis : x y z
#
# Youngs Moduli (GPa) = 67.16129 117.53480 41.43099
#
# Poissons Ratio (x) = 0.55004 0.11945
# Poissons Ratio (y) = 0.31430 -0.03007
# Poissons Ratio (z) = 0.19363 -0.08531
#
# Static dielectric constant tensor:
#      x y z
#    x 1.996450 -0.050400 -0.002540 
#    y -0.050400 2.074120 0.022060 
#    z -0.002540 0.022060 2.015210 
# 
# From -- ./inp_files/287738.got.cif
#   From: 2010.05.17/outbox.cif.g08.bks.cpg/sg2_144_cif.got.tgz:287738.got - 2010.06.03 11:33:40.
