data_PCOD9056083
_publ_section_title
;
Structure prediction by ZEFSAII (Michael W. Deem and Ramdas Pophale) SiO2 
 PCOD9056083
Probable space group: P -1
;
_chemical_formula_sum "Si O2"
_cell_formula_units_Z 16
_cell_length_a 14.453801
_cell_length_b 11.048366
_cell_length_c 13.503588
_cell_angle_alpha 34.523403
_cell_angle_beta 47.245382
_cell_angle_gamma 71.412448
_cell_volume 732.243867
_symmetry_space_group_name_H-M "P -1"
_symmetry_group_IT_number 2
_symmetry_cell_setting 'triclinic'
loop_
_space_group_symop_operation_xyz
x,y,z
-x,-y,-z
loop_
_atom_site_type_symbol
_atom_site_label
_atom_site_fract_x
_atom_site_fract_y
_atom_site_fract_z
Si Si1 0.024390 0.891857 0.155019
Si Si2 0.644471 0.005006 0.178987
Si Si3 0.241512 0.893330 0.298470
Si Si4 0.983259 0.917942 0.379576
Si Si5 0.476325 0.507436 0.750652
Si Si6 0.725556 0.413977 0.008795
Si Si7 0.295315 0.619877 0.286784
Si Si8 0.997798 0.641064 0.810025
O O1 0.005054 0.012238 0.187666
O O2 0.884708 0.585586 0.469780
O O3 0.191042 0.946393 0.992430
O O4 0.000000 0.000000 0.000000
O O5 0.518198 0.700057 0.497977
O O6 0.656857 0.155646 0.168821
O O7 0.620355 0.144712 0.012089
O O8 0.305870 0.744683 0.301322
O O9 0.155491 0.770463 0.547059
O O10 0.106969 0.852413 0.352288
O O11 0.364245 0.202438 0.010404
O O12 0.816573 0.657607 0.701832
O O13 0.016199 0.131829 0.291876
O O14 0.630018 0.540493 0.655141
O O15 0.397095 0.571313 0.849872
O O16 0.855618 0.461872 0.959858
O O17 0.000000 0.500000 0.000000
#
# Coordination Sequence:
#
# PCOD9056083 Si02
#       8
#     2   2   2   2   2   2   2   2
#     4  12  24  45  72 103 134 172 238 288 335 396
#     4  12  26  45  70 101 135 185 228 286 347 403
#     4  11  23  47  68  97 141 177 232 281 339 413
#     4  11  21  45  76  94 133 184 224 294 336 387
#     4  12  26  46  66 102 148 178 226 278 348 424
#     4  11  23  47  68  97 141 177 232 281 339 413
#     4  12  26  45  70 101 135 185 228 286 347 403
#     4  11  24  39  73 105 129 181 236 289 336 392
#
# _framework density 21.850645
#
# number of rings (size 3 to 8) (size 9 to 14) (size 15 to 20)
#    0.000    0.500    6.250    3.375    3.500    2.000 
#    0.000    0.000    0.000    0.000    0.000    0.000 
#    0.000    0.000    0.000    0.000    0.000    0.000 
#
# Total GULP energy -89533.861472 kJ/mol
# GULP energy per Si atom -5595.866342 kJ/mol
# Density = 2.180091 g / cm^3
# Si number density = 21.850645 Si / 1000 Ang^3
#
#
#
# Elastic Constant Matrix: (Units=GPa)
#
#
# Indices 1 2 3 4 5 6 
#
# 1 43.6793 13.5584 19.2057 13.7347 30.3139 9.4465
# 2 13.5584 90.3450 25.5334 20.8676 -2.9476 12.2109
# 3 19.2057 25.5334 98.6782 17.0078 12.1597 3.7805
# 4 13.7347 20.8676 17.0078 29.9229 3.6232 0.8667
# 5 30.3139 -2.9476 12.1597 3.6232 40.8905 2.5687
# 6 9.4465 12.2109 3.7805 0.8667 2.5687 33.6694
#
#
#
# Elastic Compliance Matrix: (Units=1/GPa)
#
#
# Indices 1 2 3 4 5 6 
#
# 1 0.066587 -0.004526 -0.002088 -0.020224 -0.046477 -0.012740
# 2 -0.004526 0.014907 -0.002242 -0.007655 0.006036 -0.004148
# 3 -0.002088 -0.002242 0.012045 -0.004109 -0.001850 0.000293
# 4 -0.020224 -0.007655 -0.004109 0.048858 0.010905 0.006822
# 5 -0.046477 0.006036 -0.001850 0.010905 0.058534 0.006312
# 6 -0.012740 -0.004148 0.000293 0.006822 0.006312 0.034089
#
#
# Mechanical properties :
#
#
# Convention : Reuss Voigt Hill
#
# Bulk Modulus (GPa) = 13.18766 38.81086 25.99926
# Shear Modulus (GPa) = 17.98507 32.52355 25.25431
#
# Velocity S-wave (km/s) = 2.87207 3.86223 3.40335
# Velocity P-wave (km/s) = 4.12878 6.13918 5.23146
#
# Compressibility (1/GPa) = 0.07582849
#
# Stress axis : x y z
#
# Youngs Moduli (GPa) = 15.01788 67.08161 83.01948
#
# Poissons Ratio (x) = 0.30362 0.17332
# Poissons Ratio (y) = 0.06797 0.18612
# Poissons Ratio (z) = 0.03135 0.15039
#
# Static dielectric constant tensor:
#      x y z
#    x 1.812620 0.003860 -0.018340 
#    y 0.003860 1.795470 -0.004530 
#    z -0.018340 -0.004530 1.811480 
# 
# From -- ./inp_files/457426.got.cif
#   From: 2010.05.17/outbox.cif.g08.bks.cpg/sg2_229_cif.got.tgz:457426.got - 2010.06.03 11:33:40.
