data_PCOD9056104
_publ_section_title
;
Structure prediction by ZEFSAII (Michael W. Deem and Ramdas Pophale) SiO2 
 PCOD9056104
Probable space group: P -1
;
_chemical_formula_sum "Si O2"
_cell_formula_units_Z 14
_cell_length_a 20.559871
_cell_length_b 10.838392
_cell_length_c 9.332530
_cell_angle_alpha 127.659352
_cell_angle_beta 144.543868
_cell_angle_gamma 30.115280
_cell_volume 573.090006
_symmetry_space_group_name_H-M "P -1"
_symmetry_group_IT_number 2
_symmetry_cell_setting 'triclinic'
loop_
_space_group_symop_operation_xyz
x,y,z
-x,-y,-z
loop_
_atom_site_type_symbol
_atom_site_label
_atom_site_fract_x
_atom_site_fract_y
_atom_site_fract_z
Si Si1 0.025177 0.469962 0.353699
Si Si2 0.214620 0.726399 0.229852
Si Si3 0.650472 0.036326 0.028068
Si Si4 0.339984 0.151870 0.484703
Si Si5 0.302714 0.851576 0.079505
Si Si6 0.102510 0.632653 0.184916
Si Si7 0.515112 0.634005 0.767507
O O1 0.000000 0.500000 0.500000
O O2 0.230620 0.280619 0.530880
O O3 0.968082 0.380443 0.094520
O O4 0.870279 0.764725 0.233718
O O5 0.219945 0.644202 0.338089
O O6 0.334298 0.752299 0.456915
O O7 0.330109 0.489276 0.158107
O O8 0.000000 0.000000 0.000000
O O9 0.538944 0.012328 0.750498
O O10 0.625866 0.205077 0.993705
O O11 0.566143 0.155039 0.116945
O O12 0.209908 0.395283 0.313959
O O13 0.354087 0.957799 0.324741
O O14 0.384548 0.611688 0.133768
O O15 0.078157 0.099406 0.868294
#
# Coordination Sequence:
#
# PCOD9056104 Si02
#       7
#     2   2   2   2   2   2   2
#     4  11  26  42  67 104 142 173 228 290 334 403
#     4  11  25  46  68  93 139 190 224 270 347 411
#     4  12  25  43  69 104 142 173 227 288 342 397
#     4  11  24  45  74 100 133 186 232 274 344 404
#     4  11  21  46  69 100 134 181 229 280 333 409
#     4  11  22  46  76  95 131 191 233 274 338 408
#     4  11  27  42  67 104 138 176 231 281 338 412
#
# _framework density 24.428972000000002
#
# number of rings (size 3 to 8) (size 9 to 14) (size 15 to 20)
#    0.000    0.857    4.286    2.571    6.000    1.714 
#    0.000    1.429    0.000    0.000    0.000    0.000 
#    0.000    0.000    0.000    0.000    0.000    0.000 
#
# Total GULP energy -78392.613885 kJ/mol
# GULP energy per Si atom -5599.472420 kJ/mol
# Density = 2.437337 g / cm^3
# Si number density = 24.428972 Si / 1000 Ang^3
#
#
#
# Elastic Constant Matrix: (Units=GPa)
#
#
# Indices 1 2 3 4 5 6 
#
# 1 128.4152 4.2385 11.2058 -6.9421 0.6324 -31.9117
# 2 4.2385 69.9840 7.4684 -19.1683 6.9141 -23.3064
# 3 11.2058 7.4684 40.7463 -16.8598 -4.9592 -15.6110
# 4 -6.9421 -19.1683 -16.8598 29.4572 -4.2021 -5.7591
# 5 0.6324 6.9141 -4.9592 -4.2021 29.9877 -8.4800
# 6 -31.9117 -23.3064 -15.6110 -5.7591 -8.4800 54.3414
#
#
#
# Elastic Compliance Matrix: (Units=1/GPa)
#
#
# Indices 1 2 3 4 5 6 
#
# 1 0.011296 0.007066 0.008520 0.015860 0.005926 0.014717
# 2 0.007066 0.033000 0.024111 0.044789 0.011490 0.031769
# 3 0.008520 0.024111 0.068080 0.069875 0.028535 0.046760
# 4 0.015860 0.044789 0.069875 0.125440 0.037634 0.067764
# 5 0.005926 0.011490 0.028535 0.037634 0.048530 0.028167
# 6 0.014717 0.031769 0.046760 0.067764 0.028167 0.065681
#
#
# Mechanical properties :
#
#
# Convention : Reuss Voigt Hill
#
# Bulk Modulus (GPa) = 5.21454 31.66343 18.43899
# Shear Modulus (GPa) = 14.85632 37.17278 26.01455
#
# Velocity S-wave (km/s) = 2.46873 3.90509 3.26683
# Velocity P-wave (km/s) = 3.20396 5.77257 4.66840
#
# Compressibility (1/GPa) = 0.19177156
#
# Stress axis : x y z
#
# Youngs Moduli (GPa) = 88.52665 30.30265 14.68854
#
# Poissons Ratio (x) = -0.21413 -0.12515
# Poissons Ratio (y) = -0.62556 -0.35415
# Poissons Ratio (z) = -0.75429 -0.73062
#
# Static dielectric constant tensor:
#      x y z
#    x 1.954410 -0.001040 -0.021480 
#    y -0.001040 1.934210 0.031620 
#    z -0.021480 0.031620 1.973690 
# 
# From -- ./inp_files/186850.got.cif
#   From: 2010.05.17/outbox.cif.g08.bks.cpg/sg2_94_cif.got.tgz:186850.got - 2010.06.03 11:33:40.
