data_PCOD9056609
_publ_section_title
;
Structure prediction by ZEFSAII (Michael W. Deem and Ramdas Pophale) SiO2 
 PCOD9056609
Probable space group: P -1
;
_chemical_formula_sum "Si O2"
_cell_formula_units_Z 13
_cell_length_a 12.140905
_cell_length_b 8.276705
_cell_length_c 7.889692
_cell_angle_alpha 77.506014
_cell_angle_beta 132.977580
_cell_angle_gamma 91.295843
_cell_volume 557.579740
_symmetry_space_group_name_H-M "P -1"
_symmetry_group_IT_number 2
_symmetry_cell_setting 'triclinic'
loop_
_space_group_symop_operation_xyz
x,y,z
-x,-y,-z
loop_
_atom_site_type_symbol
_atom_site_label
_atom_site_fract_x
_atom_site_fract_y
_atom_site_fract_z
Si Si1 0.662269 0.059950 0.194704
Si Si2 0.225459 0.762157 0.046815
Si Si3 0.500000 0.500000 0.500000
Si Si4 0.318195 0.071957 0.266554
Si Si5 0.130099 0.237707 0.352538
Si Si6 0.363116 0.425510 0.637307
Si Si7 0.534404 0.701565 0.851777
O O1 0.618577 0.168115 0.293255
O O2 0.791086 0.900150 0.395996
O O3 0.713121 0.183103 0.082442
O O4 0.500000 0.000000 0.000000
O O5 0.316839 0.586919 0.251651
O O6 0.245941 0.917381 0.153562
O O7 0.049109 0.747691 0.846397
O O8 0.445821 0.328901 0.584225
O O9 0.209367 0.160004 0.280302
O O10 0.335015 0.212622 0.110114
O O11 0.500000 0.000000 0.500000
O O12 0.189360 0.407892 0.434549
O O13 0.468446 0.574881 0.681201
O O14 0.407897 0.378592 0.888136
#
# Coordination Sequence:
#
# PCOD9056609 Si02
#       7
#     2   2   1   2   2   2   2
#     4  12  20  44  71 101 130 181 230 272 333 406
#     4  12  26  43  68 105 137 176 225 284 345 393
#     4  12  24  44  70  90 138 186 226 272 332 414
#     4  12  22  42  72 101 130 180 234 275 332 405
#     4  12  25  42  70 104 141 171 221 291 337 392
#     4  11  23  42  65 102 131 180 227 268 338 401
#     4  11  22  39  73  96 132 178 235 268 319 414
#
# _framework density 23.315051
#
# number of rings (size 3 to 8) (size 9 to 14) (size 15 to 20)
#    0.000    0.308    6.154    3.692    0.000    0.615 
#    0.000    0.769    0.000    0.000    0.000    0.000 
#    0.000    0.000    0.000    0.000    0.000    0.000 
#
# Total GULP energy -72403.066219 kJ/mol
# GULP energy per Si atom -5569.466632 kJ/mol
# Density = 2.326199 g / cm^3
# Si number density = 23.315051 Si / 1000 Ang^3
#
#
#
# Elastic Constant Matrix: (Units=GPa)
#
#
# Indices 1 2 3 4 5 6 
#
# 1 142.2517 43.2919 84.5333 0.8221 -3.1165 24.3818
# 2 43.2919 116.4280 58.1347 24.3028 16.8216 5.0543
# 3 84.5333 58.1347 172.9377 11.7276 30.1082 25.6036
# 4 0.8221 24.3028 11.7276 38.4980 13.0779 0.1003
# 5 -3.1165 16.8216 30.1082 13.0779 50.4640 0.2541
# 6 24.3818 5.0543 25.6036 0.1003 0.2541 41.0346
#
#
#
# Elastic Compliance Matrix: (Units=1/GPa)
#
#
# Indices 1 2 3 4 5 6 
#
# 1 0.011487 -0.002485 -0.005118 0.001454 0.004231 -0.003355
# 2 -0.002485 0.012207 -0.002492 -0.006542 -0.001048 0.001550
# 3 -0.005118 -0.002492 0.010598 0.000472 -0.005914 -0.003229
# 4 0.001454 -0.006542 0.000472 0.032079 -0.006322 -0.000392
# 5 0.004231 -0.001048 -0.005914 -0.006322 0.025588 0.001162
# 6 -0.003355 0.001550 -0.003229 -0.000392 0.001162 0.028181
#
#
# Mechanical properties :
#
#
# Convention : Reuss Voigt Hill
#
# Bulk Modulus (GPa) = 70.91640 89.28190 80.09915
# Shear Modulus (GPa) = 34.47555 42.37650 38.42602
#
# Velocity S-wave (km/s) = 3.84954 4.26791 4.06411
# Velocity P-wave (km/s) = 7.08810 7.91603 7.51348
#
# Compressibility (1/GPa) = 0.01410111
#
# Stress axis : x y z
#
# Youngs Moduli (GPa) = 87.05620 81.91995 94.35994
#
# Poissons Ratio (x) = 0.20355 0.48294
# Poissons Ratio (y) = 0.21632 0.23518
# Poissons Ratio (z) = 0.44556 0.20418
#
# Static dielectric constant tensor:
#      x y z
#    x 1.995310 -0.011940 -0.126390 
#    y -0.011940 2.103540 -0.039610 
#    z -0.126390 -0.039610 1.954340 
# 
# From -- ./inp_files/204154.got.cif
#   From: 2010.05.17/outbox.cif.g08.bks.cpg/sg2_103_cif.got.tgz:204154.got - 2010.06.03 11:33:40.
