data_PCOD9056855
_publ_section_title
;
Structure prediction by ZEFSAII (Michael W. Deem and Ramdas Pophale) SiO2 
 PCOD9056855
Probable space group: P -1
;
_chemical_formula_sum "Si O2"
_cell_formula_units_Z 16
_cell_length_a 6.677120
_cell_length_b 12.330893
_cell_length_c 10.907170
_cell_angle_alpha 89.660358
_cell_angle_beta 109.358423
_cell_angle_gamma 113.454171
_cell_volume 768.984677
_symmetry_space_group_name_H-M "P -1"
_symmetry_group_IT_number 2
_symmetry_cell_setting 'triclinic'
loop_
_space_group_symop_operation_xyz
x,y,z
-x,-y,-z
loop_
_atom_site_type_symbol
_atom_site_label
_atom_site_fract_x
_atom_site_fract_y
_atom_site_fract_z
Si Si1 0.570820 0.656820 0.401024
Si Si2 0.867507 0.531980 0.579778
Si Si3 0.755914 0.921234 0.521444
Si Si4 0.694117 0.069268 0.697234
Si Si5 0.073580 0.632354 0.864760
Si Si6 0.235338 0.429298 0.981928
Si Si7 0.798502 0.770212 0.203271
Si Si8 0.442061 0.878481 0.063520
O O1 0.701863 0.580147 0.476558
O O2 0.298917 0.586059 0.377728
O O3 0.690761 0.782928 0.492618
O O4 0.621142 0.684628 0.268114
O O5 0.000000 0.500000 0.500000
O O6 0.031842 0.626904 0.711449
O O7 0.545279 0.938094 0.408874
O O8 0.729932 0.953637 0.657567
O O9 0.000000 0.000000 0.500000
O O10 0.672423 0.101074 0.833477
O O11 0.938389 0.166949 0.690971
O O12 0.127898 0.518717 0.910090
O O13 0.267809 0.756979 0.957923
O O14 0.834593 0.602351 0.891231
O O15 0.167792 0.305492 0.899631
O O16 0.500000 0.500000 0.000000
O O17 0.677366 0.857959 0.139596
O O18 0.500000 0.000000 0.000000
#
# Coordination Sequence:
#
# PCOD9056855 Si02
#       8
#     2   2   2   2   2   2   2   2
#     4  11  25  44  70 101 138 179 235 287 341 421
#     4  11  27  45  67 103 144 180 224 291 352 410
#     4  11  23  42  71 104 136 181 239 286 337 414
#     4  11  24  43  70 101 133 186 233 287 345 400
#     4  11  25  43  68 104 137 181 232 283 350 420
#     4  11  22  40  73 102 132 177 233 285 343 415
#     4  12  23  45  73 100 139 183 240 286 348 420
#     4  12  27  46  66 105 147 183 232 292 349 420
#
# _framework density 20.806657000000001
#
# number of rings (size 3 to 8) (size 9 to 14) (size 15 to 20)
#    0.000    0.750    5.000    1.500    5.250    4.500 
#    2.250    0.000    0.000    0.000    0.000    0.000 
#    0.000    0.000    0.000    0.000    0.000    0.000 
#
# Total GULP energy -89234.323780 kJ/mol
# GULP energy per Si atom -5577.145236 kJ/mol
# Density = 2.075930 g / cm^3
# Si number density = 20.806657 Si / 1000 Ang^3
#
#
#
# Elastic Constant Matrix: (Units=GPa)
#
#
# Indices 1 2 3 4 5 6 
#
# 1 151.5508 58.4529 54.7202 11.0434 -15.3333 4.0981
# 2 58.4529 87.5373 24.4962 3.7364 -9.2836 -8.3419
# 3 54.7202 24.4962 92.3843 8.7744 -21.5386 -2.8823
# 4 11.0434 3.7364 8.7744 36.1868 -5.8507 -1.8592
# 5 -15.3333 -9.2836 -21.5386 -5.8507 41.9368 14.6437
# 6 4.0981 -8.3419 -2.8823 -1.8592 14.6437 34.1865
#
#
#
# Elastic Compliance Matrix: (Units=1/GPa)
#
#
# Indices 1 2 3 4 5 6 
#
# 1 0.010997 -0.006238 -0.004484 -0.001586 0.001493 -0.003944
# 2 -0.006238 0.016146 -0.000644 0.000535 -0.000695 0.004960
# 3 -0.004484 -0.000644 0.015189 -0.001299 0.006212 -0.001071
# 4 -0.001586 0.000535 -0.001299 0.028843 0.002674 0.000634
# 5 0.001493 -0.000695 0.006212 0.002674 0.032559 -0.013626
# 6 -0.003944 0.004960 -0.001071 0.000634 -0.013626 0.036715
#
#
# Mechanical properties :
#
#
# Convention : Reuss Voigt Hill
#
# Bulk Modulus (GPa) = 51.02275 67.42344 59.22309
# Shear Modulus (GPa) = 29.46137 35.38222 32.42180
#
# Velocity S-wave (km/s) = 3.76701 4.12821 3.95174
# Velocity P-wave (km/s) = 6.59515 7.42953 7.02474
#
# Compressibility (1/GPa) = 0.01959910
#
# Stress axis : x y z
#
# Youngs Moduli (GPa) = 90.93639 61.93631 65.83663
#
# Poissons Ratio (x) = 0.38637 0.29519
# Poissons Ratio (y) = 0.56727 0.04242
# Poissons Ratio (z) = 0.40774 0.03990
#
# Static dielectric constant tensor:
#      x y z
#    x 1.758550 0.101570 0.043080 
#    y 0.101570 1.452380 -0.043320 
#    z 0.043080 -0.043320 1.771960 
# 
# From -- ./inp_files/364625.got.cif
#   From: 2010.05.17/outbox.cif.g08.bks.cpg/sg2_183_cif.got.tgz:364625.got - 2010.06.03 11:33:40.
