data_PCOD9056270
_publ_section_title
;
Structure prediction by ZEFSAII (Michael W. Deem and Ramdas Pophale) SiO2 
 PCOD9056270
Probable space group: P -1
;
_chemical_formula_sum "Si O2"
_cell_formula_units_Z 16
_cell_length_a 19.552200
_cell_length_b 7.871426
_cell_length_c 5.280956
_cell_angle_alpha 84.232411
_cell_angle_beta 123.060095
_cell_angle_gamma 78.837144
_cell_volume 646.949699
_symmetry_space_group_name_H-M "P -1"
_symmetry_group_IT_number 2
_symmetry_cell_setting 'triclinic'
loop_
_space_group_symop_operation_xyz
x,y,z
-x,-y,-z
loop_
_atom_site_type_symbol
_atom_site_label
_atom_site_fract_x
_atom_site_fract_y
_atom_site_fract_z
Si Si1 0.719966 0.388588 0.455920
Si Si2 0.890078 0.484310 0.699420
Si Si3 0.383722 0.188894 0.819868
Si Si4 0.040576 0.702141 0.639200
Si Si5 0.787416 0.901627 0.494154
Si Si6 0.863469 0.001429 0.136934
Si Si7 0.530436 0.762352 0.513853
Si Si8 0.636022 0.337555 0.794442
O O1 0.815170 0.389266 0.592186
O O2 0.666914 0.598931 0.318554
O O3 0.701245 0.313271 0.697711
O O4 0.681703 0.304480 0.161585
O O5 0.923742 0.440224 0.489486
O O6 0.844500 0.692231 0.632442
O O7 0.043824 0.609018 0.932506
O O8 0.310070 0.094344 0.656295
O O9 0.448277 0.164282 0.720666
O O10 0.430578 0.156337 0.188338
O O11 0.948000 0.829791 0.359025
O O12 0.101303 0.831179 0.764087
O O13 0.801265 0.976940 0.237293
O O14 0.824492 0.992571 0.782669
O O15 0.582196 0.549077 0.649576
O O16 0.432789 0.768881 0.357266
#
# Coordination Sequence:
#
# PCOD9056270 Si02
#       8
#     2   2   2   2   2   2   2   2
#     4   9  17  28  43  69 104 137 172 218 268 313
#     4  11  22  37  59  85 114 147 184 230 280 331
#     4   9  17  28  43  69 104 137 172 218 268 313
#     4  11  24  41  59  81 112 147 184 230 280 331
#     4  11  22  37  59  85 114 147 184 230 280 331
#     4  11  24  41  59  81 112 147 184 230 280 331
#     4   9  15  24  40  64 100 143 176 206 258 323
#     4   9  15  24  40  64 100 143 176 206 258 323
#
# _framework density 24.731442000000001
#
# number of rings (size 3 to 8) (size 9 to 14) (size 15 to 20)
#    0.000    2.000    0.000    4.500    0.000   12.000 
#    0.000    0.000    0.000    0.000    0.000    0.000 
#    0.000   70.000    0.000    0.000    0.000    0.000 
#
# Total GULP energy -89763.825795 kJ/mol
# GULP energy per Si atom -5610.239112 kJ/mol
# Density = 2.467515 g / cm^3
# Si number density = 24.731442 Si / 1000 Ang^3
#
#
#
# Elastic Constant Matrix: (Units=GPa)
#
#
# Indices 1 2 3 4 5 6 
#
# 1 121.2081 14.4296 38.0137 16.4606 -14.3198 21.7548
# 2 14.4296 113.2451 23.5963 13.6429 -5.6235 2.9562
# 3 38.0137 23.5963 161.1968 15.3255 -16.8743 19.4989
# 4 16.4606 13.6429 15.3255 42.7022 9.2710 -2.0349
# 5 -14.3198 -5.6235 -16.8743 9.2710 47.3491 -0.7624
# 6 21.7548 2.9562 19.4989 -2.0349 -0.7624 42.3986
#
#
#
# Elastic Compliance Matrix: (Units=1/GPa)
#
#
# Indices 1 2 3 4 5 6 
#
# 1 0.010578 -0.000261 -0.001015 -0.004663 0.003637 -0.005101
# 2 -0.000261 0.009468 -0.000885 -0.002899 0.001294 -0.000235
# 3 -0.001015 -0.000885 0.007476 -0.002744 0.002742 -0.002938
# 4 -0.004663 -0.002899 -0.002744 0.029186 -0.008365 0.005107
# 5 0.003637 0.001294 0.002742 -0.008365 0.024937 -0.003171
# 6 -0.005101 -0.000235 -0.002938 0.005107 -0.003171 0.027759
#
#
# Mechanical properties :
#
#
# Convention : Reuss Voigt Hill
#
# Bulk Modulus (GPa) = 43.10403 60.85879 51.98141
# Shear Modulus (GPa) = 41.16625 47.79735 44.48180
#
# Velocity S-wave (km/s) = 4.08429 4.40097 4.24558
# Velocity P-wave (km/s) = 6.30148 7.10535 6.71545
#
# Compressibility (1/GPa) = 0.02319969
#
# Stress axis : x y z
#
# Youngs Moduli (GPa) = 94.53410 105.62298 133.76325
#
# Poissons Ratio (x) = 0.02755 0.13581
# Poissons Ratio (y) = 0.02466 0.11836
# Poissons Ratio (z) = 0.09598 0.09346
#
# Static dielectric constant tensor:
#      x y z
#    x 1.891360 -0.032610 0.040520 
#    y -0.032610 1.994820 -0.045260 
#    z 0.040520 -0.045260 1.879250 
# 
# From -- ./inp_files/105480.got.cif
#   From: 2010.05.17/outbox.cif.g08.bks.cpg/sg2_53_cif.got.tgz:105480.got - 2010.06.03 11:33:40.
