data_PCOD9056943
_publ_section_title
;
Structure prediction by ZEFSAII (Michael W. Deem and Ramdas Pophale) SiO2 
 PCOD9056943
Probable space group: P -1
;
_chemical_formula_sum "Si O2"
_cell_formula_units_Z 16
_cell_length_a 14.943428
_cell_length_b 8.987499
_cell_length_c 15.436784
_cell_angle_alpha 136.842965
_cell_angle_beta 39.031937
_cell_angle_gamma 106.541021
_cell_volume 675.144113
_symmetry_space_group_name_H-M "P -1"
_symmetry_group_IT_number 2
_symmetry_cell_setting 'triclinic'
loop_
_space_group_symop_operation_xyz
x,y,z
-x,-y,-z
loop_
_atom_site_type_symbol
_atom_site_label
_atom_site_fract_x
_atom_site_fract_y
_atom_site_fract_z
Si Si1 0.828621 0.653703 0.966302
Si Si2 0.099582 0.175300 0.701608
Si Si3 0.560581 0.054863 0.565451
Si Si4 0.123415 0.353059 0.259073
Si Si5 0.550953 0.503636 0.699158
Si Si6 0.212204 0.755250 0.936130
Si Si7 0.373096 0.506226 0.170155
Si Si8 0.223824 0.784524 0.749146
O O1 0.942268 0.520364 0.734447
O O2 0.963089 0.434262 0.846885
O O3 0.633160 0.714048 0.139867
O O4 0.747283 0.981802 0.177023
O O5 0.957287 0.231708 0.906126
O O6 0.266836 0.176901 0.601394
O O7 0.197084 0.853801 0.456279
O O8 0.652733 0.182626 0.515475
O O9 0.500000 0.000000 0.500000
O O10 0.299080 0.340133 0.132463
O O11 0.000000 0.500000 0.500000
O O12 0.155263 0.064744 0.106598
O O13 0.534906 0.623737 0.857370
O O14 0.677740 0.453373 0.502154
O O15 0.362337 0.610245 0.839489
O O16 0.287506 0.638203 0.733330
O O17 0.500000 0.500000 0.000000
O O18 0.000000 0.000000 0.000000
#
# Coordination Sequence:
#
# PCOD9056943 Si02
#       8
#     2   2   2   2   2   2   2   2
#     4  11  25  44  71 101 135 182 232 283 347 416
#     4  11  24  44  72 103 132 185 233 279 351 415
#     4  11  22  41  66 100 140 174 222 282 338 410
#     4  11  24  45  68  98 140 181 230 292 346 407
#     4  11  23  43  69  98 138 181 226 283 346 414
#     4  11  24  43  70 104 137 180 232 284 353 414
#     4  11  25  46  71  99 143 181 235 294 343 410
#     4  11  24  44  65  98 142 180 223 287 352 416
#
# _framework density 23.698643000000001
#
# number of rings (size 3 to 8) (size 9 to 14) (size 15 to 20)
#    0.000    1.000    3.750    3.375    1.750    3.500 
#    6.750    0.000    0.000    0.000    0.000    0.000 
#    0.000    0.000    0.000    0.000    0.000    0.000 
#
# Total GULP energy -89146.109605 kJ/mol
# GULP energy per Si atom -5571.631850 kJ/mol
# Density = 2.364470 g / cm^3
# Si number density = 23.698643 Si / 1000 Ang^3
#
#
#
# Elastic Constant Matrix: (Units=GPa)
#
#
# Indices 1 2 3 4 5 6 
#
# 1 125.5453 47.3531 28.9390 -20.1831 -19.6651 -26.1097
# 2 47.3531 108.3439 28.3734 -20.3166 3.1147 -30.8585
# 3 28.9390 28.3734 86.1806 -29.3235 -11.3693 -28.3461
# 4 -20.1831 -20.3166 -29.3235 42.2092 -9.2138 9.6750
# 5 -19.6651 3.1147 -11.3693 -9.2138 50.0836 -2.0273
# 6 -26.1097 -30.8585 -28.3461 9.6750 -2.0273 29.2468
#
#
#
# Elastic Compliance Matrix: (Units=1/GPa)
#
#
# Indices 1 2 3 4 5 6 
#
# 1 0.012338 -0.002453 0.002846 0.006036 0.007146 0.009683
# 2 -0.002453 0.014394 0.001805 0.003885 -0.000190 0.013448
# 3 0.002846 0.001805 0.024876 0.016358 0.010628 0.023881
# 4 0.006036 0.003885 0.016358 0.039792 0.013694 0.013128
# 5 0.007146 -0.000190 0.010628 0.013694 0.028279 0.013910
# 6 0.009683 0.013448 0.023881 0.013128 0.013910 0.076791
#
#
# Mechanical properties :
#
#
# Convention : Reuss Voigt Hill
#
# Bulk Modulus (GPa) = 17.85609 58.82232 38.33921
# Shear Modulus (GPa) = 23.72558 38.66822 31.19690
#
# Velocity S-wave (km/s) = 3.16751 4.04377 3.63216
# Velocity P-wave (km/s) = 4.57476 6.83210 5.81404
#
# Compressibility (1/GPa) = 0.05600330
#
# Stress axis : x y z
#
# Youngs Moduli (GPa) = 81.05021 69.47538 40.19875
#
# Poissons Ratio (x) = 0.17046 -0.11441
# Poissons Ratio (y) = 0.19886 -0.07256
# Poissons Ratio (z) = -0.23068 -0.12540
#
# Static dielectric constant tensor:
#      x y z
#    x 2.058850 -0.004730 0.031990 
#    y -0.004730 1.871420 0.046200 
#    z 0.031990 0.046200 1.941050 
# 
# From -- ./inp_files/530124.got.cif
#   From: 2010.05.17/outbox.cif.g08.bks.cpg/sg2_266_cif.got.tgz:530124.got - 2010.06.03 11:33:40.
