data_PCOD9056433
_publ_section_title
;
Structure prediction by ZEFSAII (Michael W. Deem and Ramdas Pophale) SiO2 
 PCOD9056433
Probable space group: P -1
;
_chemical_formula_sum "Si O2"
_cell_formula_units_Z 14
_cell_length_a 6.590939
_cell_length_b 20.243925
_cell_length_c 8.257542
_cell_angle_alpha 136.422501
_cell_angle_beta 110.308718
_cell_angle_gamma 94.536992
_cell_volume 612.138076
_symmetry_space_group_name_H-M "P -1"
_symmetry_group_IT_number 2
_symmetry_cell_setting 'triclinic'
loop_
_space_group_symop_operation_xyz
x,y,z
-x,-y,-z
loop_
_atom_site_type_symbol
_atom_site_label
_atom_site_fract_x
_atom_site_fract_y
_atom_site_fract_z
Si Si1 0.964622 0.372409 0.924514
Si Si2 0.881266 0.419563 0.480394
Si Si3 0.618796 0.789073 0.451744
Si Si4 0.299567 0.289878 0.012152
Si Si5 0.120035 0.926908 0.361875
Si Si6 0.982079 0.257703 0.397895
Si Si7 0.631532 0.007527 0.805429
O O1 0.681091 0.289817 0.760816
O O2 0.179844 0.364628 0.069363
O O3 0.981856 0.327894 0.675872
O O4 0.022280 0.495976 0.191626
O O5 0.000000 0.500000 0.500000
O O6 0.950112 0.323429 0.355860
O O7 0.581443 0.357272 0.272516
O O8 0.697906 0.774645 0.266194
O O9 0.766428 0.749888 0.540775
O O10 0.686894 0.915280 0.728639
O O11 0.106730 0.198359 0.919175
O O12 0.249113 0.962475 0.287414
O O13 0.332879 0.949035 0.591975
O O14 0.000000 0.000000 0.500000
O O15 0.756326 0.129685 0.134596
#
# Coordination Sequence:
#
# PCOD9056433 Si02
#       7
#     2   2   2   2   2   2   2
#     4  11  25  49  70 100 144 185 232 292 350 417
#     4  12  26  48  76 101 136 184 244 297 346 405
#     4  11  23  46  70 103 146 184 231 283 350 425
#     4  11  23  44  72 106 136 183 235 290 352 410
#     4  11  22  38  71 105 146 176 233 289 344 407
#     4  11  28  45  69 105 143 187 231 283 361 417
#     4  11  24  42  70 107 145 184 229 285 345 424
#
# _framework density 22.870657000000001
#
# number of rings (size 3 to 8) (size 9 to 14) (size 15 to 20)
#    0.000    0.857    4.286    2.143    4.000    3.429 
#    2.571    0.000    0.000    0.000    0.000    0.000 
#    0.000    0.000    0.000    0.000    0.000    0.000 
#
# Total GULP energy -78327.154410 kJ/mol
# GULP energy per Si atom -5594.796744 kJ/mol
# Density = 2.281860 g / cm^3
# Si number density = 22.870657 Si / 1000 Ang^3
#
#
#
# Elastic Constant Matrix: (Units=GPa)
#
#
# Indices 1 2 3 4 5 6 
#
# 1 83.4515 74.5774 34.5726 -7.9907 -8.6637 -59.7232
# 2 74.5774 114.0729 56.8645 30.0712 5.3618 -27.5351
# 3 34.5726 56.8645 134.6414 21.1917 0.2626 -29.4756
# 4 -7.9907 30.0712 21.1917 27.9898 -12.1032 -27.0819
# 5 -8.6637 5.3618 0.2626 -12.1032 27.5009 -15.3082
# 6 -59.7232 -27.5351 -29.4756 -27.0819 -15.3082 -5.9569
#
#
#
# Elastic Compliance Matrix: (Units=1/GPa)
#
#
# Indices 1 2 3 4 5 6 
#
# 1 0.008190 -0.006284 -0.001552 -0.004275 -0.005146 -0.012727
# 2 -0.006284 0.019333 -0.002254 -0.006492 -0.000256 0.014962
# 3 -0.001552 -0.002254 0.009830 -0.004573 -0.001316 0.001510
# 4 -0.004275 -0.006492 -0.004573 0.025453 -0.000039 -0.020127
# 5 -0.005146 -0.000256 -0.001316 -0.000039 0.027930 -0.012318
# 6 -0.012727 0.014962 0.001510 -0.020127 -0.012318 0.006254
#
#
# Mechanical properties :
#
#
# Convention : Reuss Voigt Hill
#
# Bulk Modulus (GPa) = 58.22957 73.79944 66.01450
# Shear Modulus (GPa) = 40.68493 20.98350 30.83422
#
# Velocity S-wave (km/s) = 4.22229 3.03229 3.67577
# Velocity P-wave (km/s) = 7.02040 6.67817 6.85142
#
# Compressibility (1/GPa) = 0.01717341
#
# Stress axis : x y z
#
# Youngs Moduli (GPa) = 122.10004 51.72473 101.72496
#
# Poissons Ratio (x) = 0.32503 0.15792
# Poissons Ratio (y) = 0.76726 0.22926
# Poissons Ratio (z) = 0.18955 0.11657
#
# Static dielectric constant tensor:
#      x y z
#    x 1.812460 0.007830 -0.049970 
#    y 0.007830 1.894700 -0.019090 
#    z -0.049970 -0.019090 1.896680 
# 
# From -- ./inp_files/48882.got.cif
#   From: 2010.05.17/outbox.cif.g08.bks.cpg/sg2_25_cif.got.tgz:48882.got - 2010.06.03 11:33:40.
