data_PCOD9056658
_publ_section_title
;
Structure prediction by ZEFSAII (Michael W. Deem and Ramdas Pophale) SiO2 
 PCOD9056658
Probable space group: P -1
;
_chemical_formula_sum "Si O2"
_cell_formula_units_Z 16
_cell_length_a 14.290522
_cell_length_b 14.932261
_cell_length_c 9.435585
_cell_angle_alpha 38.648363
_cell_angle_beta 78.481026
_cell_angle_gamma 49.791723
_cell_volume 739.181794
_symmetry_space_group_name_H-M "P -1"
_symmetry_group_IT_number 2
_symmetry_cell_setting 'triclinic'
loop_
_space_group_symop_operation_xyz
x,y,z
-x,-y,-z
loop_
_atom_site_type_symbol
_atom_site_label
_atom_site_fract_x
_atom_site_fract_y
_atom_site_fract_z
Si Si1 0.662451 0.531762 0.120045
Si Si2 0.578611 0.782681 0.341934
Si Si3 0.111228 0.984393 0.852668
Si Si4 0.664657 0.779956 0.631648
Si Si5 0.297806 0.956827 0.623163
Si Si6 0.256180 0.065757 0.173610
Si Si7 0.863716 0.050885 0.793776
Si Si8 0.788634 0.540787 0.328369
O O1 0.664857 0.618520 0.158792
O O2 0.753214 0.277513 0.443001
O O3 0.744902 0.544875 0.970320
O O4 0.487243 0.713043 0.890361
O O5 0.625444 0.788573 0.472549
O O6 0.730171 0.563574 0.472588
O O7 0.438397 0.836754 0.343512
O O8 0.500000 0.000000 0.000000
O O9 0.959586 0.270382 0.574485
O O10 0.215312 0.930317 0.767317
O O11 0.193845 0.871366 0.120980
O O12 0.030359 0.934155 0.890269
O O13 0.500000 0.000000 0.500000
O O14 0.749518 0.830425 0.560104
O O15 0.256706 0.015407 0.398125
O O16 0.142665 0.102922 0.068428
O O17 0.212933 0.285966 0.904474
#
# Coordination Sequence:
#
# PCOD9056658 Si02
#       8
#     2   2   2   2   2   2   2   2
#     4  10  20  42  66  94 127 166 203 256 322 372
#     4  10  19  34  62  99 128 150 201 269 310 355
#     4  10  25  47  60  87 130 174 210 249 317 382
#     4  10  17  36  62  98 126 153 198 264 317 361
#     4  11  21  38  70  95 124 159 212 263 309 373
#     4  11  21  39  65  99 123 155 217 265 308 363
#     4  10  25  45  60  86 133 170 212 253 309 384
#     4  10  22  41  66  94 128 165 206 261 314 368
#
# _framework density 21.645554000000001
#
# number of rings (size 3 to 8) (size 9 to 14) (size 15 to 20)
#    0.000    1.750    3.750    2.250    5.250    2.500 
#    4.500    0.000    0.000    0.000    0.000    0.000 
#    0.000    0.000    0.000    0.000    0.000    0.000 
#
# Total GULP energy -89362.385845 kJ/mol
# GULP energy per Si atom -5585.149115 kJ/mol
# Density = 2.159629 g / cm^3
# Si number density = 21.645554 Si / 1000 Ang^3
#
#
#
# Elastic Constant Matrix: (Units=GPa)
#
#
# Indices 1 2 3 4 5 6 
#
# 1 119.8152 31.8364 8.3111 16.5522 -10.3899 11.7218
# 2 31.8364 47.7376 25.4040 37.5694 5.0900 7.2819
# 3 8.3111 25.4040 86.5197 13.1585 -4.2920 -3.7050
# 4 16.5522 37.5694 13.1585 41.4041 1.6933 -4.1545
# 5 -10.3899 5.0900 -4.2920 1.6933 24.5955 13.1301
# 6 11.7218 7.2819 -3.7050 -4.1545 13.1301 31.7743
#
#
#
# Elastic Compliance Matrix: (Units=1/GPa)
#
#
# Indices 1 2 3 4 5 6 
#
# 1 0.013155 -0.019917 0.003334 0.010990 0.011141 -0.003066
# 2 -0.019917 0.168082 -0.028903 -0.139560 -0.013410 -0.047249
# 3 0.003334 -0.028903 0.017258 0.020026 0.004710 0.008078
# 4 0.010990 -0.139560 0.020026 0.144884 0.000994 0.048797
# 5 0.011141 -0.013410 0.004710 0.000994 0.062976 -0.026381
# 6 -0.003066 -0.047249 0.008078 0.048797 -0.026381 0.061655
#
#
# Mechanical properties :
#
#
# Convention : Reuss Voigt Hill
#
# Bulk Modulus (GPa) = 9.30024 42.79728 26.04876
# Shear Modulus (GPa) = 8.40587 32.12283 20.26435
#
# Velocity S-wave (km/s) = 1.97278 3.85650 3.06304
# Velocity P-wave (km/s) = 3.08141 6.29642 4.95681
#
# Compressibility (1/GPa) = 0.10752406
#
# Stress axis : x y z
#
# Youngs Moduli (GPa) = 76.01730 5.94949 57.94386
#
# Poissons Ratio (x) = 0.11850 -0.19320
# Poissons Ratio (y) = 1.51404 1.67473
# Poissons Ratio (z) = -0.25346 0.17196
#
# Static dielectric constant tensor:
#      x y z
#    x 1.792730 -0.000090 -0.011380 
#    y -0.000090 1.806080 -0.043130 
#    z -0.011380 -0.043130 1.843110 
# 
# From -- ./inp_files/314482.got.cif
#   From: 2010.05.17/outbox.cif.g08.bks.cpg/sg2_158_cif.got.tgz:314482.got - 2010.06.03 11:33:40.
