data_PCOD9056170
_publ_section_title
;
Structure prediction by ZEFSAII (Michael W. Deem and Ramdas Pophale) SiO2 
 PCOD9056170
Probable space group: P -1
;
_chemical_formula_sum "Si O2"
_cell_formula_units_Z 16
_cell_length_a 11.027118
_cell_length_b 19.339949
_cell_length_c 7.301030
_cell_angle_alpha 96.494233
_cell_angle_beta 44.139723
_cell_angle_gamma 131.700380
_cell_volume 577.680088
_symmetry_space_group_name_H-M "P -1"
_symmetry_group_IT_number 2
_symmetry_cell_setting 'triclinic'
loop_
_space_group_symop_operation_xyz
x,y,z
-x,-y,-z
loop_
_atom_site_type_symbol
_atom_site_label
_atom_site_fract_x
_atom_site_fract_y
_atom_site_fract_z
Si Si1 0.805074 0.194595 0.979072
Si Si2 0.386997 0.101752 0.974711
Si Si3 0.035982 0.628033 0.353039
Si Si4 0.992242 0.143055 0.504790
Si Si5 0.456200 0.188537 0.576148
Si Si6 0.969696 0.213771 0.196306
Si Si7 0.821489 0.566761 0.956674
Si Si8 0.458698 0.662772 0.737715
O O1 0.515508 0.144491 0.357703
O O2 0.917445 0.187487 0.029438
O O3 0.049551 0.336517 0.677515
O O4 0.766384 0.127411 0.837379
O O5 0.626133 0.229246 0.877765
O O6 0.243702 0.094005 0.951729
O O7 0.626959 0.127923 0.619672
O O8 0.142284 0.976741 0.327017
O O9 0.814792 0.542279 0.742951
O O10 0.123318 0.588798 0.135250
O O11 0.047357 0.179821 0.244880
O O12 0.319154 0.262145 0.301624
O O13 0.391628 0.236543 0.548547
O O14 0.814863 0.319231 0.319239
O O15 0.215086 0.362278 0.989983
O O16 0.613849 0.441701 0.257321
#
# Coordination Sequence:
#
# PCOD9056170 Si02
#       8
#     2   2   2   2   2   2   2   2
#     4   9  18  37  58  80 109 145 190 223 271 333
#     4   9  19  37  61  77 112 151 189 231 269 323
#     4   9  18  38  59  78 106 150 196 225 268 333
#     4  12  22  36  55  87 120 144 178 235 286 327
#     4   8  19  38  58  81 107 145 197 228 262 336
#     4   9  20  37  57  86 111 145 193 227 265 336
#     4   9  17  37  63  78 109 150 190 231 264 331
#     4  11  22  33  56  88 113 146 185 229 288 327
#
# _framework density 27.696992999999999
#
# number of rings (size 3 to 8) (size 9 to 14) (size 15 to 20)
#    0.000    3.000    2.500    1.125    0.000    3.500 
#    6.750    2.500    0.000    0.000    0.000    0.000 
#    0.000    0.000    0.000    0.000    0.000    0.000 
#
# Total GULP energy -89537.453092 kJ/mol
# GULP energy per Si atom -5596.090818 kJ/mol
# Density = 2.763395 g / cm^3
# Si number density = 27.696993 Si / 1000 Ang^3
#
#
#
# Elastic Constant Matrix: (Units=GPa)
#
#
# Indices 1 2 3 4 5 6 
#
# 1 221.1077 54.1842 60.3064 7.2591 52.6815 -14.1616
# 2 54.1842 71.0729 51.5632 1.6276 25.0959 -26.2308
# 3 60.3064 51.5632 88.5608 8.3484 31.8454 -12.8442
# 4 7.2591 1.6276 8.3484 46.5527 3.2931 14.9780
# 5 52.6815 25.0959 31.8454 3.2931 49.2614 0.3137
# 6 -14.1616 -26.2308 -12.8442 14.9780 0.3137 52.2892
#
#
#
# Elastic Compliance Matrix: (Units=1/GPa)
#
#
# Indices 1 2 3 4 5 6 
#
# 1 0.006691 -0.002018 -0.001355 -0.000574 -0.005218 0.000663
# 2 -0.002018 0.031899 -0.013128 -0.002203 -0.005541 0.012895
# 3 -0.001355 -0.013128 0.022166 -0.002650 -0.006010 -0.000713
# 4 -0.000574 -0.002203 -0.002650 0.024907 0.001842 -0.009057
# 5 -0.005218 -0.005541 -0.006010 0.001842 0.032505 -0.006392
# 6 0.000663 0.012895 -0.000713 -0.009057 -0.006392 0.028230
#
#
# Mechanical properties :
#
#
# Convention : Reuss Voigt Hill
#
# Bulk Modulus (GPa) = 36.03174 79.20543 57.61859
# Shear Modulus (GPa) = 26.50368 43.93316 35.21842
#
# Velocity S-wave (km/s) = 3.09676 3.98704 3.56976
# Velocity P-wave (km/s) = 5.08174 7.06077 6.15137
#
# Compressibility (1/GPa) = 0.02775331
#
# Stress axis : x y z
#
# Youngs Moduli (GPa) = 149.44872 31.34863 45.11427
#
# Poissons Ratio (x) = 0.06326 0.06113
# Poissons Ratio (y) = 0.30160 0.59228
# Poissons Ratio (z) = 0.20252 0.41156
#
# Static dielectric constant tensor:
#      x y z
#    x 2.203770 -0.020370 -0.060650 
#    y -0.020370 2.123340 0.010900 
#    z -0.060650 0.010900 2.205790 
# 
# From -- ./inp_files/281960.got.cif
#   From: 2010.05.17/outbox.cif.g08.bks.cpg/sg2_141_cif.got.tgz:281960.got - 2010.06.03 11:33:40.
