data_PCOD9056127
_publ_section_title
;
Structure prediction by ZEFSAII (Michael W. Deem and Ramdas Pophale) SiO2 
 PCOD9056127
Probable space group: P -1
;
_chemical_formula_sum "Si O2"
_cell_formula_units_Z 16
_cell_length_a 11.699144
_cell_length_b 11.511743
_cell_length_c 8.557498
_cell_angle_alpha 59.844943
_cell_angle_beta 132.307442
_cell_angle_gamma 131.820272
_cell_volume 632.186120
_symmetry_space_group_name_H-M "P -1"
_symmetry_group_IT_number 2
_symmetry_cell_setting 'triclinic'
loop_
_space_group_symop_operation_xyz
x,y,z
-x,-y,-z
loop_
_atom_site_type_symbol
_atom_site_label
_atom_site_fract_x
_atom_site_fract_y
_atom_site_fract_z
Si Si1 0.065927 0.878198 0.129350
Si Si2 0.264184 0.449320 0.974670
Si Si3 0.856687 0.356235 0.069137
Si Si4 0.405162 0.968857 0.168671
Si Si5 0.832115 0.125022 0.428032
Si Si6 0.589064 0.289182 0.633565
Si Si7 0.321875 0.442208 0.674478
Si Si8 0.285076 0.150770 0.686578
O O1 0.246660 0.950220 0.149467
O O2 0.098093 0.836178 0.360287
O O3 0.902217 0.718077 0.014150
O O4 0.000000 0.000000 0.000000
O O5 0.239164 0.576796 0.956659
O O6 0.261390 0.463306 0.775084
O O7 0.459121 0.474297 0.174239
O O8 0.926874 0.269842 0.298100
O O9 0.704525 0.230483 0.890147
O O10 0.000000 0.500000 0.000000
O O11 0.463529 0.853766 0.426906
O O12 0.623080 0.077651 0.263687
O O13 0.353487 0.058897 0.918364
O O14 0.847761 0.982418 0.467085
O O15 0.702138 0.454302 0.548158
O O16 0.439205 0.272365 0.624357
O O17 0.246852 0.262569 0.681904
#
# Coordination Sequence:
#
# PCOD9056127 Si02
#       8
#     2   2   2   2   2   2   2   2
#     4  12  29  46  67 108 150 196 240 305 370 438
#     4  11  27  47  68 104 154 190 244 297 377 439
#     4  12  25  45  73 107 146 188 246 311 369 433
#     4  11  22  47  75 103 143 190 249 300 361 443
#     4  11  25  46  77 105 141 198 246 300 367 445
#     4  11  22  41  74 110 132 188 250 301 358 427
#     4  11  25  45  76 106 145 199 239 309 366 443
#     4  11  21  46  73 105 142 184 253 297 362 436
#
# _framework density 25.309000000000001
#
# number of rings (size 3 to 8) (size 9 to 14) (size 15 to 20)
#    0.000    0.750    3.750    3.000    7.000    1.500 
#    0.000    2.500    0.000    0.000    0.000    0.000 
#    0.000    0.000    0.000    0.000    0.000    0.000 
#
# Total GULP energy -89250.260177 kJ/mol
# GULP energy per Si atom -5578.141261 kJ/mol
# Density = 2.525140 g / cm^3
# Si number density = 25.309000 Si / 1000 Ang^3
#
#
#
# Elastic Constant Matrix: (Units=GPa)
#
#
# Indices 1 2 3 4 5 6 
#
# 1 157.7096 38.1178 32.2749 4.9733 -9.7741 -1.2319
# 2 38.1178 149.7221 49.1429 -12.9741 -8.6615 4.8923
# 3 32.2749 49.1429 90.6628 -11.9645 -6.5589 7.9233
# 4 4.9733 -12.9741 -11.9645 40.8760 7.0595 -0.4623
# 5 -9.7741 -8.6615 -6.5589 7.0595 24.0641 -8.3901
# 6 -1.2319 4.8923 7.9233 -0.4623 -8.3901 47.3254
#
#
#
# Elastic Compliance Matrix: (Units=1/GPa)
#
#
# Indices 1 2 3 4 5 6 
#
# 1 0.007358 -0.001239 -0.002151 -0.002439 0.003092 0.001204
# 2 -0.001239 0.008455 -0.003861 0.001528 0.001017 -0.000065
# 3 -0.002151 -0.003861 0.014498 0.003253 0.000019 -0.002049
# 4 -0.002439 0.001528 0.003253 0.027617 -0.008344 -0.001976
# 5 0.003092 0.001017 0.000019 -0.008344 0.048596 0.008506
# 6 0.001204 -0.000065 -0.002049 -0.001976 0.008506 0.023000
#
#
# Mechanical properties :
#
#
# Convention : Reuss Voigt Hill
#
# Bulk Modulus (GPa) = 63.25472 70.79618 67.02545
# Shear Modulus (GPa) = 33.49012 41.02369 37.25690
#
# Velocity S-wave (km/s) = 3.64160 4.03042 3.84093
# Velocity P-wave (km/s) = 6.53673 7.04929 6.79785
#
# Compressibility (1/GPa) = 0.01580910
#
# Stress axis : x y z
#
# Youngs Moduli (GPa) = 135.89895 118.27112 68.97330
#
# Poissons Ratio (x) = 0.14655 0.14838
# Poissons Ratio (y) = 0.16839 0.26631
# Poissons Ratio (z) = 0.29235 0.45665
#
# Static dielectric constant tensor:
#      x y z
#    x 1.994660 0.066040 -0.010820 
#    y 0.066040 2.076780 0.038860 
#    z -0.010820 0.038860 2.160940 
# 
# From -- ./inp_files/262199.got.cif
#   From: 2010.05.17/outbox.cif.g08.bks.cpg/sg2_132_cif.got.tgz:262199.got - 2010.06.03 11:33:40.
