data_PCOD9056489
_publ_section_title
;
Structure prediction by ZEFSAII (Michael W. Deem and Ramdas Pophale) SiO2 
 PCOD9056489
Probable space group: P -1
;
_chemical_formula_sum "Si O2"
_cell_formula_units_Z 14
_cell_length_a 16.783818
_cell_length_b 12.471014
_cell_length_c 10.832968
_cell_angle_alpha 23.183034
_cell_angle_beta 50.722193
_cell_angle_gamma 42.372036
_cell_volume 592.451227
_symmetry_space_group_name_H-M "P -1"
_symmetry_group_IT_number 2
_symmetry_cell_setting 'triclinic'
loop_
_space_group_symop_operation_xyz
x,y,z
-x,-y,-z
loop_
_atom_site_type_symbol
_atom_site_label
_atom_site_fract_x
_atom_site_fract_y
_atom_site_fract_z
Si Si1 0.823953 0.587941 0.659573
Si Si2 0.300949 0.871979 0.115215
Si Si3 0.422777 0.840863 0.776992
Si Si4 0.922614 0.501545 0.410269
Si Si5 0.362085 0.239033 0.856037
Si Si6 0.201304 0.517702 0.946125
Si Si7 0.949238 0.776208 0.656933
O O1 0.856657 0.423527 0.666187
O O2 0.949282 0.560458 0.603023
O O3 0.710435 0.939410 0.381603
O O4 0.787359 0.440568 0.963393
O O5 0.329391 0.525202 0.490766
O O6 0.395486 0.834971 0.955586
O O7 0.168881 0.127837 0.922954
O O8 0.312522 0.034820 0.055972
O O9 0.500000 0.000000 0.500000
O O10 0.500000 0.500000 0.000000
O O11 0.953914 0.310600 0.454206
O O12 0.308184 0.390860 0.880638
O O13 0.500000 0.000000 0.000000
O O14 0.102706 0.867419 0.626590
O O15 0.158658 0.262821 0.249486
O O16 0.000000 0.500000 0.000000
#
# Coordination Sequence:
#
# PCOD9056489 Si02
#       7
#     2   2   2   2   2   2   2
#     4   9  22  42  68 102 134 182 220 285 345 407
#     4  11  25  45  71 101 134 185 229 282 352 404
#     4  11  25  45  72 101 139 178 231 288 336 418
#     4   9  20  43  69  99 141 172 229 279 349 413
#     4  12  26  45  67  97 138 185 234 286 339 409
#     4  11  24  39  63  94 130 173 223 272 335 396
#     4  11  22  39  64  95 130 173 216 277 332 403
#
# _framework density 23.630637
#
# number of rings (size 3 to 8) (size 9 to 14) (size 15 to 20)
#    0.000    1.429    0.000    4.286    4.000    6.286 
#    0.000    8.571    0.000    0.000    0.000    0.000 
#    0.000    0.000    0.000    0.000    0.000    0.000 
#
# Total GULP energy -78246.392586 kJ/mol
# GULP energy per Si atom -5589.028042 kJ/mol
# Density = 2.357685 g / cm^3
# Si number density = 23.630637 Si / 1000 Ang^3
#
#
#
# Elastic Constant Matrix: (Units=GPa)
#
#
# Indices 1 2 3 4 5 6 
#
# 1 57.7846 33.7063 31.4619 -12.1454 12.0087 -7.6045
# 2 33.7063 231.1808 66.5386 -1.3595 23.4713 14.2845
# 3 31.4619 66.5386 96.6446 -8.2216 -0.0876 -0.1040
# 4 -12.1454 -1.3595 -8.2216 49.7921 5.0960 12.6983
# 5 12.0087 23.4713 -0.0876 5.0960 44.1236 -2.4610
# 6 -7.6045 14.2845 -0.1040 12.6983 -2.4610 32.4365
#
#
#
# Elastic Compliance Matrix: (Units=1/GPa)
#
#
# Indices 1 2 3 4 5 6 
#
# 1 0.024464 -0.001202 -0.006760 0.004438 -0.006320 0.004026
# 2 -0.001202 0.006130 -0.003798 0.000442 -0.003183 -0.003408
# 3 -0.006760 -0.003798 0.015190 0.000277 0.003877 0.000322
# 4 0.004438 0.000442 0.000277 0.023974 -0.004708 -0.008896
# 5 -0.006320 -0.003183 0.003877 -0.004708 0.026841 0.003812
# 6 0.004026 -0.003408 0.000322 -0.008896 0.003812 0.037047
#
#
# Mechanical properties :
#
#
# Convention : Reuss Voigt Hill
#
# Bulk Modulus (GPa) = 44.91704 72.11374 58.51539
# Shear Modulus (GPa) = 30.37875 42.19731 36.28803
#
# Velocity S-wave (km/s) = 3.58937 4.23034 3.92297
# Velocity P-wave (km/s) = 6.01891 7.37864 6.73319
#
# Compressibility (1/GPa) = 0.02226327
#
# Stress axis : x y z
#
# Youngs Moduli (GPa) = 40.87702 163.12050 65.83102
#
# Poissons Ratio (x) = 0.19609 0.44503
# Poissons Ratio (y) = 0.04914 0.25005
# Poissons Ratio (z) = 0.27633 0.61959
#
# Static dielectric constant tensor:
#      x y z
#    x 2.065710 0.028380 0.055350 
#    y 0.028380 1.890900 0.060200 
#    z 0.055350 0.060200 1.856050 
# 
# From -- ./inp_files/471822.got.cif
#   From: 2010.05.17/outbox.cif.g08.bks.cpg/sg2_236_cif.got.tgz:471822.got - 2010.06.03 11:33:40.
