data_PCOD9056754
_publ_section_title
;
Structure prediction by ZEFSAII (Michael W. Deem and Ramdas Pophale) SiO2 
 PCOD9056754
Probable space group: P -1
;
_chemical_formula_sum "Si O2"
_cell_formula_units_Z 14
_cell_length_a 7.319355
_cell_length_b 18.184688
_cell_length_c 8.754086
_cell_angle_alpha 129.507301
_cell_angle_beta 53.955096
_cell_angle_gamma 140.004733
_cell_volume 565.673681
_symmetry_space_group_name_H-M "P -1"
_symmetry_group_IT_number 2
_symmetry_cell_setting 'triclinic'
loop_
_space_group_symop_operation_xyz
x,y,z
-x,-y,-z
loop_
_atom_site_type_symbol
_atom_site_label
_atom_site_fract_x
_atom_site_fract_y
_atom_site_fract_z
Si Si1 0.397665 0.979611 0.200757
Si Si2 0.944617 0.597484 0.615548
Si Si3 0.562438 0.212183 0.148613
Si Si4 0.235139 0.784205 0.454626
Si Si5 0.212667 0.642095 0.034208
Si Si6 0.877947 0.829999 0.468033
Si Si7 0.616768 0.579966 0.197448
O O1 0.070238 0.908107 0.330524
O O2 0.572515 0.102745 0.375737
O O3 0.458227 0.883935 0.079711
O O4 0.500000 0.000000 0.000000
O O5 0.145404 0.707069 0.784948
O O6 0.027579 0.662449 0.498116
O O7 0.000000 0.500000 0.500000
O O8 0.599557 0.518536 0.700742
O O9 0.290375 0.140399 0.302661
O O10 0.590197 0.310853 0.151706
O O11 0.379000 0.741247 0.218652
O O12 0.072876 0.821197 0.480978
O O13 0.952491 0.645135 0.123671
O O14 0.000000 0.500000 0.000000
O O15 0.616198 0.693374 0.356888
O O16 0.500000 0.500000 0.000000
#
# Coordination Sequence:
#
# PCOD9056754 Si02
#       7
#     2   2   2   2   2   2   2
#     4  12  25  51  73  97 142 184 240 290 349 422
#     4  12  23  42  69 102 139 184 232 285 346 421
#     4  12  24  46  70 104 139 186 236 286 348 425
#     4  11  26  45  71 100 145 184 228 301 345 405
#     4  11  25  43  68 106 144 183 232 287 351 419
#     4  11  26  45  71 106 138 181 240 290 352 415
#     4  11  22  40  68  97 145 183 225 285 353 408
#
# _framework density 24.749248999999999
#
# number of rings (size 3 to 8) (size 9 to 14) (size 15 to 20)
#    0.000    0.571    7.143    1.286    2.000    2.286 
#    0.000    0.000    0.000    0.000    0.000    0.000 
#    0.000    0.000    0.000    0.000    0.000    0.000 
#
# Total GULP energy -78056.989840 kJ/mol
# GULP energy per Si atom -5575.499274 kJ/mol
# Density = 2.469292 g / cm^3
# Si number density = 24.749249 Si / 1000 Ang^3
#
#
#
# Elastic Constant Matrix: (Units=GPa)
#
#
# Indices 1 2 3 4 5 6 
#
# 1 41.2116 11.6462 9.7580 -6.6629 11.9301 -6.6039
# 2 11.6462 152.8015 65.5911 -24.5995 16.5584 -5.5756
# 3 9.7580 65.5911 147.2295 -4.2531 11.4044 3.3947
# 4 -6.6629 -24.5995 -4.2531 70.8412 -3.0470 7.8437
# 5 11.9301 16.5584 11.4044 -3.0470 32.7738 -0.3034
# 6 -6.6039 -5.5756 3.3947 7.8437 -0.3034 31.5691
#
#
#
# Elastic Compliance Matrix: (Units=1/GPa)
#
#
# Indices 1 2 3 4 5 6 
#
# 1 0.028538 -0.000185 -0.001142 0.001515 -0.009704 0.005590
# 2 -0.000185 0.008921 -0.003692 0.002594 -0.002903 0.001261
# 3 -0.001142 -0.003692 0.008591 -0.000726 -0.000791 -0.001642
# 4 0.001515 0.002594 -0.000726 0.015438 -0.000202 -0.002984
# 5 -0.009704 -0.002903 -0.000791 -0.000202 0.035748 -0.002064
# 6 0.005590 0.001261 -0.001642 -0.002984 -0.002064 0.033967
#
#
# Mechanical properties :
#
#
# Convention : Reuss Voigt Hill
#
# Bulk Modulus (GPa) = 27.76886 57.24813 42.50850
# Shear Modulus (GPa) = 32.62747 43.98663 38.30705
#
# Velocity S-wave (km/s) = 3.63481 4.22037 3.93849
# Velocity P-wave (km/s) = 5.37217 6.85056 6.15591
#
# Compressibility (1/GPa) = 0.03601156
#
# Stress axis : x y z
#
# Youngs Moduli (GPa) = 35.04123 112.08988 116.40647
#
# Poissons Ratio (x) = 0.02077 0.13297
# Poissons Ratio (y) = 0.00649 0.42972
# Poissons Ratio (z) = 0.04003 0.41378
#
# Static dielectric constant tensor:
#      x y z
#    x 2.162530 -0.087890 -0.031860 
#    y -0.087890 2.060020 0.051610 
#    z -0.031860 0.051610 2.135960 
# 
# From -- ./inp_files/179469.got.cif
#   From: 2010.05.17/outbox.cif.g08.bks.cpg/sg2_90_cif.got.tgz:179469.got - 2010.06.03 11:33:40.
