data_PCOD9056119
_publ_section_title
;
Structure prediction by ZEFSAII (Michael W. Deem and Ramdas Pophale) SiO2 
 PCOD9056119
Probable space group: P -1
;
_chemical_formula_sum "Si O2"
_cell_formula_units_Z 16
_cell_length_a 8.680619
_cell_length_b 8.277081
_cell_length_c 17.842568
_cell_angle_alpha 48.500820
_cell_angle_beta 108.034190
_cell_angle_gamma 129.879787
_cell_volume 721.854219
_symmetry_space_group_name_H-M "P -1"
_symmetry_group_IT_number 2
_symmetry_cell_setting 'triclinic'
loop_
_space_group_symop_operation_xyz
x,y,z
-x,-y,-z
loop_
_atom_site_type_symbol
_atom_site_label
_atom_site_fract_x
_atom_site_fract_y
_atom_site_fract_z
Si Si1 0.265628 0.380859 0.821173
Si Si2 0.157063 0.096232 0.562269
Si Si3 0.437371 0.932456 0.597844
Si Si4 0.410705 0.687455 0.071204
Si Si5 0.840582 0.411192 0.569883
Si Si6 0.132480 0.774511 0.213741
Si Si7 0.608828 0.279333 0.114342
Si Si8 0.009375 0.675586 0.796509
O O1 0.325271 0.623698 0.699908
O O2 0.424954 0.319504 0.856100
O O3 0.311402 0.498245 0.876709
O O4 0.023726 0.150610 0.840604
O O5 0.231411 0.398678 0.498186
O O6 0.314617 0.042490 0.574142
O O7 0.000000 0.000000 0.500000
O O8 0.053342 0.917149 0.676593
O O9 0.500000 0.000000 0.500000
O O10 0.649509 0.103515 0.620981
O O11 0.182869 0.458349 0.137058
O O12 0.398083 0.634731 0.996697
O O13 0.500000 0.000000 0.000000
O O14 0.918449 0.404978 0.664623
O O15 0.000000 0.500000 0.500000
O O16 0.067612 0.573177 0.195948
O O17 0.373601 0.019011 0.174324
O O18 0.778048 0.224915 0.163066
#
# Coordination Sequence:
#
# PCOD9056119 Si02
#       8
#     2   2   2   2   2   2   2   2
#     4  11  25  46  71 101 142 184 230 295 354 421
#     4  12  23  43  71 100 143 189 226 292 354 420
#     4  12  25  45  70 105 145 186 239 287 352 428
#     4  12  27  47  71 104 136 183 237 300 355 418
#     4  12  25  42  67 107 144 190 238 280 349 430
#     4  11  21  46  72 101 141 182 233 288 352 424
#     4  11  23  49  72  97 134 186 234 292 353 417
#     4  11  24  46  72 101 143 178 237 290 357 421
#
# _framework density 22.165140999999998
#
# number of rings (size 3 to 8) (size 9 to 14) (size 15 to 20)
#    0.000    0.500    6.250    2.625    3.500    0.500 
#    9.000    0.000    0.000    0.000    0.000    0.000 
#    0.000    0.000    0.000    0.000    0.000    0.000 
#
# Total GULP energy -89432.246478 kJ/mol
# GULP energy per Si atom -5589.515405 kJ/mol
# Density = 2.211469 g / cm^3
# Si number density = 22.165141 Si / 1000 Ang^3
#
#
#
# Elastic Constant Matrix: (Units=GPa)
#
#
# Indices 1 2 3 4 5 6 
#
# 1 145.6629 37.6817 87.9620 -4.3206 2.6704 34.1326
# 2 37.6817 63.0208 26.7367 -2.0960 -2.5310 30.0245
# 3 87.9620 26.7367 131.9397 18.5128 -13.9021 17.9996
# 4 -4.3206 -2.0960 18.5128 23.8348 -1.5236 -1.9842
# 5 2.6704 -2.5310 -13.9021 -1.5236 44.5238 7.0147
# 6 34.1326 30.0245 17.9996 -1.9842 7.0147 47.1056
#
#
#
# Elastic Compliance Matrix: (Units=1/GPa)
#
#
# Indices 1 2 3 4 5 6 
#
# 1 0.015735 -0.002131 -0.011294 0.010819 -0.003472 -0.004755
# 2 -0.002131 0.024691 -0.001622 0.002092 0.003299 -0.013977
# 3 -0.011294 -0.001622 0.018144 -0.015860 0.005584 0.000785
# 4 0.010819 0.002092 -0.015860 0.056176 -0.003525 -0.000221
# 5 -0.003472 0.003299 0.005584 -0.003525 0.025368 -0.005647
# 6 -0.004755 -0.013977 0.000785 -0.000221 -0.005647 0.034115
#
#
# Mechanical properties :
#
#
# Convention : Reuss Voigt Hill
#
# Bulk Modulus (GPa) = 35.11639 71.70937 53.41288
# Shear Modulus (GPa) = 23.38462 35.64235 29.51349
#
# Velocity S-wave (km/s) = 3.25163 4.01438 3.65297
# Velocity P-wave (km/s) = 5.47493 7.34231 6.47628
#
# Compressibility (1/GPa) = 0.02847673
#
# Stress axis : x y z
#
# Youngs Moduli (GPa) = 63.55115 40.50035 55.11457
#
# Poissons Ratio (x) = 0.08632 0.62245
# Poissons Ratio (y) = 0.13545 0.08939
# Poissons Ratio (z) = 0.71773 0.06568
#
# Static dielectric constant tensor:
#      x y z
#    x 1.893540 -0.005280 0.019160 
#    y -0.005280 1.808800 -0.028900 
#    z 0.019160 -0.028900 1.724880 
# 
# From -- ./inp_files/556897.got.cif
#   From: 2010.05.17/outbox.cif.g08.bks.cpg/sg2_279_cif.got.tgz:556897.got - 2010.06.03 11:33:40.
