data_PCOD9056082
_publ_section_title
;
Structure prediction by ZEFSAII (Michael W. Deem and Ramdas Pophale) SiO2 
 PCOD9056082
Probable space group: P -1
;
_chemical_formula_sum "Si O2"
_cell_formula_units_Z 14
_cell_length_a 9.752648
_cell_length_b 14.200516
_cell_length_c 15.379198
_cell_angle_alpha 149.517880
_cell_angle_beta 37.749319
_cell_angle_gamma 144.329917
_cell_volume 599.746943
_symmetry_space_group_name_H-M "P -1"
_symmetry_group_IT_number 2
_symmetry_cell_setting 'triclinic'
loop_
_space_group_symop_operation_xyz
x,y,z
-x,-y,-z
loop_
_atom_site_type_symbol
_atom_site_label
_atom_site_fract_x
_atom_site_fract_y
_atom_site_fract_z
Si Si1 0.257143 0.396659 0.481944
Si Si2 0.044888 0.374901 0.956374
Si Si3 0.435437 0.980113 0.618753
Si Si4 0.426247 0.357770 0.025718
Si Si5 0.926400 0.998839 0.436566
Si Si6 0.960962 0.321475 0.144977
Si Si7 0.866376 0.848330 0.819340
O O1 0.500000 0.500000 0.500000
O O2 0.172128 0.576794 0.646657
O O3 0.285764 0.286785 0.292763
O O4 0.047638 0.218119 0.502521
O O5 0.331486 0.472791 0.918291
O O6 0.975372 0.145888 0.778704
O O7 0.000000 0.500000 0.000000
O O8 0.913982 0.374221 0.112236
O O9 0.629919 0.906839 0.504826
O O10 0.500000 0.000000 0.500000
O O11 0.486503 0.191767 0.810752
O O12 0.141320 0.857794 0.679323
O O13 0.250939 0.244370 0.104301
O O14 0.250580 0.421663 0.104480
O O15 0.000000 0.000000 0.500000
O O16 0.885152 0.079152 0.992014
#
# Coordination Sequence:
#
# PCOD9056082 Si02
#       7
#     2   2   2   2   2   2   2
#     4  12  28  46  72 108 148 190 244 302 372 433
#     4  12  26  45  72 106 146 196 243 301 366 439
#     4  11  21  45  76 100 141 187 241 299 354 432
#     4  11  26  46  73 111 146 190 245 300 371 433
#     4  12  26  46  70 107 143 189 248 304 358 436
#     4  11  24  48  75 102 145 194 246 298 364 437
#     4  11  26  49  74 112 147 192 244 305 368 429
#
# _framework density 23.34318
#
# number of rings (size 3 to 8) (size 9 to 14) (size 15 to 20)
#    0.000    0.571    2.857    5.571    6.000    5.714 
#    0.000    0.000    0.000    0.000    0.000    0.000 
#    0.000    0.000    0.000    0.000    0.000    0.000 
#
# Total GULP energy -78388.181928 kJ/mol
# GULP energy per Si atom -5599.155852 kJ/mol
# Density = 2.329005 g / cm^3
# Si number density = 23.343180 Si / 1000 Ang^3
#
#
#
# Elastic Constant Matrix: (Units=GPa)
#
#
# Indices 1 2 3 4 5 6 
#
# 1 145.4976 21.1814 36.0515 8.0478 16.9565 -1.1279
# 2 21.1814 65.8522 26.8406 -7.5366 17.0111 -3.8498
# 3 36.0515 26.8406 131.9633 7.1485 16.8356 2.2294
# 4 8.0478 -7.5366 7.1485 24.8013 1.0908 15.4573
# 5 16.9565 17.0111 16.8356 1.0908 47.8082 -4.5524
# 6 -1.1279 -3.8498 2.2294 15.4573 -4.5524 38.7286
#
#
#
# Elastic Compliance Matrix: (Units=1/GPa)
#
#
# Indices 1 2 3 4 5 6 
#
# 1 0.007871 -0.001915 -0.001414 -0.003513 -0.001403 0.001357
# 2 -0.001915 0.019434 -0.003177 0.009063 -0.005534 -0.002209
# 3 -0.001414 -0.003177 0.008961 -0.003165 -0.001430 0.000222
# 4 -0.003513 0.009063 -0.003165 0.059952 -0.004467 -0.023472
# 5 -0.001403 -0.005534 -0.001430 -0.004467 0.024383 0.004141
# 6 0.001357 -0.002209 0.000222 -0.023472 0.004141 0.035483
#
#
# Mechanical properties :
#
#
# Convention : Reuss Voigt Hill
#
# Bulk Modulus (GPa) = 43.00788 56.82890 49.91839
# Shear Modulus (GPa) = 28.27291 39.55026 33.91159
#
# Velocity S-wave (km/s) = 3.48398 4.12065 3.81562
# Velocity P-wave (km/s) = 5.88629 6.85839 6.39085
#
# Compressibility (1/GPa) = 0.02325155
#
# Stress axis : x y z
#
# Youngs Moduli (GPa) = 127.05641 51.45546 111.59999
#
# Poissons Ratio (x) = 0.09856 0.15784
# Poissons Ratio (y) = 0.24337 0.35457
# Poissons Ratio (z) = 0.17970 0.16348
#
# Static dielectric constant tensor:
#      x y z
#    x 1.881100 0.016750 0.031450 
#    y 0.016750 2.005000 0.058170 
#    z 0.031450 0.058170 1.959070 
# 
# From -- ./inp_files/183581.got.cif
#   From: 2010.05.17/outbox.cif.g08.bks.cpg/sg2_92_cif.got.tgz:183581.got - 2010.06.03 11:33:40.
