data_PCOD9056145
_publ_section_title
;
Structure prediction by ZEFSAII (Michael W. Deem and Ramdas Pophale) SiO2 
 PCOD9056145
Probable space group: P -1
;
_chemical_formula_sum "Si O2"
_cell_formula_units_Z 12
_cell_length_a 9.079396
_cell_length_b 12.840527
_cell_length_c 7.731888
_cell_angle_alpha 45.510436
_cell_angle_beta 109.173097
_cell_angle_gamma 79.125875
_cell_volume 475.807438
_symmetry_space_group_name_H-M "P -1"
_symmetry_group_IT_number 2
_symmetry_cell_setting 'triclinic'
loop_
_space_group_symop_operation_xyz
x,y,z
-x,-y,-z
loop_
_atom_site_type_symbol
_atom_site_label
_atom_site_fract_x
_atom_site_fract_y
_atom_site_fract_z
Si Si1 0.298746 0.199215 0.642899
Si Si2 0.402650 0.393665 0.256430
Si Si3 0.153230 0.915885 0.316579
Si Si4 0.456820 0.415966 0.741375
Si Si5 0.658840 0.000961 0.441674
Si Si6 0.892125 0.376926 0.401452
O O1 0.330077 0.352145 0.447010
O O2 0.120842 0.283934 0.608973
O O3 0.250822 0.154962 0.490089
O O4 0.500000 0.000000 0.000000
O O5 0.622308 0.202709 0.530826
O O6 0.442203 0.541277 0.121111
O O7 0.248272 0.447428 0.982792
O O8 0.165431 0.029723 0.337708
O O9 0.111798 0.775669 0.522046
O O10 0.000000 0.000000 0.000000
O O11 0.500000 0.500000 0.500000
O O12 0.224433 0.556765 0.540471
O O13 0.549548 0.201473 0.064116
O O14 0.500000 0.000000 0.500000
#
# Coordination Sequence:
#
# PCOD9056145 Si02
#       6
#     2   2   2   2   2   2
#     4  12  26  44  72 112 154 197 250 316 381 445
#     4  11  21  47  72 101 149 200 244 307 386 448
#     4  11  22  43  76 105 146 197 250 312 379 439
#     4  11  23  46  76 107 146 196 254 308 373 458
#     4  12  24  47  77 112 149 194 258 318 367 449
#     4  11  23  45  74  99 147 204 248 300 386 445
#
# _framework density 25.220286999999999
#
# number of rings (size 3 to 8) (size 9 to 14) (size 15 to 20)
#    0.000    0.667    5.000    3.500    0.000    2.000 
#    6.000    3.333    0.000    0.000    0.000    0.000 
#    0.000    0.000    0.000    0.000    0.000    0.000 
#
# Total GULP energy -66977.850578 kJ/mol
# GULP energy per Si atom -5581.487548 kJ/mol
# Density = 2.516288 g / cm^3
# Si number density = 25.220287 Si / 1000 Ang^3
#
#
#
# Elastic Constant Matrix: (Units=GPa)
#
#
# Indices 1 2 3 4 5 6 
#
# 1 166.4393 36.6046 51.0564 -13.4485 -1.3619 -19.6338
# 2 36.6046 86.8635 14.7607 -4.7398 -9.0204 24.0049
# 3 51.0564 14.7607 124.4212 15.1228 7.8555 -5.2864
# 4 -13.4485 -4.7398 15.1228 33.4026 5.6435 -5.9320
# 5 -1.3619 -9.0204 7.8555 5.6435 45.6251 -4.0222
# 6 -19.6338 24.0049 -5.2864 -5.9320 -4.0222 49.4966
#
#
#
# Elastic Compliance Matrix: (Units=1/GPa)
#
#
# Indices 1 2 3 4 5 6 
#
# 1 0.009450 -0.004801 -0.003752 0.005989 -0.000200 0.006377
# 2 -0.004801 0.016520 -0.000375 -0.001609 0.002510 -0.009945
# 3 -0.003752 -0.000375 0.010418 -0.006248 -0.001300 -0.001048
# 4 0.005989 -0.001609 -0.006248 0.036636 -0.003010 0.006635
# 5 -0.000200 0.002510 -0.001300 -0.003010 0.023011 0.000074
# 6 0.006377 -0.009945 -0.001048 0.006635 0.000074 0.028246
#
#
# Mechanical properties :
#
#
# Convention : Reuss Voigt Hill
#
# Bulk Modulus (GPa) = 53.96269 64.72972 59.34621
# Shear Modulus (GPa) = 33.71196 44.05833 38.88514
#
# Velocity S-wave (km/s) = 3.66006 4.18418 3.93086
# Velocity P-wave (km/s) = 6.26932 7.00461 6.64714
#
# Compressibility (1/GPa) = 0.01853132
#
# Stress axis : x y z
#
# Youngs Moduli (GPa) = 105.82361 60.53103 95.98353
#
# Poissons Ratio (x) = 0.29060 0.36017
# Poissons Ratio (y) = 0.50804 0.03603
# Poissons Ratio (z) = 0.39710 0.02272
#
# Static dielectric constant tensor:
#      x y z
#    x 2.034530 0.060210 -0.070620 
#    y 0.060210 2.141800 0.017510 
#    z -0.070620 0.017510 2.191760 
# 
# From -- ./inp_files/154530.got.cif
#   From: 2010.05.17/outbox.cif.g08.bks.cpg/sg2_78_cif.got.tgz:154530.got - 2010.06.03 11:33:40.
