data_PCOD9056205
_publ_section_title
;
Structure prediction by ZEFSAII (Michael W. Deem and Ramdas Pophale) SiO2 
 PCOD9056205
Probable space group: P -1
;
_chemical_formula_sum "Si O2"
_cell_formula_units_Z 14
_cell_length_a 8.598461
_cell_length_b 6.849796
_cell_length_c 16.718555
_cell_angle_alpha 137.376320
_cell_angle_beta 58.059130
_cell_angle_gamma 128.845027
_cell_volume 515.066613
_symmetry_space_group_name_H-M "P -1"
_symmetry_group_IT_number 2
_symmetry_cell_setting 'triclinic'
loop_
_space_group_symop_operation_xyz
x,y,z
-x,-y,-z
loop_
_atom_site_type_symbol
_atom_site_label
_atom_site_fract_x
_atom_site_fract_y
_atom_site_fract_z
Si Si1 0.170857 0.380215 0.393083
Si Si2 0.176153 0.581567 0.785545
Si Si3 0.117638 0.410227 0.007435
Si Si4 0.162012 0.818548 0.343799
Si Si5 0.501520 0.215741 0.470119
Si Si6 0.444627 0.783253 0.130132
Si Si7 0.839490 0.972041 0.257164
O O1 0.399288 0.637224 0.426592
O O2 0.000000 0.500000 0.500000
O O3 0.160687 0.106850 0.376160
O O4 0.071625 0.219644 0.287329
O O5 0.191375 0.305732 0.753154
O O6 0.062921 0.439367 0.689946
O O7 0.390173 0.865827 0.806004
O O8 0.031403 0.704845 0.911612
O O9 0.186241 0.172696 0.868841
O O10 0.287316 0.743242 0.090329
O O11 0.000000 0.500000 0.000000
O O12 0.316984 0.706820 0.222843
O O13 0.271412 0.955686 0.439372
O O14 0.500000 0.500000 0.500000
O O15 0.666967 0.095128 0.357223
O O16 0.500000 0.500000 0.000000
#
# Coordination Sequence:
#
# PCOD9056205 Si02
#       7
#     2   2   2   2   2   2   2
#     4   8  15  29  54  79 105 142 178 219 269 313
#     4   9  20  36  54  78 113 146 178 220 263 323
#     4   9  19  34  53  81 113 141 181 218 262 325
#     4   9  18  33  54  80 109 142 181 217 268 322
#     4   9  16  29  55  84 107 140 180 222 270 316
#     4  11  22  36  54  80 112 145 180 221 271 321
#     4   9  16  31  53  80 112 147 179 215 270 321
#
# _framework density 27.180947
#
# number of rings (size 3 to 8) (size 9 to 14) (size 15 to 20)
#    0.000    2.857    0.000    1.714    0.000    4.571 
#    0.000    1.429    0.000   27.429    0.000    4.000 
#    0.000    0.000    0.000    0.000    0.000    0.000 
#
# Total GULP energy -78262.633979 kJ/mol
# GULP energy per Si atom -5590.188141 kJ/mol
# Density = 2.711908 g / cm^3
# Si number density = 27.180947 Si / 1000 Ang^3
#
#
#
# Elastic Constant Matrix: (Units=GPa)
#
#
# Indices 1 2 3 4 5 6 
#
# 1 190.1986 52.0912 66.3996 14.9365 40.2876 0.7526
# 2 52.0912 118.5019 51.2249 13.8408 27.6382 29.0629
# 3 66.3996 51.2249 131.5174 0.3418 1.3980 23.6208
# 4 14.9365 13.8408 0.3418 28.1634 27.6565 10.2883
# 5 40.2876 27.6382 1.3980 27.6565 99.0709 17.9383
# 6 0.7526 29.0629 23.6208 10.2883 17.9383 48.9704
#
#
#
# Elastic Compliance Matrix: (Units=1/GPa)
#
#
# Indices 1 2 3 4 5 6 
#
# 1 0.007939 -0.001938 -0.004015 -0.002009 -0.002874 0.004440
# 2 -0.001938 0.012265 -0.002879 -0.002034 -0.001115 -0.005025
# 3 -0.004015 -0.002879 0.011685 0.003004 0.002406 -0.005378
# 4 -0.002009 -0.002034 0.003004 0.051631 -0.011855 -0.006716
# 5 -0.002874 -0.001115 0.002406 -0.011855 0.015509 -0.003645
# 6 0.004440 -0.005025 -0.005378 -0.006716 -0.003645 0.028675
#
#
# Mechanical properties :
#
#
# Convention : Reuss Voigt Hill
#
# Bulk Modulus (GPa) = 70.30149 86.62771 78.46460
# Shear Modulus (GPa) = 33.30899 53.27442 43.29170
#
# Velocity S-wave (km/s) = 3.50445 4.43198 3.99522
# Velocity P-wave (km/s) = 6.50348 7.62430 7.08608
#
# Compressibility (1/GPa) = 0.01422445
#
# Stress axis : x y z
#
# Youngs Moduli (GPa) = 125.95816 81.53117 85.58340
#
# Poissons Ratio (x) = 0.15803 0.34361
# Poissons Ratio (y) = 0.24414 0.24640
# Poissons Ratio (z) = 0.50572 0.23473
#
# Static dielectric constant tensor:
#      x y z
#    x 2.153560 0.056890 -0.070220 
#    y 0.056890 2.127980 0.047700 
#    z -0.070220 0.047700 2.256820 
# 
# From -- ./inp_files/104118.got.cif
#   From: 2010.05.17/outbox.cif.g08.bks.cpg/sg2_53_cif.got.tgz:104118.got - 2010.06.03 11:33:40.
