data_PCOD9056932
_publ_section_title
;
Structure prediction by ZEFSAII (Michael W. Deem and Ramdas Pophale) SiO2 
 PCOD9056932
Probable space group: P -1
;
_chemical_formula_sum "Si O2"
_cell_formula_units_Z 14
_cell_length_a 22.004184
_cell_length_b 8.531943
_cell_length_c 27.005855
_cell_angle_alpha 40.054976
_cell_angle_beta 11.348341
_cell_angle_gamma 41.945510
_cell_volume 641.114800
_symmetry_space_group_name_H-M "P -1"
_symmetry_group_IT_number 2
_symmetry_cell_setting 'triclinic'
loop_
_space_group_symop_operation_xyz
x,y,z
-x,-y,-z
loop_
_atom_site_type_symbol
_atom_site_label
_atom_site_fract_x
_atom_site_fract_y
_atom_site_fract_z
Si Si1 0.073489 0.878678 0.051590
Si Si2 0.213718 0.022128 0.555570
Si Si3 0.131488 0.138835 0.312452
Si Si4 0.812354 0.618817 0.418735
Si Si5 0.242123 0.478971 0.668947
Si Si6 0.714222 0.357469 0.236399
Si Si7 0.860257 0.238637 0.693768
O O1 0.026632 0.709073 0.178989
O O2 0.017889 0.735914 0.078567
O O3 0.423312 0.986661 0.744991
O O4 0.835338 0.090434 0.196580
O O5 0.180410 0.164979 0.599028
O O6 0.044941 0.159317 0.613735
O O7 0.097202 0.739753 0.718912
O O8 0.940393 0.376554 0.397939
O O9 0.097966 0.955603 0.336788
O O10 0.495665 0.225645 0.002211
O O11 0.000000 0.000000 0.500000
O O12 0.464275 0.565453 0.688892
O O13 0.500000 0.500000 0.500000
O O14 0.446958 0.398741 0.478916
O O15 0.000000 0.500000 0.000000
O O16 0.000000 0.500000 0.500000
#
# Coordination Sequence:
#
# PCOD9056932 Si02
#       7
#     2   2   2   2   2   2   2
#     4  11  24  43  64  96 139 175 227 279 334 413
#     4  12  25  42  68  99 132 182 224 277 344 404
#     4  11  26  48  72 104 140 179 234 293 346 415
#     4  11  25  44  66  99 136 177 226 280 340 408
#     4  11  23  40  63  95 132 177 226 275 334 403
#     4  11  22  41  65  95 134 177 223 277 339 403
#     4  11  25  47  73 102 138 179 234 290 349 412
#
# _framework density 21.836963000000001
#
# number of rings (size 3 to 8) (size 9 to 14) (size 15 to 20)
#    0.000    0.857    1.429    6.857    2.000    8.000 
#    0.000    0.000    0.000    0.000    0.000    0.000 
#    0.000    0.000    0.000    0.000    0.000    0.000 
#
# Total GULP energy -78216.633813 kJ/mol
# GULP energy per Si atom -5586.902415 kJ/mol
# Density = 2.178726 g / cm^3
# Si number density = 21.836963 Si / 1000 Ang^3
#
#
#
# Elastic Constant Matrix: (Units=GPa)
#
#
# Indices 1 2 3 4 5 6 
#
# 1 126.0275 55.1696 38.1632 3.1758 -9.5234 8.9177
# 2 55.1696 173.4147 36.0116 1.9039 -12.8037 1.3617
# 3 38.1632 36.0116 88.8627 0.3609 -3.8135 6.5707
# 4 3.1758 1.9039 0.3609 36.7889 2.2203 -4.1534
# 5 -9.5234 -12.8037 -3.8135 2.2203 46.6325 0.0208
# 6 8.9177 1.3617 6.5707 -4.1534 0.0208 42.5548
#
#
#
# Elastic Compliance Matrix: (Units=1/GPa)
#
#
# Indices 1 2 3 4 5 6 
#
# 1 0.010222 -0.002474 -0.003209 -0.000983 0.001193 -0.001664
# 2 -0.002474 0.007012 -0.001764 -0.000147 0.001283 0.000551
# 3 -0.003209 -0.001764 0.013443 0.000088 -0.000044 -0.001338
# 4 -0.000983 -0.000147 0.000088 0.027695 -0.001554 0.002901
# 5 0.001193 0.001283 -0.000044 -0.001554 0.022111 -0.000447
# 6 -0.001664 0.000551 -0.001338 0.002901 -0.000447 0.024320
#
#
# Mechanical properties :
#
#
# Convention : Reuss Voigt Hill
#
# Bulk Modulus (GPa) = 63.36071 71.88820 67.62446
# Shear Modulus (GPa) = 40.01321 42.45926 41.23624
#
# Velocity S-wave (km/s) = 4.28525 4.41429 4.35025
# Velocity P-wave (km/s) = 7.31867 7.67940 7.50120
#
# Compressibility (1/GPa) = 0.01578265
#
# Stress axis : x y z
#
# Youngs Moduli (GPa) = 97.82665 142.61594 74.38644
#
# Poissons Ratio (x) = 0.35278 0.23873
# Poissons Ratio (y) = 0.24199 0.13124
# Poissons Ratio (z) = 0.31396 0.25163
#
# Static dielectric constant tensor:
#      x y z
#    x 1.854740 0.024130 -0.063780 
#    y 0.024130 1.793570 -0.101840 
#    z -0.063780 -0.101840 1.940950 
# 
# From -- ./inp_files/624123.got.cif
#   From: 2010.05.17/outbox.cif.g08.bks.cpg/sg2_313_cif.got.tgz:624123.got - 2010.06.03 11:33:40.
