data_PCOD9056077
_publ_section_title
;
Structure prediction by ZEFSAII (Michael W. Deem and Ramdas Pophale) SiO2 
 PCOD9056077
Probable space group: P -1
;
_chemical_formula_sum "Si O2"
_cell_formula_units_Z 16
_cell_length_a 8.550087
_cell_length_b 19.487323
_cell_length_c 9.274836
_cell_angle_alpha 151.464057
_cell_angle_beta 84.469332
_cell_angle_gamma 95.884908
_cell_volume 734.277465
_symmetry_space_group_name_H-M "P -1"
_symmetry_group_IT_number 2
_symmetry_cell_setting 'triclinic'
loop_
_space_group_symop_operation_xyz
x,y,z
-x,-y,-z
loop_
_atom_site_type_symbol
_atom_site_label
_atom_site_fract_x
_atom_site_fract_y
_atom_site_fract_z
Si Si1 0.727343 0.580577 0.699897
Si Si2 0.371493 0.371633 0.748277
Si Si3 0.448012 0.867571 0.857945
Si Si4 0.879066 0.092120 0.596635
Si Si5 0.882247 0.580063 0.388957
Si Si6 0.186029 0.725444 0.778332
Si Si7 0.086592 0.321638 0.884659
Si Si8 0.596418 0.880973 0.184638
O O1 0.769915 0.538375 0.456241
O O2 0.714153 0.423211 0.490463
O O3 0.878878 0.649274 0.895772
O O4 0.614569 0.719516 0.953635
O O5 0.488692 0.255738 0.472795
O O6 0.237911 0.380373 0.652137
O O7 0.260012 0.327109 0.811222
O O8 0.500000 0.500000 0.000000
O O9 0.269004 0.835028 0.860033
O O10 0.530095 0.865097 0.001684
O O11 0.500000 0.000000 0.000000
O O12 0.974776 0.180912 0.629821
O O13 0.759942 0.970774 0.322939
O O14 0.812911 0.199348 0.924371
O O15 0.000000 0.000000 0.500000
O O16 0.016172 0.683939 0.645184
O O17 0.984103 0.451662 0.082690
O O18 0.500000 0.000000 0.500000
#
# Coordination Sequence:
#
# PCOD9056077 Si02
#       8
#     2   2   2   2   2   2   2   2
#     4  11  21  45  75 108 139 178 250 309 360 419
#     4  12  28  49  71 105 150 194 236 296 365 442
#     4  12  30  51  66 103 155 198 240 295 367 439
#     4  12  23  41  73 110 140 183 241 304 363 421
#     4  11  21  45  76 108 139 180 247 296 364 429
#     4  11  23  47  77 105 142 190 242 310 359 428
#     4  11  23  43  74 107 142 186 239 302 355 440
#     4  12  26  46  74 109 148 192 245 304 370 433
#
# _framework density 21.790127999999999
#
# number of rings (size 3 to 8) (size 9 to 14) (size 15 to 20)
#    0.000    0.500    6.250    2.625    3.500    2.500 
#    4.500    1.250    0.000    0.000    0.000    0.000 
#    0.000    0.000    0.000    0.000    0.000    0.000 
#
# Total GULP energy -89097.018096 kJ/mol
# GULP energy per Si atom -5568.563631 kJ/mol
# Density = 2.174053 g / cm^3
# Si number density = 21.790128 Si / 1000 Ang^3
#
#
#
# Elastic Constant Matrix: (Units=GPa)
#
#
# Indices 1 2 3 4 5 6 
#
# 1 58.7588 14.5060 14.9357 9.4583 16.9766 19.6200
# 2 14.5060 84.5826 22.9966 12.2318 7.5651 15.5211
# 3 14.9357 22.9966 108.5495 9.9575 -5.0589 7.8766
# 4 9.4583 12.2318 9.9575 19.6692 2.7996 -3.6416
# 5 16.9766 7.5651 -5.0589 2.7996 38.2297 -2.4697
# 6 19.6200 15.5211 7.8766 -3.6416 -2.4697 41.0719
#
#
#
# Elastic Compliance Matrix: (Units=1/GPa)
#
#
# Indices 1 2 3 4 5 6 
#
# 1 0.028887 0.002086 -0.002490 -0.015012 -0.013521 -0.016254
# 2 0.002086 0.015275 -0.002231 -0.010192 -0.003981 -0.007484
# 3 -0.002490 -0.002231 0.010471 -0.003179 0.003161 -0.000067
# 4 -0.015012 -0.010192 -0.003179 0.068712 0.004393 0.017989
# 5 -0.013521 -0.003981 0.003161 0.004393 0.033678 0.009772
# 6 -0.016254 -0.007484 -0.000067 0.017989 0.009772 0.037136
#
#
# Mechanical properties :
#
#
# Convention : Reuss Voigt Hill
#
# Bulk Modulus (GPa) = 20.25791 39.64082 29.94936
# Shear Modulus (GPa) = 23.16067 33.09101 28.12584
#
# Velocity S-wave (km/s) = 3.26375 3.90118 3.59661
# Velocity P-wave (km/s) = 4.84972 6.20676 5.56972
#
# Compressibility (1/GPa) = 0.04936344
#
# Stress axis : x y z
#
# Youngs Moduli (GPa) = 34.61760 65.46734 95.49808
#
# Poissons Ratio (x) = -0.13655 0.23780
# Poissons Ratio (y) = -0.07221 0.21302
# Poissons Ratio (z) = 0.08620 0.14603
#
# Static dielectric constant tensor:
#      x y z
#    x 1.379070 -0.064750 -0.197590 
#    y -0.064750 1.776570 -0.020560 
#    z -0.197590 -0.020560 1.737410 
# 
# From -- ./inp_files/219050.got.cif
#   From: 2010.05.17/outbox.cif.g08.bks.cpg/sg2_110_cif.got.tgz:219050.got - 2010.06.03 11:33:40.
