data_PCOD9056816
_publ_section_title
;
Structure prediction by ZEFSAII (Michael W. Deem and Ramdas Pophale) SiO2 
 PCOD9056816
Probable space group: P -1
;
_chemical_formula_sum "Si O2"
_cell_formula_units_Z 16
_cell_length_a 12.002700
_cell_length_b 15.121808
_cell_length_c 5.450767
_cell_angle_alpha 62.392348
_cell_angle_beta 58.519322
_cell_angle_gamma 56.562769
_cell_volume 682.286073
_symmetry_space_group_name_H-M "P -1"
_symmetry_group_IT_number 2
_symmetry_cell_setting 'triclinic'
loop_
_space_group_symop_operation_xyz
x,y,z
-x,-y,-z
loop_
_atom_site_type_symbol
_atom_site_label
_atom_site_fract_x
_atom_site_fract_y
_atom_site_fract_z
Si Si1 0.566774 0.778664 0.864878
Si Si2 0.066333 0.259024 0.228272
Si Si3 0.302200 0.864053 0.351002
Si Si4 0.089727 0.032781 0.055718
Si Si5 0.724928 0.666612 0.330024
Si Si6 0.689842 0.953690 0.566818
Si Si7 0.851192 0.266499 0.140477
Si Si8 0.082372 0.563488 0.458646
O O1 0.630690 0.716099 0.618687
O O2 0.589524 0.891839 0.699954
O O3 0.402649 0.807532 0.079374
O O4 0.644965 0.713822 0.105110
O O5 0.173283 0.138199 0.333566
O O6 0.903658 0.277428 0.339519
O O7 0.041853 0.346877 0.354424
O O8 0.144652 0.293837 0.874976
O O9 0.276309 0.772664 0.657728
O O10 0.363929 0.937227 0.346008
O O11 0.146018 0.948170 0.325362
O O12 0.239561 0.023821 0.784770
O O13 0.992328 0.159995 0.039437
O O14 0.000000 0.000000 0.000000
O O15 0.793456 0.535551 0.415559
O O16 0.844894 0.371259 0.867270
O O17 0.000000 0.500000 0.500000
#
# Coordination Sequence:
#
# PCOD9056816 Si02
#       8
#     2   2   2   2   2   2   2   2
#     4  11  28  47  70 102 142 195 245 280 330 418
#     4  11  22  40  70 106 137 169 226 296 368 417
#     4  12  27  43  66  99 146 194 230 279 345 427
#     4  12  23  41  68 102 146 177 229 289 364 417
#     4  11  25  47  71 102 140 180 242 301 344 405
#     4  11  22  41  68 100 141 186 226 290 340 425
#     4  12  24  40  65 105 139 173 228 289 365 422
#     4  12  24  42  72 106 133 174 229 302 371 415
#
# _framework density 23.450571
#
# number of rings (size 3 to 8) (size 9 to 14) (size 15 to 20)
#    0.000    0.500    5.000    4.125    5.250    0.500 
#    0.000    1.250    0.000    0.000    0.000    0.000 
#    0.000    0.000    0.000    0.000    0.000    0.000 
#
# Total GULP energy -89432.454430 kJ/mol
# GULP energy per Si atom -5589.528402 kJ/mol
# Density = 2.339720 g / cm^3
# Si number density = 23.450571 Si / 1000 Ang^3
#
#
#
# Elastic Constant Matrix: (Units=GPa)
#
#
# Indices 1 2 3 4 5 6 
#
# 1 39.4523 13.9735 9.5588 -11.3811 0.5530 -1.6551
# 2 13.9735 91.7000 59.0928 -17.9854 -0.9100 7.6779
# 3 9.5588 59.0928 125.8080 -13.5524 -12.1115 -3.9385
# 4 -11.3811 -17.9854 -13.5524 56.2914 -2.9110 5.0941
# 5 0.5530 -0.9100 -12.1115 -2.9110 33.7795 2.8833
# 6 -1.6551 7.6779 -3.9385 5.0941 2.8833 29.2749
#
#
#
# Elastic Compliance Matrix: (Units=1/GPa)
#
#
# Indices 1 2 3 4 5 6 
#
# 1 0.027938 -0.003602 0.000063 0.004333 -0.000313 0.001810
# 2 -0.003602 0.017891 -0.008095 0.003545 -0.001505 -0.006454
# 3 0.000063 -0.008095 0.012257 0.000277 0.003914 0.003342
# 4 0.004333 0.003545 0.000277 0.020356 0.002255 -0.004412
# 5 -0.000313 -0.001505 0.003914 0.002255 0.031386 -0.002580
# 6 0.001810 -0.006454 0.003342 -0.004412 -0.002580 0.037425
#
#
# Mechanical properties :
#
#
# Convention : Reuss Voigt Hill
#
# Bulk Modulus (GPa) = 28.72144 46.91228 37.81686
# Shear Modulus (GPa) = 27.45290 35.49148 31.47219
#
# Velocity S-wave (km/s) = 3.42522 3.89454 3.66739
# Velocity P-wave (km/s) = 5.28366 6.34598 5.83903
#
# Compressibility (1/GPa) = 0.03481719
#
# Stress axis : x y z
#
# Youngs Moduli (GPa) = 35.79351 55.89279 81.58288
#
# Poissons Ratio (x) = 0.20135 -0.00511
# Poissons Ratio (y) = 0.12895 0.66041
# Poissons Ratio (z) = -0.00224 0.45245
#
# Static dielectric constant tensor:
#      x y z
#    x 2.120330 0.104750 0.077600 
#    y 0.104750 1.933540 0.016870 
#    z 0.077600 0.016870 1.943340 
# 
# From -- ./inp_files/77089.got.cif
#   From: 2010.05.17/outbox.cif.g08.bks.cpg/sg2_39_cif.got.tgz:77089.got - 2010.06.03 11:33:40.
