data_PCOD9056440
_publ_section_title
;
Structure prediction by ZEFSAII (Michael W. Deem and Ramdas Pophale) SiO2 
 PCOD9056440
Probable space group: P -1
;
_chemical_formula_sum "Si O2"
_cell_formula_units_Z 16
_cell_length_a 8.509295
_cell_length_b 5.872276
_cell_length_c 15.665133
_cell_angle_alpha 72.325737
_cell_angle_beta 112.805573
_cell_angle_gamma 89.365334
_cell_volume 680.089860
_symmetry_space_group_name_H-M "P -1"
_symmetry_group_IT_number 2
_symmetry_cell_setting 'triclinic'
loop_
_space_group_symop_operation_xyz
x,y,z
-x,-y,-z
loop_
_atom_site_type_symbol
_atom_site_label
_atom_site_fract_x
_atom_site_fract_y
_atom_site_fract_z
Si Si1 0.898453 0.558408 0.850179
Si Si2 0.329388 0.770628 0.717373
Si Si3 0.995911 0.291548 0.449981
Si Si4 0.190202 0.734196 0.973380
Si Si5 0.379404 0.955601 0.264628
Si Si6 0.175567 0.587552 0.338433
Si Si7 0.845116 0.911009 0.205031
Si Si8 0.498048 0.713357 0.139066
O O1 0.865906 0.479802 0.758290
O O2 0.100055 0.568444 0.909213
O O3 0.778287 0.821811 0.799987
O O4 0.853058 0.368720 0.932629
O O5 0.189761 0.664839 0.641981
O O6 0.236484 0.880150 0.770932
O O7 0.482648 0.564272 0.799467
O O8 0.437963 0.965878 0.677043
O O9 0.000000 0.500000 0.500000
O O10 0.154843 0.353228 0.417199
O O11 0.000000 0.000000 0.500000
O O12 0.108125 0.990083 0.888639
O O13 0.391569 0.748543 0.025028
O O14 0.330771 0.743323 0.340747
O O15 0.412785 0.865754 0.184137
O O16 0.007889 0.778461 0.304719
O O17 0.692454 0.762231 0.169917
#
# Coordination Sequence:
#
# PCOD9056440 Si02
#       8
#     2   2   2   2   2   2   2   2
#     4  11  24  39  64  99 146 194 240 304 336 423
#     4  11  24  49  70 103 147 186 236 296 382 425
#     4  12  29  51  83 114 140 179 242 314 378 465
#     4  11  22  39  57 104 144 190 258 288 336 400
#     4  11  23  43  73  97 141 200 237 285 365 435
#     4  12  24  47  75 103 139 193 238 292 388 428
#     4  11  24  39  69  98 147 197 243 296 342 430
#     4  11  23  42  63  99 142 202 234 300 348 421
#
# _framework density 23.526304
#
# number of rings (size 3 to 8) (size 9 to 14) (size 15 to 20)
#    0.000    0.750    5.000    1.875    3.500    3.500 
#    0.000    1.250    0.000    0.000    0.000    0.000 
#    0.000    0.000    0.000    0.000    0.000    0.000 
#
# Total GULP energy -89159.544530 kJ/mol
# GULP energy per Si atom -5572.471533 kJ/mol
# Density = 2.347276 g / cm^3
# Si number density = 23.526304 Si / 1000 Ang^3
#
#
#
# Elastic Constant Matrix: (Units=GPa)
#
#
# Indices 1 2 3 4 5 6 
#
# 1 77.4674 32.9963 36.4507 15.3607 -4.6348 39.6571
# 2 32.9963 104.8926 45.3546 5.0070 -13.9423 12.8824
# 3 36.4507 45.3546 -58.4567 -82.2162 -43.0543 -45.6144
# 4 15.3607 5.0070 -82.2162 0.7354 -2.5316 -35.0994
# 5 -4.6348 -13.9423 -43.0543 -2.5316 30.7752 -22.6885
# 6 39.6571 12.8824 -45.6144 -35.0994 -22.6885 34.7913
#
#
#
# Elastic Compliance Matrix: (Units=1/GPa)
#
#
# Indices 1 2 3 4 5 6 
#
# 1 0.015901 -0.006213 0.004972 0.001955 0.002485 -0.005713
# 2 -0.006213 0.012511 -0.002153 0.001152 0.004616 0.003800
# 3 0.004972 -0.002153 0.004475 -0.008901 -0.001126 -0.008718
# 4 0.001955 0.001152 -0.008901 0.018069 -0.014007 -0.005231
# 5 0.002485 0.004616 -0.001126 -0.014007 0.033468 0.001676
# 6 -0.005713 0.003800 -0.008718 -0.005231 0.001676 0.018233
#
#
# Mechanical properties :
#
#
# Convention : Reuss Voigt Hill
#
# Bulk Modulus (GPa) = 38.31648 39.27849 38.79749
# Shear Modulus (GPa) = 42.32144 13.86716 28.09430
#
# Velocity S-wave (km/s) = 4.24594 2.43046 3.45942
# Velocity P-wave (km/s) = 6.35290 4.96064 5.69945
#
# Compressibility (1/GPa) = 0.02609843
#
# Stress axis : x y z
#
# Youngs Moduli (GPa) = 62.88903 79.92987 223.47500
#
# Poissons Ratio (x) = 0.49663 -1.11115
# Poissons Ratio (y) = 0.39075 0.48114
# Poissons Ratio (z) = -0.31269 0.17209
#
# Static dielectric constant tensor:
#      x y z
#    x 1.980040 0.043950 -0.040510 
#    y 0.043950 2.039390 -0.037200 
#    z -0.040510 -0.037200 1.887430 
# 
# From -- ./inp_files/488326.got.cif
#   From: 2010.05.17/outbox.cif.g08.bks.cpg/sg2_245_cif.got.tgz:488326.got - 2010.06.03 11:33:40.
