data_PCOD9056902
_publ_section_title
;
Structure prediction by ZEFSAII (Michael W. Deem and Ramdas Pophale) SiO2 
 PCOD9056902
Probable space group: P -1
;
_chemical_formula_sum "Si O2"
_cell_formula_units_Z 14
_cell_length_a 11.504745
_cell_length_b 9.306183
_cell_length_c 21.081650
_cell_angle_alpha 143.907529
_cell_angle_beta 33.719646
_cell_angle_gamma 119.541322
_cell_volume 617.628388
_symmetry_space_group_name_H-M "P -1"
_symmetry_group_IT_number 2
_symmetry_cell_setting 'triclinic'
loop_
_space_group_symop_operation_xyz
x,y,z
-x,-y,-z
loop_
_atom_site_type_symbol
_atom_site_label
_atom_site_fract_x
_atom_site_fract_y
_atom_site_fract_z
Si Si1 0.157109 0.839941 0.934076
Si Si2 0.755836 0.488549 0.979168
Si Si3 0.730072 0.756889 0.386381
Si Si4 0.947439 0.740112 0.422212
Si Si5 0.535173 0.034739 0.816437
Si Si6 0.512744 0.781674 0.967379
Si Si7 0.182249 0.178569 0.829958
O O1 0.262134 0.507508 0.748081
O O2 0.361433 0.919754 0.873502
O O3 0.989047 0.935974 0.108836
O O4 0.000000 0.000000 0.000000
O O5 0.047812 0.236959 0.748281
O O6 0.617500 0.642591 0.031240
O O7 0.606515 0.401805 0.061568
O O8 0.736280 0.764336 0.119030
O O9 0.837267 0.717577 0.396391
O O10 0.435360 0.999284 0.611102
O O11 0.206317 0.444563 0.217043
O O12 0.741969 0.817096 0.595979
O O13 0.000000 0.000000 0.500000
O O14 0.647749 0.055714 0.838818
O O15 0.500000 0.000000 0.000000
O O16 0.000000 0.500000 0.000000
#
# Coordination Sequence:
#
# PCOD9056902 Si02
#       7
#     2   2   2   2   2   2   2
#     4  11  22  41  64 100 134 168 228 273 319 407
#     4  11  22  45  68  98 132 178 229 267 330 418
#     4  11  22  42  73  97 128 184 224 267 334 399
#     4  12  22  42  75  98 130 186 227 266 332 409
#     4  12  23  43  69  98 130 179 228 271 322 414
#     4  12  27  44  68 104 137 169 221 293 341 380
#     4  11  25  43  67  96 137 173 220 284 337 390
#
# _framework density 22.667351
#
# number of rings (size 3 to 8) (size 9 to 14) (size 15 to 20)
#    0.000    0.571    7.143    1.286    2.000    6.286 
#    2.571    0.000    0.000    0.000    0.000    0.000 
#    0.000    0.000    0.000    0.000    0.000    0.000 
#
# Total GULP energy -78090.743427 kJ/mol
# GULP energy per Si atom -5577.910245 kJ/mol
# Density = 2.261576 g / cm^3
# Si number density = 22.667351 Si / 1000 Ang^3
#
#
#
# Elastic Constant Matrix: (Units=GPa)
#
#
# Indices 1 2 3 4 5 6 
#
# 1 45.5944 9.7272 7.0392 9.5255 -3.6920 3.1022
# 2 9.7272 133.6459 37.0204 -19.1268 -20.9323 4.1902
# 3 7.0392 37.0204 164.4834 -18.4230 -19.9414 -5.3833
# 4 9.5255 -19.1268 -18.4230 33.9597 2.0992 -5.0798
# 5 -3.6920 -20.9323 -19.9414 2.0992 29.8583 -1.1137
# 6 3.1022 4.1902 -5.3833 -5.0798 -1.1137 39.3161
#
#
#
# Elastic Compliance Matrix: (Units=1/GPa)
#
#
# Indices 1 2 3 4 5 6 
#
# 1 0.025073 -0.002568 -0.001608 -0.009876 0.000802 -0.003178
# 2 -0.002568 0.009499 -0.000776 0.005301 0.005448 -0.000077
# 3 -0.001608 -0.000776 0.007308 0.004011 0.003925 0.001840
# 4 -0.009876 0.005301 0.004011 0.038072 0.002712 0.005759
# 5 0.000802 0.005448 0.003925 0.002712 0.039891 0.001374
# 6 -0.003178 -0.000077 0.001840 0.005759 0.001374 0.026729
#
#
# Mechanical properties :
#
#
# Convention : Reuss Voigt Hill
#
# Bulk Modulus (GPa) = 31.27345 50.14416 40.70880
# Shear Modulus (GPa) = 29.91578 39.95591 34.93585
#
# Velocity S-wave (km/s) = 3.63681 4.20302 3.93012
# Velocity P-wave (km/s) = 5.60909 6.76192 6.21230
#
# Compressibility (1/GPa) = 0.03197600
#
# Stress axis : x y z
#
# Youngs Moduli (GPa) = 39.88331 105.27840 136.82704
#
# Poissons Ratio (x) = 0.27032 0.22003
# Poissons Ratio (y) = 0.10241 0.10623
# Poissons Ratio (z) = 0.06414 0.08173
#
# Static dielectric constant tensor:
#      x y z
#    x 1.975460 0.056150 0.019090 
#    y 0.056150 1.956500 0.020760 
#    z 0.019090 0.020760 1.898760 
# 
# From -- ./inp_files/208032.got.cif
#   From: 2010.05.17/outbox.cif.g08.bks.cpg/sg2_105_cif.got.tgz:208032.got - 2010.06.03 11:33:40.
