data_PCOD9056120
_publ_section_title
;
Structure prediction by ZEFSAII (Michael W. Deem and Ramdas Pophale) SiO2 
 PCOD9056120
Probable space group: P -1
;
_chemical_formula_sum "Si O2"
_cell_formula_units_Z 14
_cell_length_a 12.595925
_cell_length_b 12.256826
_cell_length_c 9.017994
_cell_angle_alpha 50.122798
_cell_angle_beta 119.846707
_cell_angle_gamma 86.334038
_cell_volume 757.921158
_symmetry_space_group_name_H-M "P -1"
_symmetry_group_IT_number 2
_symmetry_cell_setting 'triclinic'
loop_
_space_group_symop_operation_xyz
x,y,z
-x,-y,-z
loop_
_atom_site_type_symbol
_atom_site_label
_atom_site_fract_x
_atom_site_fract_y
_atom_site_fract_z
Si Si1 0.943813 0.129072 0.488216
Si Si2 0.207488 0.932486 0.292626
Si Si3 0.678112 0.355831 0.611158
Si Si4 0.344478 0.640187 0.072553
Si Si5 0.773194 0.563605 0.333278
Si Si6 0.514809 0.320508 0.122176
Si Si7 0.087078 0.236799 0.715595
O O1 0.888737 0.061839 0.641472
O O2 0.061140 0.155769 0.624412
O O3 0.798236 0.313328 0.163724
O O4 0.000000 0.000000 0.500000
O O5 0.221011 0.799012 0.296761
O O6 0.376487 0.832672 0.557969
O O7 0.147129 0.106613 0.010504
O O8 0.500761 0.449569 0.370625
O O9 0.706500 0.296389 0.851586
O O10 0.717994 0.492967 0.485121
O O11 0.401798 0.733107 0.932468
O O12 0.806138 0.700047 0.291146
O O13 0.924987 0.402895 0.507132
O O14 0.645772 0.637519 0.054730
O O15 0.500000 0.500000 0.000000
#
# Coordination Sequence:
#
# PCOD9056120 Si02
#       7
#     2   2   2   2   2   2   2
#     4  11  22  35  58  85 118 149 194 239 281 337
#     4  11  21  35  63  85 109 152 201 237 273 340
#     4  10  18  36  61  86 109 146 201 238 277 337
#     4   9  19  31  58  87 108 144 193 241 274 331
#     4  10  21  37  59  81 123 150 186 235 295 341
#     4  10  17  36  60  85 110 147 194 238 276 334
#     4  11  23  36  56  87 118 155 185 233 296 341
#
# _framework density 18.471577
#
# number of rings (size 3 to 8) (size 9 to 14) (size 15 to 20)
#    0.000    1.714    4.286    2.143    2.000    0.571 
#    0.000    0.714    3.143   29.143    0.000    0.000 
#    0.000    0.000    0.000    0.000    0.000    0.000 
#
# Total GULP energy -77985.619549 kJ/mol
# GULP energy per Si atom -5570.401396 kJ/mol
# Density = 1.842954 g / cm^3
# Si number density = 18.471577 Si / 1000 Ang^3
#
#
#
# Elastic Constant Matrix: (Units=GPa)
#
#
# Indices 1 2 3 4 5 6 
#
# 1 83.7367 60.2168 41.8899 8.5957 -0.9469 -0.1177
# 2 60.2168 103.6801 49.5626 11.4345 -5.8609 0.5174
# 3 41.8899 49.5626 121.3301 25.1696 4.5544 16.5215
# 4 8.5957 11.4345 25.1696 22.3915 -2.1020 -2.3355
# 5 -0.9469 -5.8609 4.5544 -2.1020 28.1404 14.0981
# 6 -0.1177 0.5174 16.5215 -2.3355 14.0981 37.3811
#
#
#
# Elastic Compliance Matrix: (Units=1/GPa)
#
#
# Indices 1 2 3 4 5 6 
#
# 1 0.021515 -0.011145 -0.003439 0.001363 -0.002286 0.002689
# 2 -0.011145 0.018106 -0.003524 -0.000657 0.004070 -0.000304
# 3 -0.003439 -0.003524 0.014856 -0.014395 -0.000750 -0.007145
# 4 0.001363 -0.000657 -0.014395 0.061837 0.002131 0.009435
# 5 -0.002286 0.004070 -0.000750 0.002131 0.044863 -0.016519
# 6 0.002689 -0.000304 -0.007145 0.009435 -0.016519 0.036741
#
#
# Mechanical properties :
#
#
# Convention : Reuss Voigt Hill
#
# Bulk Modulus (GPa) = 54.75636 68.00949 61.38293
# Shear Modulus (GPa) = 20.81420 28.05446 24.43433
#
# Velocity S-wave (km/s) = 3.36046 3.90139 3.64099
# Velocity P-wave (km/s) = 6.69065 7.56260 7.13995
#
# Compressibility (1/GPa) = 0.01826272
#
# Stress axis : x y z
#
# Youngs Moduli (GPa) = 46.47922 55.22911 67.31383
#
# Poissons Ratio (x) = 0.61553 0.23147
# Poissons Ratio (y) = 0.51801 0.23718
# Poissons Ratio (z) = 0.15983 0.19460
#
# Static dielectric constant tensor:
#      x y z
#    x 1.651480 -0.021820 0.046030 
#    y -0.021820 1.659600 0.000370 
#    z 0.046030 0.000370 1.701720 
# 
# From -- ./inp_files/261689.got.cif
#   From: 2010.05.17/outbox.cif.g08.bks.cpg/sg2_131_cif.got.tgz:261689.got - 2010.06.03 11:33:40.
