data_PCOD9056268
_publ_section_title
;
Structure prediction by ZEFSAII (Michael W. Deem and Ramdas Pophale) SiO2 
 PCOD9056268
Probable space group: P -1
;
_chemical_formula_sum "Si O2"
_cell_formula_units_Z 16
_cell_length_a 8.733474
_cell_length_b 8.952964
_cell_length_c 12.048898
_cell_angle_alpha 107.394398
_cell_angle_beta 93.385016
_cell_angle_gamma 66.656740
_cell_volume 823.538731
_symmetry_space_group_name_H-M "P -1"
_symmetry_group_IT_number 2
_symmetry_cell_setting 'triclinic'
loop_
_space_group_symop_operation_xyz
x,y,z
-x,-y,-z
loop_
_atom_site_type_symbol
_atom_site_label
_atom_site_fract_x
_atom_site_fract_y
_atom_site_fract_z
Si Si1 0.215849 0.247736 0.249693
Si Si2 0.821497 0.653875 0.493463
Si Si3 0.472126 0.862383 0.893831
Si Si4 0.831303 0.098201 0.774885
Si Si5 0.811178 0.025198 0.519376
Si Si6 0.671011 0.358313 0.017648
Si Si7 0.224830 0.896632 0.708858
Si Si8 0.178698 0.575306 0.744162
O O1 0.268376 0.302244 0.381772
O O2 0.344916 0.258562 0.168171
O O3 0.022029 0.362939 0.244589
O O4 0.216830 0.056669 0.216347
O O5 0.826283 0.833785 0.499635
O O6 0.754098 0.587327 0.370070
O O7 0.000000 0.500000 0.500000
O O8 0.378367 0.773002 0.942447
O O9 0.353799 0.938391 0.799827
O O10 0.500000 0.000000 0.000000
O O11 0.754128 0.132034 0.654547
O O12 0.775346 0.252637 0.893518
O O13 0.032214 0.025801 0.750594
O O14 0.724660 0.103434 0.417401
O O15 0.000000 0.000000 0.500000
O O16 0.756919 0.435878 0.129810
O O17 0.500000 0.500000 0.000000
O O18 0.221554 0.718149 0.711165
#
# Coordination Sequence:
#
# PCOD9056268 Si02
#       8
#     2   2   2   2   2   2   2   2
#     4   9  18  36  60  86 104 146 192 226 278 324
#     4   9  17  34  57  85 116 146 182 226 279 336
#     4  11  22  37  59  82 114 142 190 243 271 327
#     4   9  18  37  61  79 109 153 184 224 277 334
#     4   9  17  34  59  87 110 138 192 236 267 322
#     4  11  24  41  53  81 118 150 185 226 287 335
#     4   9  20  36  59  87 107 145 194 230 277 325
#     4   9  20  38  62  79 114 152 183 225 279 346
#
# _framework density 19.428352
#
# number of rings (size 3 to 8) (size 9 to 14) (size 15 to 20)
#    0.000    2.500    1.250    2.250    1.750    2.500 
#   13.500    3.125    0.000    0.000    0.000    0.000 
#    0.000    0.000    0.000    0.000    0.000    0.000 
#
# Total GULP energy -89106.633575 kJ/mol
# GULP energy per Si atom -5569.164598 kJ/mol
# Density = 1.938413 g / cm^3
# Si number density = 19.428352 Si / 1000 Ang^3
#
#
#
# Elastic Constant Matrix: (Units=GPa)
#
#
# Indices 1 2 3 4 5 6 
#
# 1 48.5842 -1.8577 42.7945 0.1234 16.5122 0.2515
# 2 -1.8577 26.2515 40.9967 -4.0644 11.1328 -8.1831
# 3 42.7945 40.9967 184.7191 4.6455 31.2649 -4.3646
# 4 0.1234 -4.0644 4.6455 33.2704 -0.2401 5.2731
# 5 16.5122 11.1328 31.2649 -0.2401 34.3131 -5.6895
# 6 0.2515 -8.1831 -4.3646 5.2731 -5.6895 14.3375
#
#
#
# Elastic Compliance Matrix: (Units=1/GPa)
#
#
# Indices 1 2 3 4 5 6 
#
# 1 0.039871 0.034573 -0.014096 0.004910 -0.016464 0.006403
# 2 0.034573 0.105714 -0.027543 0.010151 -0.019133 0.040020
# 3 -0.014096 -0.027543 0.014513 -0.003864 0.000933 -0.009264
# 4 0.004910 0.010151 -0.003864 0.033226 -0.003402 -0.009039
# 5 -0.016464 -0.019133 0.000933 -0.003402 0.043772 0.008274
# 6 0.006403 0.040020 -0.009264 -0.009039 0.008274 0.096264
#
#
# Mechanical properties :
#
#
# Convention : Reuss Voigt Hill
#
# Bulk Modulus (GPa) = 6.85095 47.04688 26.94891
# Shear Modulus (GPa) = 12.62159 28.22561 20.42360
#
# Velocity S-wave (km/s) = 2.55158 3.81570 3.24578
# Velocity P-wave (km/s) = 3.49495 6.60916 5.28657
#
# Compressibility (1/GPa) = 0.14596520
#
# Stress axis : x y z
#
# Youngs Moduli (GPa) = 25.08108 9.45947 68.90592
#
# Poissons Ratio (x) = -0.32704 0.97127
# Poissons Ratio (y) = -0.86712 1.89789
# Poissons Ratio (z) = 0.35353 0.26054
#
# Static dielectric constant tensor:
#      x y z
#    x 1.701780 0.009370 0.025310 
#    y 0.009370 1.661570 0.015980 
#    z 0.025310 0.015980 1.700440 
# 
# From -- ./inp_files/176683.got.cif
#   From: 2010.05.17/outbox.cif.g08.bks.cpg/sg2_89_cif.got.tgz:176683.got - 2010.06.03 11:33:40.
