data_PCOD9056031
_publ_section_title
;
Structure prediction by ZEFSAII (Michael W. Deem and Ramdas Pophale) SiO2 
 PCOD9056031
Probable space group: P -1
;
_chemical_formula_sum "Si O2"
_cell_formula_units_Z 16
_cell_length_a 23.797827
_cell_length_b 14.105296
_cell_length_c 17.566348
_cell_angle_alpha 20.810818
_cell_angle_beta 160.245117
_cell_angle_gamma 149.757028
_cell_volume 701.896815
_symmetry_space_group_name_H-M "P -1"
_symmetry_group_IT_number 2
_symmetry_cell_setting 'triclinic'
loop_
_space_group_symop_operation_xyz
x,y,z
-x,-y,-z
loop_
_atom_site_type_symbol
_atom_site_label
_atom_site_fract_x
_atom_site_fract_y
_atom_site_fract_z
Si Si1 0.919857 0.819624 0.282798
Si Si2 0.489753 0.183293 0.669667
Si Si3 0.320848 0.093457 0.236117
Si Si4 0.730985 0.287423 0.260806
Si Si5 0.443976 0.316468 0.679607
Si Si6 0.886925 0.665900 0.667384
Si Si7 0.848953 0.231073 0.625233
Si Si8 0.865040 0.933246 0.296825
O O1 0.904889 0.509045 0.512109
O O2 0.843828 0.949412 0.166361
O O3 0.117358 0.833674 0.510690
O O4 0.815764 0.896246 0.014908
O O5 0.406955 0.311161 0.546151
O O6 0.450744 0.428543 0.374631
O O7 0.416149 0.900037 0.784399
O O8 0.693482 0.102149 0.985548
O O9 0.500000 0.000000 0.500000
O O10 0.293935 0.865680 0.433422
O O11 0.311834 0.388422 0.042816
O O12 0.803953 0.257243 0.460881
O O13 0.295431 0.368188 0.510842
O O14 0.500000 0.000000 0.000000
O O15 0.888506 0.653896 0.585830
O O16 0.957648 0.950814 0.554041
O O17 0.000000 0.500000 0.000000
O O18 0.000000 0.000000 0.000000
#
# Coordination Sequence:
#
# PCOD9056031 Si02
#       8
#     2   2   2   2   2   2   2   2
#     4  11  24  45  68 100 138 181 232 274 333 409
#     4  11  25  42  68 104 132 174 229 283 339 409
#     4  11  25  43  71 101 141 183 223 287 338 386
#     4  11  24  45  68 100 138 181 232 274 333 409
#     4  11  23  47  70  95 136 176 220 281 343 404
#     4  11  23  47  70  95 136 176 220 281 343 404
#     4  11  21  45  69  96 133 183 229 272 327 399
#     4  11  25  42  68 104 132 174 229 283 339 409
#
# _framework density 22.795373000000001
#
# number of rings (size 3 to 8) (size 9 to 14) (size 15 to 20)
#    0.000    1.000    5.000    1.500    3.500    3.000 
#    4.500    0.000    0.000    0.000    0.000    0.000 
#    0.000    0.000    0.000    0.000    0.000    0.000 
#
# Total GULP energy -89091.626885 kJ/mol
# GULP energy per Si atom -5568.226680 kJ/mol
# Density = 2.274349 g / cm^3
# Si number density = 22.795373 Si / 1000 Ang^3
#
#
#
# Elastic Constant Matrix: (Units=GPa)
#
#
# Indices 1 2 3 4 5 6 
#
# 1 128.2719 27.5292 13.5844 -3.4692 -0.2917 31.7302
# 2 27.5292 95.9017 9.3718 -6.4555 0.4183 27.1865
# 3 13.5844 9.3718 60.7357 -8.2883 -5.1564 13.6932
# 4 -3.4692 -6.4555 -8.2883 21.4367 16.7523 -6.4008
# 5 -0.2917 0.4183 -5.1564 16.7523 32.8516 -3.6344
# 6 31.7302 27.1865 13.6932 -6.4008 -3.6344 49.2484
#
#
#
# Elastic Compliance Matrix: (Units=1/GPa)
#
#
# Indices 1 2 3 4 5 6 
#
# 1 0.009428 -0.001150 -0.000828 -0.000396 -0.000415 -0.005291
# 2 -0.001150 0.012745 -0.000049 0.004173 -0.002967 -0.005958
# 3 -0.000828 -0.000049 0.018315 0.006476 -0.000850 -0.003753
# 4 -0.000396 0.004173 0.006476 0.083864 -0.041363 0.003998
# 5 -0.000415 -0.002967 -0.000850 -0.041363 0.051496 0.000566
# 6 -0.005291 -0.005958 -0.003753 0.003998 0.000566 0.028608
#
#
# Mechanical properties :
#
#
# Convention : Reuss Voigt Hill
#
# Bulk Modulus (GPa) = 27.44617 42.87559 35.16088
# Shear Modulus (GPa) = 22.65995 36.33558 29.49776
#
# Velocity S-wave (km/s) = 3.15629 3.99681 3.60116
# Velocity P-wave (km/s) = 5.03481 6.33633 5.72269
#
# Compressibility (1/GPa) = 0.03643496
#
# Stress axis : x y z
#
# Youngs Moduli (GPa) = 106.07104 78.46212 54.59937
#
# Poissons Ratio (x) = 0.09026 0.04518
# Poissons Ratio (y) = 0.12202 0.00265
# Poissons Ratio (z) = 0.08778 0.00381
#
# Static dielectric constant tensor:
#      x y z
#    x 1.729260 -0.180590 -0.039340 
#    y -0.180590 1.815340 -0.048430 
#    z -0.039340 -0.048430 1.899590 
# 
# From -- ./inp_files/579299.got.cif
#   From: 2010.05.17/outbox.cif.g08.bks.cpg/sg2_290_cif.got.tgz:579299.got - 2010.06.03 11:33:40.
