data_PCOD9056330
_publ_section_title
;
Structure prediction by ZEFSAII (Michael W. Deem and Ramdas Pophale) SiO2 
 PCOD9056330
Probable space group: P -1
;
_chemical_formula_sum "Si O2"
_cell_formula_units_Z 16
_cell_length_a 8.895498
_cell_length_b 16.065770
_cell_length_c 10.042379
_cell_angle_alpha 110.253535
_cell_angle_beta 128.612575
_cell_angle_gamma 43.619008
_cell_volume 758.639329
_symmetry_space_group_name_H-M "P -1"
_symmetry_group_IT_number 2
_symmetry_cell_setting 'triclinic'
loop_
_space_group_symop_operation_xyz
x,y,z
-x,-y,-z
loop_
_atom_site_type_symbol
_atom_site_label
_atom_site_fract_x
_atom_site_fract_y
_atom_site_fract_z
Si Si1 0.773963 0.583328 0.032076
Si Si2 0.141603 0.633481 0.646508
Si Si3 0.341004 0.284371 0.713837
Si Si4 0.031099 0.659562 0.896215
Si Si5 0.570945 0.202736 0.426859
Si Si6 0.385339 0.654154 0.261444
Si Si7 0.200438 0.802580 0.709045
Si Si8 0.334230 0.962599 0.370929
O O1 0.810322 0.649443 0.196010
O O2 0.792013 0.484871 0.065146
O O3 0.489085 0.694643 0.872800
O O4 0.000000 0.500000 0.000000
O O5 0.116595 0.670989 0.806859
O O6 0.405782 0.492974 0.688060
O O7 0.110620 0.729964 0.591412
O O8 0.886753 0.653664 0.489022
O O9 0.512024 0.314998 0.783658
O O10 0.533750 0.138262 0.728116
O O11 0.725981 0.724607 0.751607
O O12 0.108099 0.700494 0.082145
O O13 0.600311 0.286577 0.569537
O O14 0.760404 0.151901 0.375892
O O15 0.634639 0.106597 0.516540
O O16 0.977680 0.915703 0.743894
O O17 0.500000 0.000000 0.500000
#
# Coordination Sequence:
#
# PCOD9056330 Si02
#       8
#     2   2   2   2   2   2   2   2
#     4  12  25  41  65 103 148 174 219 293 356 417
#     4  12  21  39  68  99 137 180 228 285 340 416
#     4  11  23  41  70  99 135 182 238 283 338 415
#     4  12  21  42  67 100 140 177 222 282 353 416
#     4  11  25  44  68 100 141 178 230 290 343 410
#     4  11  22  37  69 103 134 179 228 280 352 412
#     4  12  25  42  67  99 141 188 220 283 354 392
#     4  11  23  48  71  95 131 192 243 280 331 408
#
# _framework density 21.090388999999998
#
# number of rings (size 3 to 8) (size 9 to 14) (size 15 to 20)
#    0.000    0.500    7.500    2.625    0.000    2.000 
#    0.000    1.250    0.000    4.500    0.000    0.000 
#    0.000    0.000    0.000    0.000    0.000    0.000 
#
# Total GULP energy -89351.121591 kJ/mol
# GULP energy per Si atom -5584.445099 kJ/mol
# Density = 2.104239 g / cm^3
# Si number density = 21.090389 Si / 1000 Ang^3
#
#
#
# Elastic Constant Matrix: (Units=GPa)
#
#
# Indices 1 2 3 4 5 6 
#
# 1 71.1802 29.5238 24.2899 2.8779 -3.5529 -1.7655
# 2 29.5238 112.9834 35.4544 -4.0081 5.2962 -11.4808
# 3 24.2899 35.4544 92.7359 4.1938 27.7613 -17.3866
# 4 2.8779 -4.0081 4.1938 26.9709 0.1399 2.7526
# 5 -3.5529 5.2962 27.7613 0.1399 26.6733 -1.9001
# 6 -1.7655 -11.4808 -17.3866 2.7526 -1.9001 42.1683
#
#
#
# Elastic Compliance Matrix: (Units=1/GPa)
#
#
# Indices 1 2 3 4 5 6 
#
# 1 0.018323 -0.003371 -0.006979 -0.001170 0.010202 -0.002492
# 2 -0.003371 0.011002 -0.003522 0.002404 0.001112 0.001295
# 3 -0.006979 -0.003522 0.022354 -0.003869 -0.022964 0.007184
# 4 -0.001170 0.002404 -0.003869 0.038489 0.002951 -0.003369
# 5 0.010202 0.001112 -0.022964 0.002951 0.062077 -0.006134
# 6 -0.002492 0.001295 0.007184 -0.003369 -0.006134 0.026868
#
#
# Mechanical properties :
#
#
# Convention : Reuss Voigt Hill
#
# Bulk Modulus (GPa) = 41.77942 50.60398 46.19170
# Shear Modulus (GPa) = 23.27354 31.67126 27.47240
#
# Velocity S-wave (km/s) = 3.32552 3.87937 3.61307
# Velocity P-wave (km/s) = 5.88202 6.64168 6.27336
#
# Compressibility (1/GPa) = 0.02393523
#
# Stress axis : x y z
#
# Youngs Moduli (GPa) = 54.57512 90.89501 44.73452
#
# Poissons Ratio (x) = 0.30641 0.31221
# Poissons Ratio (y) = 0.18397 0.15755
# Poissons Ratio (z) = 0.38089 0.32012
#
# Static dielectric constant tensor:
#      x y z
#    x 1.817040 0.012040 0.015910 
#    y 0.012040 1.761750 0.012460 
#    z 0.015910 0.012460 1.805300 
# 
# From -- ./inp_files/215378.got.cif
#   From: 2010.05.17/outbox.cif.g08.bks.cpg/sg2_108_cif.got.tgz:215378.got - 2010.06.03 11:33:40.
