data_PCOD9056969
_publ_section_title
;
Structure prediction by ZEFSAII (Michael W. Deem and Ramdas Pophale) SiO2 
 PCOD9056969
Probable space group: P -1
;
_chemical_formula_sum "Si O2"
_cell_formula_units_Z 13
_cell_length_a 9.126685
_cell_length_b 9.758266
_cell_length_c 15.857238
_cell_angle_alpha 35.503568
_cell_angle_beta 123.882085
_cell_angle_gamma 133.405191
_cell_volume 595.859395
_symmetry_space_group_name_H-M "P -1"
_symmetry_group_IT_number 2
_symmetry_cell_setting 'triclinic'
loop_
_space_group_symop_operation_xyz
x,y,z
-x,-y,-z
loop_
_atom_site_type_symbol
_atom_site_label
_atom_site_fract_x
_atom_site_fract_y
_atom_site_fract_z
Si Si1 0.140857 0.976531 0.680898
Si Si2 0.006656 0.350681 0.370819
Si Si3 0.666852 0.641251 0.908635
Si Si4 0.000000 0.500000 0.000000
Si Si5 0.433460 0.790420 0.214990
Si Si6 0.989459 0.861198 0.157150
Si Si7 0.567559 0.715902 0.117897
O O1 0.122148 0.833207 0.656388
O O2 0.025666 0.748510 0.827290
O O3 0.036266 0.161521 0.541625
O O4 0.370978 0.150260 0.698492
O O5 0.229580 0.562430 0.302397
O O6 0.935685 0.554681 0.280450
O O7 0.829480 0.536297 0.992136
O O8 0.530801 0.567458 0.818291
O O9 0.803696 0.951063 0.823499
O O10 0.500000 0.500000 0.000000
O O11 0.443916 0.701391 0.167509
O O12 0.437674 0.073775 0.056928
O O13 0.799484 0.847591 0.151455
O O14 0.000000 0.000000 0.000000
#
# Coordination Sequence:
#
# PCOD9056969 Si02
#       7
#     2   2   2   1   2   2   2
#     4  11  25  44  72 100 137 186 232 296 351 423
#     4  11  25  44  69 101 142 181 233 289 360 418
#     4  12  24  41  67 105 141 179 233 298 344 410
#     4  12  24  44  76 100 134 188 242 280 356 422
#     4  11  22  41  67 100 136 181 235 287 342 426
#     4  12  23  39  65 101 138 183 231 285 350 422
#     4  11  24  38  66 105 136 180 239 287 346 417
#
# _framework density 21.817228
#
# number of rings (size 3 to 8) (size 9 to 14) (size 15 to 20)
#    0.000    0.615    4.615    3.231    4.308    0.000 
#    0.000    3.077    0.000    3.692    0.000    0.000 
#    0.000    0.000    0.000    0.000    0.000    0.000 
#
# Total GULP energy -72381.777066 kJ/mol
# GULP energy per Si atom -5567.829005 kJ/mol
# Density = 2.176757 g / cm^3
# Si number density = 21.817228 Si / 1000 Ang^3
#
#
#
# Elastic Constant Matrix: (Units=GPa)
#
#
# Indices 1 2 3 4 5 6 
#
# 1 87.3625 -8.8675 8.9406 -1.9776 -2.3024 -6.5526
# 2 -8.8675 116.5994 0.5395 0.9739 11.4443 -0.7850
# 3 8.9406 0.5395 101.3406 -4.3251 6.7803 -9.4287
# 4 -1.9776 0.9739 -4.3251 16.5815 -2.4843 4.5133
# 5 -2.3024 11.4443 6.7803 -2.4843 24.5847 -5.0111
# 6 -6.5526 -0.7850 -9.4287 4.5133 -5.0111 24.5200
#
#
#
# Elastic Compliance Matrix: (Units=1/GPa)
#
#
# Indices 1 2 3 4 5 6 
#
# 1 0.011902 0.000760 -0.000853 0.000556 0.001688 0.003120
# 2 0.000760 0.009065 0.000115 -0.001015 -0.004315 -0.000157
# 3 -0.000853 0.000115 0.010439 0.001444 -0.002242 0.003066
# 4 0.000556 -0.001015 0.001444 0.064275 0.004536 -0.010232
# 5 0.001688 -0.004315 -0.002242 0.004536 0.045534 0.007922
# 6 0.003120 -0.000157 0.003066 -0.010232 0.007922 0.046293
#
#
# Mechanical properties :
#
#
# Convention : Reuss Voigt Hill
#
# Bulk Modulus (GPa) = 31.79639 34.05865 32.92752
# Shear Modulus (GPa) = 25.25927 33.44989 29.35458
#
# Velocity S-wave (km/s) = 3.40629 3.91984 3.67205
# Velocity P-wave (km/s) = 5.48416 6.01096 5.75359
#
# Compressibility (1/GPa) = 0.03145011
#
# Stress axis : x y z
#
# Youngs Moduli (GPa) = 84.01916 110.31978 95.79240
#
# Poissons Ratio (x) = -0.08382 0.08172
# Poissons Ratio (y) = -0.06383 -0.01106
# Poissons Ratio (z) = 0.07167 -0.01274
#
# Static dielectric constant tensor:
#      x y z
#    x 1.862660 -0.025500 0.037610 
#    y -0.025500 1.855350 -0.029800 
#    z 0.037610 -0.029800 1.776980 
# 
# From -- ./inp_files/491881.got.cif
#   From: 2010.05.17/outbox.cif.g08.bks.cpg/sg2_246_cif.got.tgz:491881.got - 2010.06.03 11:33:40.
