data_PCOD9056276
_publ_section_title
;
Structure prediction by ZEFSAII (Michael W. Deem and Ramdas Pophale) SiO2 
 PCOD9056276
Probable space group: P -1
;
_chemical_formula_sum "Si O2"
_cell_formula_units_Z 16
_cell_length_a 8.783211
_cell_length_b 23.590608
_cell_length_c 8.983140
_cell_angle_alpha 122.238637
_cell_angle_beta 102.359517
_cell_angle_gamma 126.959531
_cell_volume 769.274015
_symmetry_space_group_name_H-M "P -1"
_symmetry_group_IT_number 2
_symmetry_cell_setting 'triclinic'
loop_
_space_group_symop_operation_xyz
x,y,z
-x,-y,-z
loop_
_atom_site_type_symbol
_atom_site_label
_atom_site_fract_x
_atom_site_fract_y
_atom_site_fract_z
Si Si1 0.682549 0.358763 0.311055
Si Si2 0.554484 0.104671 0.254804
Si Si3 0.814082 0.263535 0.278393
Si Si4 0.465406 0.345294 0.527479
Si Si5 0.876083 0.774605 0.161025
Si Si6 0.787570 0.112678 0.906184
Si Si7 0.004785 0.145063 0.385981
Si Si8 0.528191 0.516318 0.849933
O O1 0.666438 0.272796 0.184003
O O2 0.667659 0.374833 0.503959
O O3 0.000000 0.500000 0.500000
O O4 0.406244 0.293644 0.076655
O O5 0.733477 0.232895 0.396542
O O6 0.806284 0.140204 0.313019
O O7 0.436266 0.030587 0.282895
O O8 0.226188 0.990026 0.937143
O O9 0.704675 0.154545 0.018203
O O10 0.189303 0.405810 0.553496
O O11 0.345375 0.275970 0.566556
O O12 0.613360 0.473858 0.752040
O O13 0.128652 0.226617 0.209794
O O14 0.973145 0.855215 0.434771
O O15 0.759197 0.660546 0.046839
O O16 0.144936 0.862886 0.220135
O O17 0.500000 0.500000 0.000000
#
# Coordination Sequence:
#
# PCOD9056276 Si02
#       8
#     2   2   2   2   2   2   2   2
#     4  11  24  37  53  82 123 158 178 225 288 347
#     4  10  17  38  65  84 106 148 197 235 281 319
#     4  11  19  37  59  80 113 155 189 222 287 346
#     4   9  19  35  55  82 110 149 192 219 287 331
#     4  11  22  35  55  90 117 142 188 236 288 327
#     4   9  19  34  61  86 107 146 189 243 273 325
#     4  10  17  36  61  83 112 140 188 245 271 329
#     4  11  19  34  61  86 108 143 196 241 277 328
#
# _framework density 20.798829999999999
#
# number of rings (size 3 to 8) (size 9 to 14) (size 15 to 20)
#    0.000    1.750    7.500    0.000    1.750    2.000 
#    0.000    8.750    2.750    0.000    0.000    0.000 
#    0.000    0.000    0.000    0.000    0.000    0.000 
#
# Total GULP energy -89079.327445 kJ/mol
# GULP energy per Si atom -5567.457965 kJ/mol
# Density = 2.075149 g / cm^3
# Si number density = 20.798830 Si / 1000 Ang^3
#
#
#
# Elastic Constant Matrix: (Units=GPa)
#
#
# Indices 1 2 3 4 5 6 
#
# 1 65.4608 45.6643 7.8752 -0.2220 -0.7800 8.7079
# 2 45.6643 164.6097 25.1313 -0.7543 -1.9401 23.8312
# 3 7.8752 25.1313 41.9446 -2.3975 5.5193 12.0408
# 4 -0.2220 -0.7543 -2.3975 35.5843 5.7459 -2.0259
# 5 -0.7800 -1.9401 5.5193 5.7459 11.4652 -0.5785
# 6 8.7079 23.8312 12.0408 -2.0259 -0.5785 27.8341
#
#
#
# Elastic Compliance Matrix: (Units=1/GPa)
#
#
# Indices 1 2 3 4 5 6 
#
# 1 0.019010 -0.005010 -0.000199 -0.000180 0.000552 -0.001574
# 2 -0.005010 0.008649 -0.003427 -0.000804 0.002956 -0.004353
# 3 -0.000199 -0.003427 0.031741 0.004462 -0.018654 -0.010797
# 4 -0.000180 -0.000804 0.004462 0.031326 -0.017959 0.000721
# 5 0.000552 0.002956 -0.018654 -0.017959 0.106054 0.006263
# 6 -0.001574 -0.004353 -0.010797 0.000721 0.006263 0.045000
#
#
# Mechanical properties :
#
#
# Convention : Reuss Voigt Hill
#
# Bulk Modulus (GPa) = 23.73645 47.70630 35.72138
# Shear Modulus (GPa) = 18.30868 27.86634 23.08751
#
# Velocity S-wave (km/s) = 2.97016 3.66430 3.33534
# Velocity P-wave (km/s) = 4.81660 6.39450 5.66080
#
# Compressibility (1/GPa) = 0.04212930
#
# Stress axis : x y z
#
# Youngs Moduli (GPa) = 52.60315 115.61691 31.50510
#
# Poissons Ratio (x) = 0.57922 0.00626
# Poissons Ratio (y) = 0.26353 0.10797
# Poissons Ratio (z) = 0.01045 0.39622
#
# Static dielectric constant tensor:
#      x y z
#    x 1.745380 0.021220 -0.017120 
#    y 0.021220 1.816300 -0.017300 
#    z -0.017120 -0.017300 1.820410 
# 
# From -- ./inp_files/225534.got.cif
#   From: 2010.05.17/outbox.cif.g08.bks.cpg/sg2_113_cif.got.tgz:225534.got - 2010.06.03 11:33:40.
