data_PCOD9056930
_publ_section_title
;
Structure prediction by ZEFSAII (Michael W. Deem and Ramdas Pophale) SiO2 
 PCOD9056930
Probable space group: P -1
;
_chemical_formula_sum "Si O2"
_cell_formula_units_Z 16
_cell_length_a 9.345423
_cell_length_b 11.757553
_cell_length_c 8.538212
_cell_angle_alpha 93.216981
_cell_angle_beta 132.419009
_cell_angle_gamma 86.462987
_cell_volume 691.135619
_symmetry_space_group_name_H-M "P -1"
_symmetry_group_IT_number 2
_symmetry_cell_setting 'triclinic'
loop_
_space_group_symop_operation_xyz
x,y,z
-x,-y,-z
loop_
_atom_site_type_symbol
_atom_site_label
_atom_site_fract_x
_atom_site_fract_y
_atom_site_fract_z
Si Si1 0.412113 0.731461 0.072459
Si Si2 0.605511 0.015812 0.816714
Si Si3 0.814058 0.943701 0.657144
Si Si4 0.531217 0.217498 0.231312
Si Si5 0.145651 0.271991 0.516397
Si Si6 0.845164 0.656813 0.962861
Si Si7 0.075762 0.567361 0.836029
Si Si8 0.951649 0.169615 0.671170
O O1 0.346446 0.862757 0.067564
O O2 0.627154 0.708151 0.296179
O O3 0.423583 0.723048 0.893126
O O4 0.261204 0.642284 0.014546
O O5 0.761366 0.975796 0.798211
O O6 0.395749 0.040381 0.581681
O O7 0.563973 0.905356 0.883019
O O8 0.957901 0.035042 0.698567
O O9 0.882641 0.816492 0.655108
O O10 0.726536 0.199271 0.471492
O O11 0.370656 0.292135 0.209239
O O12 0.019284 0.384557 0.389825
O O13 0.072884 0.207804 0.612836
O O14 0.862971 0.564339 0.109620
O O15 0.977400 0.759385 0.123443
O O16 0.917363 0.595425 0.855326
#
# Coordination Sequence:
#
# PCOD9056930 Si02
#       8
#     2   2   2   2   2   2   2   2
#     4  11  22  41  65  95 129 168 206 259 315 373
#     4   9  19  35  61  94 129 164 204 252 312 382
#     4   9  19  35  61  94 129 164 204 252 312 382
#     4  11  22  41  65  95 129 168 206 259 315 373
#     4  11  22  41  65  95 129 168 206 259 315 373
#     4  11  26  45  65  93 125 163 218 266 308 372
#     4  11  26  45  65  93 125 163 218 266 308 372
#     4  11  22  41  65  95 129 168 206 259 315 373
#
# _framework density 23.150306
#
# number of rings (size 3 to 8) (size 9 to 14) (size 15 to 20)
#    0.000    1.500    2.500    2.250    0.000    6.000 
#    0.000    5.000    0.000    0.000    0.000    0.000 
#    0.000    0.000    0.000    0.000    0.000    0.000 
#
# Total GULP energy -89565.925414 kJ/mol
# GULP energy per Si atom -5597.870338 kJ/mol
# Density = 2.309762 g / cm^3
# Si number density = 23.150306 Si / 1000 Ang^3
#
#
#
# Elastic Constant Matrix: (Units=GPa)
#
#
# Indices 1 2 3 4 5 6 
#
# 1 61.0442 10.3165 5.1078 5.1193 9.7983 1.0855
# 2 10.3165 86.6754 9.5015 -14.9914 20.3801 4.4360
# 3 5.1078 9.5015 67.1707 -11.7005 21.4474 -5.6436
# 4 5.1193 -14.9914 -11.7005 23.8235 -5.4550 -11.0207
# 5 9.7983 20.3801 21.4474 -5.4550 28.7075 -7.2896
# 6 1.0855 4.4360 -5.6436 -11.0207 -7.2896 24.7321
#
#
#
# Elastic Compliance Matrix: (Units=1/GPa)
#
#
# Indices 1 2 3 4 5 6 
#
# 1 0.019371 -0.001658 -0.001159 -0.011925 -0.009071 -0.008805
# 2 -0.001658 0.015651 0.002874 0.008061 -0.011648 -0.001920
# 3 -0.001159 0.002874 0.021653 0.012125 -0.014061 0.005735
# 4 -0.011925 0.008061 0.012125 0.077690 0.014387 0.040704
# 5 -0.009071 -0.011648 -0.014061 0.014387 0.065808 0.025086
# 6 -0.008805 -0.001920 0.005735 0.040704 0.025086 0.068004
#
#
# Mechanical properties :
#
#
# Convention : Reuss Voigt Hill
#
# Bulk Modulus (GPa) = 17.60899 29.41578 23.51239
# Shear Modulus (GPa) = 17.42206 28.11691 22.76949
#
# Velocity S-wave (km/s) = 2.74626 3.48880 3.13956
# Velocity P-wave (km/s) = 4.20462 5.38173 4.82917
#
# Compressibility (1/GPa) = 0.05678917
#
# Stress axis : x y z
#
# Youngs Moduli (GPa) = 51.62269 63.89414 46.18366
#
# Poissons Ratio (x) = 0.10592 0.05355
# Poissons Ratio (y) = 0.08558 -0.13275
# Poissons Ratio (z) = 0.05985 -0.18365
#
# Static dielectric constant tensor:
#      x y z
#    x 1.858770 -0.001270 -0.000480 
#    y -0.001270 1.852750 -0.024780 
#    z -0.000480 -0.024780 1.870080 
# 
# From -- ./inp_files/188032.got.cif
#   From: 2010.05.17/outbox.cif.g08.bks.cpg/sg2_95_cif.got.tgz:188032.got - 2010.06.03 11:33:40.
