data_PCOD9056577
_publ_section_title
;
Structure prediction by ZEFSAII (Michael W. Deem and Ramdas Pophale) SiO2 
 PCOD9056577
Probable space group: P -1
;
_chemical_formula_sum "Si O2"
_cell_formula_units_Z 12
_cell_length_a 7.285395
_cell_length_b 8.187013
_cell_length_c 24.428704
_cell_angle_alpha 31.383409
_cell_angle_beta 139.499468
_cell_angle_gamma 124.129852
_cell_volume 475.790156
_symmetry_space_group_name_H-M "P -1"
_symmetry_group_IT_number 2
_symmetry_cell_setting 'triclinic'
loop_
_space_group_symop_operation_xyz
x,y,z
-x,-y,-z
loop_
_atom_site_type_symbol
_atom_site_label
_atom_site_fract_x
_atom_site_fract_y
_atom_site_fract_z
Si Si1 0.168477 0.041055 0.192165
Si Si2 0.386237 0.669114 0.823391
Si Si3 0.559179 0.914093 0.600471
Si Si4 0.098355 0.116371 0.718325
Si Si5 0.972033 0.233511 0.875862
Si Si6 0.780640 0.837464 0.442493
O O1 0.293772 0.359688 0.121193
O O2 0.927330 0.037532 0.184225
O O3 0.080020 0.912457 0.152349
O O4 0.471742 0.799311 0.355697
O O5 0.257543 0.373964 0.894280
O O6 0.176625 0.876503 0.669143
O O7 0.364719 0.906508 0.803206
O O8 0.696482 0.530552 0.743297
O O9 0.500000 0.000000 0.500000
O O10 0.821194 0.058579 0.639304
O O11 0.303739 0.041717 0.549915
O O12 0.032481 0.504825 0.593336
O O13 0.000000 0.000000 0.000000
#
# Coordination Sequence:
#
# PCOD9056577 Si02
#       6
#     2   2   2   2   2   2
#     4   9  20  38  61  82 122 157 202 246 304 348
#     4   9  22  37  60  90 120 157 211 241 303 362
#     4  10  19  35  63  90 122 160 195 249 307 348
#     4  10  17  36  62  88 127 159 196 254 305 357
#     4  11  23  42  62  89 125 161 204 253 300 359
#     4   9  18  36  60  87 127 159 198 249 305 358
#
# _framework density 25.221201000000001
#
# number of rings (size 3 to 8) (size 9 to 14) (size 15 to 20)
#    1.000    1.333    0.000    4.500    0.000    0.667 
#    3.000   12.500    0.000    0.000    0.000    0.000 
#    0.000    0.000    0.000    0.000    0.000    0.000 
#
# Total GULP energy -67120.391546 kJ/mol
# GULP energy per Si atom -5593.365962 kJ/mol
# Density = 2.516380 g / cm^3
# Si number density = 25.221201 Si / 1000 Ang^3
#
#
#
# Elastic Constant Matrix: (Units=GPa)
#
#
# Indices 1 2 3 4 5 6 
#
# 1 121.0653 47.7276 65.5906 9.4830 -30.5034 2.2465
# 2 47.7276 113.4892 62.2885 4.8068 -16.4353 -20.9197
# 3 65.5906 62.2885 122.5857 -2.9227 -39.0139 -4.8425
# 4 9.4830 4.8068 -2.9227 32.2877 2.9100 -9.8014
# 5 -30.5034 -16.4353 -39.0139 2.9100 50.7807 7.8776
# 6 2.2465 -20.9197 -4.8425 -9.8014 7.8776 42.3176
#
#
#
# Elastic Compliance Matrix: (Units=1/GPa)
#
#
# Indices 1 2 3 4 5 6 
#
# 1 0.013806 -0.003346 -0.004466 -0.005984 0.004929 -0.005202
# 2 -0.003346 0.014572 -0.006382 0.000811 -0.003403 0.007472
# 3 -0.004466 -0.006382 0.016297 0.002424 0.007939 -0.001970
# 4 -0.005984 0.000811 0.002424 0.036452 -0.005173 0.010401
# 5 0.004929 -0.003403 0.007939 -0.005173 0.029135 -0.007657
# 6 -0.005202 0.007472 -0.001970 0.010401 -0.007657 0.031210
#
#
# Mechanical properties :
#
#
# Convention : Reuss Voigt Hill
#
# Bulk Modulus (GPa) = 61.40699 78.70598 70.05648
# Shear Modulus (GPa) = 28.52422 37.17944 32.85183
#
# Velocity S-wave (km/s) = 3.36663 3.84361 3.61300
# Velocity P-wave (km/s) = 6.28589 7.13945 6.72623
#
# Compressibility (1/GPa) = 0.01628479
#
# Stress axis : x y z
#
# Youngs Moduli (GPa) = 72.43178 68.62543 61.36186
#
# Poissons Ratio (x) = 0.22965 0.27406
# Poissons Ratio (y) = 0.24239 0.39163
# Poissons Ratio (z) = 0.32350 0.43798
#
# Static dielectric constant tensor:
#      x y z
#    x 2.037570 0.074000 0.064650 
#    y 0.074000 2.011350 -0.019390 
#    z 0.064650 -0.019390 2.039920 
# 
# From -- ./inp_files/165815.got.cif
#   From: 2010.05.17/outbox.cif.g08.bks.cpg/sg2_83_cif.got.tgz:165815.got - 2010.06.03 11:33:40.
