data_PCOD9056114
_publ_section_title
;
Structure prediction by ZEFSAII (Michael W. Deem and Ramdas Pophale) SiO2 
 PCOD9056114
Probable space group: P -1
;
_chemical_formula_sum "Si O2"
_cell_formula_units_Z 15
_cell_length_a 6.575061
_cell_length_b 17.159223
_cell_length_c 8.157972
_cell_angle_alpha 55.556090
_cell_angle_beta 76.641644
_cell_angle_gamma 99.156546
_cell_volume 688.649014
_symmetry_space_group_name_H-M "P -1"
_symmetry_group_IT_number 2
_symmetry_cell_setting 'triclinic'
loop_
_space_group_symop_operation_xyz
x,y,z
-x,-y,-z
loop_
_atom_site_type_symbol
_atom_site_label
_atom_site_fract_x
_atom_site_fract_y
_atom_site_fract_z
Si Si1 0.981579 0.338869 0.068709
Si Si2 0.603363 0.299492 0.452097
Si Si3 0.356777 0.850108 0.820837
Si Si4 0.471701 0.108127 0.897685
Si Si5 0.188060 0.036098 0.566036
Si Si6 0.065209 0.539528 0.620942
Si Si7 0.000000 0.000000 0.000000
Si Si8 0.693023 0.606467 0.784921
O O1 0.790222 0.340306 0.229318
O O2 0.848036 0.248587 0.080096
O O3 0.182252 0.331923 0.150914
O O4 0.075171 0.445848 0.835226
O O5 0.581276 0.187005 0.639468
O O6 0.395416 0.322986 0.393699
O O7 0.700497 0.368421 0.511471
O O8 0.588148 0.874217 0.647599
O O9 0.274088 0.943729 0.697482
O O10 0.419607 0.848930 0.000645
O O11 0.500000 0.000000 0.000000
O O12 0.208047 0.082904 0.962159
O O13 0.000000 0.000000 0.500000
O O14 0.098261 0.056268 0.734674
O O15 0.873827 0.575813 0.686599
O O16 0.000000 0.500000 0.500000
O O17 0.500000 0.500000 0.000000
#
# Coordination Sequence:
#
# PCOD9056114 Si02
#       8
#     2   2   2   2   2   2   1   2
#     4  11  23  42  71  99 139 181 229 285 350 422
#     4  11  24  44  70 102 135 187 228 283 353 418
#     4  11  25  45  67 100 139 182 237 287 349 421
#     4  12  26  46  70 100 145 187 237 291 354 416
#     4  11  24  45  69  98 138 183 238 296 352 415
#     4  11  23  43  71 102 138 174 225 287 354 419
#     4  12  24  44  70 100 136 182 240 298 350 412
#     4  11  21  46  70  98 137 176 230 281 345 421
#
# _framework density 21.781777000000002
#
# number of rings (size 3 to 8) (size 9 to 14) (size 15 to 20)
#    0.000    0.800    5.333    2.400    1.867    4.800 
#    2.400    0.000    0.000    0.000    0.000    0.000 
#    0.000    0.000    0.000    0.000    0.000    0.000 
#
# Total GULP energy -83573.656603 kJ/mol
# GULP energy per Si atom -5571.577107 kJ/mol
# Density = 2.173220 g / cm^3
# Si number density = 21.781777 Si / 1000 Ang^3
#
#
#
# Elastic Constant Matrix: (Units=GPa)
#
#
# Indices 1 2 3 4 5 6 
#
# 1 93.3907 33.9420 32.5310 9.7417 29.6434 35.6569
# 2 33.9420 105.9898 33.8885 7.2098 22.0948 40.1438
# 3 32.5310 33.8885 104.4968 4.4108 26.2333 5.3415
# 4 9.7417 7.2098 4.4108 44.5001 7.1530 7.2460
# 5 29.6434 22.0948 26.2333 7.1530 33.4933 4.3729
# 6 35.6569 40.1438 5.3415 7.2460 4.3729 39.2260
#
#
#
# Elastic Compliance Matrix: (Units=1/GPa)
#
#
# Indices 1 2 3 4 5 6 
#
# 1 0.029189 0.009837 -0.004387 0.001924 -0.024913 -0.033581
# 2 0.009837 0.022309 -0.004789 0.002157 -0.016254 -0.029707
# 3 -0.004387 -0.004789 0.013170 -0.000124 -0.004237 0.007591
# 4 0.001924 0.002157 -0.000124 0.024105 -0.007185 -0.007591
# 5 -0.024913 -0.016254 -0.004237 -0.007185 0.063022 0.034159
# 6 -0.033581 -0.029707 0.007591 -0.007591 0.034159 0.082981
#
#
# Mechanical properties :
#
#
# Convention : Reuss Voigt Hill
#
# Bulk Modulus (GPa) = 15.15424 56.06668 35.61046
# Shear Modulus (GPa) = 19.57316 37.01161 28.29239
#
# Velocity S-wave (km/s) = 3.00092 4.12661 3.60794
# Velocity P-wave (km/s) = 4.35658 6.96428 5.80866
#
# Compressibility (1/GPa) = 0.06598812
#
# Stress axis : x y z
#
# Youngs Moduli (GPa) = 34.25911 44.82439 75.93256
#
# Poissons Ratio (x) = -0.44092 0.33314
# Poissons Ratio (y) = -0.33699 0.36366
# Poissons Ratio (z) = 0.15031 0.21468
#
# Static dielectric constant tensor:
#      x y z
#    x 1.825100 0.013500 -0.014440 
#    y 0.013500 1.832890 0.008030 
#    z -0.014440 0.008030 1.793810 
# 
# From -- ./inp_files/140085.got.cif
#   From: 2010.05.17/outbox.cif.g08.bks.cpg/sg2_71_cif.got.tgz:140085.got - 2010.06.03 11:33:40.
