data_PCOD9056066
_publ_section_title
;
Structure prediction by ZEFSAII (Michael W. Deem and Ramdas Pophale) SiO2 
 PCOD9056066
Probable space group: P -1
;
_chemical_formula_sum "Si O2"
_cell_formula_units_Z 15
_cell_length_a 20.360850
_cell_length_b 14.520028
_cell_length_c 8.435077
_cell_angle_alpha 135.520748
_cell_angle_beta 135.590852
_cell_angle_gamma 22.426435
_cell_volume 652.400259
_symmetry_space_group_name_H-M "P -1"
_symmetry_group_IT_number 2
_symmetry_cell_setting 'triclinic'
loop_
_space_group_symop_operation_xyz
x,y,z
-x,-y,-z
loop_
_atom_site_type_symbol
_atom_site_label
_atom_site_fract_x
_atom_site_fract_y
_atom_site_fract_z
Si Si1 0.000000 0.500000 0.500000
Si Si2 0.643382 0.894586 0.822382
Si Si3 0.084539 0.534311 0.024542
Si Si4 0.621270 0.641081 0.849354
Si Si5 0.820097 0.198211 0.836882
Si Si6 0.500308 0.420602 0.691624
Si Si7 0.610175 0.046259 0.612931
Si Si8 0.133946 0.957735 0.628265
O O1 0.213318 0.202855 0.484869
O O2 0.031765 0.512947 0.753950
O O3 0.835832 0.639128 0.904429
O O4 0.544253 0.876158 0.590708
O O5 0.643574 0.986190 0.782117
O O6 0.529116 0.097829 0.009452
O O7 0.252933 0.421294 0.117943
O O8 0.946024 0.808131 0.176319
O O9 0.747251 0.425378 0.933004
O O10 0.530441 0.634578 0.583702
O O11 0.668839 0.310825 0.818507
O O12 0.843543 0.087349 0.578130
O O13 0.000000 0.000000 0.000000
O O14 0.540319 0.271536 0.717808
O O15 0.316936 0.715931 0.738456
O O16 0.000000 0.000000 0.500000
#
# Coordination Sequence:
#
# PCOD9056066 Si02
#       8
#     1   2   2   2   2   2   2   2
#     4  12  28  42  70 110 148 196 244 310 374 434
#     4  11  24  46  74 105 141 199 245 301 373 440
#     4  12  24  46  75 107 152 190 250 311 371 442
#     4  11  21  45  74 103 142 194 243 307 372 446
#     4  11  27  45  72 112 150 195 243 313 378 449
#     4  11  24  46  76 106 147 198 243 299 383 451
#     4  11  25  44  72 108 146 190 250 304 366 450
#     4  11  22  45  77 107 146 197 250 304 377 444
#
# _framework density 22.992018999999999
#
# number of rings (size 3 to 8) (size 9 to 14) (size 15 to 20)
#    0.000    0.800    5.333    2.800    1.867    6.933 
#    0.000    2.000    0.000    0.000    0.000    0.000 
#    0.000    0.000    0.000    0.000    0.000    0.000 
#
# Total GULP energy -83762.241317 kJ/mol
# GULP energy per Si atom -5584.149421 kJ/mol
# Density = 2.293969 g / cm^3
# Si number density = 22.992019 Si / 1000 Ang^3
#
#
#
# Elastic Constant Matrix: (Units=GPa)
#
#
# Indices 1 2 3 4 5 6 
#
# 1 86.8113 88.7771 18.2880 -16.7678 -25.2342 25.1601
# 2 88.7771 220.2796 77.0610 -17.5122 -12.1927 15.4501
# 3 18.2880 77.0610 92.4016 -13.6534 -14.0385 15.1826
# 4 -16.7678 -17.5122 -13.6534 52.1729 -12.4138 -2.2664
# 5 -25.2342 -12.1927 -14.0385 -12.4138 -4.6461 -4.1629
# 6 25.1601 15.4501 15.1826 -2.2664 -4.1629 48.7698
#
#
#
# Elastic Compliance Matrix: (Units=1/GPa)
#
#
# Indices 1 2 3 4 5 6 
#
# 1 0.010925 -0.005300 -0.001153 -0.004615 -0.024333 -0.005889
# 2 -0.005300 0.009002 -0.004858 0.002664 0.010557 0.002420
# 3 -0.001153 -0.004858 0.013325 -0.001846 -0.013411 -0.003245
# 4 -0.004615 0.002664 -0.001846 0.014356 -0.015972 0.001416
# 5 -0.024333 0.010557 -0.013411 -0.015972 -0.036147 0.009556
# 6 -0.005889 0.002420 -0.003245 0.001416 0.009556 0.024668
#
#
# Mechanical properties :
#
#
# Convention : Reuss Voigt Hill
#
# Bulk Modulus (GPa) = 94.08755 85.30499 89.69627
# Shear Modulus (GPa) = 80.26374 33.61707 56.94041
#
# Velocity S-wave (km/s) = 5.91483 3.82791 4.98187
# Velocity P-wave (km/s) = 9.36256 7.53125 8.49639
#
# Compressibility (1/GPa) = 0.01062840
#
# Stress axis : x y z
#
# Youngs Moduli (GPa) = 91.53569 111.08946 75.04583
#
# Poissons Ratio (x) = 0.58879 0.08654
# Poissons Ratio (y) = 0.48515 0.36460
# Poissons Ratio (z) = 0.10555 0.53971
#
# Static dielectric constant tensor:
#      x y z
#    x 1.894690 0.006180 -0.004320 
#    y 0.006180 1.847350 -0.009330 
#    z -0.004320 -0.009330 1.863120 
# 
# From -- ./inp_files/354908.got.cif
#   From: 2010.05.17/outbox.cif.g08.bks.cpg/sg2_178_cif.got.tgz:354908.got - 2010.06.03 11:33:40.
