data_PCOD9056715
_publ_section_title
;
Structure prediction by ZEFSAII (Michael W. Deem and Ramdas Pophale) SiO2 
 PCOD9056715
Probable space group: P -1
;
_chemical_formula_sum "Si O2"
_cell_formula_units_Z 16
_cell_length_a 15.939573
_cell_length_b 24.696139
_cell_length_c 23.995446
_cell_angle_alpha 11.431764
_cell_angle_beta 20.143460
_cell_angle_gamma 20.661311
_cell_volume 627.927329
_symmetry_space_group_name_H-M "P -1"
_symmetry_group_IT_number 2
_symmetry_cell_setting 'triclinic'
loop_
_space_group_symop_operation_xyz
x,y,z
-x,-y,-z
loop_
_atom_site_type_symbol
_atom_site_label
_atom_site_fract_x
_atom_site_fract_y
_atom_site_fract_z
Si Si1 0.945207 0.629686 0.279354
Si Si2 0.920147 0.886487 0.221925
Si Si3 0.697318 0.491833 0.135771
Si Si4 0.935129 0.232610 0.085341
Si Si5 0.250790 0.213009 0.419682
Si Si6 0.566756 0.844149 0.200530
Si Si7 0.286072 0.420808 0.833909
Si Si8 0.398857 0.950260 0.432929
O O1 0.909075 0.417856 0.564288
O O2 0.141769 0.410801 0.339779
O O3 0.718866 0.738742 0.268819
O O4 0.045954 0.885587 0.983343
O O5 0.635892 0.863838 0.412757
O O6 0.000000 0.000000 0.000000
O O7 0.998868 0.405842 0.029592
O O8 0.616965 0.738075 0.892725
O O9 0.639045 0.586675 0.139877
O O10 0.587303 0.231607 0.448157
O O11 0.833948 0.114166 0.322966
O O12 0.909440 0.998795 0.290769
O O13 0.763501 0.541407 0.865862
O O14 0.225943 0.244033 0.888063
O O15 0.500000 0.000000 0.500000
O O16 0.334005 0.698192 0.494960
O O17 0.461515 0.170920 0.943370
#
# Coordination Sequence:
#
# PCOD9056715 Si02
#       8
#     2   2   2   2   2   2   2   2
#     4  11  24  43  64 100 133 180 231 273 331 398
#     4  12  27  43  64  98 141 187 231 267 336 415
#     4  11  26  46  72 102 127 184 223 289 351 406
#     4  11  24  42  63 104 136 183 226 278 349 411
#     4  11  22  40  67  91 132 184 239 283 323 377
#     4  11  23  42  73  99 137 176 224 296 335 391
#     4  11  24  46  74 101 131 164 245 287 341 409
#     4  12  26  46  68  96 149 178 222 279 349 414
#
# _framework density 25.480656
#
# number of rings (size 3 to 8) (size 9 to 14) (size 15 to 20)
#    0.000    0.750    0.000    8.250    5.250    5.000 
#    0.000    3.750    0.000    0.000    0.000    0.000 
#    0.000    0.000    0.000    0.000    0.000    0.000 
#
# Total GULP energy -89689.175249 kJ/mol
# GULP energy per Si atom -5605.573453 kJ/mol
# Density = 2.542266 g / cm^3
# Si number density = 25.480656 Si / 1000 Ang^3
#
#
#
# Elastic Constant Matrix: (Units=GPa)
#
#
# Indices 1 2 3 4 5 6 
#
# 1 68.5128 23.3927 6.4772 4.6078 -14.3289 -0.1245
# 2 23.3927 89.7152 14.8830 -2.0030 -4.0788 0.3553
# 3 6.4772 14.8830 101.3435 -0.6694 -12.2147 2.4189
# 4 4.6078 -2.0030 -0.6694 30.2658 18.2444 7.8890
# 5 -14.3289 -4.0788 -12.2147 18.2444 35.9116 6.5613
# 6 -0.1245 0.3553 2.4189 7.8890 6.5613 30.4719
#
#
#
# Elastic Compliance Matrix: (Units=1/GPa)
#
#
# Indices 1 2 3 4 5 6 
#
# 1 0.019791 -0.004972 0.001012 -0.011483 0.013486 0.000127
# 2 -0.004972 0.012698 -0.001857 0.003323 -0.002811 -0.000276
# 3 0.001012 -0.001857 0.010768 -0.003137 0.005676 -0.001239
# 4 -0.011483 0.003323 -0.003137 0.056559 -0.032644 -0.007450
# 5 0.013486 -0.002811 0.005676 -0.032644 0.051990 -0.003106
# 6 0.000127 -0.000276 -0.001239 -0.007450 -0.003106 0.035517
#
#
# Mechanical properties :
#
#
# Convention : Reuss Voigt Hill
#
# Bulk Modulus (GPa) = 31.62271 38.78636 35.20453
# Shear Modulus (GPa) = 23.86637 33.65113 28.75875
#
# Velocity S-wave (km/s) = 3.06379 3.63802 3.36318
# Velocity P-wave (km/s) = 4.99531 5.73602 5.37843
#
# Compressibility (1/GPa) = 0.03162285
#
# Stress axis : x y z
#
# Youngs Moduli (GPa) = 50.52856 78.75023 92.86396
#
# Poissons Ratio (x) = 0.39154 -0.09397
# Poissons Ratio (y) = 0.25122 0.17248
# Poissons Ratio (z) = -0.05113 0.14626
#
# Static dielectric constant tensor:
#      x y z
#    x 2.066560 0.001060 0.036500 
#    y 0.001060 2.058510 0.073750 
#    z 0.036500 0.073750 1.971730 
# 
# From -- ./inp_files/620532.got.cif
#   From: 2010.05.17/outbox.cif.g08.bks.cpg/sg2_311_cif.got.tgz:620532.got - 2010.06.03 11:33:40.
