data_PCOD9056608
_publ_section_title
;
Structure prediction by ZEFSAII (Michael W. Deem and Ramdas Pophale) SiO2 
 PCOD9056608
Probable space group: P -1
;
_chemical_formula_sum "Si O2"
_cell_formula_units_Z 13
_cell_length_a 9.846126
_cell_length_b 7.928912
_cell_length_c 10.772352
_cell_angle_alpha 43.311841
_cell_angle_beta 122.177830
_cell_angle_gamma 102.350861
_cell_volume 465.942673
_symmetry_space_group_name_H-M "P -1"
_symmetry_group_IT_number 2
_symmetry_cell_setting 'triclinic'
loop_
_space_group_symop_operation_xyz
x,y,z
-x,-y,-z
loop_
_atom_site_type_symbol
_atom_site_label
_atom_site_fract_x
_atom_site_fract_y
_atom_site_fract_z
Si Si1 0.421971 0.065636 0.061023
Si Si2 0.815275 0.437524 0.701604
Si Si3 0.994461 0.955078 0.794376
Si Si4 0.500000 0.500000 0.500000
Si Si5 0.108260 0.562148 0.642399
Si Si6 0.719692 0.273393 0.147777
Si Si7 0.333088 0.235663 0.306572
O O1 0.563383 0.165881 0.141023
O O2 0.409751 0.804243 0.253259
O O3 0.244613 0.284413 0.851716
O O4 0.500000 0.000000 0.000000
O O5 0.669821 0.471820 0.510813
O O6 0.681139 0.609493 0.650401
O O7 0.950883 0.566474 0.650849
O O8 0.922252 0.187479 0.963089
O O9 0.836650 0.846562 0.749323
O O10 0.135660 0.871620 0.800993
O O11 0.947116 0.264973 0.600409
O O12 0.203252 0.727379 0.679928
O O13 0.665302 0.557309 0.908985
O O14 0.500000 0.000000 0.500000
#
# Coordination Sequence:
#
# PCOD9056608 Si02
#       7
#     2   2   2   1   2   2   2
#     4  12  29  51  71 108 156 198 251 305 372 451
#     4  11  25  48  70 109 147 195 251 297 368 446
#     4  11  22  43  74 113 154 181 236 316 379 425
#     4  12  30  50  78  98 150 208 248 296 366 464
#     4  12  25  45  82 112 142 194 254 315 369 438
#     4  11  22  46  74 115 148 189 252 310 368 440
#     4  11  22  39  73 111 154 184 231 311 375 427
#
# _framework density 27.900428999999999
#
# number of rings (size 3 to 8) (size 9 to 14) (size 15 to 20)
#    0.000    0.615    3.077    5.538    4.308    1.846 
#    0.000    6.923    0.000    0.000    0.000    0.000 
#    0.000    0.000    0.000    0.000    0.000    0.000 
#
# Total GULP energy -72793.188027 kJ/mol
# GULP energy per Si atom -5599.476002 kJ/mol
# Density = 2.783693 g / cm^3
# Si number density = 27.900429 Si / 1000 Ang^3
#
#
#
# Elastic Constant Matrix: (Units=GPa)
#
#
# Indices 1 2 3 4 5 6 
#
# 1 101.1211 53.4975 31.1408 -29.3093 49.4025 20.2269
# 2 53.4975 61.1351 34.4183 -10.2543 17.6293 -9.3578
# 3 31.1408 34.4183 184.3323 -46.2813 8.1963 28.7352
# 4 -29.3093 -10.2543 -46.2813 48.3948 4.3829 4.6236
# 5 49.4025 17.6293 8.1963 4.3829 60.1813 -5.8467
# 6 20.2269 -9.3578 28.7352 4.6236 -5.8467 45.7907
#
#
#
# Elastic Compliance Matrix: (Units=1/GPa)
#
#
# Indices 1 2 3 4 5 6 
#
# 1 -0.038027 0.034570 -0.018174 -0.039993 0.030676 0.043222
# 2 0.034570 -0.009833 0.011514 0.035925 -0.032822 -0.032323
# 3 -0.018174 0.011514 0.001489 -0.009494 0.013209 0.012091
# 4 -0.039993 0.035925 -0.009494 -0.010951 0.027858 0.035628
# 5 0.030676 -0.032822 0.013209 0.027858 -0.005898 -0.032113
# 6 0.043222 -0.032323 0.012091 0.035628 -0.032113 -0.019145
#
#
# Mechanical properties :
#
#
# Convention : Reuss Voigt Hill
#
# Bulk Modulus (GPa) = 105.82668 64.96686 85.39677
# Shear Modulus (GPa) = -37.02740 46.04213 4.50737
#
# Velocity S-wave (km/s) = -3.64693 4.06671 1.27241
# Velocity P-wave (km/s) = 4.50323 6.73696 5.72999
#
# Compressibility (1/GPa) = 0.00944941
#
# Stress axis : x y z
#
# Youngs Moduli (GPa) = -26.29704 -101.69971 671.38267
#
# Poissons Ratio (x) = 3.51572 12.20141
# Poissons Ratio (y) = 0.90908 -7.73025
# Poissons Ratio (z) = -0.47791 1.17096
#
# Static dielectric constant tensor:
#      x y z
#    x 1.917840 -0.174760 -0.091000 
#    y -0.174760 1.879440 -0.270460 
#    z -0.091000 -0.270460 1.954470 
# 
# From -- ./inp_files/380902.got.cif
#   From: 2010.05.17/outbox.cif.g08.bks.cpg/sg2_191_cif.got.tgz:380902.got - 2010.06.03 11:33:40.
