data_PCOD9056593
_publ_section_title
;
Structure prediction by ZEFSAII (Michael W. Deem and Ramdas Pophale) SiO2 
 PCOD9056593
Probable space group: P -1
;
_chemical_formula_sum "Si O2"
_cell_formula_units_Z 14
_cell_length_a 16.652157
_cell_length_b 9.694190
_cell_length_c 5.203400
_cell_angle_alpha 55.864718
_cell_angle_beta 70.308909
_cell_angle_gamma 49.709348
_cell_volume 529.882209
_symmetry_space_group_name_H-M "P -1"
_symmetry_group_IT_number 2
_symmetry_cell_setting 'triclinic'
loop_
_space_group_symop_operation_xyz
x,y,z
-x,-y,-z
loop_
_atom_site_type_symbol
_atom_site_label
_atom_site_fract_x
_atom_site_fract_y
_atom_site_fract_z
Si Si1 0.879638 0.211300 0.614643
Si Si2 0.222829 0.913803 0.466452
Si Si3 0.739423 0.711692 0.782433
Si Si4 0.524281 0.083507 0.638663
Si Si5 0.050046 0.192806 0.742117
Si Si6 0.841376 0.705112 0.166546
Si Si7 0.344293 0.501735 0.591183
O O1 0.858635 0.155086 0.413278
O O2 0.754795 0.376679 0.630885
O O3 0.953231 0.277809 0.560736
O O4 0.933778 0.992102 0.919233
O O5 0.332959 0.690310 0.556105
O O6 0.159268 0.079270 0.585053
O O7 0.218011 0.051719 0.095450
O O8 0.781765 0.676746 0.486989
O O9 0.650028 0.959038 0.638948
O O10 0.828790 0.624220 0.996581
O O11 0.681538 0.610562 0.050046
O O12 0.448083 0.328501 0.506470
O O13 0.500000 0.000000 0.500000
O O14 0.500000 0.000000 0.000000
O O15 0.050623 0.343739 0.786581
#
# Coordination Sequence:
#
# PCOD9056593 Si02
#       7
#     2   2   2   2   2   2   2
#     4   8  19  33  61  94 114 157 207 256 282 349
#     4   9  19  37  63  86 121 153 209 245 290 349
#     4  11  22  40  61  88 122 162 194 244 314 356
#     4  10  21  40  64  88 118 157 202 246 302 357
#     4  10  17  36  62  90 122 165 196 241 307 357
#     4  11  22  38  61  86 127 165 188 239 312 374
#     4   9  21  39  62  93 113 153 213 259 282 347
#
# _framework density 26.420968999999999
#
# number of rings (size 3 to 8) (size 9 to 14) (size 15 to 20)
#    0.857    1.429    1.429    2.143    0.000    3.429 
#    0.000    2.857    0.000    0.000    0.000    0.000 
#    0.000    0.000    0.000    0.000    0.000    0.000 
#
# Total GULP energy -77959.382673 kJ/mol
# GULP energy per Si atom -5568.527334 kJ/mol
# Density = 2.636083 g / cm^3
# Si number density = 26.420969 Si / 1000 Ang^3
#
#
#
# Elastic Constant Matrix: (Units=GPa)
#
#
# Indices 1 2 3 4 5 6 
#
# 1 84.3103 3.8660 0.2634 9.7422 16.5081 -7.7879
# 2 3.8660 139.3515 30.3916 7.6735 3.5449 -31.1025
# 3 0.2634 30.3916 67.9761 15.7389 3.9582 -1.3537
# 4 9.7422 7.6735 15.7389 44.0158 0.6867 1.5699
# 5 16.5081 3.5449 3.9582 0.6867 31.1734 -1.2900
# 6 -7.7879 -31.1025 -1.3537 1.5699 -1.2900 44.7670
#
#
#
# Elastic Compliance Matrix: (Units=1/GPa)
#
#
# Indices 1 2 3 4 5 6 
#
# 1 0.013931 0.000337 0.001089 -0.003509 -0.007369 0.002602
# 2 0.000337 0.009545 -0.003985 -0.000541 -0.000474 0.006575
# 3 0.001089 -0.003985 0.017944 -0.005858 -0.002351 -0.001899
# 4 -0.003509 -0.000541 -0.005858 0.025725 0.002014 -0.002008
# 5 -0.007369 -0.000474 -0.002351 0.002014 0.036260 -0.000708
# 6 0.002602 0.006575 -0.001899 -0.002008 -0.000708 0.027351
#
#
# Mechanical properties :
#
#
# Convention : Reuss Voigt Hill
#
# Bulk Modulus (GPa) = 27.54688 40.07552 33.81120
# Shear Modulus (GPa) = 33.78957 41.13236 37.46097
#
# Velocity S-wave (km/s) = 3.58004 3.94992 3.76952
# Velocity P-wave (km/s) = 5.24764 6.00029 5.63654
#
# Compressibility (1/GPa) = 0.03630175
#
# Stress axis : x y z
#
# Youngs Moduli (GPa) = 71.78393 104.76400 55.72897
#
# Poissons Ratio (x) = -0.03536 -0.06066
# Poissons Ratio (y) = -0.02423 0.22209
# Poissons Ratio (z) = -0.07814 0.41750
#
# Static dielectric constant tensor:
#      x y z
#    x 2.303620 0.072550 -0.002550 
#    y 0.072550 2.206380 -0.031840 
#    z -0.002550 -0.031840 2.048450 
# 
# From -- ./inp_files/118063.got.cif
#   From: 2010.05.17/outbox.cif.g08.bks.cpg/sg2_60_cif.got.tgz:118063.got - 2010.06.03 11:33:40.
