data_PCOD9056562
_publ_section_title
;
Structure prediction by ZEFSAII (Michael W. Deem and Ramdas Pophale) SiO2 
 PCOD9056562
Probable space group: P -1
;
_chemical_formula_sum "Si O2"
_cell_formula_units_Z 14
_cell_length_a 10.080279
_cell_length_b 21.117228
_cell_length_c 14.372162
_cell_angle_alpha 25.565174
_cell_angle_beta 31.932848
_cell_angle_gamma 41.722060
_cell_volume 695.829120
_symmetry_space_group_name_H-M "P -1"
_symmetry_group_IT_number 2
_symmetry_cell_setting 'triclinic'
loop_
_space_group_symop_operation_xyz
x,y,z
-x,-y,-z
loop_
_atom_site_type_symbol
_atom_site_label
_atom_site_fract_x
_atom_site_fract_y
_atom_site_fract_z
Si Si1 0.092882 0.865301 0.680006
Si Si2 0.603410 0.136335 0.319252
Si Si3 0.667876 0.578417 0.879394
Si Si4 0.455314 0.685577 0.578224
Si Si5 0.767362 0.377252 0.578232
Si Si6 0.978025 0.326496 0.713995
Si Si7 0.421401 0.304928 0.717388
O O1 0.287261 0.913276 0.582588
O O2 0.245335 0.764777 0.653970
O O3 0.000000 0.000000 0.500000
O O4 0.846883 0.778873 0.987094
O O5 0.397875 0.254066 0.298984
O O6 0.500000 0.000000 0.500000
O O7 0.830360 0.231912 0.005777
O O8 0.958473 0.570508 0.694191
O O9 0.500000 0.500000 0.000000
O O10 0.602243 0.487724 0.133059
O O11 0.468841 0.727996 0.405535
O O12 0.739146 0.720255 0.401540
O O13 0.824652 0.305504 0.737557
O O14 0.610897 0.283007 0.718579
O O15 0.622668 0.522029 0.490857
O O16 0.000000 0.500000 0.500000
#
# Coordination Sequence:
#
# PCOD9056562 Si02
#       7
#     2   2   2   2   2   2   2
#     4  12  27  48  67  95 147 192 229 283 363 432
#     4  12  26  44  71 110 146 180 236 308 356 412
#     4  12  20  42  77 103 134 181 245 292 350 415
#     4  12  23  44  78  99 128 192 242 284 346 428
#     4  11  22  39  68 107 136 168 238 307 336 410
#     4  12  20  42  76 101 134 184 242 289 350 421
#     4  11  24  43  65 102 142 179 229 289 357 422
#
# _framework density 20.119883000000002
#
# number of rings (size 3 to 8) (size 9 to 14) (size 15 to 20)
#    0.000    0.286    8.571    0.000    2.000    2.286 
#    2.571    1.429    0.000    0.000    0.000    0.000 
#    0.000    0.000    0.000    0.000    0.000    0.000 
#
# Total GULP energy -78266.237642 kJ/mol
# GULP energy per Si atom -5590.445546 kJ/mol
# Density = 2.007409 g / cm^3
# Si number density = 20.119883 Si / 1000 Ang^3
#
#
#
# Elastic Constant Matrix: (Units=GPa)
#
#
# Indices 1 2 3 4 5 6 
#
# 1 161.5794 53.7522 28.2970 -2.0169 12.2022 15.9525
# 2 53.7522 86.8778 37.0727 2.6182 -1.1521 11.6498
# 3 28.2970 37.0727 58.9679 4.9947 9.5062 12.8673
# 4 -2.0169 2.6182 4.9947 40.8754 -0.6816 1.1692
# 5 12.2022 -1.1521 9.5062 -0.6816 38.6183 1.7062
# 6 15.9525 11.6498 12.8673 1.1692 1.7062 30.6129
#
#
#
# Elastic Compliance Matrix: (Units=1/GPa)
#
#
# Indices 1 2 3 4 5 6 
#
# 1 0.008238 -0.004818 -0.000060 0.000745 -0.002616 -0.002317
# 2 -0.004818 0.019013 -0.010232 -0.000109 0.004636 -0.000679
# 3 -0.000060 -0.010232 0.026109 -0.002457 -0.006465 -0.006595
# 4 0.000745 -0.000109 -0.002457 0.024831 0.000818 -0.000308
# 5 -0.002616 0.004636 -0.006465 0.000818 0.028434 0.000701
# 6 -0.002317 -0.000679 -0.006595 -0.000308 0.000701 0.036876
#
#
# Mechanical properties :
#
#
# Convention : Reuss Voigt Hill
#
# Bulk Modulus (GPa) = 43.21260 60.62988 51.92124
# Shear Modulus (GPa) = 27.55829 34.57486 31.06658
#
# Velocity S-wave (km/s) = 3.70497 4.14991 3.93373
# Velocity P-wave (km/s) = 6.31083 7.29123 6.81867
#
# Compressibility (1/GPa) = 0.02314140
#
# Stress axis : x y z
#
# Youngs Moduli (GPa) = 121.39321 52.59589 38.30073
#
# Poissons Ratio (x) = 0.25339 0.00230
# Poissons Ratio (y) = 0.58483 0.39187
# Poissons Ratio (z) = 0.00729 0.53814
#
# Static dielectric constant tensor:
#      x y z
#    x 1.728400 0.011370 0.014250 
#    y 0.011370 1.676630 -0.033610 
#    z 0.014250 -0.033610 1.638860 
# 
# From -- ./inp_files/202674.got.cif
#   From: 2010.05.17/outbox.cif.g08.bks.cpg/sg2_102_cif.got.tgz:202674.got - 2010.06.03 11:33:40.
