data_PCOD9056383
_publ_section_title
;
Structure prediction by ZEFSAII (Michael W. Deem and Ramdas Pophale) SiO2 
 PCOD9056383
Probable space group: P -1
;
_chemical_formula_sum "Si O2"
_cell_formula_units_Z 13
_cell_length_a 9.002559
_cell_length_b 11.377375
_cell_length_c 9.053808
_cell_angle_alpha 69.567194
_cell_angle_beta 109.184685
_cell_angle_gamma 57.210427
_cell_volume 550.653887
_symmetry_space_group_name_H-M "P -1"
_symmetry_group_IT_number 2
_symmetry_cell_setting 'triclinic'
loop_
_space_group_symop_operation_xyz
x,y,z
-x,-y,-z
loop_
_atom_site_type_symbol
_atom_site_label
_atom_site_fract_x
_atom_site_fract_y
_atom_site_fract_z
Si Si1 0.040530 0.001502 0.685855
Si Si2 0.811384 0.892061 0.762899
Si Si3 0.552152 0.614353 0.004332
Si Si4 0.500000 0.500000 0.500000
Si Si5 0.742905 0.519442 0.798040
Si Si6 0.280842 0.213287 0.508048
Si Si7 0.884099 0.378296 0.485727
O O1 0.312411 0.818614 0.888379
O O2 0.891389 0.989169 0.734822
O O3 0.000000 0.000000 0.500000
O O4 0.960786 0.187938 0.609416
O O5 0.791065 0.853453 0.603985
O O6 0.559545 0.033655 0.694910
O O7 0.011030 0.695403 0.997145
O O8 0.639222 0.622778 0.877028
O O9 0.500000 0.500000 0.000000
O O10 0.753053 0.495419 0.242491
O O11 0.564894 0.519802 0.675352
O O12 0.683639 0.497731 0.491485
O O13 0.767947 0.630842 0.665113
O O14 0.135314 0.296496 0.576472
#
# Coordination Sequence:
#
# PCOD9056383 Si02
#       7
#     2   2   2   1   2   2   2
#     4  12  19  36  64  96 128 163 215 269 312 376
#     4  11  22  38  65 102 133 161 210 272 334 379
#     4  12  20  38  70  97 127 164 224 273 318 367
#     4  12  26  46  68  88 134 180 224 264 312 390
#     4  12  24  43  65  99 132 171 218 266 324 390
#     4  11  24  39  66 100 136 164 207 275 334 382
#     4  12  25  42  65 100 129 172 216 269 324 384
#
# _framework density 23.608298000000001
#
# number of rings (size 3 to 8) (size 9 to 14) (size 15 to 20)
#    0.000    0.308    7.692    2.308    2.154    0.615 
#    0.000    7.692    0.000    0.000    0.000    0.000 
#    0.000    0.000    0.000    0.000    0.000    0.000 
#
# Total GULP energy -72509.073096 kJ/mol
# GULP energy per Si atom -5577.621007 kJ/mol
# Density = 2.355456 g / cm^3
# Si number density = 23.608298 Si / 1000 Ang^3
#
#
#
# Elastic Constant Matrix: (Units=GPa)
#
#
# Indices 1 2 3 4 5 6 
#
# 1 158.0587 31.9327 27.0396 -9.1433 -7.0761 -29.9007
# 2 31.9327 9.7084 55.9460 6.9376 8.0755 -13.1259
# 3 27.0396 55.9460 41.4645 -42.1973 13.6227 -2.3564
# 4 -9.1433 6.9376 -42.1973 27.5300 -14.7869 -3.3908
# 5 -7.0761 8.0755 13.6227 -14.7869 27.9188 -10.5240
# 6 -29.9007 -13.1259 -2.3564 -3.3908 -10.5240 46.8955
#
#
#
# Elastic Compliance Matrix: (Units=1/GPa)
#
#
# Indices 1 2 3 4 5 6 
#
# 1 0.009356 -0.001469 -0.004840 0.001744 0.008883 0.007431
# 2 -0.001469 0.006652 0.014965 0.023859 0.004720 0.004462
# 3 -0.004840 0.014965 0.002433 -0.008298 -0.011910 -0.002048
# 4 0.001744 0.023859 -0.008298 0.029818 0.018544 0.013691
# 5 0.008883 0.004720 -0.011910 0.018544 0.060355 0.021272
# 6 0.007431 0.004462 -0.002048 0.013691 0.021272 0.032971
#
#
# Mechanical properties :
#
#
# Convention : Reuss Voigt Hill
#
# Bulk Modulus (GPa) = 27.96881 48.78536 38.37709
# Shear Modulus (GPa) = 36.71288 26.75642 31.73465
#
# Velocity S-wave (km/s) = 3.94773 3.37018 3.67033
# Velocity P-wave (km/s) = 5.71421 5.98778 5.85259
#
# Compressibility (1/GPa) = 0.03575411
#
# Stress axis : x y z
#
# Youngs Moduli (GPa) = 106.88604 150.31978 410.93990
#
# Poissons Ratio (x) = 0.22076 1.98909
# Poissons Ratio (y) = 0.15697 -6.14978
# Poissons Ratio (z) = 0.51737 -2.24956
#
# Static dielectric constant tensor:
#      x y z
#    x 1.942130 -0.044910 0.020660 
#    y -0.044910 1.983110 0.020130 
#    z 0.020660 0.020130 1.862110 
# 
# From -- ./inp_files/186010.got.cif
#   From: 2010.05.17/outbox.cif.g08.bks.cpg/sg2_94_cif.got.tgz:186010.got - 2010.06.03 11:33:40.
