data_PCOD9056108
_publ_section_title
;
Structure prediction by ZEFSAII (Michael W. Deem and Ramdas Pophale) SiO2 
 PCOD9056108
Probable space group: P -1
;
_chemical_formula_sum "Si O2"
_cell_formula_units_Z 15
_cell_length_a 12.999075
_cell_length_b 6.799281
_cell_length_c 7.926811
_cell_angle_alpha 81.650062
_cell_angle_beta 96.733773
_cell_angle_gamma 79.004064
_cell_volume 672.831925
_symmetry_space_group_name_H-M "P -1"
_symmetry_group_IT_number 2
_symmetry_cell_setting 'triclinic'
loop_
_space_group_symop_operation_xyz
x,y,z
-x,-y,-z
loop_
_atom_site_type_symbol
_atom_site_label
_atom_site_fract_x
_atom_site_fract_y
_atom_site_fract_z
Si Si1 0.547174 0.626059 0.722024
Si Si2 0.000000 0.000000 0.500000
Si Si3 0.955044 0.697408 0.080618
Si Si4 0.134166 0.930464 0.216427
Si Si5 0.853122 0.403993 0.278332
Si Si6 0.288566 0.694343 0.030931
Si Si7 0.355884 0.412342 0.610329
Si Si8 0.416878 0.984474 0.840667
O O1 0.620310 0.505361 0.897972
O O2 0.454786 0.504789 0.680698
O O3 0.622618 0.625962 0.577187
O O4 0.486885 0.850542 0.728215
O O5 0.892830 0.017441 0.601789
O O6 0.944051 0.214773 0.370844
O O7 0.896418 0.609485 0.233349
O O8 0.043252 0.806666 0.162594
O O9 0.000000 0.500000 0.000000
O O10 0.883459 0.867261 0.928150
O O11 0.243493 0.790573 0.189087
O O12 0.755756 0.444581 0.384162
O O13 0.804449 0.357037 0.094762
O O14 0.335640 0.858708 0.916069
O O15 0.361514 0.202046 0.734453
O O16 0.500000 0.000000 0.000000
#
# Coordination Sequence:
#
# PCOD9056108 Si02
#       8
#     2   1   2   2   2   2   2   2
#     4  11  24  44  68 102 143 172 225 283 335 413
#     4  12  26  44  66 104 140 178 230 288 346 400
#     4  11  21  46  69  95 130 181 233 284 333 398
#     4  11  24  43  69 100 136 176 230 282 340 410
#     4  12  24  45  72  99 139 185 231 285 341 405
#     4  12  23  44  71 101 137 183 232 274 334 416
#     4  11  24  44  69 101 140 178 219 285 347 398
#     4  12  23  43  69 103 138 183 227 277 331 410
#
# _framework density 22.293828000000001
#
# number of rings (size 3 to 8) (size 9 to 14) (size 15 to 20)
#    0.000    0.533    5.333    4.000    0.000    0.533 
#    0.000    4.000    0.000    0.000    0.000    0.000 
#    0.000    0.000    0.000    0.000    0.000    0.000 
#
# Total GULP energy -83688.342157 kJ/mol
# GULP energy per Si atom -5579.222810 kJ/mol
# Density = 2.224309 g / cm^3
# Si number density = 22.293828 Si / 1000 Ang^3
#
#
#
# Elastic Constant Matrix: (Units=GPa)
#
#
# Indices 1 2 3 4 5 6 
#
# 1 84.5505 26.6738 17.1561 -4.6950 -24.3992 -20.2200
# 2 26.6738 79.3965 17.6088 -15.9164 11.7419 -17.5396
# 3 17.1561 17.6088 52.0159 -10.4066 -17.5946 -3.0081
# 4 -4.6950 -15.9164 -10.4066 29.8368 -14.2511 -5.8033
# 5 -24.3992 11.7419 -17.5946 -14.2511 31.2067 5.9278
# 6 -20.2200 -17.5396 -3.0081 -5.8033 5.9278 43.7945
#
#
#
# Elastic Compliance Matrix: (Units=1/GPa)
#
#
# Indices 1 2 3 4 5 6 
#
# 1 0.031932 -0.015626 0.020106 0.031370 0.055264 0.006543
# 2 -0.015626 0.027035 -0.020326 -0.013650 -0.041220 0.005987
# 3 0.020106 -0.020326 0.054812 0.047912 0.075966 0.000974
# 4 0.031370 -0.013650 0.047912 0.097431 0.098922 0.011829
# 5 0.055264 -0.041220 0.075966 0.098922 0.178156 0.003219
# 6 0.006543 0.005987 0.000974 0.011829 0.003219 0.029451
#
#
# Mechanical properties :
#
#
# Convention : Reuss Voigt Hill
#
# Bulk Modulus (GPa) = 12.18222 37.64894 24.91558
# Shear Modulus (GPa) = 10.46311 31.26921 20.86616
#
# Velocity S-wave (km/s) = 2.16875 3.74919 3.06267
# Velocity P-wave (km/s) = 3.42747 5.97211 4.86897
#
# Compressibility (1/GPa) = 0.08208687
#
# Stress axis : x y z
#
# Youngs Moduli (GPa) = 31.31693 36.98938 18.24425
#
# Poissons Ratio (x) = 0.57799 -0.36681
# Poissons Ratio (y) = 0.48935 0.37083
# Poissons Ratio (z) = -0.62965 0.75183
#
# Static dielectric constant tensor:
#      x y z
#    x 1.902090 0.034520 -0.048090 
#    y 0.034520 1.820980 0.057990 
#    z -0.048090 0.057990 1.848310 
# 
# From -- ./inp_files/104690.got.cif
#   From: 2010.05.17/outbox.cif.g08.bks.cpg/sg2_53_cif.got.tgz:104690.got - 2010.06.03 11:33:40.
