data_PCOD9056010
_publ_section_title
;
Structure prediction by ZEFSAII (Michael W. Deem and Ramdas Pophale) SiO2 
 PCOD9056010
Probable space group: P -1
;
_chemical_formula_sum "Si O2"
_cell_formula_units_Z 16
_cell_length_a 13.397794
_cell_length_b 9.193364
_cell_length_c 8.900447
_cell_angle_alpha 75.270799
_cell_angle_beta 71.554799
_cell_angle_gamma 36.702228
_cell_volume 621.535884
_symmetry_space_group_name_H-M "P -1"
_symmetry_group_IT_number 2
_symmetry_cell_setting 'triclinic'
loop_
_space_group_symop_operation_xyz
x,y,z
-x,-y,-z
loop_
_atom_site_type_symbol
_atom_site_label
_atom_site_fract_x
_atom_site_fract_y
_atom_site_fract_z
Si Si1 0.405269 0.866152 0.728082
Si Si2 0.803084 0.605916 0.911611
Si Si3 0.606771 0.072727 0.709097
Si Si4 0.793763 0.085127 0.426798
Si Si5 0.370411 0.756980 0.071257
Si Si6 0.696384 0.518519 0.481062
Si Si7 0.846578 0.605949 0.245622
Si Si8 0.900966 0.178539 0.856753
O O1 0.331832 0.809696 0.681468
O O2 0.604855 0.644095 0.652259
O O3 0.298910 0.133549 0.668843
O O4 0.347492 0.907581 0.915413
O O5 0.805850 0.430927 0.902645
O O6 0.981977 0.488080 0.816673
O O7 0.659412 0.860989 0.823050
O O8 0.796966 0.621540 0.092172
O O9 0.765359 0.973115 0.575196
O O10 0.560642 0.242072 0.816141
O O11 0.453709 0.250575 0.618054
O O12 0.735199 0.302639 0.480696
O O13 0.974999 0.904737 0.311697
O O14 0.204951 0.842655 0.150714
O O15 0.500000 0.500000 0.000000
O O16 0.854932 0.443026 0.379553
O O17 0.000000 0.000000 0.000000
#
# Coordination Sequence:
#
# PCOD9056010 Si02
#       8
#     2   2   2   2   2   2   2   2
#     4  11  21  45  66 100 133 182 228 273 337 419
#     4  11  25  45  68 104 138 177 230 293 332 403
#     4  11  26  45  66 104 143 176 224 294 341 393
#     4  11  23  46  70  99 138 181 233 274 342 411
#     4  12  25  43  69 103 138 175 230 286 339 404
#     4  11  25  43  74  98 140 182 224 280 347 404
#     4  11  23  43  71  97 135 181 231 271 344 415
#     4  12  25  45  75  97 134 189 229 275 343 411
#
# _framework density 25.742681000000001
#
# number of rings (size 3 to 8) (size 9 to 14) (size 15 to 20)
#    0.000    0.750    3.750    4.125    5.250    2.500 
#    2.250    0.000    0.000    0.000    0.000    0.000 
#    0.000    0.000    0.000    0.000    0.000    0.000 
#
# Total GULP energy -89681.694126 kJ/mol
# GULP energy per Si atom -5605.105883 kJ/mol
# Density = 2.568409 g / cm^3
# Si number density = 25.742681 Si / 1000 Ang^3
#
#
#
# Elastic Constant Matrix: (Units=GPa)
#
#
# Indices 1 2 3 4 5 6 
#
# 1 89.8645 18.1143 39.0373 1.7735 -4.9083 14.9462
# 2 18.1143 94.2279 18.8699 0.1859 14.6001 24.3175
# 3 39.0373 18.8699 119.8323 8.0780 -13.6397 8.7417
# 4 1.7735 0.1859 8.0780 48.7127 -1.5086 -0.0536
# 5 -4.9083 14.6001 -13.6397 -1.5086 49.6649 1.1438
# 6 14.9462 24.3175 8.7417 -0.0536 1.1438 35.8369
#
#
#
# Elastic Compliance Matrix: (Units=1/GPa)
#
#
# Indices 1 2 3 4 5 6 
#
# 1 0.013761 -0.000860 -0.003982 0.000177 0.000621 -0.004204
# 2 -0.000860 0.014062 -0.001831 0.000132 -0.004520 -0.008592
# 3 -0.003982 -0.001831 0.010343 -0.001472 0.002934 0.000284
# 4 0.000177 0.000132 -0.001472 0.020772 0.000200 0.000220
# 5 0.000621 -0.004520 0.002934 0.000200 0.022305 0.001381
# 6 -0.004204 -0.008592 0.000284 0.000220 0.001381 0.035375
#
#
# Mechanical properties :
#
#
# Convention : Reuss Voigt Hill
#
# Bulk Modulus (GPa) = 40.28891 50.66308 45.47600
# Shear Modulus (GPa) = 36.17012 42.03646 39.10329
#
# Velocity S-wave (km/s) = 3.75249 4.04536 3.90167
# Velocity P-wave (km/s) = 5.87022 6.44540 6.16452
#
# Compressibility (1/GPa) = 0.02482072
#
# Stress axis : x y z
#
# Youngs Moduli (GPa) = 72.67167 71.11393 96.68461
#
# Poissons Ratio (x) = 0.06113 0.38499
# Poissons Ratio (y) = 0.06247 0.17701
# Poissons Ratio (z) = 0.28937 0.13020
#
# Static dielectric constant tensor:
#      x y z
#    x 2.054530 -0.052920 -0.051810 
#    y -0.052920 2.197630 -0.206780 
#    z -0.051810 -0.206780 2.185010 
# 
# From -- ./inp_files/263626.got.cif
#   From: 2010.05.17/outbox.cif.g08.bks.cpg/sg2_132_cif.got.tgz:263626.got - 2010.06.03 11:33:40.
