data_PCOD9056286
_publ_section_title
;
Structure prediction by ZEFSAII (Michael W. Deem and Ramdas Pophale) SiO2 
 PCOD9056286
Probable space group: P -1
;
_chemical_formula_sum "Si O2"
_cell_formula_units_Z 16
_cell_length_a 15.930373
_cell_length_b 9.021544
_cell_length_c 5.978823
_cell_angle_alpha 52.173038
_cell_angle_beta 95.892942
_cell_angle_gamma 81.548424
_cell_volume 650.564123
_symmetry_space_group_name_H-M "P -1"
_symmetry_group_IT_number 2
_symmetry_cell_setting 'triclinic'
loop_
_space_group_symop_operation_xyz
x,y,z
-x,-y,-z
loop_
_atom_site_type_symbol
_atom_site_label
_atom_site_fract_x
_atom_site_fract_y
_atom_site_fract_z
Si Si1 0.999479 0.231545 0.294121
Si Si2 0.260435 0.594285 0.315916
Si Si3 0.204570 0.017487 0.007083
Si Si4 0.186868 0.284340 0.372330
Si Si5 0.386763 0.721691 0.910516
Si Si6 0.994608 0.780542 0.186590
Si Si7 0.659927 0.885588 0.721645
Si Si8 0.427760 0.404653 0.828966
O O1 0.091730 0.285979 0.261848
O O2 0.970872 0.303229 0.477959
O O3 0.964903 0.298209 0.971070
O O4 0.000000 0.000000 0.500000
O O5 0.206241 0.791686 0.241023
O O6 0.201488 0.450215 0.385006
O O7 0.347420 0.467981 0.578719
O O8 0.302028 0.674310 0.038103
O O9 0.291162 0.034045 0.140953
O O10 0.213112 0.079339 0.698690
O O11 0.112401 0.172822 0.899980
O O12 0.258763 0.276704 0.210523
O O13 0.412636 0.585535 0.826524
O O14 0.374203 0.940618 0.622057
O O15 0.470787 0.657942 0.157640
O O16 0.000000 0.000000 0.000000
O O17 0.587857 0.782276 0.874094
#
# Coordination Sequence:
#
# PCOD9056286 Si02
#       8
#     2   2   2   2   2   2   2   2
#     4   9  18  34  60  91 124 166 210 251 318 388
#     4  12  23  40  60  92 122 162 214 264 318 384
#     4  11  22  37  62  89 124 161 209 261 320 378
#     4  11  22  37  62  89 124 161 209 261 320 378
#     4  11  24  40  59  87 124 162 206 269 327 379
#     4   9  18  34  60  91 124 166 210 251 318 388
#     4  12  21  40  62  88 116 162 216 260 314 390
#     4  11  24  40  59  87 124 162 206 269 327 379
#
# _framework density 24.594041000000001
#
# number of rings (size 3 to 8) (size 9 to 14) (size 15 to 20)
#    0.000    1.250    6.250    0.750    0.000    0.000 
#    0.000    1.250    0.000   13.500    0.000    0.000 
#    0.000    0.000    0.000    0.000    0.000    0.000 
#
# Total GULP energy -89214.182192 kJ/mol
# GULP energy per Si atom -5575.886387 kJ/mol
# Density = 2.453806 g / cm^3
# Si number density = 24.594041 Si / 1000 Ang^3
#
#
#
# Elastic Constant Matrix: (Units=GPa)
#
#
# Indices 1 2 3 4 5 6 
#
# 1 87.7416 15.3112 17.3959 -5.1585 1.7705 18.8946
# 2 15.3112 72.6203 34.2583 -4.5214 8.0636 19.0046
# 3 17.3959 34.2583 90.3853 3.1480 -2.7983 -6.0406
# 4 -5.1585 -4.5214 3.1480 49.8174 7.3491 -11.2416
# 5 1.7705 8.0636 -2.7983 7.3491 37.3134 1.2259
# 6 18.8946 19.0046 -6.0406 -11.2416 1.2259 25.5928
#
#
#
# Elastic Compliance Matrix: (Units=1/GPa)
#
#
# Indices 1 2 3 4 5 6 
#
# 1 0.015084 0.003297 -0.005167 -0.001086 -0.001101 -0.015228
# 2 0.003297 0.025893 -0.012237 -0.001320 -0.005593 -0.024862
# 3 -0.005167 -0.012237 0.017937 0.000583 0.003554 0.017221
# 4 -0.001086 -0.001320 0.000583 0.023274 -0.004610 0.012364
# 5 -0.001101 -0.005593 0.003554 -0.004610 0.029157 0.002384
# 6 -0.015228 -0.024862 0.017221 0.012364 0.002384 0.078159
#
#
# Mechanical properties :
#
#
# Convention : Reuss Voigt Hill
#
# Bulk Modulus (GPa) = 32.57360 42.74199 37.65780
# Shear Modulus (GPa) = 21.93438 34.79682 28.36560
#
# Velocity S-wave (km/s) = 2.98964 3.76553 3.39979
# Velocity P-wave (km/s) = 5.01902 6.02680 5.54585
#
# Compressibility (1/GPa) = 0.03069970
#
# Stress axis : x y z
#
# Youngs Moduli (GPa) = 66.29643 38.62002 55.75036
#
# Poissons Ratio (x) = -0.12733 0.28804
# Poissons Ratio (y) = -0.21857 0.68224
# Poissons Ratio (z) = 0.34253 0.47261
#
# Static dielectric constant tensor:
#      x y z
#    x 2.047800 -0.092180 0.042550 
#    y -0.092180 2.034040 0.030750 
#    z 0.042550 0.030750 1.996240 
# 
# From -- ./inp_files/11380.got.cif
#   From: 2010.05.17/outbox.cif.g08.bks.cpg/sg2_6_cif.got.tgz:11380.got - 2010.06.03 11:33:40.
