data_PCOD9056090
_publ_section_title
;
Structure prediction by ZEFSAII (Michael W. Deem and Ramdas Pophale) SiO2 
 PCOD9056090
Probable space group: P -1
;
_chemical_formula_sum "Si O2"
_cell_formula_units_Z 16
_cell_length_a 8.213339
_cell_length_b 12.100406
_cell_length_c 18.996760
_cell_angle_alpha 32.212338
_cell_angle_beta 45.356642
_cell_angle_gamma 52.898807
_cell_volume 715.865674
_symmetry_space_group_name_H-M "P -1"
_symmetry_group_IT_number 2
_symmetry_cell_setting 'triclinic'
loop_
_space_group_symop_operation_xyz
x,y,z
-x,-y,-z
loop_
_atom_site_type_symbol
_atom_site_label
_atom_site_fract_x
_atom_site_fract_y
_atom_site_fract_z
Si Si1 0.377485 0.703771 0.895187
Si Si2 0.598011 0.238458 0.892924
Si Si3 0.196167 0.643195 0.651588
Si Si4 0.560808 0.791899 0.191382
Si Si5 0.396095 0.907138 0.329104
Si Si6 0.900039 0.058441 0.356209
Si Si7 0.267100 0.335430 0.310585
Si Si8 0.052956 0.290256 0.054761
O O1 0.504302 0.717603 0.773942
O O2 0.108046 0.687898 0.975712
O O3 0.429615 0.909534 0.810968
O O4 0.500000 0.500000 0.000000
O O5 0.619051 0.228437 0.807486
O O6 0.712842 0.438133 0.783509
O O7 0.322911 0.259097 0.979445
O O8 0.670301 0.016776 0.023263
O O9 0.272459 0.405374 0.759091
O O10 0.370190 0.760190 0.483347
O O11 0.203490 0.754515 0.665440
O O12 0.947493 0.667572 0.676670
O O13 0.451636 0.792319 0.301515
O O14 0.150754 0.020180 0.333969
O O15 0.951015 0.112822 0.231187
O O16 0.768575 0.847305 0.523968
O O17 0.000000 0.500000 0.000000
#
# Coordination Sequence:
#
# PCOD9056090 Si02
#       8
#     2   2   2   2   2   2   2   2
#     4  12  24  39  70 104 136 168 228 287 340 397
#     4  11  25  47  65  97 141 181 227 278 335 408
#     4  11  23  41  72 101 138 176 227 277 345 399
#     4  11  25  45  68  91 142 189 222 269 341 409
#     4  11  21  46  65 101 135 180 225 283 335 399
#     4  11  22  44  73 103 138 172 228 289 339 398
#     4  11  23  43  70 107 134 174 229 288 337 394
#     4  12  24  41  69 101 134 178 223 282 345 392
#
# _framework density 22.350562
#
# number of rings (size 3 to 8) (size 9 to 14) (size 15 to 20)
#    0.000    0.750    5.000    3.375    1.750    2.000 
#    4.500    2.500    0.000    0.000    0.000    0.000 
#    0.000    0.000    0.000    0.000    0.000    0.000 
#
# Total GULP energy -89537.901043 kJ/mol
# GULP energy per Si atom -5596.118815 kJ/mol
# Density = 2.229969 g / cm^3
# Si number density = 22.350562 Si / 1000 Ang^3
#
#
#
# Elastic Constant Matrix: (Units=GPa)
#
#
# Indices 1 2 3 4 5 6 
#
# 1 54.6032 12.3811 36.2508 -6.9717 -2.6573 -1.4076
# 2 12.3811 109.6953 34.7423 -15.6376 3.7072 6.6697
# 3 36.2508 34.7423 100.8448 -7.5460 3.3744 -6.8133
# 4 -6.9717 -15.6376 -7.5460 37.5246 7.5862 9.9237
# 5 -2.6573 3.7072 3.3744 7.5862 31.0359 -4.4459
# 6 -1.4076 6.6697 -6.8133 9.9237 -4.4459 37.4710
#
#
#
# Elastic Compliance Matrix: (Units=1/GPa)
#
#
# Indices 1 2 3 4 5 6 
#
# 1 0.024582 0.000475 -0.008944 0.002879 0.002131 -0.001297
# 2 0.000475 0.011541 -0.003916 0.005965 -0.003042 -0.004689
# 3 -0.008944 -0.003916 0.014663 -0.000926 -0.001218 0.003128
# 4 0.002879 0.005965 -0.000926 0.034658 -0.010491 -0.011545
# 5 0.002131 -0.003042 -0.001218 -0.010491 0.036540 0.007514
# 6 -0.001297 -0.004689 0.003128 -0.011545 0.007514 0.031991
#
#
# Mechanical properties :
#
#
# Convention : Reuss Voigt Hill
#
# Bulk Modulus (GPa) = 38.43505 47.98797 43.21151
# Shear Modulus (GPa) = 26.67879 33.32424 30.00151
#
# Velocity S-wave (km/s) = 3.45868 3.86551 3.66774
# Velocity P-wave (km/s) = 5.76053 6.43740 6.10835
#
# Compressibility (1/GPa) = 0.02601792
#
# Stress axis : x y z
#
# Youngs Moduli (GPa) = 40.68078 86.64814 68.19901
#
# Poissons Ratio (x) = -0.04119 0.60995
# Poissons Ratio (y) = -0.01934 0.26703
# Poissons Ratio (z) = 0.36384 0.33927
#
# Static dielectric constant tensor:
#      x y z
#    x 1.864730 0.018460 0.051500 
#    y 0.018460 1.798140 0.021520 
#    z 0.051500 0.021520 1.916270 
# 
# From -- ./inp_files/209224.got.cif
#   From: 2010.05.17/outbox.cif.g08.bks.cpg/sg2_105_cif.got.tgz:209224.got - 2010.06.03 11:33:40.
