data_PCOD9056918
_publ_section_title
;
Structure prediction by ZEFSAII (Michael W. Deem and Ramdas Pophale) SiO2 
 PCOD9056918
Probable space group: P -1
;
_chemical_formula_sum "Si O2"
_cell_formula_units_Z 14
_cell_length_a 12.162731
_cell_length_b 10.447467
_cell_length_c 9.987029
_cell_angle_alpha 49.822447
_cell_angle_beta 44.744108
_cell_angle_gamma 43.751141
_cell_volume 594.584390
_symmetry_space_group_name_H-M "P -1"
_symmetry_group_IT_number 2
_symmetry_cell_setting 'triclinic'
loop_
_space_group_symop_operation_xyz
x,y,z
-x,-y,-z
loop_
_atom_site_type_symbol
_atom_site_label
_atom_site_fract_x
_atom_site_fract_y
_atom_site_fract_z
Si Si1 0.272294 0.618836 0.330697
Si Si2 0.817162 0.147528 0.489829
Si Si3 0.975865 0.186370 0.813406
Si Si4 0.456835 0.004841 0.198179
Si Si5 0.642313 0.573030 0.967648
Si Si6 0.763016 0.750378 0.321399
Si Si7 0.087583 0.599577 0.943442
O O1 0.285524 0.689089 0.419721
O O2 0.100562 0.790103 0.287645
O O3 0.251354 0.431000 0.492055
O O4 0.458505 0.568005 0.133104
O O5 0.697708 0.052174 0.621528
O O6 0.874801 0.243275 0.260151
O O7 0.000000 0.000000 0.500000
O O8 0.801602 0.390735 0.876550
O O9 0.174308 0.166753 0.663328
O O10 0.000000 0.000000 0.000000
O O11 0.612993 0.866436 0.260880
O O12 0.399045 0.213149 0.172125
O O13 0.500000 0.000000 0.000000
O O14 0.721738 0.552736 0.061843
O O15 0.942993 0.689378 0.123715
O O16 0.000000 0.500000 0.000000
#
# Coordination Sequence:
#
# PCOD9056918 Si02
#       7
#     2   2   2   2   2   2   2
#     4  12  25  46  71 107 144 190 241 293 351 428
#     4  12  26  39  71 107 148 184 240 290 362 429
#     4  11  27  50  75  98 141 192 246 295 357 419
#     4  12  24  43  72 109 147 185 233 290 365 426
#     4  11  25  44  73 102 143 187 240 296 353 423
#     4  11  25  45  70 102 141 189 236 296 350 423
#     4  11  22  41  65 100 144 187 232 290 357 413
#
# _framework density 23.545859
#
# number of rings (size 3 to 8) (size 9 to 14) (size 15 to 20)
#    0.000    0.571    2.857    5.143    6.000    1.143 
#    0.000    1.429    0.000    0.000    0.000    0.000 
#    0.000    0.000    0.000    0.000    0.000    0.000 
#
# Total GULP energy -78126.881807 kJ/mol
# GULP energy per Si atom -5580.491558 kJ/mol
# Density = 2.349227 g / cm^3
# Si number density = 23.545859 Si / 1000 Ang^3
#
#
#
# Elastic Constant Matrix: (Units=GPa)
#
#
# Indices 1 2 3 4 5 6 
#
# 1 175.0906 28.8178 67.6231 -31.5058 -61.6217 -46.9718
# 2 28.8178 101.4700 60.8621 -11.0348 2.4879 -13.5112
# 3 67.6231 60.8621 190.1501 -21.7153 -31.3682 -11.5881
# 4 -31.5058 -11.0348 -21.7153 65.7912 23.5178 5.0112
# 5 -61.6217 2.4879 -31.3682 23.5178 75.0360 1.4187
# 6 -46.9718 -13.5112 -11.5881 5.0112 1.4187 60.5360
#
#
#
# Elastic Compliance Matrix: (Units=1/GPa)
#
#
# Indices 1 2 3 4 5 6 
#
# 1 0.012239 -0.001329 -0.001815 0.001248 0.008783 0.008543
# 2 -0.001329 0.013081 -0.004095 0.001451 -0.003713 0.001071
# 3 -0.001815 -0.004095 0.007476 0.000389 0.001667 -0.000962
# 4 0.001248 0.001451 0.000389 0.017750 -0.004424 0.000001
# 5 0.008783 -0.003713 0.001667 -0.004424 0.022630 0.006142
# 6 0.008543 0.001071 -0.000962 0.000001 0.006142 0.023059
#
#
# Mechanical properties :
#
#
# Convention : Reuss Voigt Hill
#
# Bulk Modulus (GPa) = 54.59652 86.81296 70.70474
# Shear Modulus (GPa) = 42.80100 60.89983 51.85042
#
# Velocity S-wave (km/s) = 4.26816 5.09122 4.69775
# Velocity P-wave (km/s) = 6.89400 8.45638 7.71484
#
# Compressibility (1/GPa) = 0.01831619
#
# Stress axis : x y z
#
# Youngs Moduli (GPa) = 81.70691 76.44935 133.76106
#
# Poissons Ratio (x) = 0.10163 0.24275
# Poissons Ratio (y) = 0.10862 0.54781
# Poissons Ratio (z) = 0.14828 0.31309
#
# Static dielectric constant tensor:
#      x y z
#    x 2.157040 0.146910 0.114730 
#    y 0.146910 1.936850 0.055090 
#    z 0.114730 0.055090 1.827800 
# 
# From -- ./inp_files/236681.got.cif
#   From: 2010.05.17/outbox.cif.g08.bks.cpg/sg2_119_cif.got.tgz:236681.got - 2010.06.03 11:33:40.
