data_PCOD9056831
_publ_section_title
;
Structure prediction by ZEFSAII (Michael W. Deem and Ramdas Pophale) SiO2 
 PCOD9056831
Probable space group: P -1
;
_chemical_formula_sum "Si O2"
_cell_formula_units_Z 16
_cell_length_a 26.565457
_cell_length_b 14.018923
_cell_length_c 9.183999
_cell_angle_alpha 47.119016
_cell_angle_beta 144.025518
_cell_angle_gamma 159.550817
_cell_volume 649.560795
_symmetry_space_group_name_H-M "P -1"
_symmetry_group_IT_number 2
_symmetry_cell_setting 'triclinic'
loop_
_space_group_symop_operation_xyz
x,y,z
-x,-y,-z
loop_
_atom_site_type_symbol
_atom_site_label
_atom_site_fract_x
_atom_site_fract_y
_atom_site_fract_z
Si Si1 0.942503 0.267084 0.124833
Si Si2 0.017546 0.122912 0.278869
Si Si3 0.594365 0.792157 0.608262
Si Si4 0.384310 0.688862 0.418691
Si Si5 0.787978 0.187569 0.393394
Si Si6 0.196571 0.254205 0.100479
Si Si7 0.554323 0.955512 0.852320
Si Si8 0.776886 0.426320 0.302462
O O1 0.048940 0.309655 0.222734
O O2 0.014741 0.324765 0.394352
O O3 0.000000 0.500000 0.000000
O O4 0.723735 0.931304 0.908404
O O5 0.208728 0.354262 0.391715
O O6 0.000000 0.000000 0.500000
O O7 0.845291 0.874544 0.017674
O O8 0.512375 0.816168 0.454141
O O9 0.389441 0.456277 0.418109
O O10 0.743286 0.022421 0.585578
O O11 0.311622 0.733835 0.164031
O O12 0.508548 0.860398 0.678851
O O13 0.726931 0.239942 0.272993
O O14 0.000000 0.500000 0.500000
O O15 0.651390 0.977707 0.152844
O O16 0.231819 0.451456 0.931184
O O17 0.000000 0.000000 0.000000
O O18 0.365362 0.744654 0.716466
#
# Coordination Sequence:
#
# PCOD9056831 Si02
#       8
#     2   2   2   2   2   2   2   2
#     4  12  26  46  76 116 152 191 248 328 387 436
#     4  12  26  49  76 107 152 209 254 297 374 470
#     4  12  26  46  73 112 155 192 246 323 386 434
#     4  11  23  40  74 107 141 196 255 308 369 458
#     4  12  27  40  67 111 155 188 240 321 396 434
#     4  12  26  48  76 107 147 209 266 301 360 468
#     4  11  22  40  71 108 138 193 257 311 376 453
#     4  12  23  47  74 105 154 197 253 316 376 456
#
# _framework density 24.632027999999998
#
# number of rings (size 3 to 8) (size 9 to 14) (size 15 to 20)
#    0.000    0.250    7.500    1.125    5.250    0.500 
#    0.000    2.500    0.000    0.000    0.000    0.000 
#    0.000    0.000    0.000    0.000    0.000    0.000 
#
# Total GULP energy -89299.017664 kJ/mol
# GULP energy per Si atom -5581.188604 kJ/mol
# Density = 2.457596 g / cm^3
# Si number density = 24.632028 Si / 1000 Ang^3
#
#
#
# Elastic Constant Matrix: (Units=GPa)
#
#
# Indices 1 2 3 4 5 6 
#
# 1 97.4273 27.3671 16.2111 -4.6234 -16.4365 5.9999
# 2 27.3671 86.6370 24.4512 2.6924 -0.7947 27.0465
# 3 16.2111 24.4512 139.0777 20.3347 -36.3880 -2.0441
# 4 -4.6234 2.6924 20.3347 40.2294 -8.2744 -1.1146
# 5 -16.4365 -0.7947 -36.3880 -8.2744 43.0159 4.5451
# 6 5.9999 27.0465 -2.0441 -1.1146 4.5451 37.7923
#
#
#
# Elastic Compliance Matrix: (Units=1/GPa)
#
#
# Indices 1 2 3 4 5 6 
#
# 1 0.012394 -0.004187 0.000319 0.002665 0.005391 0.000477
# 2 -0.004187 0.017484 -0.003448 -0.000876 -0.003127 -0.011684
# 3 0.000319 -0.003448 0.010355 -0.003271 0.007986 0.001920
# 4 0.002665 -0.000876 -0.003271 0.027607 0.003501 0.000420
# 5 0.005391 -0.003127 0.007986 0.003501 0.032893 -0.002038
# 6 0.000477 -0.011684 0.001920 0.000420 -0.002038 0.035108
#
#
# Mechanical properties :
#
#
# Convention : Reuss Voigt Hill
#
# Bulk Modulus (GPa) = 39.06016 51.02231 45.04124
# Shear Modulus (GPa) = 31.44510 41.21504 36.33007
#
# Velocity S-wave (km/s) = 3.57682 4.09495 3.84462
# Velocity P-wave (km/s) = 5.74022 6.56635 6.16713
#
# Compressibility (1/GPa) = 0.02560153
#
# Stress axis : x y z
#
# Youngs Moduli (GPa) = 80.68623 57.19429 96.57154
#
# Poissons Ratio (x) = 0.23948 -0.03083
# Poissons Ratio (y) = 0.33785 0.33296
# Poissons Ratio (z) = -0.02576 0.19719
#
# Static dielectric constant tensor:
#      x y z
#    x 1.997570 -0.002380 0.019950 
#    y -0.002380 2.014100 0.071310 
#    z 0.019950 0.071310 2.029320 
# 
# From -- ./inp_files/357398.got.cif
#   From: 2010.05.17/outbox.cif.g08.bks.cpg/sg2_179_cif.got.tgz:357398.got - 2010.06.03 11:33:40.
