data_PCOD9056550
_publ_section_title
;
Structure prediction by ZEFSAII (Michael W. Deem and Ramdas Pophale) SiO2 
 PCOD9056550
Probable space group: P -1
;
_chemical_formula_sum "Si O2"
_cell_formula_units_Z 16
_cell_length_a 11.881348
_cell_length_b 6.227100
_cell_length_c 9.991367
_cell_angle_alpha 107.691855
_cell_angle_beta 67.731309
_cell_angle_gamma 90.048040
_cell_volume 646.234248
_symmetry_space_group_name_H-M "P -1"
_symmetry_group_IT_number 2
_symmetry_cell_setting 'triclinic'
loop_
_space_group_symop_operation_xyz
x,y,z
-x,-y,-z
loop_
_atom_site_type_symbol
_atom_site_label
_atom_site_fract_x
_atom_site_fract_y
_atom_site_fract_z
Si Si1 0.427489 0.371552 0.898993
Si Si2 0.361062 0.999849 0.284366
Si Si3 0.630584 0.556811 0.497450
Si Si4 0.194182 0.643181 0.991260
Si Si5 0.925226 0.455056 0.692514
Si Si6 0.760408 0.900826 0.911656
Si Si7 0.152496 0.305460 0.728644
Si Si8 0.176517 0.830994 0.537796
O O1 0.528957 0.187511 0.753165
O O2 0.339805 0.560709 0.895027
O O3 0.500000 0.500000 0.000000
O O4 0.327438 0.226865 0.980925
O O5 0.244067 0.955573 0.413937
O O6 0.389047 0.255251 0.341369
O O7 0.327196 0.979108 0.141490
O O8 0.500000 0.500000 0.500000
O O9 0.707475 0.677989 0.374809
O O10 0.720632 0.337960 0.464406
O O11 0.132630 0.460219 0.898267
O O12 0.147242 0.637783 0.164696
O O13 0.176277 0.905343 0.006069
O O14 0.859455 0.712672 0.762566
O O15 0.909438 0.313722 0.538228
O O16 0.063506 0.424463 0.676534
O O17 0.126124 0.044027 0.694728
#
# Coordination Sequence:
#
# PCOD9056550 Si02
#       8
#     2   2   2   2   2   2   2   2
#     4  11  23  35  64 100 134 174 223 277 332 401
#     4  11  22  40  65  97 130 177 224 274 336 396
#     4  11  28  43  67  98 137 177 221 278 339 408
#     4  11  25  42  66 102 136 174 226 281 343 399
#     4  11  23  47  72  98 133 176 235 285 329 399
#     4  11  22  39  67  99 133 174 228 280 333 395
#     4  11  28  44  68 101 137 183 222 279 346 395
#     4  11  24  46  70  98 132 177 230 279 335 399
#
# _framework density 24.758821000000001
#
# number of rings (size 3 to 8) (size 9 to 14) (size 15 to 20)
#    0.000    1.000    3.750    1.875    5.250    4.000 
#    0.000    0.000    0.000    0.000    0.000    0.000 
#    0.000    0.000    0.000    0.000    0.000    0.000 
#
# Total GULP energy -89506.326566 kJ/mol
# GULP energy per Si atom -5594.145410 kJ/mol
# Density = 2.470247 g / cm^3
# Si number density = 24.758821 Si / 1000 Ang^3
#
#
#
# Elastic Constant Matrix: (Units=GPa)
#
#
# Indices 1 2 3 4 5 6 
#
# 1 130.6506 16.9834 38.5270 31.8644 8.0098 -3.3868
# 2 16.9834 80.3850 40.0982 40.9780 11.4080 1.6352
# 3 38.5270 40.0982 106.5914 45.9990 23.5115 15.3242
# 4 31.8644 40.9780 45.9990 48.8401 11.0417 2.0786
# 5 8.0098 11.4080 23.5115 11.0417 43.3177 -0.7235
# 6 -3.3868 1.6352 15.3242 2.0786 -0.7235 17.0921
#
#
#
# Elastic Compliance Matrix: (Units=1/GPa)
#
#
# Indices 1 2 3 4 5 6 
#
# 1 0.009681 0.002115 -0.002479 -0.006099 0.000632 0.004707
# 2 0.002115 0.022260 -0.000929 -0.019044 -0.000871 0.001402
# 3 -0.002479 -0.000929 0.021512 -0.015432 -0.007342 -0.018123
# 4 -0.006099 -0.019044 -0.015432 0.054458 0.000769 0.007859
# 5 0.000632 -0.000871 -0.007342 0.000769 0.027118 0.007845
# 6 0.004707 0.001402 -0.018123 0.007859 0.007845 0.074930
#
#
# Mechanical properties :
#
#
# Convention : Reuss Voigt Hill
#
# Bulk Modulus (GPa) = 19.65944 56.53825 38.09884
# Shear Modulus (GPa) = 21.78644 36.65121 29.21883
#
# Velocity S-wave (km/s) = 2.96961 3.85168 3.43904
# Velocity P-wave (km/s) = 4.44024 6.53190 5.58487
#
# Compressibility (1/GPa) = 0.05086614
#
# Stress axis : x y z
#
# Youngs Moduli (GPa) = 103.29751 44.92358 46.48608
#
# Poissons Ratio (x) = -0.09501 0.11522
# Poissons Ratio (y) = -0.21846 0.04321
# Poissons Ratio (z) = 0.25603 0.04175
#
# Static dielectric constant tensor:
#      x y z
#    x 1.948060 0.010840 0.019260 
#    y 0.010840 2.021990 0.021600 
#    z 0.019260 0.021600 2.014540 
# 
# From -- ./inp_files/84984.got.cif
#   From: 2010.05.17/outbox.cif.g08.bks.cpg/sg2_43_cif.got.tgz:84984.got - 2010.06.03 11:33:40.
