data_PCOD9056948
_publ_section_title
;
Structure prediction by ZEFSAII (Michael W. Deem and Ramdas Pophale) SiO2 
 PCOD9056948
Probable space group: P -1
;
_chemical_formula_sum "Si O2"
_cell_formula_units_Z 14
_cell_length_a 10.811468
_cell_length_b 14.052247
_cell_length_c 18.807446
_cell_angle_alpha 158.869411
_cell_angle_beta 146.380842
_cell_angle_gamma 32.733231
_cell_volume 539.755501
_symmetry_space_group_name_H-M "P -1"
_symmetry_group_IT_number 2
_symmetry_cell_setting 'triclinic'
loop_
_space_group_symop_operation_xyz
x,y,z
-x,-y,-z
loop_
_atom_site_type_symbol
_atom_site_label
_atom_site_fract_x
_atom_site_fract_y
_atom_site_fract_z
Si Si1 0.954380 0.182778 0.035851
Si Si2 0.601185 0.143630 0.585157
Si Si3 0.853996 0.959422 0.187968
Si Si4 0.536159 0.830052 0.193052
Si Si5 0.194985 0.651943 0.687913
Si Si6 0.609082 0.199748 0.377752
Si Si7 0.939253 0.473893 0.783256
O O1 0.670337 0.298188 0.980853
O O2 0.064814 0.951184 0.868130
O O3 0.052450 0.421979 0.222138
O O4 0.000000 0.000000 0.000000
O O5 0.428535 0.457109 0.703382
O O6 0.868733 0.117111 0.713816
O O7 0.500000 0.000000 0.500000
O O8 0.587633 0.971131 0.387650
O O9 0.771365 0.254415 0.310823
O O10 0.714000 0.996893 0.220612
O O11 0.820509 0.716155 0.951997
O O12 0.782493 0.637220 0.144645
O O13 0.449829 0.075399 0.263797
O O14 0.000000 0.500000 0.500000
O O15 0.500000 0.500000 0.500000
O O16 0.807653 0.247675 0.558324
#
# Coordination Sequence:
#
# PCOD9056948 Si02
#       7
#     2   2   2   2   2   2   2
#     4  11  25  41  70 105 143 183 233 305 359 408
#     4  12  23  40  74 102 140 192 232 296 366 413
#     4  11  26  47  70 103 145 190 236 299 363 415
#     4  12  25  46  71 107 143 189 244 289 356 442
#     4  11  22  41  66 103 139 181 244 289 350 435
#     4  12  27  49  77  99 146 198 233 294 365 429
#     4  11  26  47  70 107 145 178 249 296 348 441
#
# _framework density 25.937667999999999
#
# number of rings (size 3 to 8) (size 9 to 14) (size 15 to 20)
#    0.000    0.571    4.286    3.429    6.000    1.143 
#    0.000    0.000    0.000    0.000    0.000    0.000 
#    0.000    0.000    0.000    0.000    0.000    0.000 
#
# Total GULP energy -78409.700845 kJ/mol
# GULP energy per Si atom -5600.692918 kJ/mol
# Density = 2.587863 g / cm^3
# Si number density = 25.937668 Si / 1000 Ang^3
#
#
#
# Elastic Constant Matrix: (Units=GPa)
#
#
# Indices 1 2 3 4 5 6 
#
# 1 153.9863 14.5360 53.1956 -4.4739 -1.9251 18.8615
# 2 14.5360 147.8362 -1.2415 4.6159 13.7559 7.0632
# 3 53.1956 -1.2415 55.5123 -6.7371 14.9986 -9.5093
# 4 -4.4739 4.6159 -6.7371 31.8534 -6.4595 -1.8222
# 5 -1.9251 13.7559 14.9986 -6.4595 41.0978 0.9899
# 6 18.8615 7.0632 -9.5093 -1.8222 0.9899 42.2832
#
#
#
# Elastic Compliance Matrix: (Units=1/GPa)
#
#
# Indices 1 2 3 4 5 6 
#
# 1 0.013908 -0.001736 -0.017206 -0.000447 0.007682 -0.009983
# 2 -0.001736 0.007346 0.002693 -0.001491 -0.003762 0.000177
# 3 -0.017206 0.002693 0.042607 0.003733 -0.017089 0.017368
# 4 -0.000447 -0.001491 0.003733 0.033358 0.004296 0.002625
# 5 0.007682 -0.003762 -0.017089 0.004296 0.033037 -0.007230
# 6 -0.009983 0.000177 0.017368 0.002625 -0.007230 0.032262
#
#
# Mechanical properties :
#
#
# Convention : Reuss Voigt Hill
#
# Bulk Modulus (GPa) = 31.88388 54.47945 43.18167
# Shear Modulus (GPa) = 24.33458 42.43652 33.38555
#
# Velocity S-wave (km/s) = 3.06632 4.04926 3.59157
# Velocity P-wave (km/s) = 4.98554 6.55069 5.82096
#
# Compressibility (1/GPa) = 0.03136381
#
# Stress axis : x y z
#
# Youngs Moduli (GPa) = 71.90303 136.13481 23.47008
#
# Poissons Ratio (x) = 0.23631 0.40382
# Poissons Ratio (y) = 0.12481 -0.06321
# Poissons Ratio (z) = 1.23716 -0.36665
#
# Static dielectric constant tensor:
#      x y z
#    x 1.968080 0.134190 0.020760 
#    y 0.134190 2.288230 0.020480 
#    z 0.020760 0.020480 2.005350 
# 
# From -- ./inp_files/466510.got.cif
#   From: 2010.05.17/outbox.cif.g08.bks.cpg/sg2_234_cif.got.tgz:466510.got - 2010.06.03 11:33:40.
