data_PCOD9056557
_publ_section_title
;
Structure prediction by ZEFSAII (Michael W. Deem and Ramdas Pophale) SiO2 
 PCOD9056557
Probable space group: P -1
;
_chemical_formula_sum "Si O2"
_cell_formula_units_Z 16
_cell_length_a 8.230156
_cell_length_b 15.280452
_cell_length_c 11.528525
_cell_angle_alpha 131.118885
_cell_angle_beta 140.959507
_cell_angle_gamma 66.342947
_cell_volume 669.386778
_symmetry_space_group_name_H-M "P -1"
_symmetry_group_IT_number 2
_symmetry_cell_setting 'triclinic'
loop_
_space_group_symop_operation_xyz
x,y,z
-x,-y,-z
loop_
_atom_site_type_symbol
_atom_site_label
_atom_site_fract_x
_atom_site_fract_y
_atom_site_fract_z
Si Si1 0.654834 0.504948 0.770535
Si Si2 0.027260 0.772090 0.603657
Si Si3 0.096184 0.391560 0.398447
Si Si4 0.704926 0.608171 0.146325
Si Si5 0.094379 0.699201 0.169978
Si Si6 0.148532 0.903826 0.548443
Si Si7 0.718594 0.037330 0.905388
Si Si8 0.350778 0.780514 0.149903
O O1 0.356300 0.453947 0.527690
O O2 0.769499 0.390771 0.762828
O O3 0.667551 0.570471 0.960482
O O4 0.844189 0.608375 0.893663
O O5 0.083390 0.873008 0.619615
O O6 0.843400 0.697286 0.543520
O O7 0.999973 0.651178 0.401824
O O8 0.233894 0.853032 0.880480
O O9 0.000000 0.500000 0.500000
O O10 0.873878 0.314049 0.126211
O O11 0.609893 0.728899 0.231027
O O12 0.500000 0.500000 0.000000
O O13 0.027667 0.789703 0.303419
O O14 0.274617 0.772361 0.234230
O O15 0.466527 0.940101 0.730001
O O16 0.000000 0.000000 0.500000
O O17 0.630921 0.091869 0.785653
O O18 0.000000 0.000000 0.000000
#
# Coordination Sequence:
#
# PCOD9056557 Si02
#       8
#     2   2   2   2   2   2   2   2
#     4  11  23  41  66 104 142 175 223 281 351 420
#     4  11  24  44  70  98 139 182 230 284 351 412
#     4  11  22  39  68 101 138 180 218 267 343 427
#     4  12  19  39  72 100 138 182 227 274 353 430
#     4  11  26  42  69 101 137 177 230 289 344 411
#     4  12  28  49  74 100 135 189 244 292 345 412
#     4  11  29  48  69 100 138 183 241 299 350 399
#     4  11  24  41  64 101 135 182 231 281 345 416
#
# _framework density 23.902474000000002
#
# number of rings (size 3 to 8) (size 9 to 14) (size 15 to 20)
#    0.000    0.750    5.000    1.125    7.000    1.000 
#    2.250    0.000    0.000    0.000    0.000    0.000 
#    0.000    0.000    0.000    0.000    0.000    0.000 
#
# Total GULP energy -89096.839346 kJ/mol
# GULP energy per Si atom -5568.552459 kJ/mol
# Density = 2.384807 g / cm^3
# Si number density = 23.902474 Si / 1000 Ang^3
#
#
#
# Elastic Constant Matrix: (Units=GPa)
#
#
# Indices 1 2 3 4 5 6 
#
# 1 69.9088 38.0053 10.5678 -16.7580 10.5928 12.1231
# 2 38.0053 101.8822 5.1585 5.0851 9.5253 10.2432
# 3 10.5678 5.1585 94.2259 14.7764 13.1796 9.8639
# 4 -16.7580 5.0851 14.7764 24.8196 8.8199 -1.1569
# 5 10.5928 9.5253 13.1796 8.8199 55.5381 -2.0832
# 6 12.1231 10.2432 9.8639 -1.1569 -2.0832 27.7890
#
#
#
# Elastic Compliance Matrix: (Units=1/GPa)
#
#
# Indices 1 2 3 4 5 6 
#
# 1 0.030088 -0.011018 -0.005486 0.028114 -0.007255 -0.006491
# 2 -0.011018 0.014515 0.002431 -0.012272 0.000915 -0.001849
# 3 -0.005486 0.002431 0.013516 -0.012147 -0.000794 -0.003866
# 4 0.028114 -0.012272 -0.012147 0.073243 -0.012055 -0.001284
# 5 -0.007255 0.000915 -0.000794 -0.012055 0.021494 0.004219
# 6 -0.006491 -0.001849 -0.003866 -0.001284 0.004219 0.041134
#
#
# Mechanical properties :
#
#
# Convention : Reuss Voigt Hill
#
# Bulk Modulus (GPa) = 33.36362 41.49780 37.43071
# Shear Modulus (GPa) = 21.54008 35.78168 28.66088
#
# Velocity S-wave (km/s) = 3.00520 3.87329 3.46652
# Velocity P-wave (km/s) = 5.10198 6.11573 5.63171
#
# Compressibility (1/GPa) = 0.02997277
#
# Stress axis : x y z
#
# Youngs Moduli (GPa) = 33.23600 68.89319 73.98910
#
# Poissons Ratio (x) = 0.75908 0.40589
# Poissons Ratio (y) = 0.36620 -0.17988
# Poissons Ratio (z) = 0.18233 -0.16749
#
# Static dielectric constant tensor:
#      x y z
#    x 2.111440 -0.160470 0.307680 
#    y -0.160470 2.190920 -0.321560 
#    z 0.307680 -0.321560 2.343720 
# 
# From -- ./inp_files/399721.got.cif
#   From: 2010.05.17/outbox.cif.g08.bks.cpg/sg2_200_cif.got.tgz:399721.got - 2010.06.03 11:33:40.
