data_PCOD9056706
_publ_section_title
;
Structure prediction by ZEFSAII (Michael W. Deem and Ramdas Pophale) SiO2 
 PCOD9056706
Probable space group: P -1
;
_chemical_formula_sum "Si O2"
_cell_formula_units_Z 14
_cell_length_a 12.579558
_cell_length_b 27.722197
_cell_length_c 11.936788
_cell_angle_alpha 21.222464
_cell_angle_beta 139.746590
_cell_angle_gamma 151.987472
_cell_volume 662.535870
_symmetry_space_group_name_H-M "P -1"
_symmetry_group_IT_number 2
_symmetry_cell_setting 'triclinic'
loop_
_space_group_symop_operation_xyz
x,y,z
-x,-y,-z
loop_
_atom_site_type_symbol
_atom_site_label
_atom_site_fract_x
_atom_site_fract_y
_atom_site_fract_z
Si Si1 0.314910 0.792186 0.865421
Si Si2 0.668031 0.013959 0.959000
Si Si3 0.978723 0.846433 0.871771
Si Si4 0.154952 0.582866 0.834888
Si Si5 0.863890 0.281090 0.876231
Si Si6 0.274118 0.155972 0.835111
Si Si7 0.490329 0.541252 0.269745
O O1 0.500000 0.000000 0.500000
O O2 0.236404 0.806363 0.890945
O O3 0.496053 0.774684 0.065443
O O4 0.053120 0.597448 0.025782
O O5 0.756861 0.216210 0.561278
O O6 0.788685 0.039882 0.112980
O O7 0.384124 0.849850 0.105941
O O8 0.728536 0.938980 0.073081
O O9 0.761799 0.705922 0.088282
O O10 0.000000 0.000000 0.500000
O O11 0.969195 0.731771 0.014715
O O12 0.369233 0.610592 0.986833
O O13 0.000000 0.500000 0.000000
O O14 0.000000 0.500000 0.500000
O O15 0.350512 0.354786 0.479283
O O16 0.000000 0.000000 0.000000
O O17 0.500000 0.500000 0.500000
#
# Coordination Sequence:
#
# PCOD9056706 Si02
#       7
#     2   2   2   2   2   2   2
#     4  11  24  42  68 101 134 177 229 276 333 408
#     4  11  24  44  67  97 135 181 226 272 338 416
#     4  12  26  44  67 100 137 174 221 284 341 397
#     4  12  23  42  71 101 134 179 227 280 338 406
#     4  11  24  45  68  94 133 181 223 272 336 411
#     4  11  22  40  67 100 136 173 220 284 339 392
#     4  12  26  45  69 101 136 175 226 284 341 400
#
# _framework density 21.130932000000001
#
# number of rings (size 3 to 8) (size 9 to 14) (size 15 to 20)
#    0.000    0.571    0.000   10.714    0.000    4.571 
#    0.000    2.143    0.000    0.000    0.000    0.000 
#    0.000    0.000    0.000    0.000    0.000    0.000 
#
# Total GULP energy -78066.893177 kJ/mol
# GULP energy per Si atom -5576.206655 kJ/mol
# Density = 2.108284 g / cm^3
# Si number density = 21.130932 Si / 1000 Ang^3
#
#
#
# Elastic Constant Matrix: (Units=GPa)
#
#
# Indices 1 2 3 4 5 6 
#
# 1 141.5273 33.3419 53.2970 7.9789 3.6686 8.5580
# 2 33.3419 115.9280 34.2272 -5.9062 -3.2599 -3.1909
# 3 53.2970 34.2272 157.6143 -2.4363 3.0571 -15.6538
# 4 7.9789 -5.9062 -2.4363 39.0469 6.2940 -2.0616
# 5 3.6686 -3.2599 3.0571 6.2940 41.6157 -6.2129
# 6 8.5580 -3.1909 -15.6538 -2.0616 -6.2129 25.8910
#
#
#
# Elastic Compliance Matrix: (Units=1/GPa)
#
#
# Indices 1 2 3 4 5 6 
#
# 1 0.009313 -0.002027 -0.003302 -0.002526 -0.001224 -0.005819
# 2 -0.002027 0.009742 -0.001276 0.001726 0.000995 0.001475
# 3 -0.003302 -0.001276 0.008365 0.001280 0.000304 0.006166
# 4 -0.002526 0.001726 0.001280 0.027179 -0.003373 0.003176
# 5 -0.001224 0.000995 0.000304 -0.003373 0.025689 0.006607
# 6 -0.005819 0.001475 0.006166 0.003176 0.006607 0.046295
#
#
# Mechanical properties :
#
#
# Convention : Reuss Voigt Hill
#
# Bulk Modulus (GPa) = 70.37754 72.97797 71.67776
# Shear Modulus (GPa) = 34.59486 40.92430 37.75958
#
# Velocity S-wave (km/s) = 4.05058 4.40557 4.23180
# Velocity P-wave (km/s) = 7.43331 7.77752 7.60736
#
# Compressibility (1/GPa) = 0.01420908
#
# Stress axis : x y z
#
# Youngs Moduli (GPa) = 107.37871 102.64523 119.54909
#
# Poissons Ratio (x) = 0.20804 0.39478
# Poissons Ratio (y) = 0.21763 0.15259
# Poissons Ratio (z) = 0.35459 0.13102
#
# Static dielectric constant tensor:
#      x y z
#    x 1.759750 -0.007220 0.007300 
#    y -0.007220 1.533790 0.025940 
#    z 0.007300 0.025940 1.734900 
# 
# From -- ./inp_files/439520.got.cif
#   From: 2010.05.17/outbox.cif.g08.bks.cpg/sg2_220_cif.got.tgz:439520.got - 2010.06.03 11:33:40.
