data_PCOD9056829
_publ_section_title
;
Structure prediction by ZEFSAII (Michael W. Deem and Ramdas Pophale) SiO2 
 PCOD9056829
Probable space group: P -1
;
_chemical_formula_sum "Si O2"
_cell_formula_units_Z 12
_cell_length_a 7.223304
_cell_length_b 11.669045
_cell_length_c 11.708374
_cell_angle_alpha 119.526502
_cell_angle_beta 120.651129
_cell_angle_gamma 108.540098
_cell_volume 479.769356
_symmetry_space_group_name_H-M "P -1"
_symmetry_group_IT_number 2
_symmetry_cell_setting 'triclinic'
loop_
_space_group_symop_operation_xyz
x,y,z
-x,-y,-z
loop_
_atom_site_type_symbol
_atom_site_label
_atom_site_fract_x
_atom_site_fract_y
_atom_site_fract_z
Si Si1 0.204851 0.353299 0.427537
Si Si2 0.267251 0.120339 0.480284
Si Si3 0.618335 0.749208 0.839423
Si Si4 0.347680 0.027236 0.238115
Si Si5 0.612509 0.183494 0.007284
Si Si6 0.554291 0.680131 0.128691
O O1 0.500000 0.500000 0.500000
O O2 0.207285 0.220131 0.431377
O O3 0.294405 0.509125 0.622585
O O4 0.888679 0.242970 0.199880
O O5 0.432460 0.095506 0.429414
O O6 0.460521 0.269780 0.722877
O O7 0.924683 0.894905 0.306846
O O8 0.614658 0.826311 0.757248
O O9 0.612284 0.855664 0.986358
O O10 0.948997 0.818585 0.999849
O O11 0.520973 0.987058 0.208070
O O12 0.703084 0.351726 0.041505
O O13 0.500000 0.500000 0.000000
#
# Coordination Sequence:
#
# PCOD9056829 Si02
#       6
#     2   2   2   2   2   2
#     4  12  23  44  74 113 146 184 246 307 363 425
#     4  11  25  48  75 104 152 191 237 306 360 432
#     4  11  22  41  67 110 153 181 233 304 364 429
#     4  11  22  40  71 106 146 184 236 306 358 427
#     4  12  25  42  76 107 140 199 242 297 371 429
#     4  11  27  51  75 103 148 198 246 295 359 441
#
# _framework density 25.01202
#
# number of rings (size 3 to 8) (size 9 to 14) (size 15 to 20)
#    0.000    0.667    5.000    3.000    2.333    0.667 
#    3.000    3.333    0.000    0.000    0.000    0.000 
#    0.000    0.000    0.000    0.000    0.000    0.000 
#
# Total GULP energy -67101.372163 kJ/mol
# GULP energy per Si atom -5591.781014 kJ/mol
# Density = 2.495509 g / cm^3
# Si number density = 25.012020 Si / 1000 Ang^3
#
#
#
# Elastic Constant Matrix: (Units=GPa)
#
#
# Indices 1 2 3 4 5 6 
#
# 1 96.4910 24.4702 34.4172 -10.9328 -49.6831 17.4032
# 2 24.4702 134.7522 53.0876 -13.5002 -27.2447 -11.2813
# 3 34.4172 53.0876 96.0988 1.7493 -48.0399 1.0842
# 4 -10.9328 -13.5002 1.7493 41.0799 3.1350 -15.5324
# 5 -49.6831 -27.2447 -48.0399 3.1350 48.7573 -7.5655
# 6 17.4032 -11.2813 1.0842 -15.5324 -7.5655 45.4016
#
#
#
# Elastic Compliance Matrix: (Units=1/GPa)
#
#
# Indices 1 2 3 4 5 6 
#
# 1 0.025318 -0.001310 0.007500 0.001960 0.031669 -0.004262
# 2 -0.001310 0.010870 -0.006120 0.005470 -0.000854 0.005078
# 3 0.007500 -0.006120 0.026250 -0.003943 0.030130 -0.001350
# 4 0.001960 0.005470 -0.003943 0.031106 0.000953 0.011503
# 5 0.031669 -0.000854 0.030130 0.000953 0.082073 0.000932
# 6 -0.004262 0.005078 -0.001350 0.011503 0.000932 0.029044
#
#
# Mechanical properties :
#
#
# Convention : Reuss Voigt Hill
#
# Bulk Modulus (GPa) = 15.97993 61.25466 38.61729
# Shear Modulus (GPa) = 22.18488 41.40555 31.79521
#
# Velocity S-wave (km/s) = 2.98143 4.07311 3.56925
# Velocity P-wave (km/s) = 4.27255 6.83107 5.69729
#
# Compressibility (1/GPa) = 0.06257851
#
# Stress axis : x y z
#
# Youngs Moduli (GPa) = 39.49821 91.99414 38.09568
#
# Poissons Ratio (x) = 0.12048 -0.28571
# Poissons Ratio (y) = 0.05173 0.23313
# Poissons Ratio (z) = -0.29623 0.56297
#
# Static dielectric constant tensor:
#      x y z
#    x 2.053690 0.027200 -0.056710 
#    y 0.027200 1.980660 0.029170 
#    z -0.056710 0.029170 2.090270 
# 
# From -- ./inp_files/385654.got.cif
#   From: 2010.05.17/outbox.cif.g08.bks.cpg/sg2_193_cif.got.tgz:385654.got - 2010.06.03 11:33:40.
