data_PCOD9056538
_publ_section_title
;
Structure prediction by ZEFSAII (Michael W. Deem and Ramdas Pophale) SiO2 
 PCOD9056538
Probable space group: P -1
;
_chemical_formula_sum "Si O2"
_cell_formula_units_Z 16
_cell_length_a 8.409853
_cell_length_b 8.047754
_cell_length_c 21.063382
_cell_angle_alpha 103.297699
_cell_angle_beta 148.332271
_cell_angle_gamma 81.140253
_cell_volume 725.915884
_symmetry_space_group_name_H-M "P -1"
_symmetry_group_IT_number 2
_symmetry_cell_setting 'triclinic'
loop_
_space_group_symop_operation_xyz
x,y,z
-x,-y,-z
loop_
_atom_site_type_symbol
_atom_site_label
_atom_site_fract_x
_atom_site_fract_y
_atom_site_fract_z
Si Si1 0.328657 0.695069 0.791345
Si Si2 0.615226 0.695864 0.539381
Si Si3 0.658049 0.048821 0.899897
Si Si4 0.670667 0.400485 0.362408
Si Si5 0.731369 0.327506 0.705090
Si Si6 0.208757 0.851077 0.514663
Si Si7 0.593049 0.600260 0.105450
Si Si8 0.427557 0.145748 0.694376
O O1 0.372597 0.630098 0.728887
O O2 0.421903 0.548056 0.858417
O O3 0.969877 0.715766 0.675806
O O4 0.496791 0.886369 0.869092
O O5 0.500000 0.500000 0.500000
O O6 0.518852 0.732980 0.438287
O O7 0.432747 0.815158 0.531920
O O8 0.595451 0.234641 0.926315
O O9 0.527397 0.060920 0.785020
O O10 0.000000 0.000000 0.000000
O O11 0.385000 0.489692 0.300608
O O12 0.678124 0.230703 0.390076
O O13 0.000000 0.500000 0.500000
O O14 0.704973 0.238354 0.757642
O O15 0.055925 0.330471 0.782244
O O16 0.873178 0.765823 0.376696
O O17 0.258234 0.047357 0.568566
O O18 0.500000 0.500000 0.000000
#
# Coordination Sequence:
#
# PCOD9056538 Si02
#       8
#     2   2   2   2   2   2   2   2
#     4  12  26  49  79 109 153 196 249 310 373 451
#     4  12  22  40  69 114 151 191 231 297 376 456
#     4  12  31  53  78 105 143 200 265 315 371 440
#     4  12  20  40  71 109 146 192 238 289 372 453
#     4  12  25  42  73 104 151 190 240 301 369 448
#     4  11  22  39  67 104 149 184 229 285 371 443
#     4  12  31  53  76 108 147 199 257 315 379 438
#     4  11  25  44  67 104 142 186 239 299 358 444
#
# _framework density 22.041122999999999
#
# number of rings (size 3 to 8) (size 9 to 14) (size 15 to 20)
#    0.000    0.250    6.250    1.500    7.000    2.500 
#    0.000    0.000    0.000    0.000    0.000    0.000 
#    0.000    0.000    0.000    0.000    0.000    0.000 
#
# Total GULP energy -89216.032742 kJ/mol
# GULP energy per Si atom -5576.002046 kJ/mol
# Density = 2.199096 g / cm^3
# Si number density = 22.041123 Si / 1000 Ang^3
#
#
#
# Elastic Constant Matrix: (Units=GPa)
#
#
# Indices 1 2 3 4 5 6 
#
# 1 132.3644 63.3102 35.1284 -18.9064 -1.4365 -1.8440
# 2 63.3102 108.8454 72.1794 -7.0596 6.8750 -8.0938
# 3 35.1284 72.1794 183.1283 -16.7179 5.6832 -26.5765
# 4 -18.9064 -7.0596 -16.7179 28.2245 -0.2667 2.1398
# 5 -1.4365 6.8750 5.6832 -0.2667 47.7675 -3.5236
# 6 -1.8440 -8.0938 -26.5765 2.1398 -3.5236 45.9973
#
#
#
# Elastic Compliance Matrix: (Units=1/GPa)
#
#
# Indices 1 2 3 4 5 6 
#
# 1 0.011671 -0.007204 0.001121 0.006720 0.001265 -0.000368
# 2 -0.007204 0.016982 -0.005688 -0.003923 -0.002047 -0.000561
# 3 0.001121 -0.005688 0.008389 0.004017 0.000151 0.003716
# 4 0.006720 -0.003923 0.004017 0.041334 0.000521 0.000017
# 5 0.001265 -0.002047 0.000151 0.000521 0.021355 0.001389
# 6 -0.000368 -0.000561 0.003716 0.000017 0.001389 0.023879
#
#
# Mechanical properties :
#
#
# Convention : Reuss Voigt Hill
#
# Bulk Modulus (GPa) = 74.06216 85.06379 79.56297
# Shear Modulus (GPa) = 32.97054 41.31252 37.14153
#
# Velocity S-wave (km/s) = 3.87184 4.33406 4.10945
# Velocity P-wave (km/s) = 7.32550 7.98263 7.66111
#
# Compressibility (1/GPa) = 0.01350217
#
# Stress axis : x y z
#
# Youngs Moduli (GPa) = 85.68023 58.88524 119.20936
#
# Poissons Ratio (x) = 0.42418 -0.13368
# Poissons Ratio (y) = 0.61720 0.67803
# Poissons Ratio (z) = -0.09608 0.33492
#
# Static dielectric constant tensor:
#      x y z
#    x 1.851140 -0.006350 0.011120 
#    y -0.006350 2.096330 0.068420 
#    z 0.011120 0.068420 1.794540 
# 
# From -- ./inp_files/588004.got.cif
#   From: 2010.05.17/outbox.cif.g08.bks.cpg/sg2_295_cif.got.tgz:588004.got - 2010.06.03 11:33:40.
