data_PCOD9056062
_publ_section_title
;
Structure prediction by ZEFSAII (Michael W. Deem and Ramdas Pophale) SiO2 
 PCOD9056062
Probable space group: P -1
;
_chemical_formula_sum "Si O2"
_cell_formula_units_Z 16
_cell_length_a 7.331104
_cell_length_b 16.808666
_cell_length_c 11.178693
_cell_angle_alpha 31.519223
_cell_angle_beta 67.072005
_cell_angle_gamma 72.860983
_cell_volume 661.240025
_symmetry_space_group_name_H-M "P -1"
_symmetry_group_IT_number 2
_symmetry_cell_setting 'triclinic'
loop_
_space_group_symop_operation_xyz
x,y,z
-x,-y,-z
loop_
_atom_site_type_symbol
_atom_site_label
_atom_site_fract_x
_atom_site_fract_y
_atom_site_fract_z
Si Si1 0.974062 0.954395 0.925697
Si Si2 0.572060 0.416700 0.379179
Si Si3 0.967194 0.498301 0.794938
Si Si4 0.339055 0.887984 0.351658
Si Si5 0.308963 0.357470 0.133520
Si Si6 0.597154 0.948571 0.415694
Si Si7 0.988834 0.182505 0.285616
Si Si8 0.158386 0.389417 0.560585
O O1 0.791091 0.032890 0.813393
O O2 0.912984 0.776555 0.164908
O O3 0.000000 0.000000 0.000000
O O4 0.173647 0.997502 0.741257
O O5 0.543058 0.238691 0.580628
O O6 0.381485 0.443255 0.473175
O O7 0.796412 0.452558 0.322832
O O8 0.556989 0.520379 0.131761
O O9 0.855201 0.553737 0.869751
O O10 0.865844 0.593765 0.597010
O O11 0.944704 0.312080 0.032514
O O12 0.474235 0.993403 0.272513
O O13 0.177603 0.804122 0.588763
O O14 0.416042 0.236665 0.339911
O O15 0.195922 0.247458 0.205474
O O16 0.500000 0.000000 0.500000
O O17 0.000000 0.000000 0.500000
O O18 0.000000 0.500000 0.500000
#
# Coordination Sequence:
#
# PCOD9056062 Si02
#       8
#     2   2   2   2   2   2   2   2
#     4  12  28  54  74 104 158 199 259 310 366 462
#     4  11  23  45  76 108 137 194 250 293 374 450
#     4  11  23  47  75 105 150 189 247 313 371 447
#     4  12  24  43  80 110 142 199 253 305 385 450
#     4  11  21  45  73 110 150 181 237 316 373 449
#     4  12  28  44  75 117 152 192 250 323 389 443
#     4  11  22  39  72 112 149 180 233 316 385 435
#     4  12  31  47  69 103 149 202 246 302 366 452
#
# _framework density 24.196963
#
# number of rings (size 3 to 8) (size 9 to 14) (size 15 to 20)
#    0.000    0.500    3.750    4.500    5.250    4.500 
#    0.000    0.000    0.000    0.000    0.000    0.000 
#    0.000    0.000    0.000    0.000    0.000    0.000 
#
# Total GULP energy -89499.253386 kJ/mol
# GULP energy per Si atom -5593.703337 kJ/mol
# Density = 2.414189 g / cm^3
# Si number density = 24.196963 Si / 1000 Ang^3
#
#
#
# Elastic Constant Matrix: (Units=GPa)
#
#
# Indices 1 2 3 4 5 6 
#
# 1 123.4101 41.6854 52.0442 -0.1076 6.1515 -13.1681
# 2 41.6854 109.2868 45.5426 -7.0743 -13.1878 -20.0386
# 3 52.0442 45.5426 128.6800 -18.7702 5.2234 -10.9033
# 4 -0.1076 -7.0743 -18.7702 30.9352 -4.9188 -0.3761
# 5 6.1515 -13.1878 5.2234 -4.9188 40.8518 7.7847
# 6 -13.1681 -20.0386 -10.9033 -0.3761 7.7847 35.5938
#
#
#
# Elastic Compliance Matrix: (Units=1/GPa)
#
#
# Indices 1 2 3 4 5 6 
#
# 1 0.010937 -0.002876 -0.003598 -0.003236 -0.002871 0.001918
# 2 -0.002876 0.012927 -0.002940 0.001912 0.004378 0.004375
# 3 -0.003598 -0.002940 0.011255 0.005950 -0.001283 0.000805
# 4 -0.003236 0.001912 0.005950 0.037107 0.004605 0.001087
# 5 -0.002871 0.004378 -0.001283 0.004605 0.028009 -0.005067
# 6 0.001918 0.004375 0.000805 0.001087 -0.005067 0.032634
#
#
# Mechanical properties :
#
#
# Convention : Reuss Voigt Hill
#
# Bulk Modulus (GPa) = 61.38782 71.10236 66.24509
# Shear Modulus (GPa) = 31.82108 36.28315 34.05212
#
# Velocity S-wave (km/s) = 3.63035 3.87653 3.75545
# Velocity P-wave (km/s) = 6.55726 7.03458 6.80011
#
# Compressibility (1/GPa) = 0.01628988
#
# Stress axis : x y z
#
# Youngs Moduli (GPa) = 91.43170 77.35826 88.84666
#
# Poissons Ratio (x) = 0.22251 0.31971
# Poissons Ratio (y) = 0.26299 0.26120
# Poissons Ratio (z) = 0.32902 0.22743
#
# Static dielectric constant tensor:
#      x y z
#    x 1.954150 0.007090 0.014420 
#    y 0.007090 1.973250 0.008090 
#    z 0.014420 0.008090 1.922540 
# 
# From -- ./inp_files/402637.got.cif
#   From: 2010.05.17/outbox.cif.g08.bks.cpg/sg2_202_cif.got.tgz:402637.got - 2010.06.03 11:33:40.
