data_PCOD9056928
_publ_section_title
;
Structure prediction by ZEFSAII (Michael W. Deem and Ramdas Pophale) SiO2 
 PCOD9056928
Probable space group: P -1
;
_chemical_formula_sum "Si O2"
_cell_formula_units_Z 12
_cell_length_a 14.880324
_cell_length_b 18.619936
_cell_length_c 13.988424
_cell_angle_alpha 154.318228
_cell_angle_beta 152.227650
_cell_angle_gamma 18.895093
_cell_volume 529.464807
_symmetry_space_group_name_H-M "P -1"
_symmetry_group_IT_number 2
_symmetry_cell_setting 'triclinic'
loop_
_space_group_symop_operation_xyz
x,y,z
-x,-y,-z
loop_
_atom_site_type_symbol
_atom_site_label
_atom_site_fract_x
_atom_site_fract_y
_atom_site_fract_z
Si Si1 0.606075 0.431207 0.868548
Si Si2 0.775331 0.922632 0.926013
Si Si3 0.302992 0.391989 0.173380
Si Si4 0.082253 0.524161 0.504248
Si Si5 0.732393 0.043071 0.811435
Si Si6 0.693650 0.281967 0.553758
O O1 0.358918 0.464112 0.707718
O O2 0.623152 0.401103 0.733941
O O3 0.915357 0.188615 0.906783
O O4 0.526030 0.669281 0.110503
O O5 0.826144 0.698111 0.732152
O O6 0.689187 0.011399 0.842072
O O7 0.544842 0.143098 0.043662
O O8 0.433004 0.333375 0.331583
O O9 0.276817 0.588112 0.336953
O O10 0.000000 0.500000 0.000000
O O11 0.162903 0.193312 0.424683
O O12 0.000000 0.500000 0.500000
O O13 0.000000 0.000000 0.000000
O O14 0.000000 0.000000 0.500000
#
# Coordination Sequence:
#
# PCOD9056928 Si02
#       6
#     2   2   2   2   2   2
#     4  11  22  41  69  91 132 172 212 265 323 394
#     4  11  22  41  65  95 127 172 214 263 333 383
#     4  11  26  43  67  97 134 168 220 277 321 392
#     4   9  22  39  62  95 129 164 214 262 319 384
#     4   9  20  41  61  91 129 164 214 262 317 382
#     4  11  24  44  66  97 128 174 220 267 333 389
#
# _framework density 22.664396
#
# number of rings (size 3 to 8) (size 9 to 14) (size 15 to 20)
#    0.000    1.667    3.333    0.000    2.333    8.667 
#    0.000    3.333    0.000    0.000    0.000    0.000 
#    0.000    0.000    0.000    0.000    0.000    0.000 
#
# Total GULP energy -67032.740348 kJ/mol
# GULP energy per Si atom -5586.061696 kJ/mol
# Density = 2.261281 g / cm^3
# Si number density = 22.664396 Si / 1000 Ang^3
#
#
#
# Elastic Constant Matrix: (Units=GPa)
#
#
# Indices 1 2 3 4 5 6 
#
# 1 47.1756 24.0078 13.2637 -1.5103 9.1212 2.2191
# 2 24.0078 154.4841 50.2189 6.7958 0.6804 -25.0378
# 3 13.2637 50.2189 90.3201 4.3075 11.9295 -6.0168
# 4 -1.5103 6.7958 4.3075 53.7972 -4.0820 -3.8057
# 5 9.1212 0.6804 11.9295 -4.0820 33.7616 -6.1689
# 6 2.2191 -25.0378 -6.0168 -3.8057 -6.1689 27.2986
#
#
#
# Elastic Compliance Matrix: (Units=1/GPa)
#
#
# Indices 1 2 3 4 5 6 
#
# 1 0.026090 -0.005377 -0.000334 0.000160 -0.008450 -0.009013
# 2 -0.005377 0.010572 -0.005059 0.000005 0.004877 0.010121
# 3 -0.000334 -0.005059 0.014540 -0.001160 -0.005604 -0.002836
# 4 0.000160 0.000005 -0.001160 0.019155 0.003257 0.003142
# 5 -0.008450 0.004877 -0.005604 0.003257 0.036485 0.012624
# 6 -0.009013 0.010121 -0.002836 0.003142 0.012624 0.049313
#
#
# Mechanical properties :
#
#
# Convention : Reuss Voigt Hill
#
# Bulk Modulus (GPa) = 33.71107 51.88451 42.79779
# Shear Modulus (GPa) = 26.65518 36.60409 31.62963
#
# Velocity S-wave (km/s) = 3.43313 4.02313 3.73978
# Velocity P-wave (km/s) = 5.53366 6.67255 6.12962
#
# Compressibility (1/GPa) = 0.02966385
#
# Stress axis : x y z
#
# Youngs Moduli (GPa) = 38.32838 94.59086 68.77575
#
# Poissons Ratio (x) = 0.50858 0.02296
# Poissons Ratio (y) = 0.20608 0.34791
# Poissons Ratio (z) = 0.01280 0.47850
#
# Static dielectric constant tensor:
#      x y z
#    x 1.775270 -0.025970 -0.016350 
#    y -0.025970 1.865730 -0.016020 
#    z -0.016350 -0.016020 1.915060 
# 
# From -- ./inp_files/317519.got.cif
#   From: 2010.05.17/outbox.cif.g08.bks.cpg/sg2_159_cif.got.tgz:317519.got - 2010.06.03 11:33:40.
