data_PCOD9056150
_publ_section_title
;
Structure prediction by ZEFSAII (Michael W. Deem and Ramdas Pophale) SiO2 
 PCOD9056150
Probable space group: P -1
;
_chemical_formula_sum "Si O2"
_cell_formula_units_Z 14
_cell_length_a 15.672179
_cell_length_b 9.335977
_cell_length_c 9.040761
_cell_angle_alpha 131.094683
_cell_angle_beta 37.786106
_cell_angle_gamma 130.173697
_cell_volume 587.768880
_symmetry_space_group_name_H-M "P -1"
_symmetry_group_IT_number 2
_symmetry_cell_setting 'triclinic'
loop_
_space_group_symop_operation_xyz
x,y,z
-x,-y,-z
loop_
_atom_site_type_symbol
_atom_site_label
_atom_site_fract_x
_atom_site_fract_y
_atom_site_fract_z
Si Si1 0.705533 0.437635 0.980258
Si Si2 0.260329 0.861103 0.035974
Si Si3 0.955726 0.770051 0.953961
Si Si4 0.766954 0.826435 0.520502
Si Si5 0.401057 0.974661 0.325498
Si Si6 0.438387 0.515985 0.259110
Si Si7 0.250130 0.813638 0.690473
O O1 0.847618 0.619391 0.890574
O O2 0.672685 0.246406 0.786674
O O3 0.727570 0.341700 0.043547
O O4 0.566857 0.520260 0.201481
O O5 0.203400 0.856901 0.946465
O O6 0.428090 0.990151 0.884192
O O7 0.173067 0.967162 0.336052
O O8 0.102618 0.707887 0.736663
O O9 0.873941 0.767652 0.220501
O O10 0.000000 0.000000 0.000000
O O11 0.694744 0.665028 0.630488
O O12 0.640719 0.871784 0.622335
O O13 0.332265 0.989235 0.589072
O O14 0.369295 0.697161 0.474491
O O15 0.500000 0.500000 0.000000
#
# Coordination Sequence:
#
# PCOD9056150 Si02
#       7
#     2   2   2   2   2   2   2
#     4  11  24  46  75 103 145 192 236 302 373 421
#     4  11  23  44  77 111 142 185 246 311 366 415
#     4  12  29  49  70 105 149 205 244 286 366 445
#     4  11  23  46  75 101 149 189 244 295 363 438
#     4  11  21  47  74 111 139 186 246 303 364 428
#     4  12  24  45  76 117 140 182 249 309 360 424
#     4  12  27  44  71 110 154 188 244 301 353 438
#
# _framework density 23.818887
#
# number of rings (size 3 to 8) (size 9 to 14) (size 15 to 20)
#    0.000    0.571    5.714    2.143    2.000    6.857 
#    0.000    0.000    0.000    0.000    0.000    0.000 
#    0.000    0.000    0.000    0.000    0.000    0.000 
#
# Total GULP energy -78298.245074 kJ/mol
# GULP energy per Si atom -5592.731791 kJ/mol
# Density = 2.376467 g / cm^3
# Si number density = 23.818887 Si / 1000 Ang^3
#
#
#
# Elastic Constant Matrix: (Units=GPa)
#
#
# Indices 1 2 3 4 5 6 
#
# 1 73.6588 37.7040 7.5091 2.1050 -4.4525 1.5495
# 2 37.7040 122.7695 13.2262 -9.1908 6.8599 3.6475
# 3 7.5091 13.2262 65.9625 -1.0143 -6.8573 4.8591
# 4 2.1050 -9.1908 -1.0143 20.6015 3.5993 5.6120
# 5 -4.4525 6.8599 -6.8573 3.5993 24.4190 -17.2898
# 6 1.5495 3.6475 4.8591 5.6120 -17.2898 38.5555
#
#
#
# Elastic Compliance Matrix: (Units=1/GPa)
#
#
# Indices 1 2 3 4 5 6 
#
# 1 0.017850 -0.006857 -0.000123 -0.008335 0.010545 0.005889
# 2 -0.006857 0.012148 -0.002203 0.010165 -0.012088 -0.007496
# 3 -0.000123 -0.002203 0.016149 -0.001586 0.006211 0.001194
# 4 -0.008335 0.010165 -0.001586 0.066001 -0.031728 -0.024262
# 5 0.010545 -0.012088 0.006211 -0.031728 0.081930 0.041296
# 6 0.005889 -0.007496 0.001194 -0.024262 0.041296 0.048309
#
#
# Mechanical properties :
#
#
# Convention : Reuss Voigt Hill
#
# Bulk Modulus (GPa) = 35.99593 42.14106 39.06849
# Shear Modulus (GPa) = 18.51757 30.31195 24.41476
#
# Velocity S-wave (km/s) = 2.79127 3.57122 3.20506
# Velocity P-wave (km/s) = 5.05306 5.89369 5.48949
#
# Compressibility (1/GPa) = 0.02778092
#
# Stress axis : x y z
#
# Youngs Moduli (GPa) = 56.02163 82.32027 61.92253
#
# Poissons Ratio (x) = 0.56447 0.00761
# Poissons Ratio (y) = 0.38414 0.13643
# Poissons Ratio (z) = 0.00689 0.18137
#
# Static dielectric constant tensor:
#      x y z
#    x 1.920660 -0.005140 0.043510 
#    y -0.005140 1.930160 0.023560 
#    z 0.043510 0.023560 1.946680 
# 
# From -- ./inp_files/199128.got.cif
#   From: 2010.05.17/outbox.cif.g08.bks.cpg/sg2_100_cif.got.tgz:199128.got - 2010.06.03 11:33:40.
