data_PCOD9056900
_publ_section_title
;
Structure prediction by ZEFSAII (Michael W. Deem and Ramdas Pophale) SiO2 
 PCOD9056900
Probable space group: P -1
;
_chemical_formula_sum "Si O2"
_cell_formula_units_Z 16
_cell_length_a 7.328534
_cell_length_b 17.926390
_cell_length_c 11.850959
_cell_angle_alpha 151.825712
_cell_angle_beta 65.077807
_cell_angle_gamma 108.968728
_cell_volume 662.724012
_symmetry_space_group_name_H-M "P -1"
_symmetry_group_IT_number 2
_symmetry_cell_setting 'triclinic'
loop_
_space_group_symop_operation_xyz
x,y,z
-x,-y,-z
loop_
_atom_site_type_symbol
_atom_site_label
_atom_site_fract_x
_atom_site_fract_y
_atom_site_fract_z
Si Si1 0.923234 0.873114 0.265306
Si Si2 0.310609 0.601865 0.025054
Si Si3 0.732087 0.283821 0.185102
Si Si4 0.381204 0.922474 0.526973
Si Si5 0.841538 0.946469 0.809682
Si Si6 0.370878 0.390634 0.253122
Si Si7 0.238885 0.092347 0.974777
Si Si8 0.165072 0.284618 0.714091
O O1 0.777434 0.788924 0.275352
O O2 0.831908 0.983383 0.335748
O O3 0.000000 0.000000 0.500000
O O4 0.093379 0.750526 0.000599
O O5 0.482914 0.609661 0.894521
O O6 0.298476 0.426666 0.842030
O O7 0.356435 0.738669 0.282195
O O8 0.074175 0.651759 0.118987
O O9 0.526999 0.332710 0.234959
O O10 0.742488 0.435786 0.464735
O O11 0.738179 0.120276 0.033499
O O12 0.500000 0.000000 0.500000
O O13 0.427707 0.991514 0.728811
O O14 0.830513 0.828739 0.548826
O O15 0.743096 0.882831 0.863998
O O16 0.061534 0.980146 0.846803
O O17 0.216552 0.257575 0.130803
#
# Coordination Sequence:
#
# PCOD9056900 Si02
#       8
#     2   2   2   2   2   2   2   2
#     4  12  20  43  69  98 122 176 231 268 323 398
#     4  11  22  41  64 100 130 167 216 278 328 379
#     4  11  23  42  65  96 134 174 227 270 325 395
#     4  12  23  44  72  95 132 174 222 270 331 399
#     4  11  24  44  66  98 131 177 222 266 336 403
#     4  11  25  41  65  99 133 173 221 279 334 385
#     4  11  24  43  66  98 135 177 216 266 340 402
#     4  11  23  39  71  98 127 169 223 279 321 388
#
# _framework density 24.142780999999999
#
# number of rings (size 3 to 8) (size 9 to 14) (size 15 to 20)
#    0.000    0.750    7.500    0.000    3.500    1.000 
#    2.250    0.625    0.000    0.000    0.000    0.000 
#    0.000    0.000    0.000    0.000    0.000    0.000 
#
# Total GULP energy -89287.423001 kJ/mol
# GULP energy per Si atom -5580.463938 kJ/mol
# Density = 2.408783 g / cm^3
# Si number density = 24.142781 Si / 1000 Ang^3
#
#
#
# Elastic Constant Matrix: (Units=GPa)
#
#
# Indices 1 2 3 4 5 6 
#
# 1 33.3929 13.5373 23.3183 -5.2813 7.2085 2.0600
# 2 13.5373 199.8160 83.5876 -7.6325 17.6002 12.2038
# 3 23.3183 83.5876 190.5738 1.9864 11.6265 11.0473
# 4 -5.2813 -7.6325 1.9864 50.8924 8.4411 6.9305
# 5 7.2085 17.6002 11.6265 8.4411 28.5064 0.6004
# 6 2.0600 12.2038 11.0473 6.9305 0.6004 30.2675
#
#
#
# Elastic Compliance Matrix: (Units=1/GPa)
#
#
# Indices 1 2 3 4 5 6 
#
# 1 0.035560 0.000396 -0.003884 0.005758 -0.009309 -0.002296
# 2 0.000396 0.006604 -0.002619 0.002031 -0.003666 -0.002126
# 3 -0.003884 -0.002619 0.006935 -0.000943 0.000071 -0.000996
# 4 0.005758 0.002031 -0.000943 0.022885 -0.008977 -0.005929
# 5 -0.009309 -0.003666 0.000071 -0.008977 0.042257 0.003303
# 6 -0.002296 -0.002126 -0.000996 -0.005929 0.003303 0.035708
#
#
# Mechanical properties :
#
#
# Convention : Reuss Voigt Hill
#
# Bulk Modulus (GPa) = 27.11220 73.85213 50.48217
# Shear Modulus (GPa) = 28.66049 42.15588 35.40819
#
# Velocity S-wave (km/s) = 3.44921 4.18318 3.83380
# Velocity P-wave (km/s) = 5.20740 7.34766 6.36809
#
# Compressibility (1/GPa) = 0.03688376
#
# Stress axis : x y z
#
# Youngs Moduli (GPa) = 28.12166 151.42842 144.20571
#
# Poissons Ratio (x) = -0.05989 0.56003
# Poissons Ratio (y) = -0.01112 0.37770
# Poissons Ratio (z) = 0.10921 0.39662
#
# Static dielectric constant tensor:
#      x y z
#    x 2.245010 0.111230 -0.136290 
#    y 0.111230 2.016120 -0.109500 
#    z -0.136290 -0.109500 2.098240 
# 
# From -- ./inp_files/402436.got.cif
#   From: 2010.05.17/outbox.cif.g08.bks.cpg/sg2_202_cif.got.tgz:402436.got - 2010.06.03 11:33:40.
