data_PCOD9056045
_publ_section_title
;
Structure prediction by ZEFSAII (Michael W. Deem and Ramdas Pophale) SiO2 
 PCOD9056045
Probable space group: P -1
;
_chemical_formula_sum "Si O2"
_cell_formula_units_Z 16
_cell_length_a 8.822651
_cell_length_b 9.304056
_cell_length_c 12.212803
_cell_angle_alpha 88.109894
_cell_angle_beta 51.804427
_cell_angle_gamma 99.402148
_cell_volume 765.593557
_symmetry_space_group_name_H-M "P -1"
_symmetry_group_IT_number 2
_symmetry_cell_setting 'triclinic'
loop_
_space_group_symop_operation_xyz
x,y,z
-x,-y,-z
loop_
_atom_site_type_symbol
_atom_site_label
_atom_site_fract_x
_atom_site_fract_y
_atom_site_fract_z
Si Si1 0.153882 0.904277 0.966576
Si Si2 0.011401 0.247461 0.304773
Si Si3 0.612442 0.067272 0.756716
Si Si4 0.923827 0.388332 0.133737
Si Si5 0.211102 0.621214 0.425848
Si Si6 0.936481 0.063833 0.758633
Si Si7 0.774569 0.829539 0.570002
Si Si8 0.481880 0.552193 0.628101
O O1 0.147785 0.769693 0.890687
O O2 0.376597 0.008334 0.863960
O O3 0.073466 0.852544 0.125992
O O4 0.000000 0.000000 0.000000
O O5 0.153193 0.233743 0.346996
O O6 0.059002 0.360456 0.177555
O O7 0.831314 0.297651 0.445026
O O8 0.981265 0.084952 0.268279
O O9 0.701506 0.242313 0.697989
O O10 0.707826 0.018330 0.824745
O O11 0.712586 0.981227 0.622151
O O12 0.745688 0.455709 0.253268
O O13 0.000000 0.500000 0.000000
O O14 0.388833 0.538865 0.358435
O O15 0.000000 0.500000 0.500000
O O16 0.058830 0.148985 0.599283
O O17 0.588703 0.719359 0.604036
O O18 0.500000 0.500000 0.500000
#
# Coordination Sequence:
#
# PCOD9056045 Si02
#       8
#     2   2   2   2   2   2   2   2
#     4  12  27  46  67 100 147 188 237 282 353 429
#     4  11  21  45  71 101 140 171 237 293 341 420
#     4  11  23  44  72 104 139 182 236 296 346 413
#     4  12  29  49  64  99 149 190 228 292 356 421
#     4  12  23  41  72 110 139 174 234 298 349 414
#     4  11  22  42  77 104 133 182 231 292 353 414
#     4  11  22  45  76 106 132 182 235 303 353 403
#     4  12  26  42  69 103 143 182 235 287 352 422
#
# _framework density 20.898817999999999
#
# number of rings (size 3 to 8) (size 9 to 14) (size 15 to 20)
#    0.000    0.500    7.500    1.125    3.500    1.000 
#    0.000    3.125    0.000    0.000    0.000    0.000 
#    0.000    0.000    0.000    0.000    0.000    0.000 
#
# Total GULP energy -89110.564217 kJ/mol
# GULP energy per Si atom -5569.410264 kJ/mol
# Density = 2.085125 g / cm^3
# Si number density = 20.898818 Si / 1000 Ang^3
#
#
#
# Elastic Constant Matrix: (Units=GPa)
#
#
# Indices 1 2 3 4 5 6 
#
# 1 89.6012 25.3273 50.8340 -11.2170 2.7634 -19.2026
# 2 25.3273 84.5654 23.5833 0.3119 3.7212 -17.7857
# 3 50.8340 23.5833 118.9684 5.6523 10.1594 -7.8518
# 4 -11.2170 0.3119 5.6523 41.9305 -2.8638 0.7491
# 5 2.7634 3.7212 10.1594 -2.8638 32.3089 8.3072
# 6 -19.2026 -17.7857 -7.8518 0.7491 8.3072 26.3943
#
#
#
# Elastic Compliance Matrix: (Units=1/GPa)
#
#
# Indices 1 2 3 4 5 6 
#
# 1 0.018667 -0.001255 -0.007147 0.005668 -0.001511 0.010924
# 2 -0.001255 0.014835 -0.001399 -0.000691 -0.003761 0.009871
# 3 -0.007147 -0.001399 0.012065 -0.003703 -0.002960 -0.001517
# 4 0.005668 -0.000691 -0.003703 0.026046 0.002829 0.000927
# 5 -0.001511 -0.003761 -0.002960 0.002829 0.036859 -0.016195
# 6 0.010924 0.009871 -0.001517 0.000927 -0.016195 0.057106
#
#
# Mechanical properties :
#
#
# Convention : Reuss Voigt Hill
#
# Bulk Modulus (GPa) = 38.51156 54.73603 46.62379
# Shear Modulus (GPa) = 25.79499 33.01942 29.40721
#
# Velocity S-wave (km/s) = 3.51704 3.97919 3.75523
# Velocity P-wave (km/s) = 5.91273 6.88184 6.41561
#
# Compressibility (1/GPa) = 0.02596623
#
# Stress axis : x y z
#
# Youngs Moduli (GPa) = 53.56969 67.40727 82.88189
#
# Poissons Ratio (x) = 0.08457 0.59235
# Poissons Ratio (y) = 0.06721 0.11598
# Poissons Ratio (z) = 0.38286 0.09433
#
# Static dielectric constant tensor:
#      x y z
#    x 1.850100 -0.023950 -0.045640 
#    y -0.023950 1.771090 0.010530 
#    z -0.045640 0.010530 1.826980 
# 
# From -- ./inp_files/316095.got.cif
#   From: 2010.05.17/outbox.cif.g08.bks.cpg/sg2_159_cif.got.tgz:316095.got - 2010.06.03 11:33:40.
