data_PCOD9056673
_publ_section_title
;
Structure prediction by ZEFSAII (Michael W. Deem and Ramdas Pophale) SiO2 
 PCOD9056673
Probable space group: P -1
;
_chemical_formula_sum "Si O2"
_cell_formula_units_Z 14
_cell_length_a 18.030933
_cell_length_b 12.096012
_cell_length_c 14.464031
_cell_angle_alpha 48.346005
_cell_angle_beta 152.113425
_cell_angle_gamma 151.344197
_cell_volume 614.877079
_symmetry_space_group_name_H-M "P -1"
_symmetry_group_IT_number 2
_symmetry_cell_setting 'triclinic'
loop_
_space_group_symop_operation_xyz
x,y,z
-x,-y,-z
loop_
_atom_site_type_symbol
_atom_site_label
_atom_site_fract_x
_atom_site_fract_y
_atom_site_fract_z
Si Si1 0.358891 0.767907 0.640206
Si Si2 0.771300 0.670572 0.640221
Si Si3 0.374778 0.257250 0.951167
Si Si4 0.938183 0.562002 0.141215
Si Si5 0.727632 0.332241 0.707090
Si Si6 0.694907 0.871579 0.794414
Si Si7 0.518717 0.598627 0.214538
O O1 0.089558 0.626572 0.367573
O O2 0.481451 0.749418 0.708949
O O3 0.580638 0.072861 0.729476
O O4 0.385156 0.685726 0.804668
O O5 0.500000 0.500000 0.500000
O O6 0.815471 0.527451 0.765908
O O7 0.692853 0.663984 0.454037
O O8 0.075494 0.980685 0.823187
O O9 0.321698 0.245782 0.791103
O O10 0.500000 0.500000 0.000000
O O11 0.034665 0.526582 0.185708
O O12 0.058770 0.816004 0.099194
O O13 0.617056 0.354285 0.924421
O O14 0.468077 0.203498 0.435463
O O15 0.716316 0.711369 0.900819
#
# Coordination Sequence:
#
# PCOD9056673 Si02
#       7
#     2   2   2   2   2   2   2
#     4   9  18  37  63  98 134 172 221 269 335 385
#     4  11  27  47  70  98 128 181 235 276 328 398
#     4  12  26  43  69  99 142 179 216 275 338 407
#     4   9  18  34  67 102 130 172 223 277 328 390
#     4   8  18  38  65  90 130 171 222 283 317 376
#     4   8  15  32  62  95 128 171 219 269 315 387
#     4  11  22  40  65  99 136 178 217 273 338 401
#
# _framework density 22.768775999999999
#
# number of rings (size 3 to 8) (size 9 to 14) (size 15 to 20)
#    0.000    2.286    1.429    2.571    4.000    4.571 
#    0.000    0.714    0.000    0.000    0.000    0.000 
#    0.000    0.000    0.000    0.000    0.000    0.000 
#
# Total GULP energy -78034.558323 kJ/mol
# GULP energy per Si atom -5573.897023 kJ/mol
# Density = 2.271695 g / cm^3
# Si number density = 22.768776 Si / 1000 Ang^3
#
#
#
# Elastic Constant Matrix: (Units=GPa)
#
#
# Indices 1 2 3 4 5 6 
#
# 1 71.6063 44.1875 11.4846 -3.7808 14.1139 -6.7394
# 2 44.1875 102.2037 29.5065 -10.1451 5.0697 -14.7330
# 3 11.4846 29.5065 65.9801 -17.9202 -9.3756 -3.1589
# 4 -3.7808 -10.1451 -17.9202 33.1604 1.9475 -6.8380
# 5 14.1139 5.0697 -9.3756 1.9475 41.0571 -15.4536
# 6 -6.7394 -14.7330 -3.1589 -6.8380 -15.4536 36.0976
#
#
#
# Elastic Compliance Matrix: (Units=1/GPa)
#
#
# Indices 1 2 3 4 5 6 
#
# 1 0.020707 -0.008827 -0.001211 -0.001231 -0.007481 -0.003278
# 2 -0.008827 0.015821 -0.004229 0.002632 0.002204 0.005881
# 3 -0.001211 -0.004229 0.021457 0.010783 0.007233 0.005065
# 4 -0.001231 0.002632 0.010783 0.038674 0.004955 0.011235
# 5 -0.007481 0.002204 0.007233 0.004955 0.033947 0.015607
# 6 -0.003278 0.005881 0.005065 0.011235 0.015607 0.038744
#
#
# Mechanical properties :
#
#
# Convention : Reuss Voigt Hill
#
# Bulk Modulus (GPa) = 33.95435 45.57192 39.76314
# Shear Modulus (GPa) = 24.07275 32.37046 28.22160
#
# Velocity S-wave (km/s) = 3.25510 3.77464 3.52445
# Velocity P-wave (km/s) = 5.39190 6.24946 5.83645
#
# Compressibility (1/GPa) = 0.02945131
#
# Stress axis : x y z
#
# Youngs Moduli (GPa) = 48.29206 63.20559 46.60401
#
# Poissons Ratio (x) = 0.55790 0.05645
# Poissons Ratio (y) = 0.42626 0.19711
# Poissons Ratio (z) = 0.05849 0.26733
#
# Static dielectric constant tensor:
#      x y z
#    x 1.873710 0.031930 -0.050770 
#    y 0.031930 1.898670 -0.007520 
#    z -0.050770 -0.007520 1.955860 
# 
# From -- ./inp_files/338853.got.cif
#   From: 2010.05.17/outbox.cif.g08.bks.cpg/sg2_170_cif.got.tgz:338853.got - 2010.06.03 11:33:40.
