data_PCOD9056089
_publ_section_title
;
Structure prediction by ZEFSAII (Michael W. Deem and Ramdas Pophale) SiO2 
 PCOD9056089
Probable space group: P -1
;
_chemical_formula_sum "Si O2"
_cell_formula_units_Z 14
_cell_length_a 11.925526
_cell_length_b 23.487603
_cell_length_c 8.896140
_cell_angle_alpha 30.452686
_cell_angle_beta 140.487352
_cell_angle_gamma 150.434441
_cell_volume 620.804433
_symmetry_space_group_name_H-M "P -1"
_symmetry_group_IT_number 2
_symmetry_cell_setting 'triclinic'
loop_
_space_group_symop_operation_xyz
x,y,z
-x,-y,-z
loop_
_atom_site_type_symbol
_atom_site_label
_atom_site_fract_x
_atom_site_fract_y
_atom_site_fract_z
Si Si1 0.112295 0.977290 0.427946
Si Si2 0.254498 0.043327 0.764668
Si Si3 0.505107 0.813067 0.843485
Si Si4 0.705312 0.501933 0.751435
Si Si5 0.329918 0.829608 0.914140
Si Si6 0.046255 0.503450 0.716062
Si Si7 0.892630 0.249126 0.600423
O O1 0.175967 0.877350 0.669367
O O2 0.850101 0.899672 0.369570
O O3 0.221481 0.047388 0.544719
O O4 0.242674 0.104322 0.149411
O O5 0.518626 0.129713 0.874833
O O6 0.109766 0.874454 0.048206
O O7 0.507556 0.885278 0.834011
O O8 0.363820 0.834191 0.533567
O O9 0.361752 0.640177 0.080710
O O10 0.500000 0.500000 0.500000
O O11 0.931870 0.653712 0.574579
O O12 0.748583 0.479008 0.021456
O O13 0.164116 0.660885 0.088679
O O14 0.049657 0.629551 0.499103
O O15 0.000000 0.500000 0.500000
#
# Coordination Sequence:
#
# PCOD9056089 Si02
#       7
#     2   2   2   2   2   2   2
#     4  11  25  43  64  98 136 176 227 280 349 404
#     4  11  26  42  68  96 134 179 227 280 344 413
#     4  11  22  41  67  96 132 179 227 279 338 412
#     4  11  23  42  68  98 139 182 225 277 344 411
#     4  12  23  43  67  99 135 173 226 285 343 404
#     4  11  24  42  70  99 132 178 227 280 339 402
#     4  11  21  46  64  94 133 181 225 268 344 416
#
# _framework density 22.551385
#
# number of rings (size 3 to 8) (size 9 to 14) (size 15 to 20)
#    0.000    0.857    4.286    3.429    4.000    1.714 
#    0.000    0.714    0.000    0.000    0.000    0.000 
#    0.000    0.000    0.000    0.000    0.000    0.000 
#
# Total GULP energy -78098.270658 kJ/mol
# GULP energy per Si atom -5578.447904 kJ/mol
# Density = 2.250006 g / cm^3
# Si number density = 22.551385 Si / 1000 Ang^3
#
#
#
# Elastic Constant Matrix: (Units=GPa)
#
#
# Indices 1 2 3 4 5 6 
#
# 1 111.2267 12.6499 39.8073 5.6451 3.3316 -8.0251
# 2 12.6499 62.4990 21.3420 5.2488 10.1378 -10.8573
# 3 39.8073 21.3420 81.6838 19.6516 12.6844 -5.9409
# 4 5.6451 5.2488 19.6516 32.9391 -5.4765 -3.4757
# 5 3.3316 10.1378 12.6844 -5.4765 26.5618 1.5962
# 6 -8.0251 -10.8573 -5.9409 -3.4757 1.5962 34.5051
#
#
#
# Elastic Compliance Matrix: (Units=1/GPa)
#
#
# Indices 1 2 3 4 5 6 
#
# 1 0.011149 -0.000438 -0.006074 0.002287 0.002048 0.001545
# 2 -0.000438 0.019289 -0.002986 -0.001721 -0.006572 0.005584
# 3 -0.006074 -0.002986 0.020671 -0.012529 -0.010579 0.000434
# 4 0.002287 -0.001721 -0.012529 0.040269 0.014583 0.001215
# 5 0.002048 -0.006572 -0.010579 0.014583 0.048209 -0.004174
# 6 0.001545 0.005584 0.000434 0.001215 -0.004174 0.031488
#
#
# Mechanical properties :
#
#
# Convention : Reuss Voigt Hill
#
# Bulk Modulus (GPa) = 31.14059 44.77864 37.95962
# Shear Modulus (GPa) = 24.90346 30.90854 27.90600
#
# Velocity S-wave (km/s) = 3.32670 3.70615 3.52154
# Velocity P-wave (km/s) = 5.34740 6.18171 5.77963
#
# Compressibility (1/GPa) = 0.03211243
#
# Stress axis : x y z
#
# Youngs Moduli (GPa) = 89.69793 51.84287 48.37620
#
# Poissons Ratio (x) = 0.02272 0.29386
# Poissons Ratio (y) = 0.03930 0.14443
# Poissons Ratio (z) = 0.54487 0.15478
#
# Static dielectric constant tensor:
#      x y z
#    x 1.888770 0.018950 -0.045650 
#    y 0.018950 1.838880 0.009390 
#    z -0.045650 0.009390 1.924360 
# 
# From -- ./inp_files/187695.got.cif
#   From: 2010.05.17/outbox.cif.g08.bks.cpg/sg2_94_cif.got.tgz:187695.got - 2010.06.03 11:33:40.
