data_PCOD9056265
_publ_section_title
;
Structure prediction by ZEFSAII (Michael W. Deem and Ramdas Pophale) SiO2 
 PCOD9056265
Probable space group: P -1
;
_chemical_formula_sum "Si O2"
_cell_formula_units_Z 12
_cell_length_a 8.852010
_cell_length_b 18.901057
_cell_length_c 14.792778
_cell_angle_alpha 160.686736
_cell_angle_beta 41.142168
_cell_angle_gamma 145.772315
_cell_volume 455.482666
_symmetry_space_group_name_H-M "P -1"
_symmetry_group_IT_number 2
_symmetry_cell_setting 'triclinic'
loop_
_space_group_symop_operation_xyz
x,y,z
-x,-y,-z
loop_
_atom_site_type_symbol
_atom_site_label
_atom_site_fract_x
_atom_site_fract_y
_atom_site_fract_z
Si Si1 0.592473 0.453876 0.806203
Si Si2 0.637045 0.980941 0.234362
Si Si3 0.637228 0.351178 0.383221
Si Si4 0.228159 0.601686 0.093336
Si Si5 0.247208 0.509527 0.711345
Si Si6 0.994580 0.187811 0.087444
O O1 0.851382 0.695762 0.936693
O O2 0.631675 0.223663 0.504129
O O3 0.500000 0.500000 0.000000
O O4 0.339283 0.415969 0.817413
O O5 0.472235 0.865119 0.262596
O O6 0.459500 0.767504 0.981402
O O7 0.928902 0.011837 0.154137
O O8 0.343635 0.322423 0.477986
O O9 0.719148 0.424710 0.330256
O O10 0.838069 0.591248 0.646688
O O11 0.701811 0.148724 0.153192
O O12 0.061621 0.588440 0.240371
O O13 0.000000 0.500000 0.000000
#
# Coordination Sequence:
#
# PCOD9056265 Si02
#       6
#     2   2   2   2   2   2
#     4  11  22  37  58  82 110 145 185 232 280 324
#     4   9  20  37  57  83 112 143 182 229 279 324
#     4   9  17  34  58  81 113 148 180 224 269 321
#     4   9  19  35  56  84 112 141 178 228 277 325
#     4   9  17  33  58  84 113 148 181 220 273 330
#     4   9  19  36  57  82 113 145 182 227 270 324
#
# _framework density 26.345676999999998
#
# number of rings (size 3 to 8) (size 9 to 14) (size 15 to 20)
#    0.000    2.667    0.000    2.000    0.000    5.333 
#    0.000   10.000    0.000    8.000    0.000    0.000 
#    0.000    0.000    0.000    0.000    0.000    0.000 
#
# Total GULP energy -67102.295062 kJ/mol
# GULP energy per Si atom -5591.857922 kJ/mol
# Density = 2.628571 g / cm^3
# Si number density = 26.345677 Si / 1000 Ang^3
#
#
#
# Elastic Constant Matrix: (Units=GPa)
#
#
# Indices 1 2 3 4 5 6 
#
# 1 162.3810 25.9655 45.0407 -4.1095 -30.3565 24.9234
# 2 25.9655 106.9852 40.8873 -11.0893 -5.0838 -16.8230
# 3 45.0407 40.8873 127.9686 11.3535 -62.4073 13.8494
# 4 -4.1095 -11.0893 11.3535 34.2798 -7.2239 1.3041
# 5 -30.3565 -5.0838 -62.4073 -7.2239 75.8209 -22.7071
# 6 24.9234 -16.8230 13.8494 1.3041 -22.7071 51.4021
#
#
#
# Elastic Compliance Matrix: (Units=1/GPa)
#
#
# Indices 1 2 3 4 5 6 
#
# 1 0.007541 -0.001659 -0.001481 0.001149 0.000751 -0.003498
# 2 -0.001659 0.013343 -0.005987 0.005357 -0.002531 0.005530
# 3 -0.001481 -0.005987 0.016654 -0.005058 0.012163 -0.000227
# 4 0.001149 0.005357 -0.005058 0.032717 0.000335 0.001877
# 5 0.000751 -0.002531 0.012163 0.000335 0.025380 0.006734
# 6 -0.003498 0.005530 -0.000227 0.001877 0.006734 0.025949
#
#
# Mechanical properties :
#
#
# Convention : Reuss Voigt Hill
#
# Bulk Modulus (GPa) = 51.86308 69.01352 60.43830
# Shear Modulus (GPa) = 34.18452 51.32997 42.75724
#
# Velocity S-wave (km/s) = 3.60604 4.41877 4.03293
# Velocity P-wave (km/s) = 6.08822 7.23093 6.68404
#
# Compressibility (1/GPa) = 0.01928154
#
# Stress axis : x y z
#
# Youngs Moduli (GPa) = 132.61115 74.94818 60.04650
#
# Poissons Ratio (x) = 0.12436 0.08895
# Poissons Ratio (y) = 0.22004 0.35951
# Poissons Ratio (z) = 0.19644 0.44873
#
# Static dielectric constant tensor:
#      x y z
#    x 2.086890 -0.044110 0.036290 
#    y -0.044110 2.124610 -0.062040 
#    z 0.036290 -0.062040 2.160500 
# 
# From -- ./inp_files/24344.got.cif
#   From: 2010.05.17/outbox.cif.g08.bks.cpg/sg2_13_cif.got.tgz:24344.got - 2010.06.03 11:33:40.
