data_PCOD9056295
_publ_section_title
;
Structure prediction by ZEFSAII (Michael W. Deem and Ramdas Pophale) SiO2 
 PCOD9056295
Probable space group: P -1
;
_chemical_formula_sum "Si O2"
_cell_formula_units_Z 16
_cell_length_a 13.567409
_cell_length_b 7.419270
_cell_length_c 8.475451
_cell_angle_alpha 127.649301
_cell_angle_beta 114.244393
_cell_angle_gamma 73.604983
_cell_volume 615.326213
_symmetry_space_group_name_H-M "P -1"
_symmetry_group_IT_number 2
_symmetry_cell_setting 'triclinic'
loop_
_space_group_symop_operation_xyz
x,y,z
-x,-y,-z
loop_
_atom_site_type_symbol
_atom_site_label
_atom_site_fract_x
_atom_site_fract_y
_atom_site_fract_z
Si Si1 0.727779 0.206179 0.171579
Si Si2 0.167554 0.581466 0.920437
Si Si3 0.808838 0.587950 0.645051
Si Si4 0.317764 0.925215 0.590382
Si Si5 0.508066 0.737069 0.044143
Si Si6 0.064277 0.261540 0.454099
Si Si7 0.090045 0.799617 0.278985
Si Si8 0.350194 0.446729 0.216821
O O1 0.813807 0.230592 0.101502
O O2 0.739010 0.456584 0.397231
O O3 0.613595 0.166379 0.995038
O O4 0.726423 0.057130 0.249140
O O5 0.134391 0.350175 0.693035
O O6 0.277206 0.523848 0.058773
O O7 0.081291 0.664308 0.038656
O O8 0.874335 0.767766 0.688672
O O9 0.729978 0.673909 0.778795
O O10 0.887226 0.386822 0.668647
O O11 0.207692 0.917429 0.414178
O O12 0.374768 0.679229 0.450399
O O13 0.405973 0.111305 0.730696
O O14 0.549800 0.691323 0.867780
O O15 0.500000 0.500000 0.000000
O O16 0.012243 0.025845 0.345354
O O17 0.000000 0.500000 0.500000
#
# Coordination Sequence:
#
# PCOD9056295 Si02
#       8
#     2   2   2   2   2   2   2   2
#     4   9  18  35  53  79 112 146 189 234 266 317
#     4   9  18  38  57  80 115 147 187 229 270 346
#     4   8  20  39  57  80 116 147 192 227 272 345
#     4   9  21  36  51  75 109 147 193 222 273 332
#     4  12  21  30  54  84 110 147 188 235 273 306
#     4  11  22  37  63  91 111 140 183 232 286 344
#     4   9  20  39  59  79 111 157 180 225 289 327
#     4   9  19  38  54  76 112 152 183 228 272 319
#
# _framework density 26.002466999999999
#
# number of rings (size 3 to 8) (size 9 to 14) (size 15 to 20)
#    0.000    3.000    1.250    1.125    1.750    4.500 
#    0.000    6.250    0.000    0.000    0.000    0.000 
#    0.000    0.000    0.000    0.000    0.000    0.000 
#
# Total GULP energy -89313.462433 kJ/mol
# GULP energy per Si atom -5582.091402 kJ/mol
# Density = 2.594328 g / cm^3
# Si number density = 26.002467 Si / 1000 Ang^3
#
#
#
# Elastic Constant Matrix: (Units=GPa)
#
#
# Indices 1 2 3 4 5 6 
#
# 1 63.6274 15.9711 20.8224 3.6745 -5.1014 16.9498
# 2 15.9711 105.4979 15.3639 -2.0184 -2.8114 14.6320
# 3 20.8224 15.3639 103.5209 3.2103 -0.0046 1.4270
# 4 3.6745 -2.0184 3.2103 34.2846 -3.6901 -5.3026
# 5 -5.1014 -2.8114 -0.0046 -3.6901 45.1392 -4.6892
# 6 16.9498 14.6320 1.4270 -5.3026 -4.6892 31.1124
#
#
#
# Elastic Compliance Matrix: (Units=1/GPa)
#
#
# Indices 1 2 3 4 5 6 
#
# 1 0.020359 -0.001082 -0.003676 -0.003497 0.000816 -0.010887
# 2 -0.001082 0.010418 -0.001277 0.000211 0.000107 -0.004199
# 3 -0.003676 -0.001277 0.010573 -0.000396 -0.000318 0.002003
# 4 -0.003497 0.000211 -0.000396 0.031079 0.002944 0.007565
# 5 0.000816 0.000107 -0.000318 0.002944 0.022853 0.003466
# 6 -0.010887 -0.004199 0.002003 0.007565 0.003466 0.041767
#
#
# Mechanical properties :
#
#
# Convention : Reuss Voigt Hill
#
# Bulk Modulus (GPa) = 34.15286 41.88454 38.01870
# Shear Modulus (GPa) = 31.47040 36.80650 34.13845
#
# Velocity S-wave (km/s) = 3.48269 3.76639 3.62732
# Velocity P-wave (km/s) = 5.41619 5.92091 5.67417
#
# Compressibility (1/GPa) = 0.02928012
#
# Stress axis : x y z
#
# Youngs Moduli (GPa) = 49.11930 95.98788 94.57648
#
# Poissons Ratio (x) = 0.10385 0.34765
# Poissons Ratio (y) = 0.05314 0.12079
# Poissons Ratio (z) = 0.18055 0.12260
#
# Static dielectric constant tensor:
#      x y z
#    x 2.116580 -0.077290 -0.015550 
#    y -0.077290 2.163450 0.045360 
#    z -0.015550 0.045360 2.020540 
# 
# From -- ./inp_files/328121.got.cif
#   From: 2010.05.17/outbox.cif.g08.bks.cpg/sg2_165_cif.got.tgz:328121.got - 2010.06.03 11:33:40.
