data_PCOD9056947
_publ_section_title
;
Structure prediction by ZEFSAII (Michael W. Deem and Ramdas Pophale) SiO2 
 PCOD9056947
Probable space group: P -1
;
_chemical_formula_sum "Si O2"
_cell_formula_units_Z 16
_cell_length_a 13.349831
_cell_length_b 13.289687
_cell_length_c 13.118741
_cell_angle_alpha 32.697185
_cell_angle_beta 54.442020
_cell_angle_gamma 32.259219
_cell_volume 598.867133
_symmetry_space_group_name_H-M "P -1"
_symmetry_group_IT_number 2
_symmetry_cell_setting 'triclinic'
loop_
_space_group_symop_operation_xyz
x,y,z
-x,-y,-z
loop_
_atom_site_type_symbol
_atom_site_label
_atom_site_fract_x
_atom_site_fract_y
_atom_site_fract_z
Si Si1 0.017617 0.839251 0.836654
Si Si2 0.789682 0.135601 0.041583
Si Si3 0.704555 0.066735 0.684310
Si Si4 0.852156 0.672744 0.744477
Si Si5 0.296579 0.070629 0.886884
Si Si6 0.718398 0.466444 0.261619
Si Si7 0.581884 0.118717 0.346647
Si Si8 0.234307 0.507108 0.568882
O O1 0.127317 0.729004 0.758097
O O2 0.181905 0.510267 0.079865
O O3 0.816320 0.961857 0.816347
O O4 0.927686 0.140217 0.677906
O O5 0.744944 0.019244 0.252114
O O6 0.725834 0.096094 0.012451
O O7 0.617282 0.501629 0.857739
O O8 0.000000 0.000000 0.000000
O O9 0.690571 0.286059 0.457085
O O10 0.465551 0.301897 0.631101
O O11 0.824518 0.775497 0.788568
O O12 0.074177 0.398782 0.788574
O O13 0.702524 0.979115 0.502274
O O14 0.298655 0.264025 0.658861
O O15 0.502086 0.823059 0.046740
O O16 0.823627 0.434163 0.324628
O O17 0.500000 0.000000 0.500000
#
# Coordination Sequence:
#
# PCOD9056947 Si02
#       8
#     2   2   2   2   2   2   2   2
#     4  11  23  41  68 101 157 201 254 312 384 458
#     4  11  28  58  86 117 157 204 263 335 406 482
#     4  11  22  41  66 102 148 206 256 316 375 461
#     4  12  25  44  68 109 147 195 254 313 391 464
#     4  12  25  44  72 107 145 198 257 312 394 465
#     4  11  22  41  66 104 149 203 257 314 377 462
#     4  11  28  54  88 118 157 197 263 338 408 476
#     4  11  23  41  68 104 152 202 256 316 377 460
#
# _framework density 26.717112
#
# number of rings (size 3 to 8) (size 9 to 14) (size 15 to 20)
#    0.000    0.750    0.000    9.000    3.500    2.000 
#    9.000    0.000    0.000    0.000    0.000    0.000 
#    0.000    0.000    0.000    0.000    0.000    0.000 
#
# Total GULP energy -89219.729232 kJ/mol
# GULP energy per Si atom -5576.233077 kJ/mol
# Density = 2.665630 g / cm^3
# Si number density = 26.717112 Si / 1000 Ang^3
#
#
#
# Elastic Constant Matrix: (Units=GPa)
#
#
# Indices 1 2 3 4 5 6 
#
# 1 106.2043 6.1844 38.3311 -7.6740 -30.9445 17.0328
# 2 6.1844 120.9792 20.0617 25.8554 -12.8704 -23.8484
# 3 38.3311 20.0617 134.4280 14.7974 -27.6637 4.7921
# 4 -7.6740 25.8554 14.7974 81.8285 -8.9398 -16.1648
# 5 -30.9445 -12.8704 -27.6637 -8.9398 46.8832 1.3865
# 6 17.0328 -23.8484 4.7921 -16.1648 1.3865 25.2670
#
#
#
# Elastic Compliance Matrix: (Units=1/GPa)
#
#
# Indices 1 2 3 4 5 6 
#
# 1 0.014512 -0.001941 -0.001820 0.001046 0.008499 -0.011067
# 2 -0.001941 0.011094 -0.001279 -0.001187 0.000451 0.011239
# 3 -0.001820 -0.001279 0.009182 -0.001612 0.003645 -0.002953
# 4 0.001046 -0.001187 -0.001612 0.014745 0.001994 0.007804
# 5 0.008499 0.000451 0.003645 0.001994 0.029782 -0.006353
# 6 -0.011067 0.011239 -0.002953 0.007804 -0.006353 0.063547
#
#
# Mechanical properties :
#
#
# Convention : Reuss Voigt Hill
#
# Bulk Modulus (GPa) = 40.47390 54.52955 47.50172
# Shear Modulus (GPa) = 31.02136 50.59803 40.80969
#
# Velocity S-wave (km/s) = 3.41119 4.35655 3.91253
# Velocity P-wave (km/s) = 5.54048 6.76464 6.18293
#
# Compressibility (1/GPa) = 0.02470728
#
# Stress axis : x y z
#
# Youngs Moduli (GPa) = 68.90634 90.13624 108.91230
#
# Poissons Ratio (x) = 0.17496 0.19823
# Poissons Ratio (y) = 0.13375 0.13935
# Poissons Ratio (z) = 0.12542 0.11532
#
# Static dielectric constant tensor:
#      x y z
#    x 2.832630 -0.735980 -0.997960 
#    y -0.735980 2.947650 0.925780 
#    z -0.997960 0.925780 3.444650 
# 
# From -- ./inp_files/534122.got.cif
#   From: 2010.05.17/outbox.cif.g08.bks.cpg/sg2_268_cif.got.tgz:534122.got - 2010.06.03 11:33:40.
