data_PCOD9056668
_publ_section_title
;
Structure prediction by ZEFSAII (Michael W. Deem and Ramdas Pophale) SiO2 
 PCOD9056668
Probable space group: P -1
;
_chemical_formula_sum "Si O2"
_cell_formula_units_Z 16
_cell_length_a 13.748988
_cell_length_b 11.639685
_cell_length_c 8.971450
_cell_angle_alpha 55.648069
_cell_angle_beta 83.324259
_cell_angle_gamma 43.403462
_cell_volume 696.807724
_symmetry_space_group_name_H-M "P -1"
_symmetry_group_IT_number 2
_symmetry_cell_setting 'triclinic'
loop_
_space_group_symop_operation_xyz
x,y,z
-x,-y,-z
loop_
_atom_site_type_symbol
_atom_site_label
_atom_site_fract_x
_atom_site_fract_y
_atom_site_fract_z
Si Si1 0.333992 0.703707 0.057287
Si Si2 0.385092 0.959844 0.879272
Si Si3 0.139296 0.803875 0.774951
Si Si4 0.165825 0.746050 0.308718
Si Si5 0.657700 0.995653 0.789097
Si Si6 0.693085 0.682476 0.533491
Si Si7 0.683507 0.269773 0.468602
Si Si8 0.259024 0.375857 0.076465
O O1 0.195300 0.820666 0.116449
O O2 0.509066 0.468766 0.271790
O O3 0.328031 0.873165 0.902287
O O4 0.302351 0.644692 0.963958
O O5 0.574724 0.765467 0.936641
O O6 0.284914 0.195168 0.640476
O O7 0.371115 0.985539 0.042177
O O8 0.176444 0.846498 0.588563
O O9 0.130514 0.648074 0.873091
O O10 0.994500 0.036011 0.727602
O O11 0.181011 0.576720 0.361658
O O12 0.315373 0.609380 0.496978
O O13 0.488080 0.162103 0.603918
O O14 0.714428 0.086125 0.673389
O O15 0.777341 0.734608 0.903061
O O16 0.705301 0.677109 0.713832
#
# Coordination Sequence:
#
# PCOD9056668 Si02
#       8
#     2   2   2   2   2   2   2   2
#     4  12  23  42  72  96 130 171 234 268 320 385
#     4  11  23  39  65  99 127 171 221 277 319 383
#     4  12  27  42  68  99 140 173 214 272 342 388
#     4  12  25  46  65  98 139 177 211 274 339 392
#     4  11  22  40  65  97 129 170 222 277 318 382
#     4  11  23  38  66  94 135 170 216 271 335 383
#     4  12  24  43  70 101 126 176 230 274 311 391
#     4  11  23  39  64  97 134 168 217 272 333 385
#
# _framework density 22.961859
#
# number of rings (size 3 to 8) (size 9 to 14) (size 15 to 20)
#    0.000    0.500    5.000    5.250    5.250    0.000 
#    0.000    2.500    0.000    0.000    0.000    0.000 
#    0.000    0.000    0.000    0.000    0.000    0.000 
#
# Total GULP energy -89571.436969 kJ/mol
# GULP energy per Si atom -5598.214811 kJ/mol
# Density = 2.290960 g / cm^3
# Si number density = 22.961859 Si / 1000 Ang^3
#
#
#
# Elastic Constant Matrix: (Units=GPa)
#
#
# Indices 1 2 3 4 5 6 
#
# 1 67.1335 42.0130 43.1162 -1.6853 -37.1296 15.3089
# 2 42.0130 150.9689 59.5027 10.9086 -29.1712 13.8177
# 3 43.1162 59.5027 121.5481 18.9550 -34.1249 3.3545
# 4 -1.6853 10.9086 18.9550 45.6573 4.6388 -9.0067
# 5 -37.1296 -29.1712 -34.1249 4.6388 54.8313 -0.9239
# 6 15.3089 13.8177 3.3545 -9.0067 -0.9239 40.0402
#
#
#
# Elastic Compliance Matrix: (Units=1/GPa)
#
#
# Indices 1 2 3 4 5 6 
#
# 1 0.031074 -0.002637 -0.004856 0.000119 0.016436 -0.010158
# 2 -0.002637 0.009049 -0.002774 -0.001691 0.001408 -0.002230
# 3 -0.004856 -0.002774 0.013214 -0.005280 0.003917 0.000610
# 4 0.000119 -0.001691 -0.005280 0.026475 -0.006230 0.006792
# 5 0.016436 0.001408 0.003917 -0.006230 0.032951 -0.007739
# 6 -0.010158 -0.002230 0.000610 0.006792 -0.007739 0.030926
#
#
# Mechanical properties :
#
#
# Convention : Reuss Voigt Hill
#
# Bulk Modulus (GPa) = 30.48416 69.87934 50.18175
# Shear Modulus (GPa) = 28.54558 41.10700 34.82629
#
# Velocity S-wave (km/s) = 3.52969 4.23570 3.89871
# Velocity P-wave (km/s) = 5.46959 7.37702 6.49372
#
# Compressibility (1/GPa) = 0.03280392
#
# Stress axis : x y z
#
# Youngs Moduli (GPa) = 32.18116 110.50435 75.67731
#
# Poissons Ratio (x) = 0.29137 0.36747
# Poissons Ratio (y) = 0.08485 0.20995
# Poissons Ratio (z) = 0.15626 0.30657
#
# Static dielectric constant tensor:
#      x y z
#    x 1.883700 -0.014840 0.059340 
#    y -0.014840 1.859570 -0.022570 
#    z 0.059340 -0.022570 1.934140 
# 
# From -- ./inp_files/306744.got.cif
#   From: 2010.05.17/outbox.cif.g08.bks.cpg/sg2_154_cif.got.tgz:306744.got - 2010.06.03 11:33:40.
