data_PCOD9056475
_publ_section_title
;
Structure prediction by ZEFSAII (Michael W. Deem and Ramdas Pophale) SiO2 
 PCOD9056475
Probable space group: P -1
;
_chemical_formula_sum "Si O2"
_cell_formula_units_Z 16
_cell_length_a 12.250320
_cell_length_b 7.900074
_cell_length_c 14.527709
_cell_angle_alpha 79.142826
_cell_angle_beta 140.793779
_cell_angle_gamma 74.581289
_cell_volume 653.115648
_symmetry_space_group_name_H-M "P -1"
_symmetry_group_IT_number 2
_symmetry_cell_setting 'triclinic'
loop_
_space_group_symop_operation_xyz
x,y,z
-x,-y,-z
loop_
_atom_site_type_symbol
_atom_site_label
_atom_site_fract_x
_atom_site_fract_y
_atom_site_fract_z
Si Si1 0.666474 0.579568 0.311894
Si Si2 0.236220 0.011659 0.435698
Si Si3 0.234576 0.857768 0.263681
Si Si4 0.750441 0.341184 0.878639
Si Si5 0.412471 0.020409 0.221394
Si Si6 0.563654 0.658348 0.027949
Si Si7 0.093009 0.490657 0.899223
Si Si8 0.052232 0.053596 0.627304
O O1 0.470022 0.571223 0.215264
O O2 0.903336 0.325144 0.515226
O O3 0.585949 0.800568 0.291790
O O4 0.662729 0.623547 0.197288
O O5 0.316007 0.838482 0.421829
O O6 0.437409 0.921002 0.647480
O O7 0.033422 0.036113 0.348211
O O8 0.142700 0.258668 0.311454
O O9 0.286274 0.658403 0.254515
O O10 0.343127 0.940522 0.266550
O O11 0.958321 0.069569 0.064736
O O12 0.846741 0.452561 0.971780
O O13 0.173051 0.242914 0.996456
O O14 0.737070 0.578606 0.067158
O O15 0.500000 0.500000 0.000000
O O16 0.320928 0.913964 0.828686
O O17 0.000000 0.000000 0.500000
#
# Coordination Sequence:
#
# PCOD9056475 Si02
#       8
#     2   2   2   2   2   2   2   2
#     4  11  23  40  61  93 124 160 200 255 304 357
#     4  11  22  39  63  91 122 160 205 248 306 368
#     4   9  20  38  62  90 119 162 206 254 301 354
#     4   9  17  37  63  87 116 152 210 253 292 344
#     4  11  25  41  58  87 134 163 197 247 310 368
#     4  12  20  39  68  92 118 154 208 254 297 359
#     4  11  22  40  64  91 121 164 201 249 310 362
#     4  12  22  39  68  92 117 156 207 257 304 352
#
# _framework density 24.497958000000001
#
# number of rings (size 3 to 8) (size 9 to 14) (size 15 to 20)
#    0.000    1.250    3.750    2.625    0.000    3.500 
#    0.000   12.500    0.000    0.000    0.000    0.000 
#    0.000    0.000    0.000    0.000    0.000    0.000 
#
# Total GULP energy -89485.752581 kJ/mol
# GULP energy per Si atom -5592.859536 kJ/mol
# Density = 2.444220 g / cm^3
# Si number density = 24.497958 Si / 1000 Ang^3
#
#
#
# Elastic Constant Matrix: (Units=GPa)
#
#
# Indices 1 2 3 4 5 6 
#
# 1 73.4338 34.4313 -3.1454 7.8547 -2.7093 -22.4881
# 2 34.4313 94.4053 48.2447 -18.9536 -21.5429 -21.2433
# 3 -3.1454 48.2447 98.9024 -45.2848 5.0160 2.3637
# 4 7.8547 -18.9536 -45.2848 48.2197 -5.9146 0.1082
# 5 -2.7093 -21.5429 5.0160 -5.9146 25.5331 3.1346
# 6 -22.4881 -21.2433 2.3637 0.1082 3.1346 27.7449
#
#
#
# Elastic Compliance Matrix: (Units=1/GPa)
#
#
# Indices 1 2 3 4 5 6 
#
# 1 0.022629 -0.011613 0.004017 -0.005827 -0.010807 0.010352
# 2 -0.011613 0.035274 -0.018571 0.002050 0.030725 0.015698
# 3 0.004017 -0.018571 0.027828 0.016304 -0.015503 -0.011646
# 4 -0.005827 0.002050 0.016304 0.038746 0.007564 -0.005548
# 5 -0.010807 0.030725 -0.015503 0.007564 0.067707 0.008408
# 6 0.010352 0.015698 -0.011646 -0.005548 0.008408 0.056516
#
#
# Mechanical properties :
#
#
# Convention : Reuss Voigt Hill
#
# Bulk Modulus (GPa) = 29.94238 47.31143 38.62690
# Shear Modulus (GPa) = 16.01718 32.78028 24.39873
#
# Velocity S-wave (km/s) = 2.55976 3.66195 3.15929
# Velocity P-wave (km/s) = 4.58098 6.10198 5.39535
#
# Compressibility (1/GPa) = 0.03339748
#
# Stress axis : x y z
#
# Youngs Moduli (GPa) = 44.19045 28.34983 35.93564
#
# Poissons Ratio (x) = 0.32922 -0.14436
# Poissons Ratio (y) = 0.51317 0.66735
# Poissons Ratio (z) = -0.17752 0.52648
#
# Static dielectric constant tensor:
#      x y z
#    x 1.914500 0.026330 -0.008380 
#    y 0.026330 2.006300 -0.023300 
#    z -0.008380 -0.023300 1.977360 
# 
# From -- ./inp_files/304563.got.cif
#   From: 2010.05.17/outbox.cif.g08.bks.cpg/sg2_153_cif.got.tgz:304563.got - 2010.06.03 11:33:40.
