data_PCOD9056662
_publ_section_title
;
Structure prediction by ZEFSAII (Michael W. Deem and Ramdas Pophale) SiO2 
 PCOD9056662
Probable space group: P -1
;
_chemical_formula_sum "Si O2"
_cell_formula_units_Z 14
_cell_length_a 14.066308
_cell_length_b 15.688130
_cell_length_c 7.830471
_cell_angle_alpha 125.995339
_cell_angle_beta 69.399029
_cell_angle_gamma 152.172879
_cell_volume 584.582151
_symmetry_space_group_name_H-M "P -1"
_symmetry_group_IT_number 2
_symmetry_cell_setting 'triclinic'
loop_
_space_group_symop_operation_xyz
x,y,z
-x,-y,-z
loop_
_atom_site_type_symbol
_atom_site_label
_atom_site_fract_x
_atom_site_fract_y
_atom_site_fract_z
Si Si1 0.244258 0.235174 0.780960
Si Si2 0.750957 0.225439 0.789896
Si Si3 0.589986 0.842122 0.409746
Si Si4 0.917675 0.331783 0.469669
Si Si5 0.717510 0.482019 0.464771
Si Si6 0.552616 0.861265 0.059164
Si Si7 0.225967 0.256771 0.425391
O O1 0.254548 0.116820 0.619643
O O2 0.228297 0.272025 0.647343
O O3 0.500000 0.500000 0.000000
O O4 0.000382 0.029072 0.787686
O O5 0.580262 0.151117 0.889589
O O6 0.745230 0.222350 0.584044
O O7 0.697813 0.052952 0.656344
O O8 0.000000 0.500000 0.000000
O O9 0.379619 0.622055 0.407627
O O10 0.528798 0.798492 0.195877
O O11 0.110100 0.452812 0.597302
O O12 0.000000 0.500000 0.500000
O O13 0.810246 0.137234 0.202171
O O14 0.830556 0.697021 0.604891
O O15 0.524093 0.287876 0.214514
O O16 0.500000 0.500000 0.500000
#
# Coordination Sequence:
#
# PCOD9056662 Si02
#       7
#     2   2   2   2   2   2   2
#     4  11  25  48  75 103 146 187 239 313 366 428
#     4  11  22  40  65  94 139 186 226 291 355 424
#     4  11  24  45  67 102 142 184 240 296 357 434
#     4  11  23  40  63  97 134 180 240 287 343 433
#     4  12  24  44  71 100 142 185 236 299 358 433
#     4  11  24  42  64  97 138 185 231 283 362 424
#     4  11  24  47  73 106 141 185 243 303 367 431
#
# _framework density 23.948727999999999
#
# number of rings (size 3 to 8) (size 9 to 14) (size 15 to 20)
#    0.000    0.857    2.857    6.000    2.000    1.714 
#    2.571    0.000    0.000    0.000    0.000    0.000 
#    0.000    0.000    0.000    0.000    0.000    0.000 
#
# Total GULP energy -78063.617671 kJ/mol
# GULP energy per Si atom -5575.972691 kJ/mol
# Density = 2.389422 g / cm^3
# Si number density = 23.948728 Si / 1000 Ang^3
#
#
#
# Elastic Constant Matrix: (Units=GPa)
#
#
# Indices 1 2 3 4 5 6 
#
# 1 97.8961 28.7388 6.0695 8.3247 -5.8926 -13.9751
# 2 28.7388 157.7749 23.7219 35.3058 -0.7388 -18.4896
# 3 6.0695 23.7219 89.2292 29.1523 19.1944 -6.1171
# 4 8.3247 35.3058 29.1523 26.9869 5.3236 -0.4187
# 5 -5.8926 -0.7388 19.1944 5.3236 31.4790 6.0868
# 6 -13.9751 -18.4896 -6.1171 -0.4187 6.0868 46.3034
#
#
#
# Elastic Compliance Matrix: (Units=1/GPa)
#
#
# Indices 1 2 3 4 5 6 
#
# 1 0.011258 -0.001234 0.000078 -0.002277 0.001905 0.002644
# 2 -0.001234 0.010161 0.002798 -0.015924 0.000244 0.003879
# 3 0.000078 0.002798 0.020693 -0.024107 -0.009407 0.004893
# 4 -0.002277 -0.015924 -0.024107 0.084178 0.001533 -0.009671
# 5 0.001905 0.000244 -0.009407 0.001533 0.038697 -0.005643
# 6 0.002644 0.003879 0.004893 -0.009671 -0.005643 0.025244
#
#
# Mechanical properties :
#
#
# Convention : Reuss Voigt Hill
#
# Bulk Modulus (GPa) = 22.02813 51.32893 36.67853
# Shear Modulus (GPa) = 24.74276 40.04520 32.39398
#
# Velocity S-wave (km/s) = 3.21776 4.09360 3.68181
# Velocity P-wave (km/s) = 4.79826 6.61987 5.78126
#
# Compressibility (1/GPa) = 0.04539651
#
# Stress axis : x y z
#
# Youngs Moduli (GPa) = 88.82458 98.41414 48.32620
#
# Poissons Ratio (x) = 0.12144 -0.00376
# Poissons Ratio (y) = 0.10961 -0.13524
# Poissons Ratio (z) = -0.00691 -0.27541
#
# Static dielectric constant tensor:
#      x y z
#    x 2.000930 0.109880 0.079340 
#    y 0.109880 1.952020 0.082520 
#    z 0.079340 0.082520 2.173470 
# 
# From -- ./inp_files/313860.got.cif
#   From: 2010.05.17/outbox.cif.g08.bks.cpg/sg2_157_cif.got.tgz:313860.got - 2010.06.03 11:33:40.
