data_PCOD9056602
_publ_section_title
;
Structure prediction by ZEFSAII (Michael W. Deem and Ramdas Pophale) SiO2 
 PCOD9056602
Probable space group: P -1
;
_chemical_formula_sum "Si O2"
_cell_formula_units_Z 12
_cell_length_a 9.110351
_cell_length_b 22.161334
_cell_length_c 9.719843
_cell_angle_alpha 151.257089
_cell_angle_beta 40.995973
_cell_angle_gamma 144.377264
_cell_volume 543.417848
_symmetry_space_group_name_H-M "P -1"
_symmetry_group_IT_number 2
_symmetry_cell_setting 'triclinic'
loop_
_space_group_symop_operation_xyz
x,y,z
-x,-y,-z
loop_
_atom_site_type_symbol
_atom_site_label
_atom_site_fract_x
_atom_site_fract_y
_atom_site_fract_z
Si Si1 0.149015 0.148623 0.267517
Si Si2 0.238810 0.129243 0.669248
Si Si3 0.389760 0.598954 0.716677
Si Si4 0.994479 0.682084 0.673317
Si Si5 0.743665 0.227017 0.632502
Si Si6 0.510712 0.853615 0.735443
O O1 0.384718 0.267421 0.251926
O O2 0.278772 0.120180 0.249979
O O3 0.926711 0.191688 0.527377
O O4 0.000000 0.000000 0.000000
O O5 0.447130 0.107482 0.570207
O O6 0.411571 0.209030 0.575809
O O7 0.000000 0.000000 0.500000
O O8 0.152821 0.227930 0.010376
O O9 0.500000 0.500000 0.500000
O O10 0.171890 0.487753 0.547957
O O11 0.282603 0.650728 0.022284
O O12 0.112373 0.727382 0.525755
O O13 0.220464 0.740070 0.741036
O O14 0.500000 0.000000 0.000000
#
# Coordination Sequence:
#
# PCOD9056602 Si02
#       6
#     2   2   2   2   2   2
#     4  12  28  45  71 112 146 182 245 301 359 426
#     4  11  22  39  72 102 140 196 237 282 359 427
#     4  12  25  46  77 108 143 192 239 293 365 430
#     4  11  23  44  73 104 141 192 238 285 356 431
#     4  11  24  44  75 106 147 183 243 299 356 423
#     4  11  25  45  69 101 146 190 236 298 355 424
#
# _framework density 22.082453999999998
#
# number of rings (size 3 to 8) (size 9 to 14) (size 15 to 20)
#    0.000    0.667    5.000    2.500    2.333    2.667 
#    0.000    1.667    0.000    0.000    0.000    0.000 
#    0.000    0.000    0.000    0.000    0.000    0.000 
#
# Total GULP energy -66954.049108 kJ/mol
# GULP energy per Si atom -5579.504092 kJ/mol
# Density = 2.203219 g / cm^3
# Si number density = 22.082454 Si / 1000 Ang^3
#
#
#
# Elastic Constant Matrix: (Units=GPa)
#
#
# Indices 1 2 3 4 5 6 
#
# 1 195.6413 42.1628 59.8407 2.7730 -10.9982 31.2618
# 2 42.1628 93.0584 47.5652 12.4545 1.2298 25.4586
# 3 59.8407 47.5652 183.3586 -13.0561 -5.9893 6.2670
# 4 2.7730 12.4545 -13.0561 32.2137 13.5362 6.0916
# 5 -10.9982 1.2298 -5.9893 13.5362 34.7628 4.7930
# 6 31.2618 25.4586 6.2670 6.0916 4.7930 44.9659
#
#
#
# Elastic Compliance Matrix: (Units=1/GPa)
#
#
# Indices 1 2 3 4 5 6 
#
# 1 0.006684 -0.000825 -0.001838 -0.001482 0.002961 -0.004039
# 2 -0.000825 0.016191 -0.004139 -0.007490 0.002370 -0.007255
# 3 -0.001838 -0.004139 0.007363 0.004926 -0.001371 0.002074
# 4 -0.001482 -0.007490 0.004926 0.042714 -0.016058 0.000510
# 5 0.002961 0.002370 -0.001371 -0.016058 0.036312 -0.004905
# 6 -0.004039 -0.007255 0.002074 0.000510 -0.004905 0.029319
#
#
# Mechanical properties :
#
#
# Convention : Reuss Voigt Hill
#
# Bulk Modulus (GPa) = 60.11834 85.68843 72.90339
# Shear Modulus (GPa) = 31.69948 43.88779 37.79364
#
# Velocity S-wave (km/s) = 3.79292 4.46292 4.14149
# Velocity P-wave (km/s) = 6.81654 8.08981 7.48031
#
# Compressibility (1/GPa) = 0.01663386
#
# Stress axis : x y z
#
# Youngs Moduli (GPa) = 149.60526 61.76275 135.82283
#
# Poissons Ratio (x) = 0.05094 0.24968
# Poissons Ratio (y) = 0.12338 0.56216
# Poissons Ratio (z) = 0.27502 0.25563
#
# Static dielectric constant tensor:
#      x y z
#    x 2.058840 0.036500 -0.141310 
#    y 0.036500 1.873130 0.004760 
#    z -0.141310 0.004760 1.984430 
# 
# From -- ./inp_files/224308.got.cif
#   From: 2010.05.17/outbox.cif.g08.bks.cpg/sg2_113_cif.got.tgz:224308.got - 2010.06.03 11:33:40.
