data_PCOD9056663
_publ_section_title
;
Structure prediction by ZEFSAII (Michael W. Deem and Ramdas Pophale) SiO2 
 PCOD9056663
Probable space group: P -1
;
_chemical_formula_sum "Si O2"
_cell_formula_units_Z 14
_cell_length_a 7.159029
_cell_length_b 15.195745
_cell_length_c 12.364381
_cell_angle_alpha 47.701275
_cell_angle_beta 85.803739
_cell_angle_gamma 49.671410
_cell_volume 581.088675
_symmetry_space_group_name_H-M "P -1"
_symmetry_group_IT_number 2
_symmetry_cell_setting 'triclinic'
loop_
_space_group_symop_operation_xyz
x,y,z
-x,-y,-z
loop_
_atom_site_type_symbol
_atom_site_label
_atom_site_fract_x
_atom_site_fract_y
_atom_site_fract_z
Si Si1 0.451782 0.143414 0.058194
Si Si2 0.369578 0.877166 0.167532
Si Si3 0.857757 0.306110 0.953672
Si Si4 0.680414 0.778927 0.666676
Si Si5 0.506446 0.422317 0.671178
Si Si6 0.578954 0.632363 0.967487
Si Si7 0.217029 0.268256 0.541589
O O1 0.508297 0.118435 0.948504
O O2 0.081996 0.302656 0.969311
O O3 0.518994 0.233570 0.037011
O O4 0.663420 0.928372 0.276616
O O5 0.267022 0.802377 0.189062
O O6 0.653162 0.721362 0.373108
O O7 0.110543 0.082634 0.076922
O O8 0.611666 0.444954 0.750462
O O9 0.670035 0.347839 0.027889
O O10 0.551719 0.737045 0.781401
O O11 0.656119 0.758794 0.558036
O O12 0.500000 0.000000 0.500000
O O13 0.054460 0.596975 0.837837
O O14 0.500000 0.500000 0.500000
O O15 0.162819 0.541419 0.607676
#
# Coordination Sequence:
#
# PCOD9056663 Si02
#       7
#     2   2   2   2   2   2   2
#     4  11  22  43  69  97 138 174 213 271 338 402
#     4  11  23  40  64  96 141 174 209 269 343 396
#     4  11  23  41  65 100 130 173 221 265 335 399
#     4  11  23  44  72  93 129 181 228 277 334 389
#     4  12  23  35  62  99 135 169 218 268 327 405
#     4  11  24  44  73  95 131 181 221 279 338 382
#     4  11  22  40  65  95 129 177 220 271 333 391
#
# _framework density 24.092707999999998
#
# number of rings (size 3 to 8) (size 9 to 14) (size 15 to 20)
#    0.000    0.857    4.286    4.286    2.000    1.143 
#    0.000    5.714    3.143    0.000    0.000    0.000 
#    0.000    0.000    0.000    0.000    0.000    0.000 
#
# Total GULP energy -78354.185585 kJ/mol
# GULP energy per Si atom -5596.727542 kJ/mol
# Density = 2.403787 g / cm^3
# Si number density = 24.092708 Si / 1000 Ang^3
#
#
#
# Elastic Constant Matrix: (Units=GPa)
#
#
# Indices 1 2 3 4 5 6 
#
# 1 53.6346 16.1974 6.9403 4.7923 -4.6152 -20.5003
# 2 16.1974 125.5932 47.6234 25.5035 -11.5460 -16.5918
# 3 6.9403 47.6234 130.5500 16.0928 -20.4285 -8.9189
# 4 4.7923 25.5035 16.0928 48.2658 -2.0349 -11.4890
# 5 -4.6152 -11.5460 -20.4285 -2.0349 38.4224 6.7424
# 6 -20.5003 -16.5918 -8.9189 -11.4890 6.7424 45.6776
#
#
#
# Elastic Compliance Matrix: (Units=1/GPa)
#
#
# Indices 1 2 3 4 5 6 
#
# 1 0.022893 -0.001849 0.000090 0.001029 0.000578 0.009794
# 2 -0.001849 0.010381 -0.002975 -0.003980 0.000889 0.001228
# 3 0.000090 -0.002975 0.009562 -0.001488 0.004150 -0.000160
# 4 0.001029 -0.003980 -0.001488 0.024361 -0.001463 0.005069
# 5 0.000578 0.000889 0.004150 -0.001463 0.029065 -0.003265
# 6 0.009794 0.001228 -0.000160 0.005069 -0.003265 0.028460
#
#
# Mechanical properties :
#
#
# Convention : Reuss Voigt Hill
#
# Bulk Modulus (GPa) = 29.96819 50.14444 40.05631
# Shear Modulus (GPa) = 34.40892 42.40760 38.40826
#
# Velocity S-wave (km/s) = 3.78324 4.20001 3.99706
# Velocity P-wave (km/s) = 5.61690 6.66171 6.16149
#
# Compressibility (1/GPa) = 0.03336871
#
# Stress axis : x y z
#
# Youngs Moduli (GPa) = 43.68242 96.33147 104.57750
#
# Poissons Ratio (x) = 0.17807 -0.00941
# Poissons Ratio (y) = 0.08075 0.31110
# Poissons Ratio (z) = -0.00393 0.28657
#
# Static dielectric constant tensor:
#      x y z
#    x 1.867370 0.028500 -0.021130 
#    y 0.028500 1.900510 -0.004120 
#    z -0.021130 -0.004120 1.974460 
# 
# From -- ./inp_files/200094.got.cif
#   From: 2010.05.17/outbox.cif.g08.bks.cpg/sg2_101_cif.got.tgz:200094.got - 2010.06.03 11:33:40.
