data_PCOD9056436
_publ_section_title
;
Structure prediction by ZEFSAII (Michael W. Deem and Ramdas Pophale) SiO2 
 PCOD9056436
Probable space group: P -1
;
_chemical_formula_sum "Si O2"
_cell_formula_units_Z 16
_cell_length_a 17.673908
_cell_length_b 12.192985
_cell_length_c 9.911116
_cell_angle_alpha 106.162051
_cell_angle_beta 26.238171
_cell_angle_gamma 117.388361
_cell_volume 787.844485
_symmetry_space_group_name_H-M "P -1"
_symmetry_group_IT_number 2
_symmetry_cell_setting 'triclinic'
loop_
_space_group_symop_operation_xyz
x,y,z
-x,-y,-z
loop_
_atom_site_type_symbol
_atom_site_label
_atom_site_fract_x
_atom_site_fract_y
_atom_site_fract_z
Si Si1 0.104933 0.617672 0.765421
Si Si2 0.851670 0.928305 0.595108
Si Si3 0.474838 0.452159 0.177539
Si Si4 0.985452 0.769571 0.171222
Si Si5 0.348304 0.902615 0.096891
Si Si6 0.473027 0.284854 0.763830
Si Si7 0.833717 0.397911 0.631693
Si Si8 0.607198 0.139847 0.300067
O O1 0.332110 0.674392 0.448491
O O2 0.061365 0.564493 0.668108
O O3 0.000000 0.500000 0.000000
O O4 0.066534 0.738461 0.895548
O O5 0.953704 0.890484 0.299946
O O6 0.778707 0.026313 0.699072
O O7 0.690947 0.802133 0.893094
O O8 0.000000 0.000000 0.500000
O O9 0.242436 0.347301 0.513743
O O10 0.528135 0.582086 0.223661
O O11 0.500000 0.500000 0.000000
O O12 0.631804 0.406141 0.949487
O O13 0.156992 0.784551 0.009750
O O14 0.232282 0.753395 0.284088
O O15 0.420276 0.888329 0.825863
O O16 0.500000 0.000000 0.000000
O O17 0.502028 0.215662 0.561325
O O18 0.000000 0.500000 0.500000
O O19 0.500000 0.000000 0.500000
#
# Coordination Sequence:
#
# PCOD9056436 Si02
#       8
#     2   2   2   2   2   2   2   2
#     4  11  22  42  71 106 135 185 239 288 347 428
#     4  12  23  42  71 103 130 190 244 284 335 432
#     4  12  22  42  74 103 139 185 244 290 344 437
#     4  11  22  38  75 102 135 176 258 285 338 405
#     4  12  27  47  69 102 154 181 227 298 376 416
#     4  11  22  38  75 104 134 170 259 284 335 404
#     4  12  30  47  71 108 150 192 227 300 382 415
#     4  11  24  44  72 108 138 189 242 290 346 431
#
# _framework density 20.308575999999999
#
# number of rings (size 3 to 8) (size 9 to 14) (size 15 to 20)
#    0.000    0.500    6.250    1.500    8.750    0.000 
#    0.000    4.375    0.000    0.000    0.000    0.000 
#    0.000    0.000    0.000    0.000    0.000    0.000 
#
# Total GULP energy -89148.799402 kJ/mol
# GULP energy per Si atom -5571.799963 kJ/mol
# Density = 2.026235 g / cm^3
# Si number density = 20.308576 Si / 1000 Ang^3
#
#
#
# Elastic Constant Matrix: (Units=GPa)
#
#
# Indices 1 2 3 4 5 6 
#
# 1 125.1277 53.2653 44.9887 2.3230 2.2731 21.1812
# 2 53.2653 153.3776 40.3073 22.3152 1.4155 12.8995
# 3 44.9887 40.3073 72.0886 5.1803 -5.6342 11.0943
# 4 2.3230 22.3152 5.1803 56.4044 10.6479 0.7286
# 5 2.2731 1.4155 -5.6342 10.6479 39.6108 5.0472
# 6 21.1812 12.8995 11.0943 0.7286 5.0472 33.7465
#
#
#
# Elastic Compliance Matrix: (Units=1/GPa)
#
#
# Indices 1 2 3 4 5 6 
#
# 1 0.011752 -0.002441 -0.005453 0.001253 -0.001125 -0.004509
# 2 -0.002441 0.008657 -0.002944 -0.003110 0.000349 -0.000794
# 3 -0.005453 -0.002944 0.019681 -0.001109 0.003831 -0.002471
# 4 0.001253 -0.003110 -0.001109 0.020063 -0.005662 0.001181
# 5 -0.001125 0.000349 0.003831 -0.005662 0.027970 -0.004747
# 6 -0.004509 -0.000794 -0.002471 0.001181 -0.004747 0.034263
#
#
# Mechanical properties :
#
#
# Convention : Reuss Voigt Hill
#
# Bulk Modulus (GPa) = 54.30973 69.74628 62.02801
# Shear Modulus (GPa) = 33.28863 40.08785 36.68824
#
# Velocity S-wave (km/s) = 4.05302 4.44772 4.25495
# Velocity P-wave (km/s) = 6.97875 7.79706 7.39923
#
# Compressibility (1/GPa) = 0.01841291
#
# Stress axis : x y z
#
# Youngs Moduli (GPa) = 85.09124 115.50925 50.81089
#
# Poissons Ratio (x) = 0.28194 0.27710
# Poissons Ratio (y) = 0.20769 0.14961
# Poissons Ratio (z) = 0.46404 0.34010
#
# Static dielectric constant tensor:
#      x y z
#    x 1.711840 0.033900 0.015160 
#    y 0.033900 1.764230 0.030080 
#    z 0.015160 0.030080 1.766820 
# 
# From -- ./inp_files/307651.got.cif
#   From: 2010.05.17/outbox.cif.g08.bks.cpg/sg2_154_cif.got.tgz:307651.got - 2010.06.03 11:33:40.
