data_PCOD9056238
_publ_section_title
;
Structure prediction by ZEFSAII (Michael W. Deem and Ramdas Pophale) SiO2 
 PCOD9056238
Probable space group: P -1
;
_chemical_formula_sum "Si O2"
_cell_formula_units_Z 16
_cell_length_a 14.988362
_cell_length_b 14.080841
_cell_length_c 9.744902
_cell_angle_alpha 121.533632
_cell_angle_beta 63.737427
_cell_angle_gamma 152.979046
_cell_volume 794.935821
_symmetry_space_group_name_H-M "P -1"
_symmetry_group_IT_number 2
_symmetry_cell_setting 'triclinic'
loop_
_space_group_symop_operation_xyz
x,y,z
-x,-y,-z
loop_
_atom_site_type_symbol
_atom_site_label
_atom_site_fract_x
_atom_site_fract_y
_atom_site_fract_z
Si Si1 0.535961 0.850307 0.819787
Si Si2 0.324702 0.112387 0.993789
Si Si3 0.098690 0.261182 0.066426
Si Si4 0.598093 0.248587 0.722604
Si Si5 0.189958 0.681422 0.913006
Si Si6 0.778363 0.855547 0.159894
Si Si7 0.929704 0.396050 0.618818
Si Si8 0.657917 0.936309 0.489542
O O1 0.566717 0.780714 0.854974
O O2 0.321687 0.698567 0.856418
O O3 0.594959 0.876896 0.645222
O O4 0.679823 0.086947 0.957169
O O5 0.089577 0.873464 0.989695
O O6 0.418738 0.101326 0.835662
O O7 0.340210 0.230823 0.966105
O O8 0.253255 0.504638 0.177488
O O9 0.195223 0.249167 0.916499
O O10 0.994040 0.112111 0.163016
O O11 0.728541 0.269588 0.690241
O O12 0.506184 0.161471 0.567812
O O13 0.102137 0.594026 0.754564
O O14 0.000000 0.500000 0.000000
O O15 0.689443 0.845044 0.332072
O O16 0.000000 0.500000 0.500000
O O17 0.859789 0.201109 0.531963
#
# Coordination Sequence:
#
# PCOD9056238 Si02
#       8
#     2   2   2   2   2   2   2   2
#     4  11  23  38  57  82 124 157 202 233 294 357
#     4   9  20  36  60  86 110 150 202 238 281 358
#     4   9  18  41  66  89 111 153 202 248 296 337
#     4  11  22  36  64  85 117 152 199 247 291 347
#     4  11  23  40  57  79 116 172 197 235 284 358
#     4   8  19  39  65  88 116 150 199 248 295 344
#     4  12  24  38  61  88 123 156 200 244 300 345
#     4  11  23  38  55  94 123 157 190 250 300 349
#
# _framework density 20.127410999999999
#
# number of rings (size 3 to 8) (size 9 to 14) (size 15 to 20)
#    0.750    1.000    1.250    3.375    5.250    2.000 
#    0.000    0.625    0.000    1.500    0.000    0.000 
#    0.000    0.000    0.000    0.000    0.000    0.000 
#
# Total GULP energy -89292.251853 kJ/mol
# GULP energy per Si atom -5580.765741 kJ/mol
# Density = 2.008160 g / cm^3
# Si number density = 20.127411 Si / 1000 Ang^3
#
#
#
# Elastic Constant Matrix: (Units=GPa)
#
#
# Indices 1 2 3 4 5 6 
#
# 1 83.0459 38.9923 52.0128 2.6593 6.7937 22.2419
# 2 38.9923 66.3456 35.0429 -3.6107 2.0121 17.8706
# 3 52.0128 35.0429 113.7191 -5.2006 28.5572 8.0342
# 4 2.6593 -3.6107 -5.2006 30.3606 -5.3610 2.6825
# 5 6.7937 2.0121 28.5572 -5.3610 34.8385 3.0228
# 6 22.2419 17.8706 8.0342 2.6825 3.0228 28.8753
#
#
#
# Elastic Compliance Matrix: (Units=1/GPa)
#
#
# Indices 1 2 3 4 5 6 
#
# 1 0.023638 -0.006038 -0.009204 -0.002604 0.003931 -0.012080
# 2 -0.006038 0.024041 -0.005144 0.004346 0.005523 -0.009778
# 3 -0.009204 -0.005144 0.017296 0.000332 -0.012620 0.006751
# 4 -0.002604 0.004346 0.000332 0.035175 0.005801 -0.004651
# 5 0.003931 0.005523 -0.012620 0.005801 0.039516 -0.007610
# 6 -0.012080 -0.009778 0.006751 -0.004651 -0.007610 0.049338
#
#
# Mechanical properties :
#
#
# Convention : Reuss Voigt Hill
#
# Bulk Modulus (GPa) = 41.31668 57.24517 49.28093
# Shear Modulus (GPa) = 21.02221 27.95237 24.48729
#
# Velocity S-wave (km/s) = 3.23531 3.73066 3.49178
# Velocity P-wave (km/s) = 5.87609 6.86005 6.38705
#
# Compressibility (1/GPa) = 0.02420330
#
# Stress axis : x y z
#
# Youngs Moduli (GPa) = 42.30448 41.59514 57.81813
#
# Poissons Ratio (x) = 0.25117 0.53213
# Poissons Ratio (y) = 0.25546 0.29740
# Poissons Ratio (z) = 0.38935 0.21396
#
# Static dielectric constant tensor:
#      x y z
#    x 1.795950 -0.027130 0.050490 
#    y -0.027130 1.759300 -0.037910 
#    z 0.050490 -0.037910 1.752890 
# 
# From -- ./inp_files/313836.got.cif
#   From: 2010.05.17/outbox.cif.g08.bks.cpg/sg2_157_cif.got.tgz:313836.got - 2010.06.03 11:33:40.
