data_PCOD9056729
_publ_section_title
;
Structure prediction by ZEFSAII (Michael W. Deem and Ramdas Pophale) SiO2 
 PCOD9056729
Probable space group: P -1
;
_chemical_formula_sum "Si O2"
_cell_formula_units_Z 14
_cell_length_a 11.932459
_cell_length_b 8.195529
_cell_length_c 8.969039
_cell_angle_alpha 105.301315
_cell_angle_beta 111.522555
_cell_angle_gamma 35.120036
_cell_volume 468.334667
_symmetry_space_group_name_H-M "P -1"
_symmetry_group_IT_number 2
_symmetry_cell_setting 'triclinic'
loop_
_space_group_symop_operation_xyz
x,y,z
-x,-y,-z
loop_
_atom_site_type_symbol
_atom_site_label
_atom_site_fract_x
_atom_site_fract_y
_atom_site_fract_z
Si Si1 0.531413 0.488248 0.339238
Si Si2 0.698172 0.642452 0.516383
Si Si3 0.386524 0.131398 0.156811
Si Si4 0.908195 0.748729 0.962778
Si Si5 0.967549 0.946965 0.280173
Si Si6 0.917369 0.370411 0.280035
Si Si7 0.459424 0.356548 0.027536
O O1 0.500000 0.500000 0.500000
O O2 0.552314 0.665608 0.380684
O O3 0.374846 0.556065 0.186064
O O4 0.748689 0.175481 0.308564
O O5 0.592394 0.856304 0.654688
O O6 0.820572 0.582533 0.421580
O O7 0.869066 0.342250 0.617823
O O8 0.354408 0.961903 0.069969
O O9 0.508159 0.125952 0.119218
O O10 0.141317 0.411670 0.060698
O O11 0.940113 0.704375 0.789488
O O12 0.937358 0.893920 0.093469
O O13 0.014050 0.091932 0.326264
O O14 0.729934 0.516995 0.123758
O O15 0.500000 0.500000 0.000000
#
# Coordination Sequence:
#
# PCOD9056729 Si02
#       7
#     2   2   2   2   2   2   2
#     4  11  22  40  67  98 130 179 222 271 336 401
#     4  11  24  45  69 101 139 176 228 285 337 393
#     4  11  23  43  69  97 138 179 224 277 345 403
#     4  12  22  43  71  99 130 183 232 274 341 405
#     4  11  24  46  69  99 137 181 225 284 335 402
#     4  11  25  42  68 102 138 175 232 282 331 405
#     4  11  23  43  70  98 136 183 223 276 341 411
#
# _framework density 29.893153999999999
#
# number of rings (size 3 to 8) (size 9 to 14) (size 15 to 20)
#    0.000    0.857    5.714    2.143    0.000    3.429 
#    2.571    0.000    3.143    0.000    0.000    0.000 
#    0.000    0.000    0.000    0.000    0.000    0.000 
#
# Total GULP energy -78183.761412 kJ/mol
# GULP energy per Si atom -5584.554387 kJ/mol
# Density = 2.982512 g / cm^3
# Si number density = 29.893154 Si / 1000 Ang^3
#
#
#
# Elastic Constant Matrix: (Units=GPa)
#
#
# Indices 1 2 3 4 5 6 
#
# 1 191.6566 45.6214 74.2875 30.0204 -38.5677 -5.7885
# 2 45.6214 189.2022 34.4508 31.2326 -10.2263 2.1111
# 3 74.2875 34.4508 216.2390 30.0224 -39.1558 9.8866
# 4 30.0204 31.2326 30.0224 36.3689 -13.0509 13.5545
# 5 -38.5677 -10.2263 -39.1558 -13.0509 73.4791 6.7304
# 6 -5.7885 2.1111 9.8866 13.5545 6.7304 45.7642
#
#
#
# Elastic Compliance Matrix: (Units=1/GPa)
#
#
# Indices 1 2 3 4 5 6 
#
# 1 0.007052 -0.000663 -0.001502 -0.004164 0.001867 0.002206
# 2 -0.000663 0.006336 -0.000206 -0.005486 -0.000678 0.001393
# 3 -0.001502 -0.000206 0.005912 -0.002346 0.002014 -0.001059
# 4 -0.004164 -0.005486 -0.002346 0.044446 0.004946 -0.013658
# 5 0.001867 -0.000678 0.002014 0.004946 0.016823 -0.004107
# 6 0.002206 0.001393 -0.001059 -0.013658 -0.004107 0.026944
#
#
# Mechanical properties :
#
#
# Convention : Reuss Voigt Hill
#
# Bulk Modulus (GPa) = 68.69209 100.64635 84.66922
# Shear Modulus (GPa) = 42.69519 60.63831 51.66675
#
# Velocity S-wave (km/s) = 3.78333 4.50878 4.16189
# Velocity P-wave (km/s) = 6.48952 7.80046 7.17499
#
# Compressibility (1/GPa) = 0.01455772
#
# Stress axis : x y z
#
# Youngs Moduli (GPa) = 141.79887 157.82091 169.14434
#
# Poissons Ratio (x) = 0.10470 0.25400
# Poissons Ratio (y) = 0.09407 0.03492
# Poissons Ratio (z) = 0.21293 0.03258
#
# Static dielectric constant tensor:
#      x y z
#    x 2.403900 0.087950 0.003080 
#    y 0.087950 2.921800 0.044370 
#    z 0.003080 0.044370 2.364810 
# 
# From -- ./inp_files/167966.got.cif
#   From: 2010.05.17/outbox.cif.g08.bks.cpg/sg2_84_cif.got.tgz:167966.got - 2010.06.03 11:33:40.
