data_PCOD9056812
_publ_section_title
;
Structure prediction by ZEFSAII (Michael W. Deem and Ramdas Pophale) SiO2 
 PCOD9056812
Probable space group: P -1
;
_chemical_formula_sum "Si O2"
_cell_formula_units_Z 16
_cell_length_a 15.518632
_cell_length_b 9.417217
_cell_length_c 19.077494
_cell_angle_alpha 38.157721
_cell_angle_beta 26.711440
_cell_angle_gamma 38.613371
_cell_volume 742.301399
_symmetry_space_group_name_H-M "P -1"
_symmetry_group_IT_number 2
_symmetry_cell_setting 'triclinic'
loop_
_space_group_symop_operation_xyz
x,y,z
-x,-y,-z
loop_
_atom_site_type_symbol
_atom_site_label
_atom_site_fract_x
_atom_site_fract_y
_atom_site_fract_z
Si Si1 0.415175 0.215685 0.916639
Si Si2 0.607648 0.457757 0.077970
Si Si3 0.736543 0.457762 0.342198
Si Si4 0.856521 0.941050 0.067065
Si Si5 0.881159 0.653020 0.702756
Si Si6 0.030345 0.140637 0.146527
Si Si7 0.225360 0.776966 0.448170
Si Si8 0.151973 0.610777 0.307204
O O1 0.350826 0.475727 0.899390
O O2 0.572720 0.245000 0.732607
O O3 0.229643 0.175989 0.024280
O O4 0.500000 0.000000 0.000000
O O5 0.370583 0.576522 0.194091
O O6 0.671903 0.184967 0.110181
O O7 0.751683 0.588889 0.883029
O O8 0.500000 0.500000 0.500000
O O9 0.789240 0.704703 0.223421
O O10 0.804544 0.278083 0.427440
O O11 0.844552 0.343337 0.236020
O O12 0.946783 0.892723 0.941259
O O13 0.000000 0.000000 0.000000
O O14 0.807852 0.532661 0.738272
O O15 0.119839 0.588263 0.562825
O O16 0.848801 0.934368 0.611685
O O17 0.032530 0.883284 0.274397
O O18 0.000000 0.500000 0.500000
#
# Coordination Sequence:
#
# PCOD9056812 Si02
#       8
#     2   2   2   2   2   2   2   2
#     4  12  23  43  73 114 145 185 229 294 381 448
#     4  12  25  44  72 109 149 188 238 299 372 435
#     4  12  29  49  73 103 144 203 252 298 355 435
#     4  12  28  51  74 104 147 204 250 298 354 441
#     4  11  22  40  70 104 146 184 231 304 376 419
#     4  12  26  48  77 102 146 190 249 300 366 441
#     4  11  24  42  71 105 149 188 241 299 359 440
#     4  12  25  39  71 111 148 182 234 311 379 426
#
# _framework density 21.554584999999999
#
# number of rings (size 3 to 8) (size 9 to 14) (size 15 to 20)
#    0.000    0.250    3.750    5.250    7.000    1.000 
#    0.000    1.250    0.000    0.000    0.000    0.000 
#    0.000    0.000    0.000    0.000    0.000    0.000 
#
# Total GULP energy -89190.845033 kJ/mol
# GULP energy per Si atom -5574.427815 kJ/mol
# Density = 2.150553 g / cm^3
# Si number density = 21.554585 Si / 1000 Ang^3
#
#
#
# Elastic Constant Matrix: (Units=GPa)
#
#
# Indices 1 2 3 4 5 6 
#
# 1 8.6297 18.5175 -132.2333 102.0404 -61.5946 54.4982
# 2 18.5175 111.2549 34.9929 -9.1716 1.5929 26.6892
# 3 -132.2333 34.9929 -96.6381 184.8699 -94.6304 61.5562
# 4 102.0404 -9.1716 184.8699 -63.0141 65.4470 -23.7404
# 5 -61.5946 1.5929 -94.6304 65.4470 10.4450 18.6410
# 6 54.4982 26.6892 61.5562 -23.7404 18.6410 30.7508
#
#
#
# Elastic Compliance Matrix: (Units=1/GPa)
#
#
# Indices 1 2 3 4 5 6 
#
# 1 0.010165 0.001477 -0.003599 0.006353 -0.001611 -0.006211
# 2 0.001477 0.011513 -0.001163 0.001943 0.001051 -0.009418
# 3 -0.003599 -0.001163 0.004389 0.002740 -0.003322 0.002730
# 4 0.006353 0.001943 0.002740 0.012473 0.005511 -0.012142
# 5 -0.001611 0.001051 -0.003322 0.005511 0.018042 0.001911
# 6 -0.006211 -0.009418 0.002730 -0.012142 0.001911 0.035703
#
#
# Mechanical properties :
#
#
# Convention : Reuss Voigt Hill
#
# Bulk Modulus (GPa) = 51.29120 -14.91105 18.19008
# Shear Modulus (GPa) = 47.45954 2.43428 24.94691
#
# Velocity S-wave (km/s) = 4.69746 1.06387 3.40572
# Velocity P-wave (km/s) = 7.29857 2.32889 4.89108
#
# Compressibility (1/GPa) = 0.01949652
#
# Stress axis : x y z
#
# Youngs Moduli (GPa) = 98.37924 86.85940 227.82745
#
# Poissons Ratio (x) = -0.12827 0.81993
# Poissons Ratio (y) = -0.14529 0.26498
# Poissons Ratio (z) = 0.35406 0.10102
#
# Static dielectric constant tensor:
#      x y z
#    x 2.042800 -0.066940 0.084010 
#    y -0.066940 1.795200 -0.067590 
#    z 0.084010 -0.067590 1.503430 
# 
# From -- ./inp_files/216533.got.cif
#   From: 2010.05.17/outbox.cif.g08.bks.cpg/sg2_109_cif.got.tgz:216533.got - 2010.06.03 11:33:40.
