data_PCOD9056613
_publ_section_title
;
Structure prediction by ZEFSAII (Michael W. Deem and Ramdas Pophale) SiO2 
 PCOD9056613
Probable space group: P -1
;
_chemical_formula_sum "Si O2"
_cell_formula_units_Z 15
_cell_length_a 14.257739
_cell_length_b 9.311848
_cell_length_c 7.358892
_cell_angle_alpha 48.706439
_cell_angle_beta 98.175736
_cell_angle_gamma 108.733365
_cell_volume 691.830242
_symmetry_space_group_name_H-M "P -1"
_symmetry_group_IT_number 2
_symmetry_cell_setting 'triclinic'
loop_
_space_group_symop_operation_xyz
x,y,z
-x,-y,-z
loop_
_atom_site_type_symbol
_atom_site_label
_atom_site_fract_x
_atom_site_fract_y
_atom_site_fract_z
Si Si1 0.356131 0.498822 0.640720
Si Si2 0.283744 0.471359 0.248059
Si Si3 0.000000 0.500000 0.500000
Si Si4 0.737790 0.962023 0.420867
Si Si5 0.829152 0.241889 0.913238
Si Si6 0.514123 0.931294 0.267346
Si Si7 0.784468 0.290451 0.470537
Si Si8 0.497155 0.322903 0.006629
O O1 0.293435 0.431063 0.498665
O O2 0.284052 0.565925 0.703178
O O3 0.407066 0.333483 0.846054
O O4 0.445869 0.704107 0.463582
O O5 0.207136 0.597662 0.112781
O O6 0.393280 0.605276 0.109476
O O7 0.257072 0.253854 0.334130
O O8 0.937326 0.348791 0.772508
O O9 0.899113 0.420446 0.412234
O O10 0.626606 0.942014 0.336873
O O11 0.764613 0.117379 0.463390
O O12 0.810937 0.052118 0.196543
O O13 0.760698 0.199617 0.746179
O O14 0.481514 0.093744 0.245386
O O15 0.500000 0.000000 0.000000
O O16 0.500000 0.500000 0.000000
#
# Coordination Sequence:
#
# PCOD9056613 Si02
#       8
#     2   2   1   2   2   2   2   2
#     4  11  22  40  59  86 128 169 207 245 305 371
#     4  11  22  40  57  93 125 165 211 252 299 379
#     4   8  20  48  72  84 122 160 210 270 324 368
#     4  12  22  38  66  95 127 165 210 251 317 369
#     4   9  21  45  67  87 126 162 204 267 317 368
#     4  12  22  37  61  88 129 178 205 242 303 376
#     4   9  22  41  67  93 118 167 212 259 312 378
#     4  12  24  35  55  92 129 167 208 247 298 360
#
# _framework density 21.681621
#
# number of rings (size 3 to 8) (size 9 to 14) (size 15 to 20)
#    0.800    0.533    4.000    2.800    1.867    1.600 
#    0.000    1.333    0.000    0.000    0.000    0.000 
#    0.000    0.000    0.000    0.000    0.000    0.000 
#
# Total GULP energy -83527.120956 kJ/mol
# GULP energy per Si atom -5568.474730 kJ/mol
# Density = 2.163227 g / cm^3
# Si number density = 21.681621 Si / 1000 Ang^3
#
#
#
# Elastic Constant Matrix: (Units=GPa)
#
#
# Indices 1 2 3 4 5 6 
#
# 1 42.0896 33.8750 23.7790 -13.6680 -19.5592 19.4615
# 2 33.8750 85.3377 25.1006 -10.0908 -4.3404 -0.0916
# 3 23.7790 25.1006 80.0501 -15.3594 2.8168 -1.8486
# 4 -13.6680 -10.0908 -15.3594 25.4438 -0.8469 0.3451
# 5 -19.5592 -4.3404 2.8168 -0.8469 28.9581 -4.8829
# 6 19.4615 -0.0916 -1.8486 0.3451 -4.8829 27.3336
#
#
#
# Elastic Compliance Matrix: (Units=1/GPa)
#
#
# Indices 1 2 3 4 5 6 
#
# 1 1.568977 -0.432991 -0.279224 0.544961 0.871226 -0.988687
# 2 -0.432991 0.132781 0.073413 -0.147244 -0.237960 0.273048
# 3 -0.279224 0.073413 0.064869 -0.089333 -0.156744 0.176567
# 4 0.544961 -0.147244 -0.089333 0.234488 0.303683 -0.343257
# 5 0.871226 -0.237960 -0.156744 0.303683 0.519946 -0.542660
# 6 -0.988687 0.273048 0.176567 -0.343257 -0.542660 0.660777
#
#
# Mechanical properties :
#
#
# Convention : Reuss Voigt Hill
#
# Bulk Modulus (GPa) = 2.04489 41.44297 21.74393
# Shear Modulus (GPa) = 1.08168 24.66197 12.87182
#
# Velocity S-wave (km/s) = 0.70709 3.37628 2.43919
# Velocity P-wave (km/s) = 1.26958 5.86130 4.24068
#
# Compressibility (1/GPa) = 0.48902272
#
# Stress axis : x y z
#
# Youngs Moduli (GPa) = 0.63736 7.53119 15.41560
#
# Poissons Ratio (x) = 3.26094 4.30441
# Poissons Ratio (y) = 0.27597 -1.13170
# Poissons Ratio (z) = 0.17797 -0.55288
#
# Static dielectric constant tensor:
#      x y z
#    x 1.789040 -0.044580 0.028470 
#    y -0.044580 1.869500 0.061830 
#    z 0.028470 0.061830 1.858770 
# 
# From -- ./inp_files/196725.got.cif
#   From: 2010.05.17/outbox.cif.g08.bks.cpg/sg2_99_cif.got.tgz:196725.got - 2010.06.03 11:33:40.
