data_PCOD9056887
_publ_section_title
;
Structure prediction by ZEFSAII (Michael W. Deem and Ramdas Pophale) SiO2 
 PCOD9056887
Probable space group: P -1
;
_chemical_formula_sum "Si O2"
_cell_formula_units_Z 16
_cell_length_a 7.930678
_cell_length_b 20.422524
_cell_length_c 22.099696
_cell_angle_alpha 19.032208
_cell_angle_beta 34.063433
_cell_angle_gamma 33.502429
_cell_volume 628.055572
_symmetry_space_group_name_H-M "P -1"
_symmetry_group_IT_number 2
_symmetry_cell_setting 'triclinic'
loop_
_space_group_symop_operation_xyz
x,y,z
-x,-y,-z
loop_
_atom_site_type_symbol
_atom_site_label
_atom_site_fract_x
_atom_site_fract_y
_atom_site_fract_z
Si Si1 0.573620 0.018369 0.041045
Si Si2 0.959670 0.431820 0.186739
Si Si3 0.427428 0.156691 0.087722
Si Si4 0.787420 0.730757 0.622207
Si Si5 0.525568 0.579506 0.044970
Si Si6 0.848544 0.049244 0.238923
Si Si7 0.323180 0.904611 0.449287
Si Si8 0.646931 0.623149 0.298656
O O1 0.645852 0.039592 0.071441
O O2 0.766023 0.802052 0.142045
O O3 0.562142 0.227159 0.822771
O O4 0.219059 0.989733 0.169561
O O5 0.175554 0.308218 0.283668
O O6 0.148835 0.400066 0.095952
O O7 0.671449 0.333498 0.354450
O O8 0.843343 0.678865 0.012952
O O9 0.536067 0.304373 0.974527
O O10 0.308925 0.005599 0.298973
O O11 0.791189 0.958530 0.400272
O O12 0.087148 0.560311 0.652174
O O13 0.500225 0.653962 0.748003
O O14 0.285851 0.712824 0.949958
O O15 0.634261 0.938716 0.357674
O O16 0.000000 0.000000 0.500000
O O17 0.500000 0.500000 0.500000
#
# Coordination Sequence:
#
# PCOD9056887 Si02
#       8
#     2   2   2   2   2   2   2   2
#     4  11  23  43  70  93 124 167 218 270 324 386
#     4  12  23  41  64  96 132 178 216 255 323 382
#     4  11  23  41  66  92 132 174 213 259 324 379
#     4  12  24  40  68  96 128 169 222 267 317 388
#     4  11  24  40  62  95 137 173 211 260 316 384
#     4  11  22  41  62  94 130 170 212 261 317 376
#     4  11  24  41  62  95 136 176 211 261 317 378
#     4  11  23  43  68  97 124 162 218 277 330 373
#
# _framework density 25.475453000000002
#
# number of rings (size 3 to 8) (size 9 to 14) (size 15 to 20)
#    0.000    0.750    6.250    2.250    1.750    0.500 
#    0.000    0.625    0.000    4.500    0.000    0.000 
#    0.000    0.000    0.000    0.000    0.000    0.000 
#
# Total GULP energy -89446.958940 kJ/mol
# GULP energy per Si atom -5590.434934 kJ/mol
# Density = 2.541747 g / cm^3
# Si number density = 25.475453 Si / 1000 Ang^3
#
#
#
# Elastic Constant Matrix: (Units=GPa)
#
#
# Indices 1 2 3 4 5 6 
#
# 1 111.9131 25.1759 39.0068 18.6860 10.8504 19.5137
# 2 25.1759 92.3608 24.2908 8.0549 11.8855 15.3876
# 3 39.0068 24.2908 194.6344 13.1550 23.9950 3.3419
# 4 18.6860 8.0549 13.1550 41.0570 3.1836 5.9094
# 5 10.8504 11.8855 23.9950 3.1836 51.3898 12.6428
# 6 19.5137 15.3876 3.3419 5.9094 12.6428 44.5735
#
#
#
# Elastic Compliance Matrix: (Units=1/GPa)
#
#
# Indices 1 2 3 4 5 6 
#
# 1 0.011166 -0.001652 -0.001715 -0.003674 -0.000039 -0.003691
# 2 -0.001652 0.012253 -0.000935 -0.000827 -0.001267 -0.002967
# 3 -0.001715 -0.000935 0.005946 -0.000958 -0.002499 0.001464
# 4 -0.003674 -0.000827 -0.000958 0.026719 0.000158 -0.001621
# 5 -0.000039 -0.001267 -0.002499 0.000158 0.022322 -0.005711
# 6 -0.003691 -0.002967 0.001464 -0.001621 -0.005711 0.026800
#
#
# Mechanical properties :
#
#
# Convention : Reuss Voigt Hill
#
# Bulk Modulus (GPa) = 48.16926 63.98391 56.07659
# Shear Modulus (GPa) = 41.41464 48.09971 44.75718
#
# Velocity S-wave (km/s) = 4.03633 4.34992 4.19606
# Velocity P-wave (km/s) = 6.37744 7.09926 6.74801
#
# Compressibility (1/GPa) = 0.02076013
#
# Stress axis : x y z
#
# Youngs Moduli (GPa) = 89.55962 81.61303 168.18299
#
# Poissons Ratio (x) = 0.13484 0.28844
# Poissons Ratio (y) = 0.14797 0.15725
# Poissons Ratio (z) = 0.15360 0.07631
#
# Static dielectric constant tensor:
#      x y z
#    x 2.081530 -0.021510 0.020110 
#    y -0.021510 2.090250 -0.017140 
#    z 0.020110 -0.017140 2.001100 
# 
# From -- ./inp_files/591576.got.cif
#   From: 2010.05.17/outbox.cif.g08.bks.cpg/sg2_296_cif.got.tgz:591576.got - 2010.06.03 11:33:40.
