data_PCOD9056408
_publ_section_title
;
Structure prediction by ZEFSAII (Michael W. Deem and Ramdas Pophale) SiO2 
 PCOD9056408
Probable space group: P -1
;
_chemical_formula_sum "Si O2"
_cell_formula_units_Z 14
_cell_length_a 9.635440
_cell_length_b 13.880301
_cell_length_c 7.828056
_cell_angle_alpha 124.864164
_cell_angle_beta 43.188939
_cell_angle_gamma 123.357101
_cell_volume 571.178184
_symmetry_space_group_name_H-M "P -1"
_symmetry_group_IT_number 2
_symmetry_cell_setting 'triclinic'
loop_
_space_group_symop_operation_xyz
x,y,z
-x,-y,-z
loop_
_atom_site_type_symbol
_atom_site_label
_atom_site_fract_x
_atom_site_fract_y
_atom_site_fract_z
Si Si1 0.446938 0.625226 0.849853
Si Si2 0.832817 0.081816 0.713605
Si Si3 0.710651 0.441139 0.436448
Si Si4 0.080966 0.300315 0.518143
Si Si5 0.571400 0.248488 0.650088
Si Si6 0.843527 0.869126 0.986869
Si Si7 0.578054 0.023337 0.219813
O O1 0.507940 0.498434 0.710448
O O2 0.305083 0.606389 0.791353
O O3 0.676850 0.696670 0.651691
O O4 0.384461 0.687111 0.138858
O O5 0.941301 0.216404 0.695493
O O6 0.661255 0.019630 0.665071
O O7 0.707679 0.084394 0.002224
O O8 0.000000 0.000000 0.500000
O O9 0.905073 0.558874 0.384941
O O10 0.692536 0.340311 0.492754
O O11 0.043703 0.222557 0.299638
O O12 0.315536 0.212421 0.818009
O O13 0.615352 0.118579 0.436283
O O14 0.672627 0.910184 0.061966
O O15 0.000000 0.000000 0.000000
#
# Coordination Sequence:
#
# PCOD9056408 Si02
#       7
#     2   2   2   2   2   2   2
#     4   8  19  35  63 100 133 177 233 276 344 406
#     4  11  23  43  70 100 143 182 231 284 343 423
#     4   9  19  38  65 100 127 188 232 275 357 402
#     4   9  19  38  66  94 131 178 230 281 337 410
#     4  11  22  38  67 101 142 173 232 289 341 424
#     4  11  23  41  65  98 140 185 224 287 349 406
#     4  11  26  40  66 107 136 184 230 280 359 404
#
# _framework density 24.510739000000001
#
# number of rings (size 3 to 8) (size 9 to 14) (size 15 to 20)
#    0.857    1.143    1.429    1.714    2.000    1.143 
#    0.000    0.714    0.000    6.000    0.000    0.000 
#    0.000    0.000    0.000    0.000    0.000    0.000 
#
# Total GULP energy -78140.418485 kJ/mol
# GULP energy per Si atom -5581.458463 kJ/mol
# Density = 2.445495 g / cm^3
# Si number density = 24.510739 Si / 1000 Ang^3
#
#
#
# Elastic Constant Matrix: (Units=GPa)
#
#
# Indices 1 2 3 4 5 6 
#
# 1 87.1228 39.0003 27.4319 4.9303 -2.1445 15.2145
# 2 39.0003 175.1121 49.6586 -13.7019 10.6162 9.6582
# 3 27.4319 49.6586 73.2095 6.9904 14.4496 8.0269
# 4 4.9303 -13.7019 6.9904 58.0324 6.1209 2.8816
# 5 -2.1445 10.6162 14.4496 6.1209 36.4224 2.8224
# 6 15.2145 9.6582 8.0269 2.8816 2.8224 40.6241
#
#
#
# Elastic Compliance Matrix: (Units=1/GPa)
#
#
# Indices 1 2 3 4 5 6 
#
# 1 0.014693 -0.002200 -0.004137 -0.001448 0.003726 -0.004319
# 2 -0.002200 0.007751 -0.004453 0.002677 -0.001052 -0.000256
# 3 -0.004137 -0.004453 0.019785 -0.002380 -0.006341 -0.000692
# 4 -0.001448 0.002677 -0.002380 0.018626 -0.002994 -0.000737
# 5 0.003726 -0.001052 -0.006341 -0.002994 0.031143 -0.001844
# 6 -0.004319 -0.000256 -0.000692 -0.000737 -0.001844 0.026611
#
#
# Mechanical properties :
#
#
# Convention : Reuss Voigt Hill
#
# Bulk Modulus (GPa) = 48.42878 63.06955 55.74916
# Shear Modulus (GPa) = 33.99695 41.63936 37.81815
#
# Velocity S-wave (km/s) = 3.72832 4.12615 3.93227
# Velocity P-wave (km/s) = 6.19152 6.96329 6.58871
#
# Compressibility (1/GPa) = 0.02064888
#
# Stress axis : x y z
#
# Youngs Moduli (GPa) = 68.05799 129.01931 50.54445
#
# Poissons Ratio (x) = 0.28388 0.20909
# Poissons Ratio (y) = 0.14975 0.22507
# Poissons Ratio (z) = 0.28154 0.57450
#
# Static dielectric constant tensor:
#      x y z
#    x 1.975030 0.048400 -0.010230 
#    y 0.048400 1.960650 -0.044300 
#    z -0.010230 -0.044300 2.023750 
# 
# From -- ./inp_files/268464.got.cif
#   From: 2010.05.17/outbox.cif.g08.bks.cpg/sg2_135_cif.got.tgz:268464.got - 2010.06.03 11:33:40.
