data_PCOD9056101
_publ_section_title
;
Structure prediction by ZEFSAII (Michael W. Deem and Ramdas Pophale) SiO2 
 PCOD9056101
Probable space group: P -1
;
_chemical_formula_sum "Si O2"
_cell_formula_units_Z 16
_cell_length_a 17.725999
_cell_length_b 21.078279
_cell_length_c 11.572053
_cell_angle_alpha 139.349221
_cell_angle_beta 29.925499
_cell_angle_gamma 159.253797
_cell_volume 730.524333
_symmetry_space_group_name_H-M "P -1"
_symmetry_group_IT_number 2
_symmetry_cell_setting 'triclinic'
loop_
_space_group_symop_operation_xyz
x,y,z
-x,-y,-z
loop_
_atom_site_type_symbol
_atom_site_label
_atom_site_fract_x
_atom_site_fract_y
_atom_site_fract_z
Si Si1 0.665761 0.841294 0.730656
Si Si2 0.674544 0.182442 0.960481
Si Si3 0.270637 0.867761 0.435535
Si Si4 0.288003 0.096463 0.770861
Si Si5 0.698877 0.583570 0.165782
Si Si6 0.163858 0.493637 0.322235
Si Si7 0.234801 0.983769 0.938573
Si Si8 0.779751 0.570509 0.289701
O O1 0.479966 0.643202 0.694548
O O2 0.540349 0.844806 0.805322
O O3 0.636815 0.875778 0.940346
O O4 0.000000 0.000000 0.500000
O O5 0.760932 0.200338 0.740672
O O6 0.964867 0.350160 0.881973
O O7 0.500000 0.000000 0.000000
O O8 0.587214 0.017618 0.277045
O O9 0.040694 0.691530 0.586060
O O10 0.260950 0.978091 0.578755
O O11 0.574340 0.320732 0.688854
O O12 0.300037 0.066183 0.844506
O O13 0.000000 0.000000 0.000000
O O14 0.862097 0.658901 0.177477
O O15 0.371551 0.435762 0.430753
O O16 0.719371 0.505021 0.940980
O O17 0.892060 0.775280 0.117390
O O18 0.000000 0.500000 0.500000
#
# Coordination Sequence:
#
# PCOD9056101 Si02
#       8
#     2   2   2   2   2   2   2   2
#     4  11  23  43  71 101 134 186 237 284 355 428
#     4  11  27  47  69 102 146 183 232 302 358 421
#     4  11  25  48  74  99 146 190 238 290 361 429
#     4  12  27  43  69 105 140 181 232 299 358 411
#     4  11  24  41  77  99 144 188 238 294 360 424
#     4  12  25  47  76 104 138 193 246 291 354 435
#     4  11  21  46  68 101 140 186 231 295 350 432
#     4  11  24  44  69 107 141 188 236 296 359 423
#
# _framework density 21.902076999999998
#
# number of rings (size 3 to 8) (size 9 to 14) (size 15 to 20)
#    0.000    0.750    3.750    3.750    5.250    2.500 
#    2.250    0.000    0.000    0.000    0.000    0.000 
#    0.000    0.000    0.000    0.000    0.000    0.000 
#
# Total GULP energy -89413.352031 kJ/mol
# GULP energy per Si atom -5588.334502 kJ/mol
# Density = 2.185223 g / cm^3
# Si number density = 21.902077 Si / 1000 Ang^3
#
#
#
# Elastic Constant Matrix: (Units=GPa)
#
#
# Indices 1 2 3 4 5 6 
#
# 1 44.1144 -5.5033 13.5886 -6.9141 -14.2741 3.6782
# 2 -5.5033 96.8309 27.2616 -6.5546 -3.2251 3.1052
# 3 13.5886 27.2616 92.3312 4.6855 -13.4020 -2.1875
# 4 -6.9141 -6.5546 4.6855 38.4049 0.8543 -4.2644
# 5 -14.2741 -3.2251 -13.4020 0.8543 44.9677 -11.9552
# 6 3.6782 3.1052 -2.1875 -4.2644 -11.9552 31.7330
#
#
#
# Elastic Compliance Matrix: (Units=1/GPa)
#
#
# Indices 1 2 3 4 5 6 
#
# 1 0.027848 0.003461 -0.004318 0.005940 0.007638 -0.000188
# 2 0.003461 0.011959 -0.004182 0.003019 0.000295 -0.001343
# 3 -0.004318 -0.004182 0.013353 -0.002900 0.003053 0.002591
# 4 0.005940 0.003019 -0.002900 0.028298 0.001552 0.003204
# 5 0.007638 0.000295 0.003053 0.001552 0.028264 0.010153
# 6 -0.000188 -0.001343 0.002591 0.003204 0.010153 0.036100
#
#
# Mechanical properties :
#
#
# Convention : Reuss Voigt Hill
#
# Bulk Modulus (GPa) = 23.21184 33.77448 28.49316
# Shear Modulus (GPa) = 29.36685 36.21643 32.79164
#
# Velocity S-wave (km/s) = 3.66570 4.07081 3.87356
# Velocity P-wave (km/s) = 5.34205 6.12776 5.74835
#
# Compressibility (1/GPa) = 0.04308146
#
# Stress axis : x y z
#
# Youngs Moduli (GPa) = 35.90887 83.62113 74.89201
#
# Poissons Ratio (x) = -0.28940 0.32335
# Poissons Ratio (y) = -0.12427 0.31323
# Poissons Ratio (z) = 0.15504 0.34973
#
# Static dielectric constant tensor:
#      x y z
#    x 1.746490 0.182570 -0.010770 
#    y 0.182570 1.351090 0.095740 
#    z -0.010770 0.095740 2.001110 
# 
# From -- ./inp_files/467132.got.cif
#   From: 2010.05.17/outbox.cif.g08.bks.cpg/sg2_234_cif.got.tgz:467132.got - 2010.06.03 11:33:40.
