data_PCOD9056382
_publ_section_title
;
Structure prediction by ZEFSAII (Michael W. Deem and Ramdas Pophale) SiO2 
 PCOD9056382
Probable space group: P -1
;
_chemical_formula_sum "Si O2"
_cell_formula_units_Z 15
_cell_length_a 13.486301
_cell_length_b 16.695284
_cell_length_c 15.847760
_cell_angle_alpha 34.460881
_cell_angle_beta 52.654519
_cell_angle_gamma 26.335703
_cell_volume 761.180482
_symmetry_space_group_name_H-M "P -1"
_symmetry_group_IT_number 2
_symmetry_cell_setting 'triclinic'
loop_
_space_group_symop_operation_xyz
x,y,z
-x,-y,-z
loop_
_atom_site_type_symbol
_atom_site_label
_atom_site_fract_x
_atom_site_fract_y
_atom_site_fract_z
Si Si1 0.575158 0.188776 0.486668
Si Si2 0.114371 0.653261 0.449473
Si Si3 0.550778 0.119292 0.366267
Si Si4 0.086768 0.619266 0.054582
Si Si5 0.194413 0.844998 0.345594
Si Si6 0.733299 0.734765 0.883995
Si Si7 0.664458 0.829510 0.148984
Si Si8 0.000000 0.000000 0.500000
O O1 0.295016 0.496609 0.410144
O O2 0.558145 0.179678 0.403303
O O3 0.783833 0.099332 0.484363
O O4 0.664525 0.947624 0.686555
O O5 0.073093 0.838861 0.359693
O O6 0.274417 0.388477 0.659882
O O7 0.831716 0.864635 0.397680
O O8 0.317853 0.425832 0.167456
O O9 0.500000 0.000000 0.500000
O O10 0.220640 0.433187 0.061032
O O11 0.932883 0.641547 0.155458
O O12 0.870406 0.950743 0.852185
O O13 0.500000 0.500000 0.500000
O O14 0.077279 0.974286 0.386903
O O15 0.506713 0.927132 0.900852
O O16 0.000000 0.500000 0.000000
O O17 0.500000 0.000000 0.000000
#
# Coordination Sequence:
#
# PCOD9056382 Si02
#       8
#     2   2   2   2   2   2   2   1
#     4  11  24  43  70 102 136 186 231 286 346 415
#     4  11  24  44  67  99 139 184 226 286 342 415
#     4  12  24  46  72  98 143 189 231 280 347 416
#     4  12  26  43  67 106 133 184 234 283 343 413
#     4  12  26  45  72 103 139 179 231 290 354 408
#     4  11  22  38  65 101 136 170 229 287 343 402
#     4  11  22  38  67  98 137 173 224 293 349 402
#     4  12  24  44  74 102 140 184 228 282 364 404
#
# _framework density 19.706232
#
# number of rings (size 3 to 8) (size 9 to 14) (size 15 to 20)
#    0.000    0.533    6.667    1.600    0.000    5.333 
#    0.000    0.667    0.000    0.000    0.000    0.000 
#    0.000    0.000    0.000    0.000    0.000    0.000 
#
# Total GULP energy -83549.415330 kJ/mol
# GULP energy per Si atom -5569.961022 kJ/mol
# Density = 1.966138 g / cm^3
# Si number density = 19.706232 Si / 1000 Ang^3
#
#
#
# Elastic Constant Matrix: (Units=GPa)
#
#
# Indices 1 2 3 4 5 6 
#
# 1 116.2291 42.1981 20.3129 0.1283 11.0516 6.0318
# 2 42.1981 91.0843 20.4498 11.1704 12.4712 8.1106
# 3 20.3129 20.4498 73.2900 0.4432 17.3996 8.6382
# 4 0.1283 11.1704 0.4432 19.1282 -6.4683 5.6498
# 5 11.0516 12.4712 17.3996 -6.4683 28.8325 0.9918
# 6 6.0318 8.1106 8.6382 5.6498 0.9918 36.1105
#
#
#
# Elastic Compliance Matrix: (Units=1/GPa)
#
#
# Indices 1 2 3 4 5 6 
#
# 1 0.010697 -0.004853 -0.001423 0.002870 -0.000471 -0.000793
# 2 -0.004853 0.015887 -0.001370 -0.011345 -0.006714 -0.000471
# 3 -0.001423 -0.001370 0.017030 -0.001909 -0.009465 -0.002970
# 4 0.002870 -0.011345 -0.001909 0.068490 0.020625 -0.008757
# 5 -0.000471 -0.006714 -0.009465 0.020625 0.048131 -0.000698
# 6 -0.000793 -0.000471 -0.002970 -0.008757 -0.000698 0.030031
#
#
# Mechanical properties :
#
#
# Convention : Reuss Voigt Hill
#
# Bulk Modulus (GPa) = 35.30767 49.61389 42.46078
# Shear Modulus (GPa) = 23.25605 29.99041 26.62323
#
# Velocity S-wave (km/s) = 3.43904 3.90535 3.67959
# Velocity P-wave (km/s) = 5.80734 6.75034 6.29652
#
# Compressibility (1/GPa) = 0.02832246
#
# Stress axis : x y z
#
# Youngs Moduli (GPa) = 93.48283 62.94322 58.72125
#
# Poissons Ratio (x) = 0.30548 0.08354
# Poissons Ratio (y) = 0.45370 0.08044
# Poissons Ratio (z) = 0.13299 0.08622
#
# Static dielectric constant tensor:
#      x y z
#    x 1.683760 -0.010500 -0.006910 
#    y -0.010500 1.703560 -0.026330 
#    z -0.006910 -0.026330 1.690180 
# 
# From -- ./inp_files/314581.got.cif
#   From: 2010.05.17/outbox.cif.g08.bks.cpg/sg2_158_cif.got.tgz:314581.got - 2010.06.03 11:33:40.
