data_PCOD9056910
_publ_section_title
;
Structure prediction by ZEFSAII (Michael W. Deem and Ramdas Pophale) SiO2 
 PCOD9056910
Probable space group: P -1
;
_chemical_formula_sum "Si O2"
_cell_formula_units_Z 16
_cell_length_a 13.112017
_cell_length_b 23.377211
_cell_length_c 19.904866
_cell_angle_alpha 164.193075
_cell_angle_beta 29.474080
_cell_angle_gamma 142.221489
_cell_volume 765.184721
_symmetry_space_group_name_H-M "P -1"
_symmetry_group_IT_number 2
_symmetry_cell_setting 'triclinic'
loop_
_space_group_symop_operation_xyz
x,y,z
-x,-y,-z
loop_
_atom_site_type_symbol
_atom_site_label
_atom_site_fract_x
_atom_site_fract_y
_atom_site_fract_z
Si Si1 0.455238 0.780107 0.599031
Si Si2 0.281732 0.085982 0.570354
Si Si3 0.493893 0.434065 0.526059
Si Si4 0.420038 0.631655 0.304992
Si Si5 0.262574 0.934588 0.271588
Si Si6 0.145340 0.508263 0.708063
Si Si7 0.000395 0.176918 0.322808
Si Si8 0.324158 0.880341 0.452740
O O1 0.457556 0.670169 0.545850
O O2 0.456022 0.633578 0.366823
O O3 0.660638 0.868788 0.579134
O O4 0.231771 0.996658 0.964149
O O5 0.473048 0.192737 0.587510
O O6 0.342600 0.915546 0.281251
O O7 0.235073 0.968502 0.530030
O O8 0.060782 0.298579 0.922576
O O9 0.314462 0.369821 0.512246
O O10 0.711635 0.388598 0.304933
O O11 0.381738 0.703611 0.903875
O O12 0.166263 0.710390 0.515110
O O13 0.551010 0.386922 0.923675
O O14 0.000000 0.000000 0.500000
O O15 0.052496 0.359618 0.545555
O O16 0.867802 0.064345 0.319893
O O17 0.500000 0.000000 0.500000
#
# Coordination Sequence:
#
# PCOD9056910 Si02
#       8
#     2   2   2   2   2   2   2   2
#     4  11  26  44  68  96 128 179 217 261 328 387
#     4  11  22  41  64  97 131 171 212 263 328 378
#     4  11  24  46  65  98 130 168 223 265 324 388
#     4  11  24  44  64  96 136 166 218 270 314 387
#     4  11  23  43  66  93 131 169 214 270 319 380
#     4  11  23  42  69  94 135 170 209 278 324 376
#     4  12  23  44  67  96 135 172 215 269 324 382
#     4  12  23  39  67  97 128 172 215 260 321 385
#
# _framework density 20.909984000000001
#
# number of rings (size 3 to 8) (size 9 to 14) (size 15 to 20)
#    0.000    0.750    5.000    3.000    0.000    2.000 
#    0.000    1.250    0.000    0.000    0.000    0.000 
#    0.000    0.000    0.000    0.000    0.000    0.000 
#
# Total GULP energy -89435.461077 kJ/mol
# GULP energy per Si atom -5589.716317 kJ/mol
# Density = 2.086239 g / cm^3
# Si number density = 20.909984 Si / 1000 Ang^3
#
#
#
# Elastic Constant Matrix: (Units=GPa)
#
#
# Indices 1 2 3 4 5 6 
#
# 1 95.2972 36.9135 13.7845 1.2800 -3.4914 11.5220
# 2 36.9135 64.9578 2.7149 -15.1351 -6.1782 6.4611
# 3 13.7845 2.7149 55.2967 -11.9382 7.1272 14.2144
# 4 1.2800 -15.1351 -11.9382 25.5403 -1.4678 -0.3881
# 5 -3.4914 -6.1782 7.1272 -1.4678 29.8459 0.2238
# 6 11.5220 6.4611 14.2144 -0.3881 0.2238 42.2532
#
#
#
# Elastic Compliance Matrix: (Units=1/GPa)
#
#
# Indices 1 2 3 4 5 6 
#
# 1 0.015709 -0.010827 -0.005278 -0.009662 0.000389 -0.000943
# 2 -0.010827 0.026389 0.005766 0.019050 0.003777 -0.002868
# 3 -0.005278 0.005766 0.024901 0.014942 -0.004578 -0.007658
# 4 -0.009662 0.019050 0.014942 0.057961 0.002131 -0.004784
# 5 0.000389 0.003777 -0.004578 0.002131 0.035526 0.000688
# 6 -0.000943 -0.002868 -0.007658 -0.004784 0.000688 0.026891
#
#
# Mechanical properties :
#
#
# Convention : Reuss Voigt Hill
#
# Bulk Modulus (GPa) = 21.58781 35.81972 28.70377
# Shear Modulus (GPa) = 22.37188 30.33713 26.35451
#
# Velocity S-wave (km/s) = 3.27450 3.81313 3.55403
# Velocity P-wave (km/s) = 4.96418 6.04601 5.53160
#
# Compressibility (1/GPa) = 0.04632243
#
# Stress axis : x y z
#
# Youngs Moduli (GPa) = 63.65871 37.89431 40.15851
#
# Poissons Ratio (x) = 0.41027 0.21196
# Poissons Ratio (y) = 0.68922 -0.23157
# Poissons Ratio (z) = 0.33599 -0.21851
#
# Static dielectric constant tensor:
#      x y z
#    x 1.803780 0.009090 0.003330 
#    y 0.009090 1.735100 0.001570 
#    z 0.003330 0.001570 1.713420 
# 
# From -- ./inp_files/101184.got.cif
#   From: 2010.05.17/outbox.cif.g08.bks.cpg/sg2_51_cif.got.tgz:101184.got - 2010.06.03 11:33:40.
