data_PCOD9056523
_publ_section_title
;
Structure prediction by ZEFSAII (Michael W. Deem and Ramdas Pophale) SiO2 
 PCOD9056523
Probable space group: P -1
;
_chemical_formula_sum "Si O2"
_cell_formula_units_Z 12
_cell_length_a 8.648747
_cell_length_b 13.460360
_cell_length_c 5.111944
_cell_angle_alpha 72.356741
_cell_angle_beta 123.905298
_cell_angle_gamma 92.036536
_cell_volume 463.926881
_symmetry_space_group_name_H-M "P -1"
_symmetry_group_IT_number 2
_symmetry_cell_setting 'triclinic'
loop_
_space_group_symop_operation_xyz
x,y,z
-x,-y,-z
loop_
_atom_site_type_symbol
_atom_site_label
_atom_site_fract_x
_atom_site_fract_y
_atom_site_fract_z
Si Si1 0.886490 0.412412 0.860352
Si Si2 0.737381 0.981859 0.513496
Si Si3 0.481504 0.843214 0.216357
Si Si4 0.663623 0.407640 0.138280
Si Si5 0.108393 0.206015 0.504332
Si Si6 0.795983 0.189469 0.625233
O O1 0.831791 0.416372 0.501657
O O2 0.705088 0.429558 0.861474
O O3 0.000000 0.500000 0.000000
O O4 0.007863 0.301695 0.155850
O O5 0.589671 0.902135 0.500249
O O6 0.898071 0.902361 0.574903
O O7 0.798816 0.063144 0.709158
O O8 0.629702 0.065530 0.139749
O O9 0.669117 0.786796 0.285735
O O10 0.321984 0.785916 0.236666
O O11 0.660659 0.281687 0.256076
O O12 0.500000 0.500000 0.000000
O O13 0.999498 0.200622 0.679795
#
# Coordination Sequence:
#
# PCOD9056523 Si02
#       6
#     2   2   2   2   2   2
#     4  11  25  49  71 104 141 183 238 295 360 425
#     4   9  20  42  58  99 135 177 232 278 344 424
#     4   9  21  39  60  92 138 173 234 270 353 404
#     4  11  27  46  72 107 136 184 242 291 363 426
#     4   9  22  41  61 101 131 174 237 279 344 421
#     4  11  22  39  66  93 134 179 226 286 349 410
#
# _framework density 25.866143999999998
#
# number of rings (size 3 to 8) (size 9 to 14) (size 15 to 20)
#    1.000    1.000    0.000    2.000    7.000    2.000 
#   12.000    0.000    0.000    0.000    0.000    0.000 
#    0.000    0.000    0.000    0.000    0.000    0.000 
#
# Total GULP energy -66867.913902 kJ/mol
# GULP energy per Si atom -5572.326158 kJ/mol
# Density = 2.580727 g / cm^3
# Si number density = 25.866144 Si / 1000 Ang^3
#
#
#
# Elastic Constant Matrix: (Units=GPa)
#
#
# Indices 1 2 3 4 5 6 
#
# 1 194.4540 55.3368 49.0292 -13.9283 3.2266 -18.5446
# 2 55.3368 118.1281 22.3926 2.2911 18.8753 -16.6853
# 3 49.0292 22.3926 76.6793 -0.1187 7.6069 2.7751
# 4 -13.9283 2.2911 -0.1187 45.9806 -14.5871 8.1134
# 5 3.2266 18.8753 7.6069 -14.5871 42.0562 -5.6955
# 6 -18.5446 -16.6853 2.7751 8.1134 -5.6955 42.4735
#
#
#
# Elastic Compliance Matrix: (Units=1/GPa)
#
#
# Indices 1 2 3 4 5 6 
#
# 1 0.007392 -0.002843 -0.004247 0.002857 0.002768 0.002214
# 2 -0.002843 0.011436 -0.001093 -0.003787 -0.005584 0.003297
# 3 -0.004247 -0.001093 0.016517 -0.001587 -0.003194 -0.003488
# 4 0.002857 -0.003787 -0.001587 0.026824 0.010551 -0.003846
# 5 0.002768 -0.005584 -0.003194 0.010551 0.030484 0.001296
# 6 0.002214 0.003297 -0.003488 -0.003846 0.001296 0.026942
#
#
# Mechanical properties :
#
#
# Convention : Reuss Voigt Hill
#
# Bulk Modulus (GPa) = 52.68945 71.41986 62.05466
# Shear Modulus (GPa) = 35.14044 43.60224 39.37134
#
# Velocity S-wave (km/s) = 3.68985 4.11017 3.90567
# Velocity P-wave (km/s) = 6.21028 7.08491 6.66196
#
# Compressibility (1/GPa) = 0.01897913
#
# Stress axis : x y z
#
# Youngs Moduli (GPa) = 135.27760 87.44559 60.54550
#
# Poissons Ratio (x) = 0.24860 0.25712
# Poissons Ratio (y) = 0.38457 0.06618
# Poissons Ratio (z) = 0.57448 0.09559
#
# Static dielectric constant tensor:
#      x y z
#    x 1.859940 0.128000 0.086940 
#    y 0.128000 2.179800 0.107480 
#    z 0.086940 0.107480 2.014170 
# 
# From -- ./inp_files/36988.got.cif
#   From: 2010.05.17/outbox.cif.g08.bks.cpg/sg2_19_cif.got.tgz:36988.got - 2010.06.03 11:33:40.
