data_PCOD9056738
_publ_section_title
;
Structure prediction by ZEFSAII (Michael W. Deem and Ramdas Pophale) SiO2 
 PCOD9056738
Probable space group: P -1
;
_chemical_formula_sum "Si O2"
_cell_formula_units_Z 15
_cell_length_a 8.368190
_cell_length_b 11.132656
_cell_length_c 9.131700
_cell_angle_alpha 109.463552
_cell_angle_beta 57.225872
_cell_angle_gamma 99.756570
_cell_volume 674.347183
_symmetry_space_group_name_H-M "P -1"
_symmetry_group_IT_number 2
_symmetry_cell_setting 'triclinic'
loop_
_space_group_symop_operation_xyz
x,y,z
-x,-y,-z
loop_
_atom_site_type_symbol
_atom_site_label
_atom_site_fract_x
_atom_site_fract_y
_atom_site_fract_z
Si Si1 0.037547 0.274657 0.208128
Si Si2 0.920527 0.517593 0.206597
Si Si3 0.022744 0.077721 0.674270
Si Si4 0.696139 0.319259 0.566979
Si Si5 0.608945 0.617650 0.764657
Si Si6 0.000000 0.000000 0.000000
Si Si7 0.745645 0.305583 0.850001
Si Si8 0.362290 0.266001 0.514128
O O1 0.910788 0.269466 0.415551
O O2 0.914572 0.380796 0.225333
O O3 0.240518 0.329999 0.171738
O O4 0.050372 0.149213 0.054975
O O5 0.081551 0.601225 0.239583
O O6 0.729873 0.599704 0.332553
O O7 0.000000 0.500000 0.000000
O O8 0.846186 0.179086 0.809003
O O9 0.216005 0.157549 0.587389
O O10 0.000000 0.000000 0.500000
O O11 0.022099 0.010138 0.806167
O O12 0.670380 0.473130 0.634547
O O13 0.636181 0.280166 0.743673
O O14 0.563154 0.252041 0.487554
O O15 0.616786 0.711431 0.659768
O O16 0.399302 0.626492 0.940110
#
# Coordination Sequence:
#
# PCOD9056738 Si02
#       8
#     2   2   2   2   2   1   2   2
#     4  12  25  45  68  99 145 190 239 289 364 427
#     4  11  22  40  68 101 137 182 227 296 359 425
#     4  11  26  55  74 103 146 199 244 295 359 442
#     4  12  24  42  70 110 147 183 233 300 371 433
#     4  12  24  42  70 110 147 183 233 300 371 433
#     4  12  28  46  80  98 142 190 256 290 354 424
#     4  11  25  42  72 107 142 177 240 298 365 428
#     4  11  25  42  72 107 142 177 240 298 365 428
#
# _framework density 22.243735000000001
#
# number of rings (size 3 to 8) (size 9 to 14) (size 15 to 20)
#    0.000    0.533    2.667    6.800    7.467    0.000 
#    2.400    2.667    0.000    0.000    0.000    0.000 
#    0.000    0.000    0.000    0.000    0.000    0.000 
#
# Total GULP energy -83609.702520 kJ/mol
# GULP energy per Si atom -5573.980168 kJ/mol
# Density = 2.219311 g / cm^3
# Si number density = 22.243735 Si / 1000 Ang^3
#
#
#
# Elastic Constant Matrix: (Units=GPa)
#
#
# Indices 1 2 3 4 5 6 
#
# 1 69.5163 23.3684 9.6699 2.4073 2.4864 15.7628
# 2 23.3684 79.6793 17.1195 9.0955 10.7788 1.9800
# 3 9.6699 17.1195 88.6861 3.8803 14.3078 7.8167
# 4 2.4073 9.0955 3.8803 45.1608 -2.7136 15.8051
# 5 2.4864 10.7788 14.3078 -2.7136 38.9864 -8.4295
# 6 15.7628 1.9800 7.8167 15.8051 -8.4295 22.4169
#
#
#
# Elastic Compliance Matrix: (Units=1/GPa)
#
#
# Indices 1 2 3 4 5 6 
#
# 1 0.021015 -0.006138 0.001123 0.007216 -0.004153 -0.021276
# 2 -0.006138 0.015535 -0.002373 -0.005014 -0.001962 0.006569
# 3 0.001123 -0.002373 0.013292 0.002039 -0.006085 -0.008941
# 4 0.007216 -0.005014 0.002039 0.032858 -0.004027 -0.030023
# 5 -0.004153 -0.001962 -0.006085 -0.004027 0.032820 0.020396
# 6 -0.021276 0.006569 -0.008941 -0.030023 0.020396 0.090944
#
#
# Mechanical properties :
#
#
# Convention : Reuss Voigt Hill
#
# Bulk Modulus (GPa) = 28.51697 37.57747 33.04722
# Shear Modulus (GPa) = 21.46586 33.82776 27.64681
#
# Velocity S-wave (km/s) = 3.10986 3.90394 3.52931
# Velocity P-wave (km/s) = 5.07376 6.10338 5.61223
#
# Compressibility (1/GPa) = 0.03506684
#
# Stress axis : x y z
#
# Youngs Moduli (GPa) = 47.58484 64.37208 75.23457
#
# Poissons Ratio (x) = 0.39510 -0.08449
# Poissons Ratio (y) = 0.29206 0.17850
# Poissons Ratio (z) = -0.05344 0.15273
#
# Static dielectric constant tensor:
#      x y z
#    x 1.840420 0.002460 0.029860 
#    y 0.002460 1.765840 0.016070 
#    z 0.029860 0.016070 1.832830 
# 
# From -- ./inp_files/181974.got.cif
#   From: 2010.05.17/outbox.cif.g08.bks.cpg/sg2_91_cif.got.tgz:181974.got - 2010.06.03 11:33:40.
