data_PCOD9056959
_publ_section_title
;
Structure prediction by ZEFSAII (Michael W. Deem and Ramdas Pophale) SiO2 
 PCOD9056959
Probable space group: P -1
;
_chemical_formula_sum "Si O2"
_cell_formula_units_Z 16
_cell_length_a 8.816488
_cell_length_b 11.511496
_cell_length_c 12.781469
_cell_angle_alpha 128.714018
_cell_angle_beta 95.695720
_cell_angle_gamma 57.258529
_cell_volume 792.895833
_symmetry_space_group_name_H-M "P -1"
_symmetry_group_IT_number 2
_symmetry_cell_setting 'triclinic'
loop_
_space_group_symop_operation_xyz
x,y,z
-x,-y,-z
loop_
_atom_site_type_symbol
_atom_site_label
_atom_site_fract_x
_atom_site_fract_y
_atom_site_fract_z
Si Si1 0.945403 0.197075 0.566966
Si Si2 0.305394 0.209415 0.604521
Si Si3 0.368938 0.478218 0.117019
Si Si4 0.119747 0.657828 0.575405
Si Si5 0.705826 0.737799 0.600999
Si Si6 0.734422 0.473139 0.097467
Si Si7 0.989059 0.178403 0.123454
Si Si8 0.436872 0.961262 0.080810
O O1 0.770586 0.375173 0.720386
O O2 0.890484 0.224780 0.455958
O O3 0.125244 0.204196 0.593024
O O4 0.000000 0.000000 0.500000
O O5 0.317350 0.283402 0.534596
O O6 0.299344 0.335975 0.765145
O O7 0.500000 0.000000 0.500000
O O8 0.550462 0.481059 0.119260
O O9 0.251233 0.549207 0.039109
O O10 0.455396 0.260735 0.019912
O O11 0.268953 0.434596 0.436842
O O12 0.144794 0.711925 0.722215
O O13 0.911296 0.700838 0.592465
O O14 0.551604 0.936559 0.759631
O O15 0.910647 0.311939 0.091739
O O16 0.207442 0.083827 0.116626
O O17 0.000000 0.000000 0.000000
O O18 0.500000 0.000000 0.000000
#
# Coordination Sequence:
#
# PCOD9056959 Si02
#       8
#     2   2   2   2   2   2   2   2
#     4  11  25  42  65  93 131 169 204 263 330 385
#     4  11  22  41  67  94 122 163 218 262 316 386
#     4  11  25  44  63  93 132 174 214 264 332 377
#     4   9  19  37  65  88 121 162 209 253 313 377
#     4   9  18  36  62  90 119 162 205 255 311 374
#     4  11  24  43  68  92 128 173 219 268 311 385
#     4  11  22  41  66  96 124 169 219 262 316 380
#     4  11  23  39  64  94 133 167 208 261 330 386
#
# _framework density 20.179193999999999
#
# number of rings (size 3 to 8) (size 9 to 14) (size 15 to 20)
#    0.000    1.500    2.500    2.250    5.250    2.500 
#    2.250    1.875    0.000    0.000    0.000    0.000 
#    0.000    0.000    0.000    0.000    0.000    0.000 
#
# Total GULP energy -89268.344136 kJ/mol
# GULP energy per Si atom -5579.271509 kJ/mol
# Density = 2.013327 g / cm^3
# Si number density = 20.179194 Si / 1000 Ang^3
#
#
#
# Elastic Constant Matrix: (Units=GPa)
#
#
# Indices 1 2 3 4 5 6 
#
# 1 24.0092 19.3184 26.2868 1.7178 0.5185 17.3121
# 2 19.3184 137.0356 46.5438 5.5449 0.0677 17.9696
# 3 26.2868 46.5438 117.0249 7.2228 2.3078 10.5175
# 4 1.7178 5.5449 7.2228 40.7996 -1.0258 3.1897
# 5 0.5185 0.0677 2.3078 -1.0258 27.9551 0.8123
# 6 17.3121 17.9696 10.5175 3.1897 0.8123 30.4159
#
#
#
# Elastic Compliance Matrix: (Units=1/GPa)
#
#
# Indices 1 2 3 4 5 6 
#
# 1 0.095702 -0.001624 -0.016735 0.002939 0.001115 -0.048063
# 2 -0.001624 0.008958 -0.002881 -0.000369 0.000330 -0.003341
# 3 -0.016735 -0.002881 0.012954 -0.001767 -0.001019 0.006961
# 4 0.002939 -0.000369 -0.001767 0.025051 0.001113 -0.003501
# 5 0.001115 0.000330 -0.001019 0.001113 0.035920 -0.001553
# 6 -0.048063 -0.003341 0.006961 -0.003501 -0.001553 0.060210
#
#
# Mechanical properties :
#
#
# Convention : Reuss Voigt Hill
#
# Bulk Modulus (GPa) = 13.30975 51.37416 32.34196
# Shear Modulus (GPa) = 16.32276 32.22882 24.27579
#
# Velocity S-wave (km/s) = 2.84719 4.00075 3.47221
# Velocity P-wave (km/s) = 4.17357 6.84511 5.66896
#
# Compressibility (1/GPa) = 0.07513287
#
# Stress axis : x y z
#
# Youngs Moduli (GPa) = 10.44907 111.63253 77.19743
#
# Poissons Ratio (x) = 0.18134 1.29189
# Poissons Ratio (y) = 0.01697 0.22243
# Poissons Ratio (z) = 0.17486 0.32165
#
# Static dielectric constant tensor:
#      x y z
#    x 1.698430 0.033500 0.009700 
#    y 0.033500 1.758440 -0.014580 
#    z 0.009700 -0.014580 1.713320 
# 
# From -- ./inp_files/393101.got.cif
#   From: 2010.05.17/outbox.cif.g08.bks.cpg/sg2_197_cif.got.tgz:393101.got - 2010.06.03 11:33:40.
