data_PCOD9056774
_publ_section_title
;
Structure prediction by ZEFSAII (Michael W. Deem and Ramdas Pophale) SiO2 
 PCOD9056774
Probable space group: P -1
;
_chemical_formula_sum "Si O2"
_cell_formula_units_Z 16
_cell_length_a 9.338320
_cell_length_b 15.471137
_cell_length_c 11.035447
_cell_angle_alpha 75.016991
_cell_angle_beta 43.866484
_cell_angle_gamma 47.989576
_cell_volume 739.188852
_symmetry_space_group_name_H-M "P -1"
_symmetry_group_IT_number 2
_symmetry_cell_setting 'triclinic'
loop_
_space_group_symop_operation_xyz
x,y,z
-x,-y,-z
loop_
_atom_site_type_symbol
_atom_site_label
_atom_site_fract_x
_atom_site_fract_y
_atom_site_fract_z
Si Si1 0.947278 0.278712 0.088450
Si Si2 0.126682 0.859087 0.974821
Si Si3 0.168685 0.131949 0.617513
Si Si4 0.176788 0.880767 0.343755
Si Si5 0.754774 0.740316 0.643778
Si Si6 0.790196 0.622012 0.177267
Si Si7 0.659546 0.517659 0.491707
Si Si8 0.421673 0.120605 0.056388
O O1 0.597883 0.389450 0.286021
O O2 0.120478 0.239281 0.123562
O O3 0.011183 0.160982 0.037807
O O4 0.062237 0.325617 0.920115
O O5 0.041703 0.832689 0.157861
O O6 0.482530 0.757556 0.784160
O O7 0.000000 0.000000 0.000000
O O8 0.172881 0.232655 0.535276
O O9 0.053475 0.114313 0.577626
O O10 0.500000 0.000000 0.500000
O O11 0.456298 0.743022 0.284968
O O12 0.323231 0.893238 0.142762
O O13 0.000000 0.000000 0.500000
O O14 0.629620 0.849378 0.781889
O O15 0.047437 0.609520 0.574572
O O16 0.749683 0.577541 0.339407
O O17 0.000000 0.500000 0.000000
O O18 0.500000 0.500000 0.500000
O O19 0.500000 0.000000 0.000000
#
# Coordination Sequence:
#
# PCOD9056774 Si02
#       8
#     2   2   2   2   2   2   2   2
#     4  11  27  44  72 108 141 191 241 294 362 428
#     4  12  27  50  70 102 154 191 234 296 362 439
#     4  12  27  43  71 102 146 189 236 294 366 431
#     4  11  25  41  70 111 139 181 247 304 362 426
#     4  12  25  46  71 104 140 194 237 292 368 425
#     4  11  24  45  73 108 148 184 239 308 367 420
#     4  12  23  44  77 104 141 186 243 302 353 427
#     4  11  22  40  69 103 142 177 238 301 357 419
#
# _framework density 21.645347000000001
#
# number of rings (size 3 to 8) (size 9 to 14) (size 15 to 20)
#    0.000    0.500    5.000    3.000    5.250    1.500 
#    0.000    1.250    0.000    0.000    0.000    0.000 
#    0.000    0.000    0.000    0.000    0.000    0.000 
#
# Total GULP energy -89478.858994 kJ/mol
# GULP energy per Si atom -5592.428687 kJ/mol
# Density = 2.159608 g / cm^3
# Si number density = 21.645347 Si / 1000 Ang^3
#
#
#
# Elastic Constant Matrix: (Units=GPa)
#
#
# Indices 1 2 3 4 5 6 
#
# 1 85.8525 24.2596 44.4436 -1.1331 -20.8001 3.2578
# 2 24.2596 118.0140 62.0141 -7.3710 -19.6031 -18.6085
# 3 44.4436 62.0141 140.4439 -20.7162 -28.3136 -15.4140
# 4 -1.1331 -7.3710 -20.7162 51.9654 -3.1559 -0.0677
# 5 -20.8001 -19.6031 -28.3136 -3.1559 33.4798 1.4118
# 6 3.2578 -18.6085 -15.4140 -0.0677 1.4118 35.9713
#
#
#
# Elastic Compliance Matrix: (Units=1/GPa)
#
#
# Indices 1 2 3 4 5 6 
#
# 1 0.015449 -0.000792 -0.003901 -0.000977 0.005899 -0.003714
# 2 -0.000792 0.011888 -0.003844 0.000328 0.003060 0.004455
# 3 -0.003901 -0.003844 0.012335 0.004659 0.006052 0.003422
# 4 -0.000977 0.000328 0.004659 0.021460 0.005460 0.002081
# 5 0.005899 0.003060 0.006052 0.005460 0.040872 0.002048
# 6 -0.003714 0.004455 0.003422 0.002081 0.002048 0.031831
#
#
# Mechanical properties :
#
#
# Convention : Reuss Voigt Hill
#
# Bulk Modulus (GPa) = 44.25619 67.30502 55.78060
# Shear Modulus (GPa) = 31.55721 38.52284 35.04002
#
# Velocity S-wave (km/s) = 3.82242 4.22326 4.02783
# Velocity P-wave (km/s) = 6.32231 7.41237 6.88893
#
# Compressibility (1/GPa) = 0.02259571
#
# Stress axis : x y z
#
# Youngs Moduli (GPa) = 64.73036 84.12033 81.06923
#
# Poissons Ratio (x) = 0.06666 0.31629
# Poissons Ratio (y) = 0.05129 0.31163
# Poissons Ratio (z) = 0.25254 0.32336
#
# Static dielectric constant tensor:
#      x y z
#    x 1.920600 0.080700 0.025900 
#    y 0.080700 1.835380 0.001240 
#    z 0.025900 0.001240 1.776020 
# 
# From -- ./inp_files/398884.got.cif
#   From: 2010.05.17/outbox.cif.g08.bks.cpg/sg2_200_cif.got.tgz:398884.got - 2010.06.03 11:33:40.
