data_PCOD9056848
_publ_section_title
;
Structure prediction by ZEFSAII (Michael W. Deem and Ramdas Pophale) SiO2 
 PCOD9056848
Probable space group: P -1
;
_chemical_formula_sum "Si O2"
_cell_formula_units_Z 14
_cell_length_a 12.324845
_cell_length_b 12.065117
_cell_length_c 5.156586
_cell_angle_alpha 74.302108
_cell_angle_beta 67.100429
_cell_angle_gamma 102.084835
_cell_volume 635.771972
_symmetry_space_group_name_H-M "P -1"
_symmetry_group_IT_number 2
_symmetry_cell_setting 'triclinic'
loop_
_space_group_symop_operation_xyz
x,y,z
-x,-y,-z
loop_
_atom_site_type_symbol
_atom_site_label
_atom_site_fract_x
_atom_site_fract_y
_atom_site_fract_z
Si Si1 0.410266 0.471408 0.354429
Si Si2 0.276571 0.187089 0.725279
Si Si3 0.532531 0.141691 0.439757
Si Si4 0.144512 0.046385 0.426752
Si Si5 0.927418 0.426474 0.866872
Si Si6 0.707070 0.343435 0.817016
Si Si7 0.796894 0.201120 0.434148
O O1 0.500000 0.500000 0.500000
O O2 0.316873 0.330679 0.532477
O O3 0.332378 0.562271 0.372541
O O4 0.500000 0.500000 0.000000
O O5 0.406876 0.160489 0.635193
O O6 0.185066 0.104236 0.638536
O O7 0.215320 0.149677 0.085877
O O8 0.654710 0.175587 0.486089
O O9 0.500000 0.000000 0.500000
O O10 0.584220 0.232021 0.091157
O O11 0.185809 0.926763 0.445738
O O12 0.000000 0.000000 0.500000
O O13 0.784477 0.417694 0.945701
O O14 0.000000 0.500000 0.500000
O O15 0.897109 0.283541 0.076523
O O16 0.000000 0.500000 0.000000
O O17 0.799602 0.284460 0.629528
#
# Coordination Sequence:
#
# PCOD9056848 Si02
#       7
#     2   2   2   2   2   2   2
#     4  12  26  45  72 106 154 185 232 294 363 448
#     4  12  26  48  74 105 141 199 239 290 374 430
#     4  11  22  40  72 108 141 178 234 296 364 424
#     4  12  29  50  72 103 147 194 248 297 352 435
#     4  11  24  44  68 101 141 189 240 288 352 419
#     4  11  25  43  72 110 143 186 236 304 360 427
#     4  11  25  44  76 108 146 181 243 306 358 424
#
# _framework density 22.020474
#
# number of rings (size 3 to 8) (size 9 to 14) (size 15 to 20)
#    0.000    0.571    4.286    3.000    6.000    3.429 
#    0.000    0.000    0.000    0.000    0.000    0.000 
#    0.000    0.000    0.000    0.000    0.000    0.000 
#
# Total GULP energy -78202.993239 kJ/mol
# GULP energy per Si atom -5585.928088 kJ/mol
# Density = 2.197035 g / cm^3
# Si number density = 22.020474 Si / 1000 Ang^3
#
#
#
# Elastic Constant Matrix: (Units=GPa)
#
#
# Indices 1 2 3 4 5 6 
#
# 1 94.9129 31.5319 5.1394 -11.6219 19.6697 17.8750
# 2 31.5319 78.8589 6.7993 -15.6156 17.1709 12.5511
# 3 5.1394 6.7993 105.5312 -7.4391 2.7558 12.5204
# 4 -11.6219 -15.6156 -7.4391 42.6133 7.2286 5.9127
# 5 19.6697 17.1709 2.7558 7.2286 38.5746 -3.6354
# 6 17.8750 12.5511 12.5204 5.9127 -3.6354 40.2141
#
#
#
# Elastic Compliance Matrix: (Units=1/GPa)
#
#
# Indices 1 2 3 4 5 6 
#
# 1 0.015286 -0.001578 0.001053 0.006499 -0.009178 -0.008415
# 2 -0.001578 0.018401 0.000682 0.009142 -0.009854 -0.007489
# 3 0.001053 0.000682 0.010237 0.003413 -0.002646 -0.004609
# 4 0.006499 0.009142 0.003413 0.033575 -0.015155 -0.013111
# 5 -0.009178 -0.009854 -0.002646 -0.015155 0.039316 0.013761
# 6 -0.008415 -0.007489 -0.004609 -0.013111 0.013761 0.035552
#
#
# Mechanical properties :
#
#
# Convention : Reuss Voigt Hill
#
# Bulk Modulus (GPa) = 22.60511 40.69381 31.64946
# Shear Modulus (GPa) = 29.97620 40.00256 34.98938
#
# Velocity S-wave (km/s) = 3.69357 4.26679 3.99048
# Velocity P-wave (km/s) = 5.33645 6.54172 5.96958
#
# Compressibility (1/GPa) = 0.04423779
#
# Stress axis : x y z
#
# Youngs Moduli (GPa) = 65.41938 54.34499 97.68351
#
# Poissons Ratio (x) = 0.08577 -0.10291
# Poissons Ratio (y) = 0.10324 -0.06658
# Poissons Ratio (z) = -0.06892 -0.03704
#
# Static dielectric constant tensor:
#      x y z
#    x 1.856630 0.098780 0.012140 
#    y 0.098780 1.925160 0.045820 
#    z 0.012140 0.045820 1.853810 
# 
# From -- ./inp_files/68379.got.cif
#   From: 2010.05.17/outbox.cif.g08.bks.cpg/sg2_35_cif.got.tgz:68379.got - 2010.06.03 11:33:40.
