data_PCOD9056328
_publ_section_title
;
Structure prediction by ZEFSAII (Michael W. Deem and Ramdas Pophale) SiO2 
 PCOD9056328
Probable space group: P -1
;
_chemical_formula_sum "Si O2"
_cell_formula_units_Z 16
_cell_length_a 7.961249
_cell_length_b 23.082408
_cell_length_c 15.777988
_cell_angle_alpha 19.251085
_cell_angle_beta 66.738143
_cell_angle_gamma 77.958725
_cell_volume 737.959405
_symmetry_space_group_name_H-M "P -1"
_symmetry_group_IT_number 2
_symmetry_cell_setting 'triclinic'
loop_
_space_group_symop_operation_xyz
x,y,z
-x,-y,-z
loop_
_atom_site_type_symbol
_atom_site_label
_atom_site_fract_x
_atom_site_fract_y
_atom_site_fract_z
Si Si1 0.473408 0.193385 0.953222
Si Si2 0.698727 0.164124 0.117461
Si Si3 0.885105 0.452344 0.964591
Si Si4 0.468263 0.715033 0.858269
Si Si5 0.182474 0.370408 0.803786
Si Si6 0.644777 0.149271 0.687974
Si Si7 0.897980 0.769401 0.801662
Si Si8 0.608415 0.466329 0.154217
O O1 0.275975 0.221763 0.976939
O O2 0.641990 0.402498 0.579653
O O3 0.606396 0.173569 0.031278
O O4 0.383191 0.999450 0.177477
O O5 0.576137 0.236315 0.104455
O O6 0.631025 0.930540 0.476663
O O7 0.957341 0.296316 0.902726
O O8 0.098110 0.679732 0.587201
O O9 0.758444 0.325539 0.082391
O O10 0.747633 0.460614 0.058713
O O11 0.970282 0.300759 0.185020
O O12 0.412754 0.488419 0.137671
O O13 0.171383 0.372000 0.905626
O O14 0.558009 0.290557 0.474012
O O15 0.500000 0.000000 0.000000
O O16 0.696122 0.685994 0.890569
O O17 0.000000 0.000000 0.500000
#
# Coordination Sequence:
#
# PCOD9056328 Si02
#       8
#     2   2   2   2   2   2   2   2
#     4  11  25  43  70 100 137 183 232 277 343 414
#     4  11  24  43  72 104 136 174 230 292 348 400
#     4  11  24  43  66  99 138 177 223 287 342 410
#     4  11  24  43  66 101 136 172 227 290 349 405
#     4  11  24  43  68 103 137 177 226 291 340 407
#     4  11  25  45  68  95 138 185 226 275 345 422
#     4  11  22  37  68  94 131 173 224 279 342 395
#     4  11  24  41  66  99 135 178 227 284 345 408
#
# _framework density 21.681408000000001
#
# number of rings (size 3 to 8) (size 9 to 14) (size 15 to 20)
#    0.000    1.000    1.250    6.000    8.750    1.000 
#    0.000    0.625    0.000    0.000    0.000    0.000 
#    0.000    0.000    0.000    0.000    0.000    0.000 
#
# Total GULP energy -89126.411898 kJ/mol
# GULP energy per Si atom -5570.400744 kJ/mol
# Density = 2.163206 g / cm^3
# Si number density = 21.681408 Si / 1000 Ang^3
#
#
#
# Elastic Constant Matrix: (Units=GPa)
#
#
# Indices 1 2 3 4 5 6 
#
# 1 59.4165 28.9401 15.5338 -1.8273 7.9165 -2.5805
# 2 28.9401 108.6554 47.7962 -4.8863 15.4957 7.2657
# 3 15.5338 47.7962 113.4259 -0.3255 8.6471 -4.6908
# 4 -1.8273 -4.8863 -0.3255 41.3819 3.0677 0.9252
# 5 7.9165 15.4957 8.6471 3.0677 35.9189 -11.2889
# 6 -2.5805 7.2657 -4.6908 0.9252 -11.2889 46.8084
#
#
#
# Elastic Compliance Matrix: (Units=1/GPa)
#
#
# Indices 1 2 3 4 5 6 
#
# 1 0.019613 -0.004853 -0.000452 0.000387 -0.001724 0.001366
# 2 -0.004853 0.013750 -0.004904 0.001846 -0.005150 -0.004172
# 3 -0.000452 -0.004904 0.011005 -0.000571 0.000212 0.001902
# 4 0.000387 0.001846 -0.000571 0.024681 -0.003361 -0.001621
# 5 -0.001724 -0.005150 0.000212 -0.003361 0.033464 0.008863
# 6 0.001366 -0.004172 0.001902 -0.001621 0.008863 0.024447
#
#
# Mechanical properties :
#
#
# Convention : Reuss Voigt Hill
#
# Bulk Modulus (GPa) = 41.75304 51.78202 46.76753
# Shear Modulus (GPa) = 32.18298 37.43701 34.80999
#
# Velocity S-wave (km/s) = 3.85692 4.15985 4.01124
# Velocity P-wave (km/s) = 6.25570 6.85620 6.56282
#
# Compressibility (1/GPa) = 0.02395035
#
# Stress axis : x y z
#
# Youngs Moduli (GPa) = 50.98581 72.72887 90.86375
#
# Poissons Ratio (x) = 0.35297 0.04107
# Poissons Ratio (y) = 0.24745 0.44559
# Poissons Ratio (z) = 0.02304 0.35665
#
# Static dielectric constant tensor:
#      x y z
#    x 1.942460 0.006080 -0.073220 
#    y 0.006080 1.820250 -0.021930 
#    z -0.073220 -0.021930 1.860600 
# 
# From -- ./inp_files/190892.got.cif
#   From: 2010.05.17/outbox.cif.g08.bks.cpg/sg2_96_cif.got.tgz:190892.got - 2010.06.03 11:33:40.
