data_PCOD9056174
_publ_section_title
;
Structure prediction by ZEFSAII (Michael W. Deem and Ramdas Pophale) SiO2 
 PCOD9056174
Probable space group: P -1
;
_chemical_formula_sum "Si O2"
_cell_formula_units_Z 12
_cell_length_a 9.048856
_cell_length_b 9.110035
_cell_length_c 10.891855
_cell_angle_alpha 125.574841
_cell_angle_beta 55.600156
_cell_angle_gamma 105.795081
_cell_volume 600.437034
_symmetry_space_group_name_H-M "P -1"
_symmetry_group_IT_number 2
_symmetry_cell_setting 'triclinic'
loop_
_space_group_symop_operation_xyz
x,y,z
-x,-y,-z
loop_
_atom_site_type_symbol
_atom_site_label
_atom_site_fract_x
_atom_site_fract_y
_atom_site_fract_z
Si Si1 0.681178 0.209914 0.479675
Si Si2 0.015578 0.803798 0.457537
Si Si3 0.144145 0.522911 0.048139
Si Si4 0.628246 0.842721 0.210253
Si Si5 0.797426 0.573549 0.590837
Si Si6 0.498610 0.658389 0.973700
O O1 0.494086 0.209366 0.641816
O O2 0.708820 0.399472 0.493206
O O3 0.833318 0.191366 0.505246
O O4 0.694332 0.036705 0.302051
O O5 0.831589 0.742944 0.572523
O O6 0.071237 0.646511 0.256160
O O7 0.000000 0.000000 0.500000
O O8 0.215052 0.318672 0.954033
O O9 0.315102 0.628817 0.975383
O O10 0.000000 0.500000 0.000000
O O11 0.510462 0.834822 0.137859
O O12 0.669468 0.630055 0.792477
O O13 0.000000 0.500000 0.500000
O O14 0.500000 0.500000 0.000000
#
# Coordination Sequence:
#
# PCOD9056174 Si02
#       6
#     2   2   2   2   2   2
#     4  10  18  34  63  91 113 153 203 244 293 357
#     4  11  23  40  58  86 125 162 196 251 309 353
#     4  11  21  37  59  85 122 163 198 247 305 353
#     4  10  18  33  63  90 114 152 202 244 295 355
#     4  10  19  36  62  90 118 157 203 249 294 356
#     4  10  17  36  60  88 116 156 201 243 294 350
#
# _framework density 19.985446
#
# number of rings (size 3 to 8) (size 9 to 14) (size 15 to 20)
#    0.000    1.667    5.000    4.000    0.000    0.000 
#    0.000   10.833    0.000    0.000    0.000    0.000 
#    0.000    0.000    0.000    0.000    0.000    0.000 
#
# Total GULP energy -66892.337755 kJ/mol
# GULP energy per Si atom -5574.361480 kJ/mol
# Density = 1.993996 g / cm^3
# Si number density = 19.985446 Si / 1000 Ang^3
#
#
#
# Elastic Constant Matrix: (Units=GPa)
#
#
# Indices 1 2 3 4 5 6 
#
# 1 103.1152 26.8027 34.4863 11.7464 22.3120 28.2600
# 2 26.8027 148.7504 57.9831 2.5222 10.8583 22.3065
# 3 34.4863 57.9831 129.2186 3.2511 20.3129 24.4132
# 4 11.7464 2.5222 3.2511 39.2774 20.9047 1.6620
# 5 22.3120 10.8583 20.3129 20.9047 28.6292 12.7445
# 6 28.2600 22.3065 24.4132 1.6620 12.7445 26.5980
#
#
#
# Elastic Compliance Matrix: (Units=1/GPa)
#
#
# Indices 1 2 3 4 5 6 
#
# 1 0.014468 -0.000099 -0.000787 -0.001682 -0.003830 -0.012626
# 2 -0.000099 0.008619 -0.003187 -0.001283 0.002337 -0.005239
# 3 -0.000787 -0.003187 0.011045 0.003332 -0.006869 -0.003546
# 4 -0.001682 -0.001283 0.003332 0.048290 -0.043723 0.017738
# 5 -0.003830 0.002337 -0.006869 -0.043723 0.087537 -0.030798
# 6 -0.012626 -0.005239 -0.003546 0.017738 -0.030798 0.072308
#
#
# Mechanical properties :
#
#
# Convention : Reuss Voigt Hill
#
# Bulk Modulus (GPa) = 38.48109 68.84757 53.66433
# Shear Modulus (GPa) = 19.29949 36.35506 27.82727
#
# Velocity S-wave (km/s) = 3.11091 4.26969 3.73550
# Velocity P-wave (km/s) = 5.67450 7.67011 6.74651
#
# Compressibility (1/GPa) = 0.02598679
#
# Stress axis : x y z
#
# Youngs Moduli (GPa) = 69.12040 116.01770 90.54166
#
# Poissons Ratio (x) = 0.01143 0.07126
# Poissons Ratio (y) = 0.00681 0.28854
# Poissons Ratio (z) = 0.05440 0.36973
#
# Static dielectric constant tensor:
#      x y z
#    x 1.779190 -0.001590 -0.014620 
#    y -0.001590 1.757540 0.009660 
#    z -0.014620 0.009660 1.737040 
# 
# From -- ./inp_files/182980.got.cif
#   From: 2010.05.17/outbox.cif.g08.bks.cpg/sg2_92_cif.got.tgz:182980.got - 2010.06.03 11:33:40.
