data_PCOD9056230
_publ_section_title
;
Structure prediction by ZEFSAII (Michael W. Deem and Ramdas Pophale) SiO2 
 PCOD9056230
Probable space group: P -1
;
_chemical_formula_sum "Si O2"
_cell_formula_units_Z 16
_cell_length_a 8.297707
_cell_length_b 12.261592
_cell_length_c 13.626324
_cell_angle_alpha 42.426683
_cell_angle_beta 43.363447
_cell_angle_gamma 44.852606
_cell_volume 596.142261
_symmetry_space_group_name_H-M "P -1"
_symmetry_group_IT_number 2
_symmetry_cell_setting 'triclinic'
loop_
_space_group_symop_operation_xyz
x,y,z
-x,-y,-z
loop_
_atom_site_type_symbol
_atom_site_label
_atom_site_fract_x
_atom_site_fract_y
_atom_site_fract_z
Si Si1 0.364168 0.707308 0.734382
Si Si2 0.433236 0.126325 0.850593
Si Si3 0.291719 0.872133 0.462737
Si Si4 0.663578 0.058593 0.247279
Si Si5 0.049354 0.430818 0.381157
Si Si6 0.022507 0.524429 0.109695
Si Si7 0.903653 0.274268 0.725767
Si Si8 0.462264 0.239655 0.040568
O O1 0.314738 0.719491 0.631708
O O2 0.661556 0.635420 0.669059
O O3 0.289375 0.895698 0.693268
O O4 0.218369 0.611749 0.926936
O O5 0.603709 0.182550 0.658115
O O6 0.227116 0.302150 0.871075
O O7 0.424781 0.966852 0.891772
O O8 0.500000 0.000000 0.000000
O O9 0.456413 0.970979 0.379830
O O10 0.000000 0.000000 0.500000
O O11 0.938868 0.924114 0.187725
O O12 0.566314 0.234563 0.108643
O O13 0.037716 0.432624 0.269603
O O14 0.956856 0.625963 0.335974
O O15 0.925502 0.323025 0.571691
O O16 0.161266 0.346923 0.097896
O O17 0.614800 0.319490 0.850356
#
# Coordination Sequence:
#
# PCOD9056230 Si02
#       8
#     2   2   2   2   2   2   2   2
#     4  12  22  41  69 105 139 178 227 290 355 411
#     4  11  27  50  69  98 137 192 243 286 344 421
#     4  11  25  45  71  97 137 190 239 285 348 420
#     4  11  22  40  68 105 141 178 233 291 354 412
#     4  11  22  37  60 102 145 175 212 288 357 409
#     4  12  24  42  71 102 145 177 228 292 357 417
#     4  11  22  36  62  99 144 174 221 279 360 412
#     4  11  23  42  70 102 140 183 228 290 357 417
#
# _framework density 26.839231000000002
#
# number of rings (size 3 to 8) (size 9 to 14) (size 15 to 20)
#    0.000    0.750    3.750    4.875    1.750    0.500 
#    0.000    0.000    0.000    4.500    0.000    0.000 
#    0.000    0.000    0.000    0.000    0.000    0.000 
#
# Total GULP energy -89155.625101 kJ/mol
# GULP energy per Si atom -5572.226569 kJ/mol
# Density = 2.677814 g / cm^3
# Si number density = 26.839231 Si / 1000 Ang^3
#
#
#
# Elastic Constant Matrix: (Units=GPa)
#
#
# Indices 1 2 3 4 5 6 
#
# 1 57.8250 19.6842 28.7149 15.8989 8.7349 5.5290
# 2 19.6842 182.1951 38.0867 29.1710 10.0875 -18.2177
# 3 28.7149 38.0867 179.7991 33.7905 31.6227 -4.4514
# 4 15.8989 29.1710 33.7905 43.1615 2.2510 2.5191
# 5 8.7349 10.0875 31.6227 2.2510 34.6303 -1.9964
# 6 5.5290 -18.2177 -4.4514 2.5191 -1.9964 32.4864
#
#
#
# Elastic Compliance Matrix: (Units=1/GPa)
#
#
# Indices 1 2 3 4 5 6 
#
# 1 0.020870 -0.001354 -0.001616 -0.005081 -0.003314 -0.004342
# 2 -0.001354 0.006823 -0.000165 -0.004184 -0.000976 0.004299
# 3 -0.001616 -0.000165 0.008019 -0.005311 -0.006447 0.001297
# 4 -0.005081 -0.004184 -0.005311 0.032020 0.005016 -0.004384
# 5 -0.003314 -0.000976 -0.006447 0.005016 0.035611 0.000933
# 6 -0.004342 0.004299 0.001297 -0.004384 0.000933 0.034507
#
#
# Mechanical properties :
#
#
# Convention : Reuss Voigt Hill
#
# Bulk Modulus (GPa) = 33.96520 65.86564 49.91542
# Shear Modulus (GPa) = 32.48167 44.27787 38.37977
#
# Velocity S-wave (km/s) = 3.48261 4.06611 3.78562
# Velocity P-wave (km/s) = 5.37159 6.82923 6.14379
#
# Compressibility (1/GPa) = 0.02944190
#
# Stress axis : x y z
#
# Youngs Moduli (GPa) = 47.91615 146.56254 124.70773
#
# Poissons Ratio (x) = 0.19847 0.20151
# Poissons Ratio (y) = 0.06489 0.02055
# Poissons Ratio (z) = 0.07743 0.02415
#
# Static dielectric constant tensor:
#      x y z
#    x 2.370270 0.201510 0.133830 
#    y 0.201510 2.335050 -0.014480 
#    z 0.133830 -0.014480 2.296730 
# 
# From -- ./inp_files/505217.got.cif
#   From: 2010.05.17/outbox.cif.g08.bks.cpg/sg2_253_cif.got.tgz:505217.got - 2010.06.03 11:33:40.
