data_PCOD9056622
_publ_section_title
;
Structure prediction by ZEFSAII (Michael W. Deem and Ramdas Pophale) SiO2 
 PCOD9056622
Probable space group: P -1
;
_chemical_formula_sum "Si O2"
_cell_formula_units_Z 16
_cell_length_a 9.616902
_cell_length_b 17.456703
_cell_length_c 21.021823
_cell_angle_alpha 159.364555
_cell_angle_beta 135.480186
_cell_angle_gamma 55.301674
_cell_volume 800.528832
_symmetry_space_group_name_H-M "P -1"
_symmetry_group_IT_number 2
_symmetry_cell_setting 'triclinic'
loop_
_space_group_symop_operation_xyz
x,y,z
-x,-y,-z
loop_
_atom_site_type_symbol
_atom_site_label
_atom_site_fract_x
_atom_site_fract_y
_atom_site_fract_z
Si Si1 0.574384 0.721348 0.949476
Si Si2 0.245896 0.674724 0.704231
Si Si3 0.437749 0.497990 0.405111
Si Si4 0.321832 0.207433 0.513276
Si Si5 0.484483 0.132350 0.725504
Si Si6 0.128128 0.064690 0.904350
Si Si7 0.702870 0.118392 0.401790
Si Si8 0.790331 0.645905 0.271998
O O1 0.373755 0.752181 0.872490
O O2 0.497284 0.446018 0.725932
O O3 0.770504 0.818888 0.039417
O O4 0.641343 0.876348 0.154542
O O5 0.382734 0.553752 0.617058
O O6 0.000000 0.500000 0.500000
O O7 0.239166 0.891450 0.829764
O O8 0.500000 0.500000 0.500000
O O9 0.416979 0.732163 0.554571
O O10 0.207282 0.281410 0.147733
O O11 0.241964 0.289070 0.615243
O O12 0.414930 0.006223 0.395557
O O13 0.122200 0.090388 0.308595
O O14 0.319188 0.216621 0.700579
O O15 0.369411 0.952134 0.604714
O O16 0.665914 0.368418 0.999122
O O17 0.958257 0.266094 0.593428
#
# Coordination Sequence:
#
# PCOD9056622 Si02
#       8
#     2   2   2   2   2   2   2   2
#     4  11  22  40  66  92 130 179 211 270 330 385
#     4  11  22  40  62  91 128 173 218 266 320 387
#     4  11  24  41  65  98 131 173 218 273 323 390
#     4  12  23  43  69  98 130 175 222 269 335 393
#     4  11  25  44  69 102 131 170 226 277 328 400
#     4  11  22  41  66  89 134 176 216 266 331 388
#     4  12  23  44  67  95 137 173 218 274 333 390
#     4  11  25  46  69  97 135 175 217 279 338 386
#
# _framework density 19.986788000000001
#
# number of rings (size 3 to 8) (size 9 to 14) (size 15 to 20)
#    0.000    0.750    3.750    6.000    0.000    0.000 
#    2.250    1.875    0.000    0.000    0.000    0.000 
#    0.000    0.000    0.000    0.000    0.000    0.000 
#
# Total GULP energy -89456.348005 kJ/mol
# GULP energy per Si atom -5591.021750 kJ/mol
# Density = 1.994130 g / cm^3
# Si number density = 19.986788 Si / 1000 Ang^3
#
#
#
# Elastic Constant Matrix: (Units=GPa)
#
#
# Indices 1 2 3 4 5 6 
#
# 1 46.3602 9.9207 34.9620 4.5310 7.1990 -1.2989
# 2 9.9207 75.4502 28.8752 14.4768 2.3214 -6.4252
# 3 34.9620 28.8752 106.5857 12.0725 0.2101 -1.0685
# 4 4.5310 14.4768 12.0725 37.5640 2.0835 -3.8870
# 5 7.1990 2.3214 0.2101 2.0835 28.0264 -1.1883
# 6 -1.2989 -6.4252 -1.0685 -3.8870 -1.1883 30.1091
#
#
#
# Elastic Compliance Matrix: (Units=1/GPa)
#
#
# Indices 1 2 3 4 5 6 
#
# 1 0.030245 0.000118 -0.009930 -0.000007 -0.007675 0.000674
# 2 0.000118 0.015811 -0.003776 -0.004575 -0.000860 0.002620
# 3 -0.009930 -0.003776 0.013881 -0.002060 0.002875 -0.000894
# 4 -0.000007 -0.004575 -0.002060 0.029418 -0.001677 0.002682
# 5 -0.007675 -0.000860 0.002875 -0.001677 0.037863 0.000865
# 6 0.000674 0.002620 -0.000894 0.002682 0.000865 0.034149
#
#
# Mechanical properties :
#
#
# Convention : Reuss Voigt Hill
#
# Bulk Modulus (GPa) = 30.52390 41.76799 36.14595
# Shear Modulus (GPa) = 25.06721 29.44911 27.25816
#
# Velocity S-wave (km/s) = 3.54529 3.84269 3.69698
# Velocity P-wave (km/s) = 5.66251 6.37429 6.02891
#
# Compressibility (1/GPa) = 0.03276121
#
# Stress axis : x y z
#
# Youngs Moduli (GPa) = 33.06316 63.24808 72.04039
#
# Poissons Ratio (x) = -0.00749 0.71539
# Poissons Ratio (y) = -0.00391 0.27202
# Poissons Ratio (z) = 0.32833 0.23882
#
# Static dielectric constant tensor:
#      x y z
#    x 1.692420 0.006560 -0.006530 
#    y 0.006560 1.695190 -0.001730 
#    z -0.006530 -0.001730 1.713370 
# 
# From -- ./inp_files/590864.got.cif
#   From: 2010.05.17/outbox.cif.g08.bks.cpg/sg2_296_cif.got.tgz:590864.got - 2010.06.03 11:33:40.
