data_PCOD9056657
_publ_section_title
;
Structure prediction by ZEFSAII (Michael W. Deem and Ramdas Pophale) SiO2 
 PCOD9056657
Probable space group: P -1
;
_chemical_formula_sum "Si O2"
_cell_formula_units_Z 10
_cell_length_a 8.388421
_cell_length_b 9.446368
_cell_length_c 10.641625
_cell_angle_alpha 136.865945
_cell_angle_beta 40.741439
_cell_angle_gamma 118.487524
_cell_volume 370.782435
_symmetry_space_group_name_H-M "P -1"
_symmetry_group_IT_number 2
_symmetry_cell_setting 'triclinic'
loop_
_space_group_symop_operation_xyz
x,y,z
-x,-y,-z
loop_
_atom_site_type_symbol
_atom_site_label
_atom_site_fract_x
_atom_site_fract_y
_atom_site_fract_z
Si Si1 0.488051 0.896292 0.096216
Si Si2 0.883790 0.628762 0.501389
Si Si3 0.579233 0.288477 0.704750
Si Si4 0.748729 0.168070 0.263806
Si Si5 0.882553 0.364751 0.881122
O O1 0.699755 0.768665 0.797182
O O2 0.240141 0.837422 0.141913
O O3 0.467121 0.812860 0.199061
O O4 0.581680 0.113280 0.212905
O O5 0.807492 0.402693 0.376746
O O6 0.163015 0.619710 0.380762
O O7 0.918299 0.712146 0.394578
O O8 0.624760 0.150534 0.462384
O O9 0.345258 0.466096 0.928139
O O10 0.000000 0.000000 0.000000
O O11 0.000000 0.500000 0.000000
#
# Coordination Sequence:
#
# PCOD9056657 Si02
#       5
#     2   2   2   2   2
#     4  11  23  42  66  97 122 160 206 260 310 359
#     4  11  23  42  67  94 124 157 210 262 303 363
#     4  11  22  40  65  94 129 155 206 259 304 366
#     4  12  21  35  67 100 122 153 203 265 313 352
#     4  11  25  43  63  87 129 174 201 245 312 369
#
# _framework density 26.969992999999999
#
# number of rings (size 3 to 8) (size 9 to 14) (size 15 to 20)
#    0.000    0.800    4.000    6.000    0.000    0.800 
#    0.000    2.000    0.000    0.000    0.000    0.000 
#    0.000    0.000    0.000    0.000    0.000    0.000 
#
# Total GULP energy -55991.436078 kJ/mol
# GULP energy per Si atom -5599.143608 kJ/mol
# Density = 2.690861 g / cm^3
# Si number density = 26.969993 Si / 1000 Ang^3
#
#
#
# Elastic Constant Matrix: (Units=GPa)
#
#
# Indices 1 2 3 4 5 6 
#
# 1 119.0916 71.8666 52.6128 3.0338 25.4229 54.0028
# 2 71.8666 174.3717 78.4682 -3.6676 25.7597 46.4888
# 3 52.6128 78.4682 226.4337 -15.9412 39.0389 29.3030
# 4 3.0338 -3.6676 -15.9412 54.4095 9.0096 20.6979
# 5 25.4229 25.7597 39.0389 9.0096 60.9758 5.5366
# 6 54.0028 46.4888 29.3030 20.6979 5.5366 63.5088
#
#
#
# Elastic Compliance Matrix: (Units=1/GPa)
#
#
# Indices 1 2 3 4 5 6 
#
# 1 0.017393 -0.002421 -0.000013 0.005214 -0.005700 -0.014214
# 2 -0.002421 0.008853 -0.001498 0.002212 -0.001707 -0.004302
# 3 -0.000013 -0.001498 0.006082 0.003187 -0.003506 -0.002431
# 4 0.005214 0.002212 0.003187 0.026306 -0.007635 -0.015431
# 5 -0.005700 -0.001707 -0.003506 -0.007635 0.022119 0.008274
# 6 -0.014214 -0.004302 -0.002431 -0.015431 0.008274 0.036411
#
#
# Mechanical properties :
#
#
# Convention : Reuss Voigt Hill
#
# Bulk Modulus (GPa) = 40.87921 102.86580 71.87251
# Shear Modulus (GPa) = 37.54227 56.90877 47.22552
#
# Velocity S-wave (km/s) = 3.73500 4.59854 4.18908
# Velocity P-wave (km/s) = 5.81296 8.14979 7.07847
#
# Compressibility (1/GPa) = 0.02446231
#
# Stress axis : x y z
#
# Youngs Moduli (GPa) = 57.49371 112.95798 164.41926
#
# Poissons Ratio (x) = 0.27352 0.00213
# Poissons Ratio (y) = 0.13922 0.24637
# Poissons Ratio (z) = 0.00075 0.16926
#
# Static dielectric constant tensor:
#      x y z
#    x 2.222650 -0.095350 -0.036020 
#    y -0.095350 2.265630 0.063600 
#    z -0.036020 0.063600 2.057120 
# 
# From -- ./inp_files/166826.got.cif
#   From: 2010.05.17/outbox.cif.g08.bks.cpg/sg2_84_cif.got.tgz:166826.got - 2010.06.03 11:33:40.
