data_PCOD9056818
_publ_section_title
;
Structure prediction by ZEFSAII (Michael W. Deem and Ramdas Pophale) SiO2 
 PCOD9056818
Probable space group: P -1
;
_chemical_formula_sum "Si O2"
_cell_formula_units_Z 13
_cell_length_a 9.117065
_cell_length_b 9.787034
_cell_length_c 13.111864
_cell_angle_alpha 147.404167
_cell_angle_beta 114.669368
_cell_angle_gamma 82.989500
_cell_volume 505.850666
_symmetry_space_group_name_H-M "P -1"
_symmetry_group_IT_number 2
_symmetry_cell_setting 'triclinic'
loop_
_space_group_symop_operation_xyz
x,y,z
-x,-y,-z
loop_
_atom_site_type_symbol
_atom_site_label
_atom_site_fract_x
_atom_site_fract_y
_atom_site_fract_z
Si Si1 0.554398 0.775713 0.930438
Si Si2 0.022201 0.233765 0.236460
Si Si3 0.646358 0.059653 0.492356
Si Si4 0.144854 0.358503 0.568577
Si Si5 0.364105 0.536939 0.409258
Si Si6 0.000000 0.500000 0.000000
Si Si7 0.805070 0.855014 0.245702
O O1 0.362685 0.487443 0.715829
O O2 0.674052 0.700963 0.837928
O O3 0.673419 0.860158 0.119877
O O4 0.500000 0.000000 0.000000
O O5 0.072508 0.176317 0.327614
O O6 0.201310 0.500937 0.411245
O O7 0.880041 0.357022 0.273567
O O8 0.000000 0.000000 0.000000
O O9 0.567902 0.173721 0.449772
O O10 0.500000 0.000000 0.500000
O O11 0.699518 0.840227 0.310679
O O12 0.837272 0.304348 0.747260
O O13 0.999409 0.150325 0.477606
O O14 0.500000 0.500000 0.500000
O O15 0.859302 0.606032 0.080797
#
# Coordination Sequence:
#
# PCOD9056818 Si02
#       7
#     2   2   2   2   2   1   2
#     4  12  24  45  77 119 161 204 261 335 414 488
#     4  11  22  40  70 110 156 201 251 317 404 482
#     4  12  30  55  82 115 163 219 274 339 409 490
#     4  11  24  43  72 110 156 201 250 331 404 466
#     4  12  23  47  75 118 160 200 265 331 402 485
#     4  12  30  52  82 112 156 216 282 324 404 488
#     4  12  27  52  79 115 161 211 281 333 400 494
#
# _framework density 25.699282
#
# number of rings (size 3 to 8) (size 9 to 14) (size 15 to 20)
#    0.000    0.308    4.615    5.077    2.154    1.846 
#    0.000    0.000    0.000    0.000    0.000    0.000 
#    0.000    0.000    0.000    0.000    0.000    0.000 
#
# Total GULP energy -72459.908857 kJ/mol
# GULP energy per Si atom -5573.839143 kJ/mol
# Density = 2.564079 g / cm^3
# Si number density = 25.699282 Si / 1000 Ang^3
#
#
#
# Elastic Constant Matrix: (Units=GPa)
#
#
# Indices 1 2 3 4 5 6 
#
# 1 202.1168 56.6084 46.6500 -17.4328 -21.0514 6.7456
# 2 56.6084 87.9332 7.2402 -26.7112 4.7010 8.0450
# 3 46.6500 7.2402 104.7083 -30.1960 -17.9958 -8.9503
# 4 -17.4328 -26.7112 -30.1960 31.6062 1.1956 1.9245
# 5 -21.0514 4.7010 -17.9958 1.1956 64.9408 -1.3292
# 6 6.7456 8.0450 -8.9503 1.9245 -1.3292 55.9699
#
#
#
# Elastic Compliance Matrix: (Units=1/GPa)
#
#
# Indices 1 2 3 4 5 6 
#
# 1 0.007291 -0.005861 -0.003945 -0.004739 0.001772 -0.000462
# 2 -0.005861 0.021452 0.006849 0.021642 -0.001996 -0.002073
# 3 -0.003945 0.006849 0.017130 0.019780 0.002641 0.001613
# 4 -0.004739 0.021642 0.019780 0.066269 0.001125 -0.001628
# 5 0.001772 -0.001996 0.002641 0.001125 0.016846 0.000857
# 6 -0.000462 -0.002073 0.001613 -0.001628 0.000857 0.018555
#
#
# Mechanical properties :
#
#
# Convention : Reuss Voigt Hill
#
# Bulk Modulus (GPa) = 25.02552 68.41728 46.72140
# Shear Modulus (GPa) = 29.98015 49.45402 39.71709
#
# Velocity S-wave (km/s) = 3.41922 4.39148 3.93549
# Velocity P-wave (km/s) = 5.03459 7.23834 6.23461
#
# Compressibility (1/GPa) = 0.03995922
#
# Stress axis : x y z
#
# Youngs Moduli (GPa) = 137.15826 46.61597 58.37626
#
# Poissons Ratio (x) = 0.27321 0.23027
# Poissons Ratio (y) = 0.80388 -0.39980
# Poissons Ratio (z) = 0.54104 -0.31926
#
# Static dielectric constant tensor:
#      x y z
#    x 2.194320 -0.197520 -0.009850 
#    y -0.197520 2.240700 0.090980 
#    z -0.009850 0.090980 2.099260 
# 
# From -- ./inp_files/383736.got.cif
#   From: 2010.05.17/outbox.cif.g08.bks.cpg/sg2_192_cif.got.tgz:383736.got - 2010.06.03 11:33:40.
