data_PCOD9056409
_publ_section_title
;
Structure prediction by ZEFSAII (Michael W. Deem and Ramdas Pophale) SiO2 
 PCOD9056409
Probable space group: P -1
;
_chemical_formula_sum "Si O2"
_cell_formula_units_Z 14
_cell_length_a 11.793220
_cell_length_b 8.633615
_cell_length_c 7.665554
_cell_angle_alpha 115.428794
_cell_angle_beta 131.921607
_cell_angle_gamma 65.456961
_cell_volume 514.793075
_symmetry_space_group_name_H-M "P -1"
_symmetry_group_IT_number 2
_symmetry_cell_setting 'triclinic'
loop_
_space_group_symop_operation_xyz
x,y,z
-x,-y,-z
loop_
_atom_site_type_symbol
_atom_site_label
_atom_site_fract_x
_atom_site_fract_y
_atom_site_fract_z
Si Si1 0.900968 0.206568 0.573651
Si Si2 0.068206 0.136589 0.367841
Si Si3 0.673635 0.027382 0.711344
Si Si4 0.382676 0.380097 0.751009
Si Si5 0.388154 0.923745 0.974336
Si Si6 0.796943 0.394696 0.056094
Si Si7 0.324059 0.470873 0.345028
O O1 0.027605 0.218828 0.559815
O O2 0.746026 0.153992 0.298418
O O3 0.820569 0.377824 0.672454
O O4 0.965052 0.055093 0.705152
O O5 0.963120 0.270499 0.194417
O O6 0.224735 0.073827 0.388644
O O7 0.500000 0.000000 0.500000
O O8 0.703248 0.960602 0.908858
O O9 0.702121 0.231162 0.845285
O O10 0.229911 0.489686 0.738647
O O11 0.353630 0.369240 0.510301
O O12 0.500000 0.500000 0.000000
O O13 0.476962 0.210267 0.855716
O O14 0.500000 0.000000 0.000000
O O15 0.739058 0.542783 0.922813
O O16 0.500000 0.500000 0.500000
#
# Coordination Sequence:
#
# PCOD9056409 Si02
#       7
#     2   2   2   2   2   2   2
#     4  11  22  38  67 102 137 188 237 287 352 416
#     4  11  23  40  66 104 144 182 240 293 342 429
#     4  12  24  40  65 103 145 183 231 293 358 413
#     4  12  21  43  65 104 140 178 241 294 345 414
#     4  12  25  43  68 103 145 182 228 304 362 412
#     4  12  23  42  71 104 139 184 240 293 342 421
#     4  12  21  34  67 104 136 174 236 293 341 403
#
# _framework density 27.195395999999999
#
# number of rings (size 3 to 8) (size 9 to 14) (size 15 to 20)
#    0.000    0.286    8.571    1.286    0.000    0.000 
#    2.571    0.000    0.000    4.286    0.000    0.000 
#    0.000    0.000    0.000    0.000    0.000    0.000 
#
# Total GULP energy -77947.804719 kJ/mol
# GULP energy per Si atom -5567.700337 kJ/mol
# Density = 2.713350 g / cm^3
# Si number density = 27.195396 Si / 1000 Ang^3
#
#
#
# Elastic Constant Matrix: (Units=GPa)
#
#
# Indices 1 2 3 4 5 6 
#
# 1 227.7473 53.1000 54.4086 -2.1079 -10.8673 -5.9916
# 2 53.1000 99.8140 42.8060 -46.5925 0.4500 -1.8550
# 3 54.4086 42.8060 113.2336 -16.0126 -2.9767 17.8860
# 4 -2.1079 -46.5925 -16.0126 50.0048 2.8585 -7.7289
# 5 -10.8673 0.4500 -2.9767 2.8585 42.7601 -11.8246
# 6 -5.9916 -1.8550 17.8860 -7.7289 -11.8246 56.8386
#
#
#
# Elastic Compliance Matrix: (Units=1/GPa)
#
#
# Indices 1 2 3 4 5 6 
#
# 1 0.005953 -0.004421 -0.001908 -0.004454 0.001970 0.000888
# 2 -0.004421 0.025018 -0.004940 0.022356 -0.001971 0.004535
# 3 -0.001908 -0.004940 0.012104 -0.001465 -0.000744 -0.004525
# 4 -0.004454 0.022356 -0.001465 0.041215 -0.002626 0.005779
# 5 0.001970 -0.001971 -0.000744 -0.002626 0.025504 0.005326
# 6 0.000888 0.004535 -0.004525 0.005779 0.005326 0.021153
#
#
# Mechanical properties :
#
#
# Convention : Reuss Voigt Hill
#
# Bulk Modulus (GPa) = 48.69114 82.38046 65.53580
# Shear Modulus (GPa) = 31.18561 49.28606 40.23584
#
# Velocity S-wave (km/s) = 3.39001 4.26172 3.85061
# Velocity P-wave (km/s) = 5.76766 7.38744 6.62722
#
# Compressibility (1/GPa) = 0.02053762
#
# Stress axis : x y z
#
# Youngs Moduli (GPa) = 167.97086 39.97162 82.61970
#
# Poissons Ratio (x) = 0.17670 0.15762
# Poissons Ratio (y) = 0.74253 0.40816
# Poissons Ratio (z) = 0.32046 0.19747
#
# Static dielectric constant tensor:
#      x y z
#    x 2.260450 0.013870 -0.093290 
#    y 0.013870 2.191110 -0.078050 
#    z -0.093290 -0.078050 1.729810 
# 
# From -- ./inp_files/299366.got.cif
#   From: 2010.05.17/outbox.cif.g08.bks.cpg/sg2_150_cif.got.tgz:299366.got - 2010.06.03 11:33:40.
