data_PCOD9056924
_publ_section_title
;
Structure prediction by ZEFSAII (Michael W. Deem and Ramdas Pophale) SiO2 
 PCOD9056924
Probable space group: P -1
;
_chemical_formula_sum "Si O2"
_cell_formula_units_Z 14
_cell_length_a 18.336457
_cell_length_b 9.013819
_cell_length_c 8.787316
_cell_angle_alpha 31.660869
_cell_angle_beta 55.798412
_cell_angle_gamma 55.069915
_cell_volume 615.505739
_symmetry_space_group_name_H-M "P -1"
_symmetry_group_IT_number 2
_symmetry_cell_setting 'triclinic'
loop_
_space_group_symop_operation_xyz
x,y,z
-x,-y,-z
loop_
_atom_site_type_symbol
_atom_site_label
_atom_site_fract_x
_atom_site_fract_y
_atom_site_fract_z
Si Si1 0.185086 0.351836 0.602556
Si Si2 0.686059 0.846682 0.085135
Si Si3 0.936269 0.310724 0.309480
Si Si4 0.751552 0.261665 0.410825
Si Si5 0.245781 0.768038 0.928773
Si Si6 0.437769 0.864261 0.574484
Si Si7 0.504496 0.792347 0.027311
O O1 0.251519 0.243679 0.762240
O O2 0.100679 0.569029 0.587349
O O3 0.170829 0.052978 0.812114
O O4 0.228670 0.512762 0.279222
O O5 0.672853 0.540140 0.303490
O O6 0.732569 0.995661 0.765229
O O7 0.595201 0.070064 0.039640
O O8 0.846752 0.314611 0.312518
O O9 0.000000 0.000000 0.500000
O O10 0.000000 0.500000 0.000000
O O11 0.755668 0.254848 0.231262
O O12 0.345837 0.821975 0.793962
O O13 0.480033 0.554649 0.711698
O O14 0.500000 0.000000 0.500000
O O15 0.420012 0.105462 0.252672
O O16 0.500000 0.000000 0.000000
#
# Coordination Sequence:
#
# PCOD9056924 Si02
#       7
#     2   2   2   2   2   2   2
#     4  11  24  42  68  95 127 172 212 262 326 401
#     4  11  22  41  65  94 126 175 231 267 316 394
#     4  11  23  44  69  97 126 161 209 263 323 399
#     4  11  23  42  69  96 129 174 214 271 330 388
#     4  12  24  44  64  97 135 172 220 267 326 398
#     4  12  26  41  62  95 137 181 221 282 340 379
#     4  12  24  42  65  94 128 177 235 288 326 375
#
# _framework density 22.745522999999999
#
# number of rings (size 3 to 8) (size 9 to 14) (size 15 to 20)
#    0.000    0.571    0.000   10.286    0.000    3.429 
#    0.000    4.286    0.000    0.000    0.000    0.000 
#    0.000    0.000    0.000    0.000    0.000    0.000 
#
# Total GULP energy -78207.095832 kJ/mol
# GULP energy per Si atom -5586.221131 kJ/mol
# Density = 2.269375 g / cm^3
# Si number density = 22.745523 Si / 1000 Ang^3
#
#
#
# Elastic Constant Matrix: (Units=GPa)
#
#
# Indices 1 2 3 4 5 6 
#
# 1 57.5229 27.2947 19.1265 0.6787 1.7054 3.0572
# 2 27.2947 146.2594 37.6260 -13.0483 13.4111 7.5108
# 3 19.1265 37.6260 173.8058 2.3353 15.1725 8.4374
# 4 0.6787 -13.0483 2.3353 55.4612 6.2839 4.1743
# 5 1.7054 13.4111 15.1725 6.2839 19.6689 4.0473
# 6 3.0572 7.5108 8.4374 4.1743 4.0473 46.5803
#
#
#
# Elastic Compliance Matrix: (Units=1/GPa)
#
#
# Indices 1 2 3 4 5 6 
#
# 1 0.019560 -0.003558 -0.001552 -0.001247 0.002435 -0.000529
# 2 -0.003558 0.008542 -0.000979 0.002773 -0.005494 -0.000737
# 3 -0.001552 -0.000979 0.006523 0.000023 -0.004121 -0.000566
# 4 -0.001247 0.002773 0.000023 0.019690 -0.007791 -0.001457
# 5 0.002435 -0.005494 -0.004121 -0.007791 0.060683 -0.003102
# 6 -0.000529 -0.000737 -0.000566 -0.001457 -0.003102 0.022124
#
#
# Mechanical properties :
#
#
# Convention : Reuss Voigt Hill
#
# Bulk Modulus (GPa) = 44.55334 60.63138 52.59236
# Shear Modulus (GPa) = 31.89106 43.91148 37.90127
#
# Velocity S-wave (km/s) = 3.74850 4.39857 4.08648
# Velocity P-wave (km/s) = 6.19397 7.24644 6.74078
#
# Compressibility (1/GPa) = 0.02244501
#
# Stress axis : x y z
#
# Youngs Moduli (GPa) = 51.12602 117.06583 153.29709
#
# Poissons Ratio (x) = 0.41655 0.23796
# Poissons Ratio (y) = 0.18192 0.15015
# Poissons Ratio (z) = 0.07936 0.11466
#
# Static dielectric constant tensor:
#      x y z
#    x 1.863770 0.057460 -0.034340 
#    y 0.057460 1.899330 0.017680 
#    z -0.034340 0.017680 1.780640 
# 
# From -- ./inp_files/223746.got.cif
#   From: 2010.05.17/outbox.cif.g08.bks.cpg/sg2_112_cif.got.tgz:223746.got - 2010.06.03 11:33:40.
