data_PCOD9056186
_publ_section_title
;
Structure prediction by ZEFSAII (Michael W. Deem and Ramdas Pophale) SiO2 
 PCOD9056186
Probable space group: P -1
;
_chemical_formula_sum "Si O2"
_cell_formula_units_Z 16
_cell_length_a 11.594343
_cell_length_b 15.666602
_cell_length_c 14.511245
_cell_angle_alpha 56.565350
_cell_angle_beta 75.359540
_cell_angle_gamma 25.202095
_cell_volume 676.455600
_symmetry_space_group_name_H-M "P -1"
_symmetry_group_IT_number 2
_symmetry_cell_setting 'triclinic'
loop_
_space_group_symop_operation_xyz
x,y,z
-x,-y,-z
loop_
_atom_site_type_symbol
_atom_site_label
_atom_site_fract_x
_atom_site_fract_y
_atom_site_fract_z
Si Si1 0.401029 0.003213 0.845274
Si Si2 0.329591 0.480160 0.517745
Si Si3 0.167956 0.409017 0.706089
Si Si4 0.559976 0.364393 0.353043
Si Si5 0.953020 0.032244 0.881282
Si Si6 0.120538 0.950251 0.711284
Si Si7 0.084257 0.172745 0.977812
Si Si8 0.834758 0.593157 0.832086
O O1 0.497222 0.892158 0.789753
O O2 0.193961 0.280451 0.723893
O O3 0.182142 0.098042 0.893658
O O4 0.792164 0.696618 0.006954
O O5 0.202044 0.479687 0.592453
O O6 0.362436 0.451433 0.416376
O O7 0.752981 0.173748 0.642952
O O8 0.049638 0.798425 0.416540
O O9 0.850053 0.653663 0.703334
O O10 0.537795 0.108482 0.874014
O O11 0.411755 0.597361 0.273158
O O12 0.000000 0.000000 0.500000
O O13 0.574228 0.330190 0.260444
O O14 0.232574 0.849049 0.856461
O O15 0.967787 0.900427 0.937801
O O16 0.000000 0.000000 0.000000
O O17 0.838029 0.473339 0.870091
#
# Coordination Sequence:
#
# PCOD9056186 Si02
#       8
#     2   2   2   2   2   2   2   2
#     4   8  15  27  40  66  98 128 164 202 250 311
#     4   9  16  29  49  73 100 135 166 206 262 306
#     4   9  15  25  45  70 100 131 163 199 257 311
#     4   9  20  35  51  74 100 133 176 215 255 302
#     4  11  22  35  52  76 104 141 180 208 246 302
#     4   9  18  33  47  67 103 134 171 214 249 298
#     4   9  17  29  44  64 101 137 162 202 254 299
#     4   8  15  27  41  65  97 132 159 205 254 305
#
# _framework density 23.652698000000001
#
# number of rings (size 3 to 8) (size 9 to 14) (size 15 to 20)
#    0.000    3.000    1.250    2.250    0.000    2.500 
#    9.000    0.000    0.000    0.000    0.000   14.000 
#    0.000   16.000    0.000    0.000    0.000    0.000 
#
# Total GULP energy -89266.046345 kJ/mol
# GULP energy per Si atom -5579.127897 kJ/mol
# Density = 2.359886 g / cm^3
# Si number density = 23.652698 Si / 1000 Ang^3
#
#
#
# Elastic Constant Matrix: (Units=GPa)
#
#
# Indices 1 2 3 4 5 6 
#
# 1 66.3842 47.9904 45.0753 14.7560 -31.6893 -5.3433
# 2 47.9904 220.8951 81.0532 32.6118 -36.7784 3.7402
# 3 45.0753 81.0532 119.0056 31.4410 -42.8405 -5.3193
# 4 14.7560 32.6118 31.4410 39.6283 -7.0028 5.2706
# 5 -31.6893 -36.7784 -42.8405 -7.0028 52.6957 10.3113
# 6 -5.3433 3.7402 -5.3193 5.2706 10.3113 33.9949
#
#
#
# Elastic Compliance Matrix: (Units=1/GPa)
#
#
# Indices 1 2 3 4 5 6 
#
# 1 0.024274 -0.001918 -0.003496 -0.003082 0.009815 0.000980
# 2 -0.001918 0.006485 -0.002842 -0.001978 0.001090 -0.001484
# 3 -0.003496 -0.002842 0.016967 -0.008508 0.008341 0.001207
# 4 -0.003082 -0.001978 -0.008508 0.034726 -0.004433 -0.005637
# 5 0.009815 0.001090 0.008341 -0.004433 0.033130 -0.006634
# 6 0.000980 -0.001484 0.001207 -0.005637 -0.006634 0.032808
#
#
# Mechanical properties :
#
#
# Convention : Reuss Voigt Hill
#
# Bulk Modulus (GPa) = 32.03756 83.83584 57.93670
# Shear Modulus (GPa) = 28.52126 40.74152 34.63139
#
# Velocity S-wave (km/s) = 3.47628 4.15479 3.83059
# Velocity P-wave (km/s) = 5.44859 7.65100 6.64172
#
# Compressibility (1/GPa) = 0.03121337
#
# Stress axis : x y z
#
# Youngs Moduli (GPa) = 41.19692 154.19967 58.93737
#
# Poissons Ratio (x) = 0.29576 0.20607
# Poissons Ratio (y) = 0.07902 0.16749
# Poissons Ratio (z) = 0.14404 0.43820
#
# Static dielectric constant tensor:
#      x y z
#    x 1.981440 -0.000950 0.149800 
#    y -0.000950 1.925630 0.016960 
#    z 0.149800 0.016960 1.962120 
# 
# From -- ./inp_files/522339.got.cif
#   From: 2010.05.17/outbox.cif.g08.bks.cpg/sg2_262_cif.got.tgz:522339.got - 2010.06.03 11:33:40.
