data_PCOD9056067
_publ_section_title
;
Structure prediction by ZEFSAII (Michael W. Deem and Ramdas Pophale) SiO2 
 PCOD9056067
Probable space group: P -1
;
_chemical_formula_sum "Si O2"
_cell_formula_units_Z 14
_cell_length_a 8.594967
_cell_length_b 18.586437
_cell_length_c 8.073610
_cell_angle_alpha 121.291833
_cell_angle_beta 124.923412
_cell_angle_gamma 103.696686
_cell_volume 584.837075
_symmetry_space_group_name_H-M "P -1"
_symmetry_group_IT_number 2
_symmetry_cell_setting 'triclinic'
loop_
_space_group_symop_operation_xyz
x,y,z
-x,-y,-z
loop_
_atom_site_type_symbol
_atom_site_label
_atom_site_fract_x
_atom_site_fract_y
_atom_site_fract_z
Si Si1 0.730479 0.517563 0.258764
Si Si2 0.406619 0.967403 0.215993
Si Si3 0.296158 0.762577 0.775639
Si Si4 0.643748 0.727854 0.053627
Si Si5 0.118974 0.758812 0.304780
Si Si6 0.821759 0.397572 0.919243
Si Si7 0.822725 0.854122 0.676398
O O1 0.043411 0.667869 0.647603
O O2 0.500000 0.500000 0.000000
O O3 0.569171 0.420167 0.196899
O O4 0.821480 0.467483 0.143995
O O5 0.500000 0.000000 0.500000
O O6 0.565894 0.097924 0.379070
O O7 0.492689 0.908726 0.115429
O O8 0.059758 0.861965 0.863942
O O9 0.134955 0.730671 0.468874
O O10 0.483019 0.741315 0.858786
O O11 0.734713 0.809431 0.375547
O O12 0.907752 0.767329 0.176936
O O13 0.044602 0.650078 0.026629
O O14 0.471176 0.258338 0.528628
O O15 0.000000 0.500000 0.000000
O O16 0.000000 0.000000 0.000000
#
# Coordination Sequence:
#
# PCOD9056067 Si02
#       7
#     2   2   2   2   2   2   2
#     4  11  21  45  74 104 143 195 235 296 369 429
#     4  12  27  46  71 106 144 190 246 304 369 436
#     4  12  24  44  74 102 143 195 240 295 363 435
#     4  11  25  43  70 109 141 189 245 292 362 437
#     4  12  25  47  70 102 149 184 243 299 365 422
#     4  11  22  41  74 102 144 190 239 297 365 427
#     4  11  22  43  71 100 145 194 237 300 363 428
#
# _framework density 23.938289000000001
#
# number of rings (size 3 to 8) (size 9 to 14) (size 15 to 20)
#    0.000    0.571    5.714    2.571    2.000    1.714 
#    0.000    0.714    0.000    0.000    0.000    0.000 
#    0.000    0.000    0.000    0.000    0.000    0.000 
#
# Total GULP energy -78297.176424 kJ/mol
# GULP energy per Si atom -5592.655459 kJ/mol
# Density = 2.388380 g / cm^3
# Si number density = 23.938289 Si / 1000 Ang^3
#
#
#
# Elastic Constant Matrix: (Units=GPa)
#
#
# Indices 1 2 3 4 5 6 
#
# 1 104.0082 29.2807 26.8350 9.2397 16.7585 -26.4819
# 2 29.2807 82.8028 29.4082 19.0444 4.9383 -31.4917
# 3 26.8350 29.4082 79.4806 18.4221 5.3658 -6.4990
# 4 9.2397 19.0444 18.4221 51.6071 -6.1415 4.2751
# 5 16.7585 4.9383 5.3658 -6.1415 45.4294 3.3699
# 6 -26.4819 -31.4917 -6.4990 4.2751 3.3699 54.1025
#
#
#
# Elastic Compliance Matrix: (Units=1/GPa)
#
#
# Indices 1 2 3 4 5 6 
#
# 1 0.013142 -0.000327 -0.002890 -0.002358 -0.005265 0.006410
# 2 -0.000327 0.020109 -0.004484 -0.007139 -0.003375 0.011780
# 3 -0.002890 -0.004484 0.015910 -0.003436 -0.000657 -0.001801
# 4 -0.002358 -0.007139 -0.003436 0.025048 0.006037 -0.008078
# 5 -0.005265 -0.003375 -0.000657 0.006037 0.025712 -0.006699
# 6 0.006410 0.011780 -0.001801 -0.008078 -0.006699 0.029317
#
#
# Mechanical properties :
#
#
# Convention : Reuss Voigt Hill
#
# Bulk Modulus (GPa) = 29.62187 48.59328 39.10758
# Shear Modulus (GPa) = 32.07330 42.27899 37.17614
#
# Velocity S-wave (km/s) = 3.66434 4.20714 3.94509
# Velocity P-wave (km/s) = 5.50494 6.62899 6.09294
#
# Compressibility (1/GPa) = 0.03375884
#
# Stress axis : x y z
#
# Youngs Moduli (GPa) = 76.09078 49.73018 62.85309
#
# Poissons Ratio (x) = 0.01625 0.18165
# Poissons Ratio (y) = 0.02486 0.28185
# Poissons Ratio (z) = 0.21991 0.22300
#
# Static dielectric constant tensor:
#      x y z
#    x 1.987360 0.056230 -0.012860 
#    y 0.056230 1.966650 0.018150 
#    z -0.012860 0.018150 1.978310 
# 
# From -- ./inp_files/218423.got.cif
#   From: 2010.05.17/outbox.cif.g08.bks.cpg/sg2_110_cif.got.tgz:218423.got - 2010.06.03 11:33:40.
