data_PCOD9056763
_publ_section_title
;
Structure prediction by ZEFSAII (Michael W. Deem and Ramdas Pophale) SiO2 
 PCOD9056763
Probable space group: P -1
;
_chemical_formula_sum "Si O2"
_cell_formula_units_Z 16
_cell_length_a 8.634795
_cell_length_b 9.320110
_cell_length_c 16.385470
_cell_angle_alpha 35.424394
_cell_angle_beta 106.693352
_cell_angle_gamma 96.635328
_cell_volume 715.241560
_symmetry_space_group_name_H-M "P -1"
_symmetry_group_IT_number 2
_symmetry_cell_setting 'triclinic'
loop_
_space_group_symop_operation_xyz
x,y,z
-x,-y,-z
loop_
_atom_site_type_symbol
_atom_site_label
_atom_site_fract_x
_atom_site_fract_y
_atom_site_fract_z
Si Si1 0.910632 0.278217 0.168772
Si Si2 0.828016 0.692542 0.209076
Si Si3 0.371451 0.006762 0.728644
Si Si4 0.076970 0.237391 0.374610
Si Si5 0.929482 0.019587 0.810378
Si Si6 0.453467 0.119796 0.525255
Si Si7 0.321165 0.222798 0.020957
Si Si8 0.289006 0.551265 0.533541
O O1 0.060327 0.245732 0.270737
O O2 0.808805 0.054384 0.266994
O O3 0.773458 0.518766 0.068167
O O4 0.991656 0.230531 0.114212
O O5 0.776638 0.563271 0.342219
O O6 0.962348 0.483989 0.279742
O O7 0.920440 0.909782 0.149906
O O8 0.691248 0.767625 0.083234
O O9 0.460450 0.930324 0.690843
O O10 0.355553 0.306130 0.601211
O O11 0.490861 0.858535 0.884118
O O12 0.258738 0.230620 0.436804
O O13 0.000000 0.000000 0.500000
O O14 0.847733 0.244954 0.630960
O O15 0.783993 0.974561 0.868437
O O16 0.569086 0.309638 0.478773
O O17 0.500000 0.000000 0.500000
#
# Coordination Sequence:
#
# PCOD9056763 Si02
#       8
#     2   2   2   2   2   2   2   2
#     4  11  24  45  70  99 136 189 234 281 348 412
#     4  11  25  45  69 104 137 190 231 285 346 416
#     4  12  25  47  70 103 144 186 228 287 353 418
#     4  11  22  40  69 100 139 175 231 292 343 402
#     4  12  23  46  72 104 137 181 240 291 347 408
#     4  12  25  42  69 107 141 177 229 295 350 406
#     4  11  27  45  68  98 150 185 231 280 350 424
#     4  12  26  45  75 107 139 181 236 293 351 403
#
# _framework density 22.370066000000001
#
# number of rings (size 3 to 8) (size 9 to 14) (size 15 to 20)
#    0.000    0.500    3.750    4.875    3.500    0.500 
#    0.000    0.000    0.000    0.000    0.000    0.000 
#    0.000    0.000    0.000    0.000    0.000    0.000 
#
# Total GULP energy -89501.260389 kJ/mol
# GULP energy per Si atom -5593.828774 kJ/mol
# Density = 2.231915 g / cm^3
# Si number density = 22.370066 Si / 1000 Ang^3
#
#
#
# Elastic Constant Matrix: (Units=GPa)
#
#
# Indices 1 2 3 4 5 6 
#
# 1 44.5453 9.9773 -6.0058 10.6125 -1.4190 14.8676
# 2 9.9773 112.3616 26.2146 13.5923 16.4713 4.3814
# 3 -6.0058 26.2146 66.9141 12.5099 16.8642 0.2887
# 4 10.6125 13.5923 12.5099 30.5395 1.5751 0.1223
# 5 -1.4190 16.4713 16.8642 1.5751 38.3690 9.1211
# 6 14.8676 4.3814 0.2887 0.1223 9.1211 36.4466
#
#
#
# Elastic Compliance Matrix: (Units=1/GPa)
#
#
# Indices 1 2 3 4 5 6 
#
# 1 0.031106 -0.002535 0.005160 -0.011928 0.003620 -0.013291
# 2 -0.002535 0.010602 -0.003094 -0.002400 -0.003335 0.000627
# 3 0.005160 -0.003094 0.019880 -0.008206 -0.006846 -0.000150
# 4 -0.011928 -0.002400 -0.008206 0.041229 0.001378 0.004736
# 5 0.003620 -0.003335 -0.006846 0.001378 0.032775 -0.009228
# 6 -0.013291 0.000627 -0.000150 0.004736 -0.009228 0.035079
#
#
# Mechanical properties :
#
#
# Convention : Reuss Voigt Hill
#
# Bulk Modulus (GPa) = 16.48844 31.57703 24.03274
# Shear Modulus (GPa) = 26.06537 33.98001 30.02269
#
# Velocity S-wave (km/s) = 3.41719 3.90166 3.66743
# Velocity P-wave (km/s) = 4.79128 5.86887 5.35724
#
# Compressibility (1/GPa) = 0.06064855
#
# Stress axis : x y z
#
# Youngs Moduli (GPa) = 32.14839 94.32389 50.30154
#
# Poissons Ratio (x) = 0.23915 -0.25956
# Poissons Ratio (y) = 0.08151 0.15565
# Poissons Ratio (z) = -0.16589 0.29186
#
# Static dielectric constant tensor:
#      x y z
#    x 1.799710 -0.017990 -0.013230 
#    y -0.017990 1.851500 0.028690 
#    z -0.013230 0.028690 1.874930 
# 
# From -- ./inp_files/206873.got.cif
#   From: 2010.05.17/outbox.cif.g08.bks.cpg/sg2_104_cif.got.tgz:206873.got - 2010.06.03 11:33:40.
