data_PCOD9056117
_publ_section_title
;
Structure prediction by ZEFSAII (Michael W. Deem and Ramdas Pophale) SiO2 
 PCOD9056117
Probable space group: P -1
;
_chemical_formula_sum "Si O2"
_cell_formula_units_Z 16
_cell_length_a 9.121190
_cell_length_b 13.218371
_cell_length_c 12.274872
_cell_angle_alpha 137.548400
_cell_angle_beta 53.265210
_cell_angle_gamma 133.643392
_cell_volume 710.798447
_symmetry_space_group_name_H-M "P -1"
_symmetry_group_IT_number 2
_symmetry_cell_setting 'triclinic'
loop_
_space_group_symop_operation_xyz
x,y,z
-x,-y,-z
loop_
_atom_site_type_symbol
_atom_site_label
_atom_site_fract_x
_atom_site_fract_y
_atom_site_fract_z
Si Si1 0.333686 0.507716 0.997718
Si Si2 0.042147 0.793865 0.619590
Si Si3 0.659593 0.377869 0.143850
Si Si4 0.945140 0.216024 0.845156
Si Si5 0.245507 0.047053 0.100329
Si Si6 0.683273 0.463267 0.428248
Si Si7 0.211477 0.811205 0.320679
Si Si8 0.381153 0.876258 0.712121
O O1 0.406168 0.545312 0.868007
O O2 0.138612 0.324088 0.921730
O O3 0.500000 0.500000 0.000000
O O4 0.267998 0.652820 0.178299
O O5 0.943696 0.911569 0.800049
O O6 0.851575 0.608137 0.541917
O O7 0.147950 0.846531 0.495812
O O8 0.210624 0.803180 0.636283
O O9 0.454874 0.219398 0.149192
O O10 0.780687 0.469954 0.271591
O O11 0.815613 0.319451 0.976839
O O12 0.967961 0.200065 0.693663
O O13 0.801673 0.047019 0.838171
O O14 0.287411 0.941336 0.903955
O O15 0.500000 0.500000 0.500000
O O16 0.594352 0.281761 0.378887
O O17 0.416910 0.969111 0.305785
#
# Coordination Sequence:
#
# PCOD9056117 Si02
#       8
#     2   2   2   2   2   2   2   2
#     4  11  25  42  72 107 143 187 241 296 358 434
#     4  12  28  46  69 110 152 186 237 301 369 421
#     4  11  21  46  71 102 140 188 240 294 349 433
#     4  11  22  43  77 101 140 189 241 291 358 427
#     4  12  24  44  79 105 141 186 250 290 356 430
#     4  12  25  46  73 106 142 189 242 301 358 424
#     4  11  25  48  72 101 148 191 236 296 368 422
#     4  12  26  49  75 102 147 194 239 297 362 431
#
# _framework density 22.509896999999999
#
# number of rings (size 3 to 8) (size 9 to 14) (size 15 to 20)
#    0.000    0.500    5.000    5.250    1.750    2.500 
#    2.250    0.000    0.000    0.000    0.000    0.000 
#    0.000    0.000    0.000    0.000    0.000    0.000 
#
# Total GULP energy -89360.896906 kJ/mol
# GULP energy per Si atom -5585.056057 kJ/mol
# Density = 2.245866 g / cm^3
# Si number density = 22.509897 Si / 1000 Ang^3
#
#
#
# Elastic Constant Matrix: (Units=GPa)
#
#
# Indices 1 2 3 4 5 6 
#
# 1 132.4410 21.0176 20.1123 8.5407 10.8888 5.1179
# 2 21.0176 116.7087 21.1801 5.3993 -7.6249 2.7108
# 3 20.1123 21.1801 58.0152 9.7800 -2.5186 -2.2532
# 4 8.5407 5.3993 9.7800 20.4408 2.3031 3.9262
# 5 10.8888 -7.6249 -2.5186 2.3031 30.2958 2.2545
# 6 5.1179 2.7108 -2.2532 3.9262 2.2545 26.2845
#
#
#
# Elastic Compliance Matrix: (Units=1/GPa)
#
#
# Indices 1 2 3 4 5 6 
#
# 1 0.008537 -0.001214 -0.002467 -0.001447 -0.003377 -0.001243
# 2 -0.001214 0.009546 -0.002864 -0.000738 0.002740 -0.001118
# 3 -0.002467 -0.002864 0.020937 -0.009212 0.002328 0.003747
# 4 -0.001447 -0.000738 -0.009212 0.056216 -0.004074 -0.008480
# 5 -0.003377 0.002740 0.002328 -0.004074 0.035553 -0.001867
# 6 -0.001243 -0.001118 0.003747 -0.008480 -0.001867 0.040151
#
#
# Mechanical properties :
#
#
# Convention : Reuss Voigt Hill
#
# Bulk Modulus (GPa) = 38.56726 47.97609 43.27167
# Shear Modulus (GPa) = 25.95048 31.72788 28.83918
#
# Velocity S-wave (km/s) = 3.39904 3.75841 3.58324
# Velocity P-wave (km/s) = 5.70748 6.33986 6.03196
#
# Compressibility (1/GPa) = 0.02592873
#
# Stress axis : x y z
#
# Youngs Moduli (GPa) = 117.13953 104.75641 47.76162
#
# Poissons Ratio (x) = 0.12722 0.11783
# Poissons Ratio (y) = 0.14226 0.13680
# Poissons Ratio (z) = 0.28900 0.30004
#
# Static dielectric constant tensor:
#      x y z
#    x 1.926990 -0.238850 0.883910 
#    y -0.238850 2.430980 -1.995590 
#    z 0.883910 -1.995590 8.890570 
# 
# From -- ./inp_files/393035.got.cif
#   From: 2010.05.17/outbox.cif.g08.bks.cpg/sg2_197_cif.got.tgz:393035.got - 2010.06.03 11:33:40.
