data_PCOD9056048
_publ_section_title
;
Structure prediction by ZEFSAII (Michael W. Deem and Ramdas Pophale) SiO2 
 PCOD9056048
Probable space group: P -1
;
_chemical_formula_sum "Si O2"
_cell_formula_units_Z 16
_cell_length_a 14.748015
_cell_length_b 7.768260
_cell_length_c 9.137227
_cell_angle_alpha 83.340450
_cell_angle_beta 121.601005
_cell_angle_gamma 129.818481
_cell_volume 645.084650
_symmetry_space_group_name_H-M "P -1"
_symmetry_group_IT_number 2
_symmetry_cell_setting 'triclinic'
loop_
_space_group_symop_operation_xyz
x,y,z
-x,-y,-z
loop_
_atom_site_type_symbol
_atom_site_label
_atom_site_fract_x
_atom_site_fract_y
_atom_site_fract_z
Si Si1 0.495898 0.249136 0.362549
Si Si2 0.799017 0.935283 0.876931
Si Si3 0.441992 0.322694 0.797095
Si Si4 0.858496 0.991233 0.258207
Si Si5 0.344034 0.603379 0.229378
Si Si6 0.084260 0.355405 0.636929
Si Si7 0.047631 0.419670 0.918060
Si Si8 0.421978 0.770636 0.861303
O O1 0.331283 0.090263 0.294095
O O2 0.539475 0.481325 0.300695
O O3 0.610895 0.322190 0.573254
O O4 0.505603 0.138074 0.243878
O O5 0.739190 0.675147 0.830871
O O6 0.815039 0.995041 0.057152
O O7 0.951098 0.145028 0.908956
O O8 0.278993 0.135411 0.738098
O O9 0.504527 0.253308 0.741905
O O10 0.544259 0.378666 0.016649
O O11 0.902771 0.837513 0.297182
O O12 0.987098 0.241965 0.419755
O O13 0.221767 0.594135 0.066062
O O14 0.249166 0.599260 0.723057
O O15 0.025252 0.394276 0.724845
O O16 0.000000 0.500000 0.000000
O O17 0.500000 0.000000 0.000000
#
# Coordination Sequence:
#
# PCOD9056048 Si02
#       8
#     2   2   2   2   2   2   2   2
#     4  11  24  42  73 104 134 178 240 292 345 409
#     4  11  23  42  68 103 133 180 227 289 353 402
#     4  11  21  45  71 104 132 178 232 292 347 395
#     4  11  23  41  78 105 135 173 240 303 341 404
#     4  11  25  44  72 102 139 179 240 295 337 415
#     4  11  25  44  70 106 135 186 235 287 352 407
#     4  12  28  46  65  94 149 190 224 279 354 427
#     4  12  25  44  70  97 146 186 229 285 347 417
#
# _framework density 24.802948000000001
#
# number of rings (size 3 to 8) (size 9 to 14) (size 15 to 20)
#    0.000    0.750    5.000    3.000    7.000    0.000 
#    2.250    2.500    0.000    0.000    0.000    0.000 
#    0.000    0.000    0.000    0.000    0.000    0.000 
#
# Total GULP energy -89467.832287 kJ/mol
# GULP energy per Si atom -5591.739518 kJ/mol
# Density = 2.474650 g / cm^3
# Si number density = 24.802948 Si / 1000 Ang^3
#
#
#
# Elastic Constant Matrix: (Units=GPa)
#
#
# Indices 1 2 3 4 5 6 
#
# 1 94.1868 13.8181 10.3212 21.7240 -17.7543 -1.2069
# 2 13.8181 60.0734 4.0119 18.8468 9.2150 -2.6064
# 3 10.3212 4.0119 142.7288 28.6651 -10.6238 -8.2644
# 4 21.7240 18.8468 28.6651 32.7029 4.9117 3.5910
# 5 -17.7543 9.2150 -10.6238 4.9117 31.9487 6.9355
# 6 -1.2069 -2.6064 -8.2644 3.5910 6.9355 35.0600
#
#
#
# Elastic Compliance Matrix: (Units=1/GPa)
#
#
# Indices 1 2 3 4 5 6 
#
# 1 0.016110 -0.001355 0.002627 -0.014089 0.012368 0.000070
# 2 -0.001355 0.021984 0.001989 -0.013197 -0.005374 0.004471
# 3 0.002627 0.001989 0.009879 -0.012685 0.005519 0.002775
# 4 -0.014089 -0.013197 -0.012685 0.061916 -0.016107 -0.007611
# 5 0.012368 -0.005374 0.005519 -0.016107 0.045335 -0.005991
# 6 0.000070 0.004471 0.002775 -0.007611 -0.005991 0.031476
#
#
# Mechanical properties :
#
#
# Convention : Reuss Voigt Hill
#
# Bulk Modulus (GPa) = 18.35008 39.25459 28.80234
# Shear Modulus (GPa) = 25.20882 37.86482 31.53682
#
# Velocity S-wave (km/s) = 3.19150 3.91144 3.56967
# Velocity P-wave (km/s) = 4.58207 6.02164 5.35049
#
# Compressibility (1/GPa) = 0.05449566
#
# Stress axis : x y z
#
# Youngs Moduli (GPa) = 62.07384 45.48831 101.22008
#
# Poissons Ratio (x) = 0.06164 -0.26593
# Poissons Ratio (y) = 0.08412 -0.20136
# Poissons Ratio (z) = -0.16308 -0.09049
#
# Static dielectric constant tensor:
#      x y z
#    x 2.002770 -0.108820 -0.027060 
#    y -0.108820 2.039170 -0.014750 
#    z -0.027060 -0.014750 1.925050 
# 
# From -- ./inp_files/263488.got.cif
#   From: 2010.05.17/outbox.cif.g08.bks.cpg/sg2_132_cif.got.tgz:263488.got - 2010.06.03 11:33:40.
