data_PCOD9056504
_publ_section_title
;
Structure prediction by ZEFSAII (Michael W. Deem and Ramdas Pophale) SiO2 
 PCOD9056504
Probable space group: P -1
;
_chemical_formula_sum "Si O2"
_cell_formula_units_Z 14
_cell_length_a 20.526333
_cell_length_b 10.913240
_cell_length_c 14.404093
_cell_angle_alpha 33.628897
_cell_angle_beta 18.823520
_cell_angle_gamma 34.904654
_cell_volume 567.249760
_symmetry_space_group_name_H-M "P -1"
_symmetry_group_IT_number 2
_symmetry_cell_setting 'triclinic'
loop_
_space_group_symop_operation_xyz
x,y,z
-x,-y,-z
loop_
_atom_site_type_symbol
_atom_site_label
_atom_site_fract_x
_atom_site_fract_y
_atom_site_fract_z
Si Si1 0.266096 0.466585 0.854783
Si Si2 0.211303 0.402972 0.320886
Si Si3 0.710439 0.942573 0.194916
Si Si4 0.929451 0.021698 0.185948
Si Si5 0.857796 0.404267 0.355901
Si Si6 0.701068 0.311341 0.825588
Si Si7 0.482236 0.266130 0.869046
O O1 0.500000 0.500000 0.500000
O O2 0.153857 0.720280 0.851595
O O3 0.313440 0.353092 0.962738
O O4 0.106851 0.362678 0.066726
O O5 0.163183 0.549864 0.386200
O O6 0.000000 0.500000 0.500000
O O7 0.234162 0.139316 0.478447
O O8 0.387351 0.396970 0.008713
O O9 0.784083 0.673012 0.269270
O O10 0.500000 0.000000 0.500000
O O11 0.882068 0.043829 0.956575
O O12 0.686061 0.078076 0.044542
O O13 0.000000 0.000000 0.000000
O O14 0.775905 0.306539 0.623087
O O15 0.722639 0.304372 0.521608
O O16 0.500000 0.500000 0.000000
O O17 0.500000 0.000000 0.000000
#
# Coordination Sequence:
#
# PCOD9056504 Si02
#       7
#     2   2   2   2   2   2   2
#     4  11  27  51  72 105 150 201 258 307 379 458
#     4  12  22  41  69 106 147 186 241 314 366 441
#     4  11  22  39  65 106 152 188 241 308 383 445
#     4  11  24  39  71 106 141 190 243 312 379 437
#     4  11  26  48  76 110 152 200 255 316 380 455
#     4  12  22  39  71 112 152 190 243 309 391 444
#     4  12  27  49  77 105 150 200 256 310 380 457
#
# _framework density 24.680486999999999
#
# number of rings (size 3 to 8) (size 9 to 14) (size 15 to 20)
#    0.000    0.571    4.286    4.286    2.000    1.143 
#    2.571    0.000    0.000    0.000    0.000    0.000 
#    0.000    0.000    0.000    0.000    0.000    0.000 
#
# Total GULP energy -77953.432696 kJ/mol
# GULP energy per Si atom -5568.102335 kJ/mol
# Density = 2.462431 g / cm^3
# Si number density = 24.680487 Si / 1000 Ang^3
#
#
#
# Elastic Constant Matrix: (Units=GPa)
#
#
# Indices 1 2 3 4 5 6 
#
# 1 88.0547 48.6197 44.6276 7.1095 -14.8010 -24.4614
# 2 48.6197 107.1942 48.2414 -15.6163 -2.3973 -18.5111
# 3 44.6276 48.2414 113.6406 4.3831 -9.8623 -18.9141
# 4 7.1095 -15.6163 4.3831 50.7050 -7.9377 -0.8192
# 5 -14.8010 -2.3973 -9.8623 -7.9377 59.3712 -1.1101
# 6 -24.4614 -18.5111 -18.9141 -0.8192 -1.1101 41.2938
#
#
#
# Elastic Compliance Matrix: (Units=1/GPa)
#
#
# Indices 1 2 3 4 5 6 
#
# 1 0.019590 -0.006687 -0.003192 -0.003834 0.003705 0.007169
# 2 -0.006687 0.015147 -0.003920 0.005818 -0.000908 0.001125
# 3 -0.003192 -0.003920 0.012177 -0.001643 0.000885 0.001921
# 4 -0.003834 0.005818 -0.001643 0.022510 0.002017 0.000085
# 5 0.003705 -0.000908 0.000885 0.002017 0.018198 0.002722
# 6 0.007169 0.001125 0.001921 0.000085 0.002722 0.029922
#
#
# Mechanical properties :
#
#
# Convention : Reuss Voigt Hill
#
# Bulk Modulus (GPa) = 51.76861 65.76298 58.76580
# Shear Modulus (GPa) = 32.98535 41.43405 37.20970
#
# Velocity S-wave (km/s) = 3.65978 4.10178 3.88707
# Velocity P-wave (km/s) = 6.23536 7.00974 6.63386
#
# Compressibility (1/GPa) = 0.01931672
#
# Stress axis : x y z
#
# Youngs Moduli (GPa) = 51.04560 66.01767 82.12032
#
# Poissons Ratio (x) = 0.44144 0.26214
# Poissons Ratio (y) = 0.34133 0.32193
# Poissons Ratio (z) = 0.16294 0.25881
#
# Static dielectric constant tensor:
#      x y z
#    x 1.913320 -0.028760 -0.003970 
#    y -0.028760 1.899390 -0.026720 
#    z -0.003970 -0.026720 2.136660 
# 
# From -- ./inp_files/541041.got.cif
#   From: 2010.05.17/outbox.cif.g08.bks.cpg/sg2_271_cif.got.tgz:541041.got - 2010.06.03 11:33:40.
