data_PCOD9056954
_publ_section_title
;
Structure prediction by ZEFSAII (Michael W. Deem and Ramdas Pophale) SiO2 
 PCOD9056954
Probable space group: P -1
;
_chemical_formula_sum "Si O2"
_cell_formula_units_Z 12
_cell_length_a 9.475328
_cell_length_b 8.840087
_cell_length_c 7.067148
_cell_angle_alpha 78.027343
_cell_angle_beta 85.887099
_cell_angle_gamma 51.656406
_cell_volume 452.926258
_symmetry_space_group_name_H-M "P -1"
_symmetry_group_IT_number 2
_symmetry_cell_setting 'triclinic'
loop_
_space_group_symop_operation_xyz
x,y,z
-x,-y,-z
loop_
_atom_site_type_symbol
_atom_site_label
_atom_site_fract_x
_atom_site_fract_y
_atom_site_fract_z
Si Si1 0.807111 0.318602 0.626049
Si Si2 0.876409 0.394044 0.224552
Si Si3 0.175573 0.225461 0.719827
Si Si4 0.609806 0.598727 0.873618
Si Si5 0.300537 0.885980 0.094160
Si Si6 0.696712 0.883769 0.679842
O O1 0.804045 0.316876 0.401180
O O2 0.834097 0.138928 0.778409
O O3 0.971007 0.324913 0.650471
O O4 0.628804 0.510037 0.689196
O O5 0.820188 0.603794 0.246458
O O6 0.786519 0.431966 0.021056
O O7 0.092209 0.245289 0.245104
O O8 0.295261 0.121249 0.546339
O O9 0.225053 0.066172 0.913507
O O10 0.438777 0.695829 0.000388
O O11 0.626417 0.770348 0.792936
O O12 0.395577 0.913705 0.250562
#
# Coordination Sequence:
#
# PCOD9056954 Si02
#       6
#     2   2   2   2   2   2
#     4  11  24  44  63  91 124 162 208 250 303 365
#     4  11  22  41  71  87 117 168 213 246 295 368
#     4  11  22  42  68  90 118 166 208 254 298 357
#     4  12  23  41  65  90 127 166 198 247 312 371
#     4  12  27  38  61  99 129 154 199 260 313 354
#     4  11  22  41  66  93 118 162 214 249 295 363
#
# _framework density 26.494378000000001
#
# number of rings (size 3 to 8) (size 9 to 14) (size 15 to 20)
#    0.000    0.667    5.000    4.000    0.000    6.667 
#    0.000    0.000    0.000    0.000    0.000    0.000 
#    0.000    0.000    0.000    0.000    0.000    0.000 
#
# Total GULP energy -67298.588461 kJ/mol
# GULP energy per Si atom -5608.215705 kJ/mol
# Density = 2.643408 g / cm^3
# Si number density = 26.494378 Si / 1000 Ang^3
#
#
#
# Elastic Constant Matrix: (Units=GPa)
#
#
# Indices 1 2 3 4 5 6 
#
# 1 62.6641 -1.5966 23.1891 -7.9909 -13.6643 -1.2681
# 2 -1.5966 79.9355 17.3739 9.6879 4.1977 -3.3378
# 3 23.1891 17.3739 157.0815 -1.7361 -20.1555 -3.1336
# 4 -7.9909 9.6879 -1.7361 45.7067 3.5770 1.0698
# 5 -13.6643 4.1977 -20.1555 3.5770 49.0432 0.0510
# 6 -1.2681 -3.3378 -3.1336 1.0698 0.0510 35.7901
#
#
#
# Elastic Compliance Matrix: (Units=1/GPa)
#
#
# Indices 1 2 3 4 5 6 
#
# 1 0.017961 0.000313 -0.002148 0.002678 0.003899 0.000392
# 2 0.000313 0.013358 -0.001732 -0.002747 -0.001569 0.001190
# 3 -0.002148 -0.001732 0.007205 0.000060 0.002506 0.000388
# 4 0.002678 -0.002747 0.000060 0.023004 -0.000671 -0.000843
# 5 0.003899 -0.001569 0.002506 -0.000671 0.022689 0.000199
# 6 0.000392 0.001190 0.000388 -0.000843 0.000199 0.028124
#
#
# Mechanical properties :
#
#
# Convention : Reuss Voigt Hill
#
# Bulk Modulus (GPa) = 31.85844 41.95711 36.90777
# Shear Modulus (GPa) = 38.48002 43.48896 40.98449
#
# Velocity S-wave (km/s) = 3.81515 4.05587 3.93735
# Velocity P-wave (km/s) = 5.60873 6.14850 5.88481
#
# Compressibility (1/GPa) = 0.03138886
#
# Stress axis : x y z
#
# Youngs Moduli (GPa) = 55.67730 74.86314 138.79806
#
# Poissons Ratio (x) = -0.02341 0.29819
# Poissons Ratio (y) = -0.01741 0.24033
# Poissons Ratio (z) = 0.11961 0.12963
#
# Static dielectric constant tensor:
#      x y z
#    x 2.057700 -0.025070 -0.002950 
#    y -0.025070 2.102930 0.013380 
#    z -0.002950 0.013380 2.013070 
# 
# From -- ./inp_files/157074.got.cif
#   From: 2010.05.17/outbox.cif.g08.bks.cpg/sg2_79_cif.got.tgz:157074.got - 2010.06.03 11:33:40.
