data_PCOD9056348
_publ_section_title
;
Structure prediction by ZEFSAII (Michael W. Deem and Ramdas Pophale) SiO2 
 PCOD9056348
Probable space group: P -1
;
_chemical_formula_sum "Si O2"
_cell_formula_units_Z 16
_cell_length_a 7.106192
_cell_length_b 8.444576
_cell_length_c 14.712745
_cell_angle_alpha 91.044574
_cell_angle_beta 84.939116
_cell_angle_gamma 125.496440
_cell_volume 715.414451
_symmetry_space_group_name_H-M "P -1"
_symmetry_group_IT_number 2
_symmetry_cell_setting 'triclinic'
loop_
_space_group_symop_operation_xyz
x,y,z
-x,-y,-z
loop_
_atom_site_type_symbol
_atom_site_label
_atom_site_fract_x
_atom_site_fract_y
_atom_site_fract_z
Si Si1 0.307287 0.286547 0.465392
Si Si2 0.690584 0.473368 0.835848
Si Si3 0.345518 0.596822 0.865527
Si Si4 0.557963 0.901983 0.418360
Si Si5 0.381837 0.143870 0.969947
Si Si6 0.359167 0.749765 0.672105
Si Si7 0.035084 0.269142 0.999707
Si Si8 0.122364 0.480889 0.373077
O O1 0.500000 0.500000 0.500000
O O2 0.264362 0.141929 0.548360
O O3 0.420311 0.233057 0.380502
O O4 0.126421 0.319387 0.428484
O O5 0.494229 0.513046 0.834191
O O6 0.809559 0.513797 0.734646
O O7 0.558550 0.255517 0.880270
O O8 0.863455 0.619715 0.908230
O O9 0.487487 0.749587 0.941547
O O10 0.326858 0.687202 0.776613
O O11 0.103210 0.424636 0.919265
O O12 0.320715 0.694578 0.402901
O O13 0.500000 0.000000 0.500000
O O14 0.633246 0.056019 0.336483
O O15 0.190733 0.191079 0.968394
O O16 0.229784 0.912502 0.982436
O O17 0.138700 0.582942 0.620500
#
# Coordination Sequence:
#
# PCOD9056348 Si02
#       8
#     2   2   2   2   2   2   2   2
#     4   9  20  41  64  84 113 151 192 238 297 356
#     4   9  17  32  55  83 116 152 197 239 281 336
#     4   9  17  32  55  82 117 155 192 237 288 334
#     4   9  22  41  60  86 117 147 193 241 292 359
#     4   8  15  29  52  79 120 153 191 243 279 327
#     4  11  22  38  61  90 121 151 192 245 293 349
#     4   8  15  29  52  83 109 159 201 228 282 344
#     4  11  22  38  63  89 118 156 193 242 295 345
#
# _framework density 22.364660000000001
#
# number of rings (size 3 to 8) (size 9 to 14) (size 15 to 20)
#    0.000    2.750    1.250    1.500    0.000    7.000 
#    0.000    6.250    0.000    4.500    0.000    0.000 
#    0.000    0.000    0.000    0.000    0.000    0.000 
#
# Total GULP energy -89371.889020 kJ/mol
# GULP energy per Si atom -5585.743064 kJ/mol
# Density = 2.231376 g / cm^3
# Si number density = 22.364660 Si / 1000 Ang^3
#
#
#
# Elastic Constant Matrix: (Units=GPa)
#
#
# Indices 1 2 3 4 5 6 
#
# 1 60.6827 12.2799 9.4568 -15.5002 9.9340 -8.1742
# 2 12.2799 129.8483 43.7587 -38.6944 19.5966 10.0266
# 3 9.4568 43.7587 99.8790 -41.1396 20.0380 -10.9397
# 4 -15.5002 -38.6944 -41.1396 28.9343 -15.3802 9.6784
# 5 9.9340 19.5966 20.0380 -15.3802 35.6455 -2.5557
# 6 -8.1742 10.0266 -10.9397 9.6784 -2.5557 30.1070
#
#
#
# Elastic Compliance Matrix: (Units=1/GPa)
#
#
# Indices 1 2 3 4 5 6 
#
# 1 0.021495 0.003940 0.007702 0.028044 -0.000510 -0.001736
# 2 0.003940 0.019462 0.007784 0.046357 0.002591 -0.017266
# 3 0.007702 0.007784 0.029360 0.060726 0.002617 -0.009132
# 4 0.028044 0.046357 0.060726 0.232656 0.028781 -0.058107
# 5 -0.000510 0.002591 0.002617 0.028781 0.037279 -0.006138
# 6 -0.001736 -0.017266 -0.009132 -0.058107 -0.006138 0.053334
#
#
# Mechanical properties :
#
#
# Convention : Reuss Voigt Hill
#
# Bulk Modulus (GPa) = 9.16017 46.82233 27.99125
# Shear Modulus (GPa) = 12.78366 33.93167 23.35767
#
# Velocity S-wave (km/s) = 2.39341 3.89935 3.23522
# Velocity P-wave (km/s) = 3.42675 6.42297 5.14768
#
# Compressibility (1/GPa) = 0.10916825
#
# Stress axis : x y z
#
# Youngs Moduli (GPa) = 46.52332 51.38170 34.05965
#
# Poissons Ratio (x) = -0.20243 -0.26234
# Poissons Ratio (y) = -0.18329 -0.26511
# Poissons Ratio (z) = -0.35833 -0.39994
#
# Static dielectric constant tensor:
#      x y z
#    x 1.851380 -0.010750 0.014670 
#    y -0.010750 1.860300 -0.041580 
#    z 0.014670 -0.041580 1.808210 
# 
# From -- ./inp_files/222136.got.cif
#   From: 2010.05.17/outbox.cif.g08.bks.cpg/sg2_112_cif.got.tgz:222136.got - 2010.06.03 11:33:40.
