data_PCOD9056872
_publ_section_title
;
Structure prediction by ZEFSAII (Michael W. Deem and Ramdas Pophale) SiO2 
 PCOD9056872
Probable space group: P -1
;
_chemical_formula_sum "Si O2"
_cell_formula_units_Z 12
_cell_length_a 8.872733
_cell_length_b 9.404972
_cell_length_c 9.776532
_cell_angle_alpha 72.822601
_cell_angle_beta 79.394369
_cell_angle_gamma 51.083122
_cell_volume 606.448419
_symmetry_space_group_name_H-M "P -1"
_symmetry_group_IT_number 2
_symmetry_cell_setting 'triclinic'
loop_
_space_group_symop_operation_xyz
x,y,z
-x,-y,-z
loop_
_atom_site_type_symbol
_atom_site_label
_atom_site_fract_x
_atom_site_fract_y
_atom_site_fract_z
Si Si1 0.127655 0.507277 0.589625
Si Si2 0.458363 0.850807 0.421454
Si Si3 0.125483 0.843338 0.408520
Si Si4 0.086471 0.076255 0.865175
Si Si5 0.921858 0.494582 0.868156
Si Si6 0.511214 0.827723 0.738858
O O1 0.325507 0.301248 0.622417
O O2 0.170195 0.650079 0.502650
O O3 0.000000 0.500000 0.500000
O O4 0.010792 0.563164 0.731376
O O5 0.317397 0.826696 0.370435
O O6 0.455783 0.812497 0.595840
O O7 0.414209 0.048622 0.340819
O O8 0.009093 0.897294 0.273338
O O9 0.000000 0.000000 0.500000
O O10 0.012468 0.280366 0.874319
O O11 0.318629 0.938110 0.834596
O O12 0.000000 0.000000 0.000000
O O13 0.690522 0.634863 0.834774
O O14 0.000000 0.500000 0.000000
#
# Coordination Sequence:
#
# PCOD9056872 Si02
#       6
#     2   2   2   2   2   2
#     4  12  22  45  71 102 143 181 239 291 345 416
#     4  11  22  40  76 108 135 180 238 297 348 410
#     4  12  24  41  71 107 138 181 236 290 349 413
#     4  12  28  48  68 105 149 183 232 294 349 423
#     4  12  28  45  72 102 143 193 231 284 354 421
#     4  11  23  46  73 103 141 186 234 288 356 413
#
# _framework density 19.787336
#
# number of rings (size 3 to 8) (size 9 to 14) (size 15 to 20)
#    0.000    0.333    6.667    1.500    4.667    2.667 
#    0.000    0.000    0.000    0.000    0.000    0.000 
#    0.000    0.000    0.000    0.000    0.000    0.000 
#
# Total GULP energy -67040.861926 kJ/mol
# GULP energy per Si atom -5586.738494 kJ/mol
# Density = 1.974230 g / cm^3
# Si number density = 19.787336 Si / 1000 Ang^3
#
#
#
# Elastic Constant Matrix: (Units=GPa)
#
#
# Indices 1 2 3 4 5 6 
#
# 1 110.6236 41.1655 27.1902 9.7857 9.3755 -13.7886
# 2 41.1655 111.2000 31.1810 4.2089 13.8543 -21.9372
# 3 27.1902 31.1810 104.0266 14.4968 7.3921 -8.0233
# 4 9.7857 4.2089 14.4968 26.5014 7.7025 0.2647
# 5 9.3755 13.8543 7.3921 7.7025 35.4659 3.4289
# 6 -13.7886 -21.9372 -8.0233 0.2647 3.4289 46.8218
#
#
#
# Elastic Compliance Matrix: (Units=1/GPa)
#
#
# Indices 1 2 3 4 5 6 
#
# 1 0.011074 -0.003166 -0.001393 -0.002548 -0.001004 0.001627
# 2 -0.003166 0.012234 -0.002417 0.001743 -0.004270 0.004688
# 3 -0.001393 -0.002417 0.011486 -0.005403 0.000048 0.000452
# 4 -0.002548 0.001743 -0.005403 0.043783 -0.008342 -0.000497
# 5 -0.001004 -0.004270 0.000048 -0.008342 0.032377 -0.004612
# 6 0.001627 0.004688 0.000452 -0.000497 -0.004612 0.024451
#
#
# Mechanical properties :
#
#
# Convention : Reuss Voigt Hill
#
# Bulk Modulus (GPa) = 47.98542 58.32483 53.15512
# Shear Modulus (GPa) = 31.98879 36.84539 34.41709
#
# Velocity S-wave (km/s) = 4.02510 4.31985 4.17508
# Velocity P-wave (km/s) = 6.77533 7.37708 7.08260
#
# Compressibility (1/GPa) = 0.02083966
#
# Stress axis : x y z
#
# Youngs Moduli (GPa) = 90.30445 81.74249 87.06171
#
# Poissons Ratio (x) = 0.25881 0.12131
# Poissons Ratio (y) = 0.28592 0.21044
# Poissons Ratio (z) = 0.12583 0.19759
#
# Static dielectric constant tensor:
#      x y z
#    x 1.608290 -0.030710 -0.015140 
#    y -0.030710 1.714950 -0.015150 
#    z -0.015140 -0.015150 1.700650 
# 
# From -- ./inp_files/148715.got.cif
#   From: 2010.05.17/outbox.cif.g08.bks.cpg/sg2_75_cif.got.tgz:148715.got - 2010.06.03 11:33:40.
