data_PCOD9056461
_publ_section_title
;
Structure prediction by ZEFSAII (Michael W. Deem and Ramdas Pophale) SiO2 
 PCOD9056461
Probable space group: P -1
;
_chemical_formula_sum "Si O2"
_cell_formula_units_Z 14
_cell_length_a 13.960658
_cell_length_b 9.312368
_cell_length_c 14.387760
_cell_angle_alpha 125.036236
_cell_angle_beta 30.609535
_cell_angle_gamma 104.289293
_cell_volume 627.861619
_symmetry_space_group_name_H-M "P -1"
_symmetry_group_IT_number 2
_symmetry_cell_setting 'triclinic'
loop_
_space_group_symop_operation_xyz
x,y,z
-x,-y,-z
loop_
_atom_site_type_symbol
_atom_site_label
_atom_site_fract_x
_atom_site_fract_y
_atom_site_fract_z
Si Si1 0.279535 0.008801 0.032468
Si Si2 0.049700 0.936982 0.826574
Si Si3 0.758145 0.552774 0.258702
Si Si4 0.409311 0.995571 0.474242
Si Si5 0.589493 0.517492 0.577904
Si Si6 0.605319 0.688460 0.035391
Si Si7 0.887308 0.184292 0.581989
O O1 0.171868 0.997237 0.021646
O O2 0.083193 0.097865 0.307844
O O3 0.335364 0.180964 0.032463
O O4 0.488332 0.757536 0.786938
O O5 0.164006 0.037818 0.715898
O O6 0.244080 0.676652 0.562959
O O7 0.000000 0.000000 0.000000
O O8 0.745352 0.465451 0.336072
O O9 0.619580 0.500366 0.284566
O O10 0.616180 0.811146 0.488056
O O11 0.000000 0.500000 0.000000
O O12 0.577660 0.776347 0.195534
O O13 0.500000 0.000000 0.500000
O O14 0.347158 0.770299 0.249404
O O15 0.792497 0.428529 0.782119
O O16 0.000000 0.000000 0.500000
#
# Coordination Sequence:
#
# PCOD9056461 Si02
#       7
#     2   2   2   2   2   2   2
#     4  12  25  46  73 104 144 184 236 296 358 422
#     4  12  24  42  66 104 148 191 231 281 357 424
#     4  11  22  39  61  94 140 189 231 279 337 415
#     4  12  22  42  68 101 147 190 225 286 354 420
#     4  11  24  40  63  98 142 183 234 282 337 423
#     4  11  26  50  71 106 146 179 241 299 353 423
#     4  11  28  49  79 103 135 187 244 302 356 418
#
# _framework density 22.297905
#
# number of rings (size 3 to 8) (size 9 to 14) (size 15 to 20)
#    0.000    0.571    4.286    4.714    2.000    1.714 
#    0.000    0.000    0.000    0.000    0.000    0.000 
#    0.000    0.000    0.000    0.000    0.000    0.000 
#
# Total GULP energy -78321.593289 kJ/mol
# GULP energy per Si atom -5594.399521 kJ/mol
# Density = 2.224715 g / cm^3
# Si number density = 22.297905 Si / 1000 Ang^3
#
#
#
# Elastic Constant Matrix: (Units=GPa)
#
#
# Indices 1 2 3 4 5 6 
#
# 1 46.1888 24.0933 35.0362 7.0313 10.6742 -6.4648
# 2 24.0933 172.5849 73.7812 5.2708 0.8342 -1.8159
# 3 35.0362 73.7812 155.7814 3.0435 12.7528 -3.2988
# 4 7.0313 5.2708 3.0435 62.5000 -2.1423 -5.5294
# 5 10.6742 0.8342 12.7528 -2.1423 33.2067 1.8891
# 6 -6.4648 -1.8159 -3.2988 -5.5294 1.8891 27.1783
#
#
#
# Elastic Compliance Matrix: (Units=1/GPa)
#
#
# Indices 1 2 3 4 5 6 
#
# 1 0.029488 -0.001827 -0.004920 -0.002641 -0.008073 0.006319
# 2 -0.001827 0.007434 -0.003252 -0.000250 0.001661 -0.000499
# 3 -0.004920 -0.003252 0.009210 0.000309 -0.001849 -0.000078
# 4 -0.002641 -0.000250 0.000309 0.016595 0.001656 0.002653
# 5 -0.008073 0.001661 -0.001849 0.001656 0.033715 -0.004040
# 6 0.006319 -0.000499 -0.000078 0.002653 -0.004040 0.039075
#
#
# Mechanical properties :
#
#
# Convention : Reuss Voigt Hill
#
# Bulk Modulus (GPa) = 38.26538 71.15293 54.70915
# Shear Modulus (GPa) = 30.44622 40.68663 35.56642
#
# Velocity S-wave (km/s) = 3.69918 4.27627 3.99815
# Velocity P-wave (km/s) = 5.95344 7.50742 6.77513
#
# Compressibility (1/GPa) = 0.02613328
#
# Stress axis : x y z
#
# Youngs Moduli (GPa) = 33.91239 134.52231 108.58264
#
# Poissons Ratio (x) = 0.24575 0.53428
# Poissons Ratio (y) = 0.06195 0.35306
# Poissons Ratio (z) = 0.16686 0.43741
#
# Static dielectric constant tensor:
#      x y z
#    x 1.792550 0.031770 0.003530 
#    y 0.031770 1.818980 0.015730 
#    z 0.003530 0.015730 1.853540 
# 
# From -- ./inp_files/530096.got.cif
#   From: 2010.05.17/outbox.cif.g08.bks.cpg/sg2_266_cif.got.tgz:530096.got - 2010.06.03 11:33:40.
