data_PCOD9056162
_publ_section_title
;
Structure prediction by ZEFSAII (Michael W. Deem and Ramdas Pophale) SiO2 
 PCOD9056162
Probable space group: P -1
;
_chemical_formula_sum "Si O2"
_cell_formula_units_Z 16
_cell_length_a 10.117015
_cell_length_b 8.862118
_cell_length_c 17.467817
_cell_angle_alpha 85.255249
_cell_angle_beta 55.351315
_cell_angle_gamma 128.105363
_cell_volume 752.802748
_symmetry_space_group_name_H-M "P -1"
_symmetry_group_IT_number 2
_symmetry_cell_setting 'triclinic'
loop_
_space_group_symop_operation_xyz
x,y,z
-x,-y,-z
loop_
_atom_site_type_symbol
_atom_site_label
_atom_site_fract_x
_atom_site_fract_y
_atom_site_fract_z
Si Si1 0.182211 0.205781 0.781669
Si Si2 0.993062 0.649944 0.540837
Si Si3 0.776670 0.696529 0.491256
Si Si4 0.875844 0.720239 0.811329
Si Si5 0.081262 0.384282 0.697620
Si Si6 0.597915 0.208694 0.905351
Si Si7 0.485117 0.358070 0.826670
Si Si8 0.334010 0.048590 0.524994
O O1 0.472295 0.409084 0.630099
O O2 0.080883 0.292522 0.781867
O O3 0.269622 0.256895 0.840053
O O4 0.962422 0.912191 0.836811
O O5 0.982883 0.780269 0.479276
O O6 0.730270 0.478196 0.688351
O O7 0.000000 0.500000 0.500000
O O8 0.254364 0.861024 0.499182
O O9 0.870733 0.706173 0.378247
O O10 0.765321 0.866833 0.481841
O O11 0.750455 0.462946 0.889880
O O12 0.647219 0.589084 0.825875
O O13 0.155866 0.898446 0.666106
O O14 0.345536 0.689397 0.588183
O O15 0.820616 0.290217 0.777353
O O16 0.394959 0.148058 0.919067
O O17 0.500000 0.000000 0.000000
#
# Coordination Sequence:
#
# PCOD9056162 Si02
#       8
#     2   2   2   2   2   2   2   2
#     4  10  17  36  60  87 116 146 188 231 282 352
#     4  10  19  30  48  84 120 154 184 218 280 353
#     4  10  18  30  53  84 125 146 176 226 289 344
#     4   9  18  36  60  79 114 154 183 230 296 335
#     4  11  20  33  59  89 113 148 189 233 281 343
#     4  10  23  42  56  76 116 155 193 244 289 328
#     4   8  20  35  57  76 115 154 183 228 288 333
#     4  10  18  33  51  86 117 148 180 230 285 345
#
# _framework density 21.253907999999999
#
# number of rings (size 3 to 8) (size 9 to 14) (size 15 to 20)
#    0.750    1.500    2.500    1.875    0.000    3.500 
#    0.000    1.875    0.000    0.000    0.000    0.000 
#    0.000    0.000    0.000    0.000    0.000    0.000 
#
# Total GULP energy -89142.590790 kJ/mol
# GULP energy per Si atom -5571.411924 kJ/mol
# Density = 2.120553 g / cm^3
# Si number density = 21.253908 Si / 1000 Ang^3
#
#
#
# Elastic Constant Matrix: (Units=GPa)
#
#
# Indices 1 2 3 4 5 6 
#
# 1 149.9460 30.9082 23.4983 -12.8534 19.4339 2.8924
# 2 30.9082 107.2866 10.6899 -18.5255 -5.0154 11.1529
# 3 23.4983 10.6899 50.1612 -12.9504 14.9973 1.6292
# 4 -12.8534 -18.5255 -12.9504 21.8578 -13.6772 3.3799
# 5 19.4339 -5.0154 14.9973 -13.6772 28.2516 2.1139
# 6 2.8924 11.1529 1.6292 3.3799 2.1139 25.2001
#
#
#
# Elastic Compliance Matrix: (Units=1/GPa)
#
#
# Indices 1 2 3 4 5 6 
#
# 1 0.008261 -0.003432 -0.002080 -0.004173 -0.007349 0.001881
# 2 -0.003432 0.017006 -0.000674 0.025876 0.019176 -0.012168
# 3 -0.002080 -0.000674 0.025750 0.008688 -0.008032 -0.001619
# 4 -0.004173 0.025876 0.008688 0.112669 0.059767 -0.031660
# 5 -0.007349 0.019176 -0.008032 0.059767 0.078680 -0.021740
# 6 0.001881 -0.012168 -0.001619 -0.031660 -0.021740 0.051026
#
#
# Mechanical properties :
#
#
# Convention : Reuss Voigt Hill
#
# Bulk Modulus (GPa) = 25.87566 48.62074 37.24820
# Shear Modulus (GPa) = 15.69141 31.21507 23.45324
#
# Velocity S-wave (km/s) = 2.72008 3.83649 3.32547
# Velocity P-wave (km/s) = 4.69746 6.52309 5.68405
#
# Compressibility (1/GPa) = 0.03864635
#
# Stress axis : x y z
#
# Youngs Moduli (GPa) = 121.05146 58.80179 38.83450
#
# Poissons Ratio (x) = 0.20183 0.08076
# Poissons Ratio (y) = 0.41549 0.02616
# Poissons Ratio (z) = 0.25174 0.03961
#
# Static dielectric constant tensor:
#      x y z
#    x 1.827710 0.018670 0.030190 
#    y 0.018670 1.777660 -0.006050 
#    z 0.030190 -0.006050 1.821390 
# 
# From -- ./inp_files/196617.got.cif
#   From: 2010.05.17/outbox.cif.g08.bks.cpg/sg2_99_cif.got.tgz:196617.got - 2010.06.03 11:33:40.
