data_PCOD9056321
_publ_section_title
;
Structure prediction by ZEFSAII (Michael W. Deem and Ramdas Pophale) SiO2 
 PCOD9056321
Probable space group: P -1
;
_chemical_formula_sum "Si O2"
_cell_formula_units_Z 14
_cell_length_a 6.951495
_cell_length_b 16.960188
_cell_length_c 6.868244
_cell_angle_alpha 53.896858
_cell_angle_beta 111.346748
_cell_angle_gamma 118.477967
_cell_volume 571.139766
_symmetry_space_group_name_H-M "P -1"
_symmetry_group_IT_number 2
_symmetry_cell_setting 'triclinic'
loop_
_space_group_symop_operation_xyz
x,y,z
-x,-y,-z
loop_
_atom_site_type_symbol
_atom_site_label
_atom_site_fract_x
_atom_site_fract_y
_atom_site_fract_z
Si Si1 0.455094 0.251124 0.459561
Si Si2 0.836565 0.919630 0.904154
Si Si3 0.073653 0.483012 0.335394
Si Si4 0.969915 0.115379 0.412955
Si Si5 0.345753 0.548225 0.993568
Si Si6 0.597715 0.109010 0.990945
Si Si7 0.895727 0.737050 0.407871
O O1 0.234863 0.166079 0.413835
O O2 0.575659 0.333164 0.222591
O O3 0.341148 0.300706 0.511146
O O4 0.600821 0.196539 0.707392
O O5 0.586193 0.894703 0.912173
O O6 0.890900 0.997277 0.630091
O O7 0.876729 0.811902 0.117788
O O8 0.305398 0.539985 0.223611
O O9 0.049442 0.362368 0.487459
O O10 0.000000 0.500000 0.500000
O O11 0.893163 0.510968 0.101201
O O12 0.819579 0.122812 0.167803
O O13 0.943099 0.188032 0.478845
O O14 0.000000 0.000000 0.000000
O O15 0.500000 0.500000 0.000000
O O16 0.500000 0.000000 0.000000
#
# Coordination Sequence:
#
# PCOD9056321 Si02
#       7
#     2   2   2   2   2   2   2
#     4   9  21  43  69 102 156 208 256 308 401 467
#     4   9  17  38  68 100 148 200 247 313 391 456
#     4  11  25  47  83 115 145 203 269 330 399 472
#     4   9  19  40  72 100 153 206 250 311 394 461
#     4  11  23  50  78 105 161 197 256 336 400 477
#     4  11  22  37  66 110 154 197 259 320 380 471
#     4   8  18  41  70 102 157 194 260 321 379 481
#
# _framework density 24.51239
#
# number of rings (size 3 to 8) (size 9 to 14) (size 15 to 20)
#    0.857    1.429    2.857    0.429    0.000    3.429 
#    7.714    2.857    3.143    0.000    0.000    1.000 
#    0.000    0.000    0.000    0.000    0.000    0.000 
#
# Total GULP energy -78157.307909 kJ/mol
# GULP energy per Si atom -5582.664851 kJ/mol
# Density = 2.445660 g / cm^3
# Si number density = 24.512390 Si / 1000 Ang^3
#
#
#
# Elastic Constant Matrix: (Units=GPa)
#
#
# Indices 1 2 3 4 5 6 
#
# 1 132.2865 39.6721 98.6039 -10.6004 -24.7455 -6.2142
# 2 39.6721 89.6934 69.9906 -14.7259 -17.1341 -20.7769
# 3 98.6039 69.9906 178.6752 -9.2896 -16.3362 4.2450
# 4 -10.6004 -14.7259 -9.2896 46.2023 6.9692 -5.2367
# 5 -24.7455 -17.1341 -16.3362 6.9692 65.8592 -4.0395
# 6 -6.2142 -20.7769 4.2450 -5.2367 -4.0395 40.6877
#
#
#
# Elastic Compliance Matrix: (Units=1/GPa)
#
#
# Indices 1 2 3 4 5 6 
#
# 1 0.014364 0.002767 -0.008640 0.002423 0.004038 0.005221
# 2 0.002767 0.023419 -0.010254 0.007000 0.004757 0.014824
# 3 -0.008640 -0.010254 0.014194 -0.002987 -0.002610 -0.008680
# 4 0.002423 0.007000 -0.002987 0.024697 -0.000168 0.007418
# 5 0.004038 0.004757 -0.002610 -0.000168 0.017619 0.005046
# 6 0.005221 0.014824 -0.008680 0.007418 0.005046 0.035306
#
#
# Mechanical properties :
#
#
# Convention : Reuss Voigt Hill
#
# Bulk Modulus (GPa) = 50.70145 90.79871 70.75008
# Shear Modulus (GPa) = 29.68671 43.37573 36.53122
#
# Velocity S-wave (km/s) = 3.48385 4.21116 3.86465
# Velocity P-wave (km/s) = 6.07551 7.79535 6.98854
#
# Compressibility (1/GPa) = 0.01972330
#
# Stress axis : x y z
#
# Youngs Moduli (GPa) = 69.61731 42.70110 70.45346
#
# Poissons Ratio (x) = -0.11816 0.60871
# Poissons Ratio (y) = -0.19264 0.72242
# Poissons Ratio (z) = 0.60149 0.43785
#
# Static dielectric constant tensor:
#      x y z
#    x 2.144660 -0.077790 -0.158960 
#    y -0.077790 1.991240 0.082620 
#    z -0.158960 0.082620 2.072380 
# 
# From -- ./inp_files/46832.got.cif
#   From: 2010.05.17/outbox.cif.g08.bks.cpg/sg2_24_cif.got.tgz:46832.got - 2010.06.03 11:33:40.
