data_PCOD9056014
_publ_section_title
;
Structure prediction by ZEFSAII (Michael W. Deem and Ramdas Pophale) SiO2 
 PCOD9056014
Probable space group: P -1
;
_chemical_formula_sum "Si O2"
_cell_formula_units_Z 16
_cell_length_a 14.654448
_cell_length_b 12.290964
_cell_length_c 9.021343
_cell_angle_alpha 139.898150
_cell_angle_beta 131.106013
_cell_angle_gamma 50.195305
_cell_volume 756.458750
_symmetry_space_group_name_H-M "P -1"
_symmetry_group_IT_number 2
_symmetry_cell_setting 'triclinic'
loop_
_space_group_symop_operation_xyz
x,y,z
-x,-y,-z
loop_
_atom_site_type_symbol
_atom_site_label
_atom_site_fract_x
_atom_site_fract_y
_atom_site_fract_z
Si Si1 0.198304 0.846716 0.177704
Si Si2 0.410451 0.301818 0.091482
Si Si3 0.444810 0.670931 0.425675
Si Si4 0.971112 0.359186 0.217032
Si Si5 0.205009 0.021397 0.065125
Si Si6 0.889574 0.593623 0.093509
Si Si7 0.525657 0.961462 0.661446
Si Si8 0.005176 0.915994 0.581429
O O1 0.302746 0.773791 0.335948
O O2 0.234851 0.952906 0.193777
O O3 0.139684 0.704823 0.891531
O O4 0.078363 0.954665 0.252857
O O5 0.443169 0.466184 0.211361
O O6 0.501586 0.283139 0.312593
O O7 0.262497 0.353330 0.040571
O O8 0.438821 0.123409 0.836898
O O9 0.515433 0.765861 0.483163
O O10 0.910425 0.455579 0.104597
O O11 0.000000 0.500000 0.500000
O O12 0.100093 0.209148 0.162719
O O13 0.332589 0.037797 0.148766
O O14 0.145703 0.892568 0.770089
O O15 0.937723 0.762592 0.355070
O O16 0.000000 0.500000 0.000000
O O17 0.500000 0.000000 0.500000
O O18 0.000000 0.000000 0.500000
#
# Coordination Sequence:
#
# PCOD9056014 Si02
#       8
#     2   2   2   2   2   2   2   2
#     4  11  21  45  67  98 140 180 230 285 357 419
#     4  11  28  48  74 105 143 190 241 297 362 424
#     4  11  25  48  74 101 144 191 239 296 356 430
#     4  11  23  41  69  98 137 181 226 291 348 413
#     4  11  25  44  66 103 138 181 235 281 356 424
#     4  12  25  44  69 103 136 174 230 294 353 415
#     4  12  27  47  74 104 144 193 241 294 357 434
#     4  11  25  40  69  99 139 183 229 291 348 423
#
# _framework density 21.151185000000002
#
# number of rings (size 3 to 8) (size 9 to 14) (size 15 to 20)
#    0.000    0.750    2.500    5.625    7.000    1.500 
#    2.250    0.000    0.000    0.000    0.000    0.000 
#    0.000    0.000    0.000    0.000    0.000    0.000 
#
# Total GULP energy -89164.939236 kJ/mol
# GULP energy per Si atom -5572.808702 kJ/mol
# Density = 2.110304 g / cm^3
# Si number density = 21.151185 Si / 1000 Ang^3
#
#
#
# Elastic Constant Matrix: (Units=GPa)
#
#
# Indices 1 2 3 4 5 6 
#
# 1 98.8770 19.8211 32.6158 2.8906 28.5789 -5.4105
# 2 19.8211 67.0996 30.5603 -2.1749 13.6343 1.9311
# 3 32.6158 30.5603 98.2810 -5.3452 22.9831 -15.6627
# 4 2.8906 -2.1749 -5.3452 26.5383 3.5835 11.4891
# 5 28.5789 13.6343 22.9831 3.5835 44.8376 -4.3368
# 6 -5.4105 1.9311 -15.6627 11.4891 -4.3368 40.9310
#
#
#
# Elastic Compliance Matrix: (Units=1/GPa)
#
#
# Indices 1 2 3 4 5 6 
#
# 1 0.013163 -0.001561 -0.002329 -0.001418 -0.006547 0.000627
# 2 -0.001561 0.018425 -0.005101 0.002772 -0.002610 -0.004082
# 3 -0.002329 -0.005101 0.014256 0.001234 -0.003923 0.004626
# 4 -0.001418 0.002772 0.001234 0.044646 -0.005392 -0.012949
# 5 -0.006547 -0.002610 -0.003923 -0.005392 0.029948 0.002443
# 6 0.000627 -0.004082 0.004626 -0.012949 0.002443 0.030370
#
#
# Mechanical properties :
#
#
# Convention : Reuss Voigt Hill
#
# Bulk Modulus (GPa) = 35.89133 47.80577 41.84855
# Shear Modulus (GPa) = 28.07786 34.54541 31.31163
#
# Velocity S-wave (km/s) = 3.64742 4.04575 3.85174
# Velocity P-wave (km/s) = 5.89440 6.66896 6.29361
#
# Compressibility (1/GPa) = 0.02786188
#
# Stress axis : x y z
#
# Youngs Moduli (GPa) = 75.97080 54.27390 70.14818
#
# Poissons Ratio (x) = 0.08473 0.16337
# Poissons Ratio (y) = 0.11860 0.35780
# Poissons Ratio (z) = 0.17693 0.27683
#
# Static dielectric constant tensor:
#      x y z
#    x 1.811630 0.029390 0.152630 
#    y 0.029390 1.809080 0.102700 
#    z 0.152630 0.102700 2.162870 
# 
# From -- ./inp_files/306363.got.cif
#   From: 2010.05.17/outbox.cif.g08.bks.cpg/sg2_154_cif.got.tgz:306363.got - 2010.06.03 11:33:40.
