data_PCOD9056929
_publ_section_title
;
Structure prediction by ZEFSAII (Michael W. Deem and Ramdas Pophale) SiO2 
 PCOD9056929
Probable space group: P -1
;
_chemical_formula_sum "Si O2"
_cell_formula_units_Z 16
_cell_length_a 16.897623
_cell_length_b 8.485508
_cell_length_c 11.492086
_cell_angle_alpha 69.964056
_cell_angle_beta 27.312476
_cell_angle_gamma 64.100149
_cell_volume 675.992531
_symmetry_space_group_name_H-M "P -1"
_symmetry_group_IT_number 2
_symmetry_cell_setting 'triclinic'
loop_
_space_group_symop_operation_xyz
x,y,z
-x,-y,-z
loop_
_atom_site_type_symbol
_atom_site_label
_atom_site_fract_x
_atom_site_fract_y
_atom_site_fract_z
Si Si1 0.969560 0.814548 0.059067
Si Si2 0.361500 0.800887 0.007169
Si Si3 0.605917 0.422690 0.263919
Si Si4 0.685137 0.024982 0.211320
Si Si5 0.799152 0.614562 0.508182
Si Si6 0.598563 0.146391 0.814722
Si Si7 0.241220 0.475262 0.167680
Si Si8 0.756663 0.375707 0.423255
O O1 0.885364 0.746826 0.296766
O O2 0.836354 0.863540 0.109546
O O3 0.132060 0.656943 0.833190
O O4 0.000000 0.000000 0.000000
O O5 0.320964 0.950387 0.925188
O O6 0.579053 0.710014 0.765199
O O7 0.288590 0.867512 0.211844
O O8 0.266097 0.658986 0.128896
O O9 0.500000 0.500000 0.500000
O O10 0.691618 0.212480 0.207218
O O11 0.431052 0.470954 0.394457
O O12 0.748916 0.506368 0.992236
O O13 0.500000 0.000000 0.500000
O O14 0.866383 0.572241 0.566428
O O15 0.833096 0.444391 0.421549
O O16 0.721785 0.186631 0.541348
O O17 0.429651 0.321673 0.980025
O O18 0.500000 0.000000 0.000000
#
# Coordination Sequence:
#
# PCOD9056929 Si02
#       8
#     2   2   2   2   2   2   2   2
#     4  12  27  38  57  95 135 158 195 268 330 352
#     4  10  17  36  64  86 113 156 217 252 286 367
#     4  10  20  36  63  88 121 157 206 255 295 362
#     4  11  21  39  62  88 121 166 208 242 310 371
#     4  11  18  39  63  84 115 163 216 247 290 383
#     4  10  19  30  58  96 123 147 200 269 309 347
#     4   9  18  34  60  89 111 155 216 254 293 353
#     4  11  21  39  59  92 117 163 213 246 304 381
#
# _framework density 23.668901000000002
#
# number of rings (size 3 to 8) (size 9 to 14) (size 15 to 20)
#    0.000    1.500    6.250    1.875    3.500    2.000 
#    0.000    0.625    0.000    6.750    0.000    0.000 
#    0.000    0.000    0.000    0.000    0.000    0.000 
#
# Total GULP energy -89083.979326 kJ/mol
# GULP energy per Si atom -5567.748708 kJ/mol
# Density = 2.361503 g / cm^3
# Si number density = 23.668901 Si / 1000 Ang^3
#
#
#
# Elastic Constant Matrix: (Units=GPa)
#
#
# Indices 1 2 3 4 5 6 
#
# 1 -114.4998 84.0355 -65.8975 -24.4858 41.5191 64.9815
# 2 84.0355 25.7368 47.4240 -17.8926 2.3762 -50.1604
# 3 -65.8975 47.4240 80.0096 -33.5446 41.0556 22.2465
# 4 -24.4858 -17.8926 -33.5446 47.1584 -10.4344 10.9748
# 5 41.5191 2.3762 41.0556 -10.4344 38.0275 -7.2619
# 6 64.9815 -50.1604 22.2465 10.9748 -7.2619 1.0365
#
#
#
# Elastic Compliance Matrix: (Units=1/GPa)
#
#
# Indices 1 2 3 4 5 6 
#
# 1 0.008214 0.011443 -0.001588 0.002636 -0.003999 0.017001
# 2 0.011443 0.022567 0.005842 0.012862 -0.014570 0.011059
# 3 -0.001588 0.005842 0.011836 0.005926 -0.008059 0.009032
# 4 0.002636 0.012862 0.005926 0.030160 -0.000691 0.005827
# 5 -0.003999 -0.014570 -0.008059 -0.000691 0.036298 -0.019828
# 6 0.017001 0.011059 0.009032 0.005827 -0.019828 0.039678
#
#
# Mechanical properties :
#
#
# Convention : Reuss Voigt Hill
#
# Bulk Modulus (GPa) = 13.51136 13.59674 13.55405
# Shear Modulus (GPa) = 35.20404 12.29012 23.74708
#
# Velocity S-wave (km/s) = 3.86081 2.28118 3.17093
# Velocity P-wave (km/s) = 5.05918 3.56306 4.37554
#
# Compressibility (1/GPa) = 0.07401177
#
# Stress axis : x y z
#
# Youngs Moduli (GPa) = 121.75049 44.31204 84.48490
#
# Poissons Ratio (x) = -0.50706 0.13416
# Poissons Ratio (y) = -1.39318 -0.49359
# Poissons Ratio (z) = 0.19334 -0.25889
#
# Static dielectric constant tensor:
#      x y z
#    x 4.368600 -1.043630 -3.708010 
#    y -1.043630 2.336170 1.717920 
#    z -3.708010 1.717920 7.611760 
# 
# From -- ./inp_files/404092.got.cif
#   From: 2010.05.17/outbox.cif.g08.bks.cpg/sg2_203_cif.got.tgz:404092.got - 2010.06.03 11:33:40.
