data_PCOD9056619
_publ_section_title
;
Structure prediction by ZEFSAII (Michael W. Deem and Ramdas Pophale) SiO2 
 PCOD9056619
Probable space group: P -1
;
_chemical_formula_sum "Si O2"
_cell_formula_units_Z 16
_cell_length_a 11.492432
_cell_length_b 19.565910
_cell_length_c 13.962367
_cell_angle_alpha 30.606019
_cell_angle_beta 147.316466
_cell_angle_gamma 126.393766
_cell_volume 758.742158
_symmetry_space_group_name_H-M "P -1"
_symmetry_group_IT_number 2
_symmetry_cell_setting 'triclinic'
loop_
_space_group_symop_operation_xyz
x,y,z
-x,-y,-z
loop_
_atom_site_type_symbol
_atom_site_label
_atom_site_fract_x
_atom_site_fract_y
_atom_site_fract_z
Si Si1 0.116800 0.373824 0.651153
Si Si2 0.294893 0.532565 0.896939
Si Si3 0.703496 0.966467 0.763273
Si Si4 0.348284 0.790700 0.867256
Si Si5 0.480228 0.993640 0.197824
Si Si6 0.930315 0.126030 0.605715
Si Si7 0.271823 0.347859 0.270549
Si Si8 0.711243 0.468766 0.761855
O O1 0.000000 0.500000 0.500000
O O2 0.945010 0.440696 0.359700
O O3 0.130065 0.215376 0.887136
O O4 0.394871 0.318664 0.877146
O O5 0.219810 0.692694 0.702565
O O6 0.500000 0.500000 0.000000
O O7 0.377169 0.400156 0.191190
O O8 0.500000 0.000000 0.500000
O O9 0.571414 0.026356 0.701525
O O10 0.859217 0.045424 0.738399
O O11 0.160870 0.903386 0.522910
O O12 0.406279 0.891652 0.860332
O O13 0.249973 0.684217 0.973018
O O14 0.640077 0.830545 0.458355
O O15 0.214886 0.073603 0.869104
O O16 0.351212 0.400569 0.358914
O O17 0.976509 0.437381 0.945788
O O18 0.500000 0.500000 0.500000
#
# Coordination Sequence:
#
# PCOD9056619 Si02
#       8
#     2   2   2   2   2   2   2   2
#     4  11  24  38  61 100 141 181 230 274 331 414
#     4  12  24  40  68 101 141 182 225 275 341 418
#     4  11  22  40  61  96 143 186 218 273 341 407
#     4  11  23  45  68  97 133 180 227 285 343 402
#     4  11  25  41  68 101 141 177 231 279 344 413
#     4  12  22  41  65  93 141 184 219 278 341 406
#     4  11  27  47  71 108 132 180 238 287 340 417
#     4  11  26  49  77  95 139 178 234 294 349 403
#
# _framework density 21.087531999999999
#
# number of rings (size 3 to 8) (size 9 to 14) (size 15 to 20)
#    0.000    0.750    6.250    2.625    3.500    1.500 
#    0.000    1.250    0.000    0.000    0.000    0.000 
#    0.000    0.000    0.000    0.000    0.000    0.000 
#
# Total GULP energy -89475.160836 kJ/mol
# GULP energy per Si atom -5592.197552 kJ/mol
# Density = 2.103954 g / cm^3
# Si number density = 21.087532 Si / 1000 Ang^3
#
#
#
# Elastic Constant Matrix: (Units=GPa)
#
#
# Indices 1 2 3 4 5 6 
#
# 1 54.0778 23.7901 10.2270 -0.0325 -2.6713 0.7744
# 2 23.7901 118.8823 27.7315 0.7386 13.1123 -21.0475
# 3 10.2270 27.7315 61.8049 11.7110 6.0792 -29.3014
# 4 -0.0325 0.7386 11.7110 54.7803 -3.6332 -5.4876
# 5 -2.6713 13.1123 6.0792 -3.6332 18.4333 -4.9366
# 6 0.7744 -21.0475 -29.3014 -5.4876 -4.9366 29.3490
#
#
#
# Elastic Compliance Matrix: (Units=1/GPa)
#
#
# Indices 1 2 3 4 5 6 
#
# 1 0.022720 -0.005490 -0.006989 0.001029 0.006988 -0.010146
# 2 -0.005490 0.011597 -0.000316 0.000141 -0.007041 0.006988
# 3 -0.006989 -0.000316 0.034122 -0.004315 -0.004184 0.032514
# 4 0.001029 0.000141 -0.004315 0.019569 0.005419 0.000336
# 5 0.006988 -0.007041 -0.004184 0.005419 0.063323 0.002253
# 6 -0.010146 0.006988 0.032514 0.000336 0.002253 0.072255
#
#
# Mechanical properties :
#
#
# Convention : Reuss Voigt Hill
#
# Bulk Modulus (GPa) = 23.33775 39.80691 31.57233
# Shear Modulus (GPa) = 18.97837 32.04693 25.51265
#
# Velocity S-wave (km/s) = 3.00322 3.90257 3.48206
# Velocity P-wave (km/s) = 4.80800 6.26297 5.58308
#
# Compressibility (1/GPa) = 0.04284904
#
# Stress axis : x y z
#
# Youngs Moduli (GPa) = 44.01460 86.22946 29.30649
#
# Poissons Ratio (x) = 0.47338 0.20482
# Poissons Ratio (y) = 0.24163 0.00927
# Poissons Ratio (z) = 0.30761 0.02728
#
# Static dielectric constant tensor:
#      x y z
#    x 1.767700 -0.017330 -0.016380 
#    y -0.017330 1.746030 -0.007660 
#    z -0.016380 -0.007660 1.720180 
# 
# From -- ./inp_files/524059.got.cif
#   From: 2010.05.17/outbox.cif.g08.bks.cpg/sg2_263_cif.got.tgz:524059.got - 2010.06.03 11:33:40.
