data_PCOD9056616
_publ_section_title
;
Structure prediction by ZEFSAII (Michael W. Deem and Ramdas Pophale) SiO2 
 PCOD9056616
Probable space group: P -1
;
_chemical_formula_sum "Si O2"
_cell_formula_units_Z 16
_cell_length_a 11.423652
_cell_length_b 10.472123
_cell_length_c 11.682399
_cell_angle_alpha 128.229199
_cell_angle_beta 35.556351
_cell_angle_gamma 113.275766
_cell_volume 620.208523
_symmetry_space_group_name_H-M "P -1"
_symmetry_group_IT_number 2
_symmetry_cell_setting 'triclinic'
loop_
_space_group_symop_operation_xyz
x,y,z
-x,-y,-z
loop_
_atom_site_type_symbol
_atom_site_label
_atom_site_fract_x
_atom_site_fract_y
_atom_site_fract_z
Si Si1 0.637282 0.589560 0.566531
Si Si2 0.317006 0.455056 0.850407
Si Si3 0.982955 0.087074 0.218325
Si Si4 0.151813 0.764017 0.300013
Si Si5 0.421509 0.720290 0.250101
Si Si6 0.204999 0.346315 0.266421
Si Si7 0.015499 0.737585 0.936683
Si Si8 0.323075 0.069272 0.272305
O O1 0.438848 0.509247 0.677974
O O2 0.690604 0.631583 0.681434
O O3 0.616033 0.771566 0.627299
O O4 0.825155 0.439608 0.297775
O O5 0.492920 0.386467 0.766534
O O6 0.184419 0.633175 0.098765
O O7 0.184440 0.315540 0.880520
O O8 0.742885 0.123292 0.471714
O O9 0.115775 0.181131 0.241700
O O10 0.001645 0.174394 0.127728
O O11 0.069989 0.888621 0.046887
O O12 0.258957 0.656604 0.263304
O O13 0.914297 0.855012 0.533707
O O14 0.288622 0.903005 0.269703
O O15 0.624996 0.697640 0.995723
O O16 0.000000 0.500000 0.500000
O O17 0.500000 0.000000 0.000000
#
# Coordination Sequence:
#
# PCOD9056616 Si02
#       8
#     2   2   2   2   2   2   2   2
#     4  12  22  37  66  91 124 165 214 263 319 375
#     4  12  21  36  62  94 128 164 203 256 320 384
#     4  11  25  38  58  87 137 177 208 255 311 394
#     4  11  24  36  61  95 130 158 207 266 320 376
#     4  12  23  37  62  96 131 163 207 257 327 374
#     4  12  22  37  61  96 127 168 206 264 313 372
#     4  11  24  41  55  91 135 174 211 251 319 387
#     4  11  22  40  59  92 129 166 206 265 324 376
#
# _framework density 25.797774
#
# number of rings (size 3 to 8) (size 9 to 14) (size 15 to 20)
#    0.000    0.500    7.500    1.125    1.750    1.500 
#    0.000    0.000    0.000    0.750    0.000    5.250 
#    0.000    0.000    0.000    0.000    0.000    0.000 
#
# Total GULP energy -89237.732804 kJ/mol
# GULP energy per Si atom -5577.358300 kJ/mol
# Density = 2.573906 g / cm^3
# Si number density = 25.797774 Si / 1000 Ang^3
#
#
#
# Elastic Constant Matrix: (Units=GPa)
#
#
# Indices 1 2 3 4 5 6 
#
# 1 38.3935 10.7298 8.0135 -5.0489 -9.5284 5.8650
# 2 10.7298 205.7612 86.0180 -0.5713 -5.1455 25.1522
# 3 8.0135 86.0180 121.3907 1.6519 -19.7302 15.9279
# 4 -5.0489 -0.5713 1.6519 57.3300 0.3097 5.3300
# 5 -9.5284 -5.1455 -19.7302 0.3097 28.0446 -1.1654
# 6 5.8650 25.1522 15.9279 5.3300 -1.1654 16.9797
#
#
#
# Elastic Compliance Matrix: (Units=1/GPa)
#
#
# Indices 1 2 3 4 5 6 
#
# 1 0.030882 -0.000578 0.001656 0.003701 0.011022 -0.011770
# 2 -0.000578 0.007772 -0.004967 0.000843 -0.002569 -0.007094
# 3 0.001656 -0.004967 0.013881 0.000173 0.009180 -0.005659
# 4 0.003701 0.000843 0.000173 0.018552 0.000978 -0.008446
# 5 0.011022 -0.002569 0.009180 0.000978 0.045136 -0.005821
# 6 -0.011770 -0.007094 -0.005659 -0.008446 -0.005821 0.081028
#
#
# Mechanical properties :
#
#
# Convention : Reuss Voigt Hill
#
# Bulk Modulus (GPa) = 22.34323 63.89644 43.11984
# Shear Modulus (GPa) = 22.73261 37.85647 30.29454
#
# Velocity S-wave (km/s) = 2.97170 3.83486 3.43054
# Velocity P-wave (km/s) = 4.52265 6.66560 5.69581
#
# Compressibility (1/GPa) = 0.04475628
#
# Stress axis : x y z
#
# Youngs Moduli (GPa) = 32.38142 128.66626 72.04309
#
# Poissons Ratio (x) = 0.07441 -0.11934
# Poissons Ratio (y) = 0.01873 0.35786
# Poissons Ratio (z) = -0.05364 0.63913
#
# Static dielectric constant tensor:
#      x y z
#    x 2.077160 -0.054080 0.036380 
#    y -0.054080 2.157620 -0.038540 
#    z 0.036380 -0.038540 2.125980 
# 
# From -- ./inp_files/532714.got.cif
#   From: 2010.05.17/outbox.cif.g08.bks.cpg/sg2_267_cif.got.tgz:532714.got - 2010.06.03 11:33:40.
