data_PCOD9056760
_publ_section_title
;
Structure prediction by ZEFSAII (Michael W. Deem and Ramdas Pophale) SiO2 
 PCOD9056760
Probable space group: P -1
;
_chemical_formula_sum "Si O2"
_cell_formula_units_Z 16
_cell_length_a 14.984071
_cell_length_b 18.108334
_cell_length_c 11.742608
_cell_angle_alpha 129.277441
_cell_angle_beta 152.367593
_cell_angle_gamma 33.502976
_cell_volume 742.957642
_symmetry_space_group_name_H-M "P -1"
_symmetry_group_IT_number 2
_symmetry_cell_setting 'triclinic'
loop_
_space_group_symop_operation_xyz
x,y,z
-x,-y,-z
loop_
_atom_site_type_symbol
_atom_site_label
_atom_site_fract_x
_atom_site_fract_y
_atom_site_fract_z
Si Si1 0.322243 0.088045 0.497513
Si Si2 0.706365 0.276333 0.022522
Si Si3 0.574903 0.490470 0.266624
Si Si4 0.760419 0.441130 0.819503
Si Si5 0.181534 0.362286 0.882834
Si Si6 0.270576 0.961395 0.719889
Si Si7 0.362146 0.104017 0.115667
Si Si8 0.237838 0.335282 0.653971
O O1 0.172285 0.249192 0.479587
O O2 0.043306 0.125246 0.232546
O O3 0.500000 0.000000 0.500000
O O4 0.529651 0.997433 0.752811
O O5 0.669635 0.363777 0.173056
O O6 0.561383 0.382413 0.852630
O O7 0.530868 0.248947 0.832423
O O8 0.348649 0.543895 0.161254
O O9 0.862248 0.431614 0.590873
O O10 0.500000 0.500000 0.500000
O O11 0.799360 0.540086 0.947187
O O12 0.082887 0.274456 0.998151
O O13 0.263686 0.342166 0.823453
O O14 0.427473 0.202309 0.058268
O O15 0.349958 0.951053 0.666923
O O16 0.000000 0.000000 0.500000
O O17 0.244667 0.073970 0.859388
O O18 0.000000 0.500000 0.500000
#
# Coordination Sequence:
#
# PCOD9056760 Si02
#       8
#     2   2   2   2   2   2   2   2
#     4  12  27  44  68 103 147 181 220 286 346 406
#     4  11  22  40  69 100 133 179 230 269 342 411
#     4  11  22  40  69 100 134 177 223 285 338 402
#     4  12  27  44  69 102 138 175 230 294 345 392
#     4  12  24  43  71 101 132 178 234 283 337 408
#     4  11  25  46  72  95 131 186 231 277 338 410
#     4  11  26  46  66 100 140 177 228 279 344 407
#     4  12  23  43  71 104 132 179 233 279 338 412
#
# _framework density 21.535547000000001
#
# number of rings (size 3 to 8) (size 9 to 14) (size 15 to 20)
#    0.000    0.500    5.000    3.000    3.500    5.500 
#    0.000    0.000    0.000    0.000    0.000    0.000 
#    0.000    0.000    0.000    0.000    0.000    0.000 
#
# Total GULP energy -89496.967828 kJ/mol
# GULP energy per Si atom -5593.560489 kJ/mol
# Density = 2.148653 g / cm^3
# Si number density = 21.535547 Si / 1000 Ang^3
#
#
#
# Elastic Constant Matrix: (Units=GPa)
#
#
# Indices 1 2 3 4 5 6 
#
# 1 131.2979 26.0777 20.3930 -3.7904 15.6165 -16.5039
# 2 26.0777 91.1949 17.5606 -9.7797 0.0789 -3.0412
# 3 20.3930 17.5606 78.3974 -0.6668 22.4638 -6.3162
# 4 -3.7904 -9.7797 -0.6668 25.8951 1.4404 8.1171
# 5 15.6165 0.0789 22.4638 1.4404 44.0567 -7.5505
# 6 -16.5039 -3.0412 -6.3162 8.1171 -7.5505 33.7908
#
#
#
# Elastic Compliance Matrix: (Units=1/GPa)
#
#
# Indices 1 2 3 4 5 6 
#
# 1 0.008903 -0.002311 -0.000927 -0.000629 -0.002031 0.003665
# 2 -0.002311 0.012625 -0.002823 0.004633 0.001876 -0.001214
# 3 -0.000927 -0.002823 0.015862 -0.000588 -0.007616 0.000698
# 4 -0.000629 0.004633 -0.000588 0.043924 -0.002838 -0.011186
# 5 -0.002031 0.001876 -0.007616 -0.002838 0.028202 0.004737
# 6 0.003665 -0.001214 0.000698 -0.011186 0.004737 0.035150
#
#
# Mechanical properties :
#
#
# Convention : Reuss Voigt Hill
#
# Bulk Modulus (GPa) = 39.57340 47.66144 43.61742
# Shear Modulus (GPa) = 30.26447 36.53912 33.40180
#
# Velocity S-wave (km/s) = 3.75284 4.12356 3.94256
# Velocity P-wave (km/s) = 6.09870 6.69710 6.40489
#
# Compressibility (1/GPa) = 0.02526950
#
# Stress axis : x y z
#
# Youngs Moduli (GPa) = 112.31940 79.20999 63.04303
#
# Poissons Ratio (x) = 0.18306 0.05841
# Poissons Ratio (y) = 0.25957 0.17795
# Poissons Ratio (z) = 0.10406 0.22359
#
# Static dielectric constant tensor:
#      x y z
#    x 1.813950 0.013930 0.001830 
#    y 0.013930 1.759640 -0.004760 
#    z 0.001830 -0.004760 1.786020 
# 
# From -- ./inp_files/346080.got.cif
#   From: 2010.05.17/outbox.cif.g08.bks.cpg/sg2_174_cif.got.tgz:346080.got - 2010.06.03 11:33:40.
