data_PCOD9056011
_publ_section_title
;
Structure prediction by ZEFSAII (Michael W. Deem and Ramdas Pophale) SiO2 
 PCOD9056011
Probable space group: P -1
;
_chemical_formula_sum "Si O2"
_cell_formula_units_Z 16
_cell_length_a 9.291995
_cell_length_b 15.342886
_cell_length_c 14.745674
_cell_angle_alpha 151.997696
_cell_angle_beta 87.778759
_cell_angle_gamma 74.093685
_cell_volume 743.445947
_symmetry_space_group_name_H-M "P -1"
_symmetry_group_IT_number 2
_symmetry_cell_setting 'triclinic'
loop_
_space_group_symop_operation_xyz
x,y,z
-x,-y,-z
loop_
_atom_site_type_symbol
_atom_site_label
_atom_site_fract_x
_atom_site_fract_y
_atom_site_fract_z
Si Si1 0.555623 0.120681 0.947435
Si Si2 0.300677 0.512870 0.812503
Si Si3 0.593319 0.660449 0.556133
Si Si4 0.538725 0.636601 0.005670
Si Si5 0.952462 0.237375 0.676466
Si Si6 0.298211 0.603548 0.517189
Si Si7 0.044301 0.065063 0.310886
Si Si8 0.688721 0.877406 0.440129
O O1 0.766106 0.005628 0.803701
O O2 0.565543 0.903452 0.781730
O O3 0.430762 0.256338 0.983849
O O4 0.458755 0.337458 0.221581
O O5 0.348052 0.446537 0.644842
O O6 0.465879 0.499304 0.844025
O O7 0.286944 0.321930 0.680157
O O8 0.109683 0.798650 0.086095
O O9 0.396802 0.718817 0.635448
O O10 0.740924 0.459648 0.443346
O O11 0.728321 0.466917 0.905021
O O12 0.368710 0.881334 0.287299
O O13 0.107272 0.247963 0.722805
O O14 0.980502 0.207898 0.539100
O O15 0.000000 0.000000 0.500000
O O16 0.123174 0.774255 0.610281
O O17 0.500000 0.000000 0.500000
#
# Coordination Sequence:
#
# PCOD9056011 Si02
#       8
#     2   2   2   2   2   2   2   2
#     4  11  21  45  66  92 130 173 212 263 321 375
#     4  11  22  45  68  92 133 173 211 264 324 377
#     4  11  22  41  67  97 131 169 216 266 315 381
#     4  11  23  45  70  89 133 170 208 267 324 374
#     4  12  25  43  68  97 128 170 216 264 324 383
#     4  11  24  42  64  99 132 168 216 266 319 375
#     4  11  23  44  67  91 133 173 210 265 324 378
#     4  12  27  45  68  98 127 168 217 267 321 387
#
# _framework density 21.521404
#
# number of rings (size 3 to 8) (size 9 to 14) (size 15 to 20)
#    0.000    0.750    7.500    1.125    1.750    3.500 
#    4.500    0.000    0.000    0.000    0.000    0.000 
#    0.000    0.000    0.000    0.000    0.000    0.000 
#
# Total GULP energy -89419.842007 kJ/mol
# GULP energy per Si atom -5588.740125 kJ/mol
# Density = 2.147242 g / cm^3
# Si number density = 21.521404 Si / 1000 Ang^3
#
#
#
# Elastic Constant Matrix: (Units=GPa)
#
#
# Indices 1 2 3 4 5 6 
#
# 1 88.9506 46.6742 38.7966 22.4764 -3.0146 -1.5801
# 2 46.6742 83.3572 16.9383 20.7239 -2.4972 1.4507
# 3 38.7966 16.9383 95.9073 16.0873 -3.7168 3.8376
# 4 22.4764 20.7239 16.0873 35.7074 -3.1175 2.1494
# 5 -3.0146 -2.4972 -3.7168 -3.1175 22.3917 12.9169
# 6 -1.5801 1.4507 3.8376 2.1494 12.9169 41.9644
#
#
#
# Elastic Compliance Matrix: (Units=1/GPa)
#
#
# Indices 1 2 3 4 5 6 
#
# 1 0.019471 -0.008594 -0.005662 -0.004955 -0.001223 0.002178
# 2 -0.008594 0.017945 0.001299 -0.005446 0.000917 -0.001066
# 3 -0.005662 0.001299 0.013126 -0.002776 0.002352 -0.002040
# 4 -0.004955 -0.005446 -0.002776 0.036175 0.005135 -0.003178
# 5 -0.001223 0.000917 0.002352 0.005135 0.055959 -0.017780
# 6 0.002178 -0.001066 -0.002040 -0.003178 -0.017780 0.029771
#
#
# Mechanical properties :
#
#
# Convention : Reuss Voigt Hill
#
# Bulk Modulus (GPa) = 40.60566 52.55928 46.58247
# Shear Modulus (GPa) = 24.20488 31.06641 27.63564
#
# Velocity S-wave (km/s) = 3.35728 3.80348 3.58732
# Velocity P-wave (km/s) = 5.82554 6.61540 6.23299
#
# Compressibility (1/GPa) = 0.02462711
#
# Stress axis : x y z
#
# Youngs Moduli (GPa) = 51.35953 55.72637 76.18462
#
# Poissons Ratio (x) = 0.47893 0.43135
# Poissons Ratio (y) = 0.44140 -0.09897
# Poissons Ratio (z) = 0.29079 -0.07239
#
# Static dielectric constant tensor:
#      x y z
#    x 1.787810 -0.033250 0.004760 
#    y -0.033250 1.814180 -0.034860 
#    z 0.004760 -0.034860 1.794260 
# 
# From -- ./inp_files/505804.got.cif
#   From: 2010.05.17/outbox.cif.g08.bks.cpg/sg2_253_cif.got.tgz:505804.got - 2010.06.03 11:33:40.
