data_PCOD9056296
_publ_section_title
;
Structure prediction by ZEFSAII (Michael W. Deem and Ramdas Pophale) SiO2 
 PCOD9056296
Probable space group: P -1
;
_chemical_formula_sum "Si O2"
_cell_formula_units_Z 14
_cell_length_a 6.912995
_cell_length_b 8.230769
_cell_length_c 13.683764
_cell_angle_alpha 74.110117
_cell_angle_beta 128.318280
_cell_angle_gamma 82.648748
_cell_volume 539.870769
_symmetry_space_group_name_H-M "P -1"
_symmetry_group_IT_number 2
_symmetry_cell_setting 'triclinic'
loop_
_space_group_symop_operation_xyz
x,y,z
-x,-y,-z
loop_
_atom_site_type_symbol
_atom_site_label
_atom_site_fract_x
_atom_site_fract_y
_atom_site_fract_z
Si Si1 0.967779 0.639889 0.590951
Si Si2 0.656394 0.860830 0.969741
Si Si3 0.734166 0.734652 0.799371
Si Si4 0.441162 0.812093 0.511121
Si Si5 0.151177 0.901019 0.220150
Si Si6 0.700149 0.778987 0.300837
Si Si7 0.768640 0.495668 0.126286
O O1 0.129454 0.429574 0.643979
O O2 0.146742 0.651265 0.735077
O O3 0.694355 0.662756 0.557923
O O4 0.872153 0.786672 0.450020
O O5 0.673469 0.712453 0.082086
O O6 0.898945 0.914088 0.074124
O O7 0.691141 0.745839 0.899018
O O8 0.400568 0.043526 0.830254
O O9 0.479492 0.759773 0.646102
O O10 0.976059 0.566075 0.855078
O O11 0.834517 0.901658 0.793303
O O12 0.197990 0.827871 0.359793
O O13 0.500000 0.000000 0.500000
O O14 0.417240 0.788529 0.257695
O O15 0.500000 0.500000 0.000000
#
# Coordination Sequence:
#
# PCOD9056296 Si02
#       7
#     2   2   2   2   2   2   2
#     4   9  19  36  58  85 123 159 192 237 308 358
#     4  11  22  37  63  93 117 155 212 252 290 359
#     4   9  18  37  59  86 119 158 197 243 300 364
#     4   8  15  32  58  88 122 160 193 233 296 366
#     4   9  18  33  63  92 117 154 204 249 298 351
#     4   9  18  36  62  87 121 155 192 250 302 354
#     4  11  25  39  57  85 126 162 197 252 311 351
#
# _framework density 25.932131999999999
#
# number of rings (size 3 to 8) (size 9 to 14) (size 15 to 20)
#    0.000    2.571    0.000    3.000    4.000    0.571 
#    0.000    7.143    3.143    0.000    0.000    0.000 
#    0.000    0.000    0.000    0.000    0.000    0.000 
#
# Total GULP energy -77970.161595 kJ/mol
# GULP energy per Si atom -5569.297257 kJ/mol
# Density = 2.587311 g / cm^3
# Si number density = 25.932132 Si / 1000 Ang^3
#
#
#
# Elastic Constant Matrix: (Units=GPa)
#
#
# Indices 1 2 3 4 5 6 
#
# 1 43.8087 28.8002 56.9815 -4.6583 6.7441 -12.7135
# 2 28.8002 69.9731 43.3519 -17.5602 8.1080 -23.6266
# 3 56.9815 43.3519 210.5165 8.8478 32.5564 -12.0317
# 4 -4.6583 -17.5602 8.8478 42.0949 0.6114 7.5696
# 5 6.7441 8.1080 32.5564 0.6114 39.3567 7.6201
# 6 -12.7135 -23.6266 -12.0317 7.5696 7.6201 38.8010
#
#
#
# Elastic Compliance Matrix: (Units=1/GPa)
#
#
# Indices 1 2 3 4 5 6 
#
# 1 0.043315 -0.010078 -0.009771 0.001843 0.001876 0.004298
# 2 -0.010078 0.025731 -0.001556 0.007994 -0.004584 0.011224
# 3 -0.009771 -0.001556 0.008678 -0.003524 -0.005177 0.000246
# 4 0.001843 0.007994 -0.003524 0.028255 0.000762 -0.001283
# 5 0.001876 -0.004584 -0.005177 0.000762 0.032291 -0.010272
# 6 0.004298 0.011224 0.000246 -0.001283 -0.010272 0.036359
#
#
# Mechanical properties :
#
#
# Convention : Reuss Voigt Hill
#
# Bulk Modulus (GPa) = 28.64258 64.72950 46.68604
# Shear Modulus (GPa) = 21.82674 37.06150 29.44412
#
# Velocity S-wave (km/s) = 2.90433 3.78454 3.37327
# Velocity P-wave (km/s) = 4.72399 6.64171 5.76317
#
# Compressibility (1/GPa) = 0.03491306
#
# Stress axis : x y z
#
# Youngs Moduli (GPa) = 23.08653 38.86437 115.23188
#
# Poissons Ratio (x) = 0.39168 1.12591
# Poissons Ratio (y) = 0.23267 0.17935
# Poissons Ratio (z) = 0.22557 0.06049
#
# Static dielectric constant tensor:
#      x y z
#    x 0.658410 -0.230980 0.406290 
#    y -0.230980 1.972730 0.089870 
#    z 0.406290 0.089870 1.934180 
# 
# From -- ./inp_files/174809.got.cif
#   From: 2010.05.17/outbox.cif.g08.bks.cpg/sg2_88_cif.got.tgz:174809.got - 2010.06.03 11:33:40.
