data_PCOD9056233
_publ_section_title
;
Structure prediction by ZEFSAII (Michael W. Deem and Ramdas Pophale) SiO2 
 PCOD9056233
Probable space group: P -1
;
_chemical_formula_sum "Si O2"
_cell_formula_units_Z 16
_cell_length_a 8.117649
_cell_length_b 16.306282
_cell_length_c 17.495487
_cell_angle_alpha 23.966279
_cell_angle_beta 94.177392
_cell_angle_gamma 108.086279
_cell_volume 749.143629
_symmetry_space_group_name_H-M "P -1"
_symmetry_group_IT_number 2
_symmetry_cell_setting 'triclinic'
loop_
_space_group_symop_operation_xyz
x,y,z
-x,-y,-z
loop_
_atom_site_type_symbol
_atom_site_label
_atom_site_fract_x
_atom_site_fract_y
_atom_site_fract_z
Si Si1 0.695334 0.604811 0.365393
Si Si2 0.012467 0.270116 0.187810
Si Si3 0.915463 0.229502 0.482716
Si Si4 0.248305 0.296040 0.326795
Si Si5 0.274988 0.913028 0.088019
Si Si6 0.074016 0.886792 0.242755
Si Si7 0.112111 0.385291 0.777661
Si Si8 0.362230 0.335898 0.062706
O O1 0.500000 0.500000 0.500000
O O2 0.703776 0.483567 0.391059
O O3 0.870484 0.666596 0.377615
O O4 0.749047 0.866585 0.115104
O O5 0.131114 0.277312 0.261167
O O6 0.154996 0.317220 0.079744
O O7 0.805420 0.980082 0.425350
O O8 0.000000 0.500000 0.000000
O O9 0.933660 0.169552 0.621617
O O10 0.867617 0.430621 0.314330
O O11 0.125215 0.328307 0.360563
O O12 0.724667 0.954015 0.680697
O O13 0.489024 0.523157 0.125530
O O14 0.245130 0.887783 0.199895
O O15 0.092064 0.703903 0.203860
O O16 0.500000 0.000000 0.000000
O O17 0.090077 0.142200 0.016488
O O18 0.500000 0.500000 0.000000
#
# Coordination Sequence:
#
# PCOD9056233 Si02
#       8
#     2   2   2   2   2   2   2   2
#     4   9  19  36  57  81 114 154 195 243 287 346
#     4   9  18  36  66  86 109 150 189 238 294 352
#     4  11  22  36  63  82 121 160 190 249 304 342
#     4   9  20  38  55  86 119 145 190 241 293 351
#     4   9  19  34  59  82 109 156 199 241 289 355
#     4   9  21  39  53  82 120 149 196 243 296 348
#     4   9  21  39  54  82 120 154 196 247 293 343
#     4   9  20  41  61  84 116 151 198 241 290 355
#
# _framework density 21.357721999999999
#
# number of rings (size 3 to 8) (size 9 to 14) (size 15 to 20)
#    0.000    2.750    0.000    2.250    3.500    4.500 
#    4.500    2.500    0.000    0.000    0.000    0.000 
#    0.000    0.000    0.000    0.000    0.000    0.000 
#
# Total GULP energy -89144.254772 kJ/mol
# GULP energy per Si atom -5571.515923 kJ/mol
# Density = 2.130911 g / cm^3
# Si number density = 21.357722 Si / 1000 Ang^3
#
#
#
# Elastic Constant Matrix: (Units=GPa)
#
#
# Indices 1 2 3 4 5 6 
#
# 1 63.1767 22.0324 32.5961 5.8561 -12.1008 -33.5689
# 2 22.0324 96.5120 31.8358 4.6905 -11.3387 -32.8564
# 3 32.5961 31.8358 102.8766 -8.1325 -0.0128 -30.2408
# 4 5.8561 4.6905 -8.1325 47.5208 -12.8662 3.0350
# 5 -12.1008 -11.3387 -0.0128 -12.8662 35.8450 13.2766
# 6 -33.5689 -32.8564 -30.2408 3.0350 13.2766 40.7388
#
#
#
# Elastic Compliance Matrix: (Units=1/GPa)
#
#
# Indices 1 2 3 4 5 6 
#
# 1 0.030947 0.003285 -0.003673 -0.006579 -0.000539 0.026089
# 2 0.003285 0.015044 -0.001892 -0.003202 -0.000395 0.013802
# 3 -0.003673 -0.001892 0.013527 0.001524 -0.003727 0.006589
# 4 -0.006579 -0.003202 0.001524 0.026113 0.010697 -0.012303
# 5 -0.000539 -0.000395 -0.003727 0.010697 0.037566 -0.016569
# 6 0.026089 0.013802 0.006589 -0.012303 -0.016569 0.068384
#
#
# Mechanical properties :
#
#
# Convention : Reuss Voigt Hill
#
# Bulk Modulus (GPa) = 18.19604 48.38821 33.29212
# Shear Modulus (GPa) = 23.31430 36.56097 29.93764
#
# Velocity S-wave (km/s) = 3.30754 4.14193 3.74802
# Velocity P-wave (km/s) = 4.80880 6.75125 5.86105
#
# Compressibility (1/GPa) = 0.05495701
#
# Stress axis : x y z
#
# Youngs Moduli (GPa) = 32.31305 66.47279 73.92751
#
# Poissons Ratio (x) = -0.21836 0.27155
# Poissons Ratio (y) = -0.10615 0.13988
# Poissons Ratio (z) = 0.11869 0.12578
#
# Static dielectric constant tensor:
#      x y z
#    x 1.790450 -0.043840 -0.021050 
#    y -0.043840 1.818360 0.028370 
#    z -0.021050 0.028370 1.824570 
# 
# From -- ./inp_files/590888.got.cif
#   From: 2010.05.17/outbox.cif.g08.bks.cpg/sg2_296_cif.got.tgz:590888.got - 2010.06.03 11:33:40.
