data_PCOD9056063
_publ_section_title
;
Structure prediction by ZEFSAII (Michael W. Deem and Ramdas Pophale) SiO2 
 PCOD9056063
Probable space group: P -1
;
_chemical_formula_sum "Si O2"
_cell_formula_units_Z 16
_cell_length_a 9.550711
_cell_length_b 18.136558
_cell_length_c 9.546339
_cell_angle_alpha 122.609559
_cell_angle_beta 136.625951
_cell_angle_gamma 35.111212
_cell_volume 646.638232
_symmetry_space_group_name_H-M "P -1"
_symmetry_group_IT_number 2
_symmetry_cell_setting 'triclinic'
loop_
_space_group_symop_operation_xyz
x,y,z
-x,-y,-z
loop_
_atom_site_type_symbol
_atom_site_label
_atom_site_fract_x
_atom_site_fract_y
_atom_site_fract_z
Si Si1 0.794687 0.804194 0.398150
Si Si2 0.995922 0.455815 0.800152
Si Si3 0.313323 0.912075 0.721052
Si Si4 0.845277 0.976330 0.966422
Si Si5 0.761703 0.488110 0.189804
Si Si6 0.689940 0.245237 0.750138
Si Si7 0.662541 0.292951 0.477617
Si Si8 0.675034 0.807585 0.625994
O O1 0.776549 0.818895 0.566959
O O2 0.840296 0.689051 0.258961
O O3 0.081804 0.763699 0.504266
O O4 0.477209 0.940261 0.251046
O O5 0.643473 0.554870 0.601992
O O6 0.160689 0.476432 0.848324
O O7 0.000000 0.500000 0.000000
O O8 0.244562 0.966768 0.881933
O O9 0.443651 0.773084 0.690100
O O10 0.538554 0.890539 0.756067
O O11 0.000000 0.000000 0.500000
O O12 0.090059 0.822666 0.025259
O O13 0.000000 0.000000 0.000000
O O14 0.619762 0.603034 0.309450
O O15 0.051120 0.341806 0.288522
O O16 0.500000 0.500000 0.000000
O O17 0.814723 0.243139 0.692170
O O18 0.590833 0.175578 0.597792
#
# Coordination Sequence:
#
# PCOD9056063 Si02
#       8
#     2   2   2   2   2   2   2   2
#     4  12  26  43  70 103 142 183 232 285 349 409
#     4  12  25  44  66 101 143 181 229 294 347 402
#     4  11  21  45  73  95 137 181 230 276 348 406
#     4  12  23  45  73 101 138 185 229 285 345 410
#     4  12  26  43  72 102 134 179 235 287 342 413
#     4  11  22  46  71  96 136 187 227 276 352 404
#     4  11  25  43  70 103 135 186 231 283 343 412
#     4  11  22  46  71  97 134 188 225 280 349 405
#
# _framework density 24.743357
#
# number of rings (size 3 to 8) (size 9 to 14) (size 15 to 20)
#    0.000    0.500    7.500    2.250    3.500    0.500 
#    2.250    1.250    0.000    0.000    0.000    0.000 
#    0.000    0.000    0.000    0.000    0.000    0.000 
#
# Total GULP energy -89447.311798 kJ/mol
# GULP energy per Si atom -5590.456987 kJ/mol
# Density = 2.468704 g / cm^3
# Si number density = 24.743357 Si / 1000 Ang^3
#
#
#
# Elastic Constant Matrix: (Units=GPa)
#
#
# Indices 1 2 3 4 5 6 
#
# 1 223.9627 36.1097 53.9831 -1.6990 -25.8122 -25.8557
# 2 36.1097 121.4746 28.4696 -9.4314 -16.4472 -14.2222
# 3 53.9831 28.4696 90.8831 -1.2679 -23.8963 -8.9340
# 4 -1.6990 -9.4314 -1.2679 36.2538 -11.8665 -0.0805
# 5 -25.8122 -16.4472 -23.8963 -11.8665 50.9629 5.2333
# 6 -25.8557 -14.2222 -8.9340 -0.0805 5.2333 41.7839
#
#
#
# Elastic Compliance Matrix: (Units=1/GPa)
#
#
# Indices 1 2 3 4 5 6 
#
# 1 0.005625 -0.000556 -0.002562 0.000464 0.001311 0.002580
# 2 -0.000556 0.009673 -0.001764 0.003266 0.002541 0.002259
# 3 -0.002562 -0.001764 0.014520 0.001665 0.005303 0.000258
# 4 0.000464 0.003266 0.001665 0.031577 0.009356 0.000644
# 5 0.001311 0.002541 0.005303 0.009356 0.025813 -0.000405
# 6 0.002580 0.002259 0.000258 0.000644 -0.000405 0.026405
#
#
# Mechanical properties :
#
#
# Convention : Reuss Voigt Hill
#
# Bulk Modulus (GPa) = 49.86453 74.82725 62.34589
# Shear Modulus (GPa) = 38.44327 46.98399 42.71363
#
# Velocity S-wave (km/s) = 3.94595 4.36231 4.15934
# Velocity P-wave (km/s) = 6.39978 7.46190 6.95116
#
# Compressibility (1/GPa) = 0.02005433
#
# Stress axis : x y z
#
# Youngs Moduli (GPa) = 177.78695 103.38047 68.86868
#
# Poissons Ratio (x) = 0.05747 0.17644
# Poissons Ratio (y) = 0.09883 0.12149
# Poissons Ratio (z) = 0.45548 0.18237
#
# Static dielectric constant tensor:
#      x y z
#    x 2.000100 0.014580 0.044750 
#    y 0.014580 2.148930 0.088840 
#    z 0.044750 0.088840 2.053710 
# 
# From -- ./inp_files/217909.got.cif
#   From: 2010.05.17/outbox.cif.g08.bks.cpg/sg2_109_cif.got.tgz:217909.got - 2010.06.03 11:33:40.
