data_PCOD9056370
_publ_section_title
;
Structure prediction by ZEFSAII (Michael W. Deem and Ramdas Pophale) SiO2 
 PCOD9056370
Probable space group: P -1
;
_chemical_formula_sum "Si O2"
_cell_formula_units_Z 13
_cell_length_a 11.925818
_cell_length_b 14.023226
_cell_length_c 11.837703
_cell_angle_alpha 127.784135
_cell_angle_beta 138.981539
_cell_angle_gamma 29.750223
_cell_volume 639.257058
_symmetry_space_group_name_H-M "P -1"
_symmetry_group_IT_number 2
_symmetry_cell_setting 'triclinic'
loop_
_space_group_symop_operation_xyz
x,y,z
-x,-y,-z
loop_
_atom_site_type_symbol
_atom_site_label
_atom_site_fract_x
_atom_site_fract_y
_atom_site_fract_z
Si Si1 0.300928 0.798483 0.540468
Si Si2 0.286509 0.402121 0.607569
Si Si3 0.496454 0.102730 0.395136
Si Si4 0.204556 0.590675 0.247816
Si Si5 0.500000 0.500000 0.000000
Si Si6 0.934829 0.672342 0.338118
Si Si7 0.898932 0.415308 0.082240
O O1 0.427021 0.841537 0.601922
O O2 0.266584 0.698187 0.365455
O O3 0.513087 0.638650 0.682500
O O4 0.000000 0.000000 0.500000
O O5 0.489604 0.181682 0.564140
O O6 0.000000 0.500000 0.500000
O O7 0.194958 0.520844 0.509330
O O8 0.399249 0.432502 0.805904
O O9 0.187231 0.230187 0.229322
O O10 0.711079 0.877575 0.379272
O O11 0.026945 0.671047 0.285287
O O12 0.064367 0.622687 0.051198
O O13 0.666899 0.456083 0.982680
O O14 0.834322 0.591506 0.183378
#
# Coordination Sequence:
#
# PCOD9056370 Si02
#       7
#     2   2   2   2   1   2   2
#     4  11  22  38  63  98 133 174 223 277 342 405
#     4  11  23  48  71  95 135 180 226 284 338 402
#     4  11  23  43  67 100 138 176 222 284 345 400
#     4  11  23  41  68  98 135 178 225 278 344 406
#     4  12  24  48  72  94 134 182 232 280 340 400
#     4  11  23  43  70 100 135 178 223 280 349 403
#     4  11  25  43  66  98 137 181 226 283 336 403
#
# _framework density 20.336106999999998
#
# number of rings (size 3 to 8) (size 9 to 14) (size 15 to 20)
#    0.000    0.923    7.692    1.385    2.154    2.462 
#    0.000    3.077    0.000    0.000    0.000    0.000 
#    0.000    0.000    0.000    0.000    0.000    0.000 
#
# Total GULP energy -72368.122064 kJ/mol
# GULP energy per Si atom -5566.778620 kJ/mol
# Density = 2.028982 g / cm^3
# Si number density = 20.336107 Si / 1000 Ang^3
#
#
#
# Elastic Constant Matrix: (Units=GPa)
#
#
# Indices 1 2 3 4 5 6 
#
# 1 81.7678 18.9150 19.4929 13.9221 9.6175 -16.3017
# 2 18.9150 122.0260 19.2952 13.9361 4.9812 -17.3402
# 3 19.4929 19.2952 111.8946 25.6471 -5.5407 -8.8183
# 4 13.9221 13.9361 25.6471 14.2370 -5.4835 -2.5953
# 5 9.6175 4.9812 -5.5407 -5.4835 40.8639 8.0923
# 6 -16.3017 -17.3402 -8.8183 -2.5953 8.0923 22.2591
#
#
#
# Elastic Compliance Matrix: (Units=1/GPa)
#
#
# Indices 1 2 3 4 5 6 
#
# 1 0.022277 0.003483 0.004510 -0.034743 -0.014050 0.021872
# 2 0.003483 0.011640 0.002610 -0.019885 -0.007112 0.012919
# 3 0.004510 0.002610 0.016861 -0.037907 -0.006125 0.009823
# 4 -0.034743 -0.019885 -0.037907 0.199296 0.041684 -0.047871
# 5 -0.014050 -0.007112 -0.006125 0.041684 0.038858 -0.027523
# 6 0.021872 0.012919 0.009823 -0.047871 -0.027523 0.079324
#
#
# Mechanical properties :
#
#
# Convention : Reuss Voigt Hill
#
# Bulk Modulus (GPa) = 13.89205 47.89939 30.89572
# Shear Modulus (GPa) = 13.47547 32.67101 23.07324
#
# Velocity S-wave (km/s) = 2.57697 4.01253 3.37203
# Velocity P-wave (km/s) = 3.96237 6.71358 5.51238
#
# Compressibility (1/GPa) = 0.07198360
#
# Stress axis : x y z
#
# Youngs Moduli (GPa) = 44.88839 85.91392 59.30959
#
# Poissons Ratio (x) = -0.29925 -0.26747
# Poissons Ratio (y) = -0.15635 -0.15480
# Poissons Ratio (z) = -0.20244 -0.22423
#
# Static dielectric constant tensor:
#      x y z
#    x 1.780140 -0.021270 -0.014720 
#    y -0.021270 1.739540 0.000380 
#    z -0.014720 0.000380 1.709320 
# 
# From -- ./inp_files/247471.got.cif
#   From: 2010.05.17/outbox.cif.g08.bks.cpg/sg2_124_cif.got.tgz:247471.got - 2010.06.03 11:33:40.
