data_PCOD9056247
_publ_section_title
;
Structure prediction by ZEFSAII (Michael W. Deem and Ramdas Pophale) SiO2 
 PCOD9056247
Probable space group: P -1
;
_chemical_formula_sum "Si O2"
_cell_formula_units_Z 14
_cell_length_a 9.398977
_cell_length_b 8.300945
_cell_length_c 24.139352
_cell_angle_alpha 42.604771
_cell_angle_beta 142.335993
_cell_angle_gamma 109.842856
_cell_volume 630.113006
_symmetry_space_group_name_H-M "P -1"
_symmetry_group_IT_number 2
_symmetry_cell_setting 'triclinic'
loop_
_space_group_symop_operation_xyz
x,y,z
-x,-y,-z
loop_
_atom_site_type_symbol
_atom_site_label
_atom_site_fract_x
_atom_site_fract_y
_atom_site_fract_z
Si Si1 0.940062 0.260644 0.490046
Si Si2 0.302295 0.084835 0.545908
Si Si3 0.749125 0.765946 0.678799
Si Si4 0.146052 0.948797 0.747943
Si Si5 0.165985 0.675516 0.335271
Si Si6 0.425585 0.941984 0.145878
Si Si7 0.946924 0.126597 0.871932
O O1 0.705671 0.607112 0.323127
O O2 0.229155 0.145401 0.573179
O O3 0.996487 0.170471 0.593887
O O4 0.816798 0.092618 0.468247
O O5 0.132326 0.410796 0.384799
O O6 0.624111 0.898306 0.667946
O O7 0.792907 0.460877 0.761389
O O8 0.500000 0.000000 0.500000
O O9 0.036557 0.744474 0.761734
O O10 0.472414 0.846413 0.872408
O O11 0.023137 0.120227 0.724268
O O12 0.500000 0.500000 0.500000
O O13 0.093248 0.849512 0.211913
O O14 0.203631 0.000805 0.110692
O O15 0.269791 0.965360 0.034712
#
# Coordination Sequence:
#
# PCOD9056247 Si02
#       7
#     2   2   2   2   2   2   2
#     4  11  22  40  64  97 121 162 208 258 301 378
#     4  11  22  36  65  94 123 159 207 256 315 351
#     4  12  20  41  64  93 122 164 202 260 304 372
#     4  12  24  37  68  95 125 156 217 261 303 352
#     4  12  22  37  64  98 115 160 205 266 302 364
#     4  11  24  41  63  91 127 170 199 260 310 368
#     4  11  25  43  64  85 133 166 208 243 325 373
#
# _framework density 22.218236000000001
#
# number of rings (size 3 to 8) (size 9 to 14) (size 15 to 20)
#    0.000    0.571    7.143    1.286    2.000    1.143 
#    0.000    0.000    3.143    3.429    0.000    0.000 
#    0.000    0.000    0.000    0.000    0.000    0.000 
#
# Total GULP energy -78251.766850 kJ/mol
# GULP energy per Si atom -5589.411918 kJ/mol
# Density = 2.216767 g / cm^3
# Si number density = 22.218236 Si / 1000 Ang^3
#
#
#
# Elastic Constant Matrix: (Units=GPa)
#
#
# Indices 1 2 3 4 5 6 
#
# 1 125.6642 20.4491 23.9663 24.8970 -15.1570 1.4012
# 2 20.4491 64.0854 -1.8183 11.7697 4.1908 17.3003
# 3 23.9663 -1.8183 60.6544 17.1511 -15.1316 -3.1334
# 4 24.8970 11.7697 17.1511 28.2020 -5.3811 5.9398
# 5 -15.1570 4.1908 -15.1316 -5.3811 25.2394 13.2944
# 6 1.4012 17.3003 -3.1334 5.9398 13.2944 53.2760
#
#
#
# Elastic Compliance Matrix: (Units=1/GPa)
#
#
# Indices 1 2 3 4 5 6 
#
# 1 0.010442 -0.002465 -0.001200 -0.006612 0.004516 0.000065
# 2 -0.002465 0.019135 0.002750 -0.006865 -0.001982 -0.004727
# 3 -0.001200 0.002750 0.022982 -0.011895 0.010486 -0.000800
# 4 -0.006612 -0.006865 -0.011895 0.053306 0.004186 -0.005284
# 5 0.004516 -0.001982 0.010486 0.004186 0.056974 -0.013542
# 6 0.000065 -0.004727 -0.000800 -0.005284 -0.013542 0.024225
#
#
# Mechanical properties :
#
#
# Convention : Reuss Voigt Hill
#
# Bulk Modulus (GPa) = 19.71256 37.28869 28.50063
# Shear Modulus (GPa) = 24.29510 35.19728 29.74619
#
# Velocity S-wave (km/s) = 3.31036 3.98447 3.66296
# Velocity P-wave (km/s) = 4.84797 6.16339 5.54483
#
# Compressibility (1/GPa) = 0.05072908
#
# Stress axis : x y z
#
# Youngs Moduli (GPa) = 95.77127 52.25978 43.51280
#
# Poissons Ratio (x) = 0.12880 0.05222
# Poissons Ratio (y) = 0.23603 -0.11966
# Poissons Ratio (z) = 0.11493 -0.14371
#
# Static dielectric constant tensor:
#      x y z
#    x 1.878580 0.050500 0.024220 
#    y 0.050500 1.847090 0.027930 
#    z 0.024220 0.027930 1.805930 
# 
# From -- ./inp_files/216372.got.cif
#   From: 2010.05.17/outbox.cif.g08.bks.cpg/sg2_109_cif.got.tgz:216372.got - 2010.06.03 11:33:40.
