data_PCOD9056064
_publ_section_title
;
Structure prediction by ZEFSAII (Michael W. Deem and Ramdas Pophale) SiO2 
 PCOD9056064
Probable space group: P -1
;
_chemical_formula_sum "Si O2"
_cell_formula_units_Z 16
_cell_length_a 10.700784
_cell_length_b 8.908293
_cell_length_c 13.428725
_cell_angle_alpha 34.706219
_cell_angle_beta 91.486106
_cell_angle_gamma 104.184471
_cell_volume 669.960120
_symmetry_space_group_name_H-M "P -1"
_symmetry_group_IT_number 2
_symmetry_cell_setting 'triclinic'
loop_
_space_group_symop_operation_xyz
x,y,z
-x,-y,-z
loop_
_atom_site_type_symbol
_atom_site_label
_atom_site_fract_x
_atom_site_fract_y
_atom_site_fract_z
Si Si1 0.807008 0.305124 0.032453
Si Si2 0.681088 0.217471 0.660238
Si Si3 0.051978 0.450855 0.807385
Si Si4 0.794942 0.986816 0.399431
Si Si5 0.826813 0.831923 0.878894
Si Si6 0.552951 0.837775 0.169235
Si Si7 0.479120 0.771658 0.537350
Si Si8 0.948612 0.651646 0.520528
O O1 0.849077 0.142671 0.210359
O O2 0.681433 0.070525 0.100608
O O3 0.927405 0.425392 0.890723
O O4 0.780826 0.554708 0.956063
O O5 0.568202 0.272075 0.692994
O O6 0.622295 0.182371 0.568372
O O7 0.825122 0.476467 0.540423
O O8 0.706130 0.934912 0.844316
O O9 0.001530 0.441996 0.698079
O O10 0.164321 0.771585 0.647692
O O11 0.113022 0.244240 0.976329
O O12 0.633596 0.849062 0.461896
O O13 0.873128 0.779612 0.528800
O O14 0.935256 0.092844 0.674550
O O15 0.577264 0.573066 0.264240
O O16 0.500000 0.000000 0.000000
O O17 0.500000 0.000000 0.500000
#
# Coordination Sequence:
#
# PCOD9056064 Si02
#       8
#     2   2   2   2   2   2   2   2
#     4  11  22  44  72 103 146 197 242 305 373 439
#     4  12  27  49  72 107 151 196 248 308 371 441
#     4  11  24  41  73 109 142 192 252 301 370 447
#     4  11  21  45  74 101 141 193 249 297 373 437
#     4  11  26  44  70 108 152 195 245 310 370 436
#     4  12  27  46  75 107 148 198 245 307 375 444
#     4  12  29  49  78 109 145 197 257 306 368 453
#     4  12  23  44  76 105 146 198 243 304 373 446
#
# _framework density 23.882019
#
# number of rings (size 3 to 8) (size 9 to 14) (size 15 to 20)
#    0.000    0.500    5.000    3.375    3.500    3.000 
#    0.000    0.000    0.000    0.000    0.000    0.000 
#    0.000    0.000    0.000    0.000    0.000    0.000 
#
# Total GULP energy -89503.920832 kJ/mol
# GULP energy per Si atom -5593.995052 kJ/mol
# Density = 2.382766 g / cm^3
# Si number density = 23.882019 Si / 1000 Ang^3
#
#
#
# Elastic Constant Matrix: (Units=GPa)
#
#
# Indices 1 2 3 4 5 6 
#
# 1 89.0135 50.8603 49.3916 -7.5164 14.5173 16.0670
# 2 50.8603 139.0263 66.8462 -8.3790 5.5741 33.3457
# 3 49.3916 66.8462 107.6713 -12.4132 25.0772 9.4511
# 4 -7.5164 -8.3790 -12.4132 47.0688 3.1768 2.9623
# 5 14.5173 5.5741 25.0772 3.1768 47.1690 -5.2906
# 6 16.0670 33.3457 9.4511 2.9623 -5.2906 40.2651
#
#
#
# Elastic Compliance Matrix: (Units=1/GPa)
#
#
# Indices 1 2 3 4 5 6 
#
# 1 0.016710 -0.002671 -0.004885 0.001327 -0.002742 -0.003767
# 2 -0.002671 0.013306 -0.006681 0.000571 0.001845 -0.008185
# 3 -0.004885 -0.006681 0.017429 0.002951 -0.006918 0.002265
# 4 0.001327 0.000571 0.002951 0.022855 -0.004022 -0.003905
# 5 -0.002742 0.001845 -0.006918 -0.004022 0.026330 0.004945
# 6 -0.003767 -0.008185 0.002265 -0.003905 0.004945 0.033523
#
#
# Mechanical properties :
#
#
# Convention : Reuss Voigt Hill
#
# Bulk Modulus (GPa) = 52.71146 74.43415 63.57281
# Shear Modulus (GPa) = 30.31240 38.14143 34.22691
#
# Velocity S-wave (km/s) = 3.56653 4.00068 3.78983
# Velocity P-wave (km/s) = 6.25137 7.25091 6.76962
#
# Compressibility (1/GPa) = 0.01897121
#
# Stress axis : x y z
#
# Youngs Moduli (GPa) = 59.84408 75.15421 57.37625
#
# Poissons Ratio (x) = 0.20073 0.28028
# Poissons Ratio (y) = 0.15983 0.38334
# Poissons Ratio (z) = 0.29233 0.50211
#
# Static dielectric constant tensor:
#      x y z
#    x 1.878170 -0.010800 0.005690 
#    y -0.010800 1.923600 -0.046760 
#    z 0.005690 -0.046760 1.925910 
# 
# From -- ./inp_files/514832.got.cif
#   From: 2010.05.17/outbox.cif.g08.bks.cpg/sg2_258_cif.got.tgz:514832.got - 2010.06.03 11:33:40.
