data_PCOD9056762
_publ_section_title
;
Structure prediction by ZEFSAII (Michael W. Deem and Ramdas Pophale) SiO2 
 PCOD9056762
Probable space group: P -1
;
_chemical_formula_sum "Si O2"
_cell_formula_units_Z 16
_cell_length_a 14.276038
_cell_length_b 28.508125
_cell_length_c 10.896678
_cell_angle_alpha 150.365986
_cell_angle_beta 151.173216
_cell_angle_gamma 20.077852
_cell_volume 704.682127
_symmetry_space_group_name_H-M "P -1"
_symmetry_group_IT_number 2
_symmetry_cell_setting 'triclinic'
loop_
_space_group_symop_operation_xyz
x,y,z
-x,-y,-z
loop_
_atom_site_type_symbol
_atom_site_label
_atom_site_fract_x
_atom_site_fract_y
_atom_site_fract_z
Si Si1 0.605842 0.373293 0.754097
Si Si2 0.823604 0.990866 0.691894
Si Si3 0.826956 0.468629 0.764245
Si Si4 0.526475 0.218267 0.422058
Si Si5 0.776741 0.335104 0.587731
Si Si6 0.776276 0.832374 0.911900
Si Si7 0.030043 0.936478 0.202118
Si Si8 0.165430 0.196124 0.376708
O O1 0.424571 0.345826 0.517717
O O2 0.635579 0.388357 0.681163
O O3 0.500000 0.500000 0.000000
O O4 0.930222 0.227272 0.838956
O O5 0.967296 0.834855 0.505158
O O6 0.482560 0.104127 0.586767
O O7 0.861319 0.022616 0.672532
O O8 0.000000 0.000000 0.000000
O O9 0.874316 0.401391 0.797614
O O10 0.482249 0.608119 0.668592
O O11 0.936113 0.349543 0.523112
O O12 0.000000 0.500000 0.000000
O O13 0.271705 0.244276 0.237920
O O14 0.713199 0.177428 0.664967
O O15 0.747418 0.076047 0.268925
O O16 0.810131 0.799894 0.733064
O O17 0.500000 0.000000 0.000000
O O18 0.935590 0.875433 0.885151
#
# Coordination Sequence:
#
# PCOD9056762 Si02
#       8
#     2   2   2   2   2   2   2   2
#     4  12  26  44  69 104 143 175 227 283 337 412
#     4  12  25  43  69 105 137 173 236 290 337 394
#     4  11  27  49  71  93 136 190 232 274 343 408
#     4  11  22  40  69  99 137 184 219 270 346 406
#     4  11  26  47  68  99 139 179 222 287 342 399
#     4  12  22  41  71 105 135 179 228 277 343 412
#     4  11  22  40  69 100 137 177 223 280 342 402
#     4  12  24  42  73 103 133 180 234 280 335 409
#
# _framework density 22.705272999999998
#
# number of rings (size 3 to 8) (size 9 to 14) (size 15 to 20)
#    0.000    0.500    5.000    3.750    0.000    6.500 
#    0.000    0.000    0.000    0.000    0.000    0.000 
#    0.000    0.000    0.000    0.000    0.000    0.000 
#
# Total GULP energy -89609.463224 kJ/mol
# GULP energy per Si atom -5600.591452 kJ/mol
# Density = 2.265360 g / cm^3
# Si number density = 22.705273 Si / 1000 Ang^3
#
#
#
# Elastic Constant Matrix: (Units=GPa)
#
#
# Indices 1 2 3 4 5 6 
#
# 1 144.2861 16.9436 19.5242 17.6564 22.4372 26.2035
# 2 16.9436 67.3197 8.0437 3.1483 4.5668 1.7233
# 3 19.5242 8.0437 82.3312 7.5688 18.3868 10.3377
# 4 17.6564 3.1483 7.5688 32.5365 -0.7536 4.1266
# 5 22.4372 4.5668 18.3868 -0.7536 50.1266 6.0287
# 6 26.2035 1.7233 10.3377 4.1266 6.0287 29.2486
#
#
#
# Elastic Compliance Matrix: (Units=1/GPa)
#
#
# Indices 1 2 3 4 5 6 
#
# 1 0.009443 -0.001774 -0.000073 -0.004113 -0.003249 -0.007080
# 2 -0.001774 0.015448 -0.001122 -0.000433 -0.000354 0.001210
# 3 -0.000073 -0.001122 0.013996 -0.002774 -0.004623 -0.003471
# 4 -0.004113 -0.000433 -0.002774 0.033837 0.003504 -0.000805
# 5 -0.003249 -0.000354 -0.004623 0.003504 0.023272 -0.000726
# 6 -0.007080 0.001210 -0.003471 -0.000805 -0.000726 0.041951
#
#
# Mechanical properties :
#
#
# Convention : Reuss Voigt Hill
#
# Bulk Modulus (GPa) = 30.34938 42.55112 36.45025
# Shear Modulus (GPa) = 32.28532 39.01070 35.64801
#
# Velocity S-wave (km/s) = 3.77494 4.14953 3.96666
# Velocity P-wave (km/s) = 5.69174 6.46061 6.08833
#
# Compressibility (1/GPa) = 0.03294960
#
# Stress axis : x y z
#
# Youngs Moduli (GPa) = 105.89672 64.73205 71.44700
#
# Poissons Ratio (x) = 0.11483 0.00525
# Poissons Ratio (y) = 0.18786 0.08014
# Poissons Ratio (z) = 0.00778 0.07261
#
# Static dielectric constant tensor:
#      x y z
#    x 1.864510 0.041800 0.010470 
#    y 0.041800 1.806380 -0.014100 
#    z 0.010470 -0.014100 1.857160 
# 
# From -- ./inp_files/458412.got.cif
#   From: 2010.05.17/outbox.cif.g08.bks.cpg/sg2_230_cif.got.tgz:458412.got - 2010.06.03 11:33:40.
