data_PCOD9056464
_publ_section_title
;
Structure prediction by ZEFSAII (Michael W. Deem and Ramdas Pophale) SiO2 
 PCOD9056464
Probable space group: P -1
;
_chemical_formula_sum "Si O2"
_cell_formula_units_Z 16
_cell_length_a 14.443077
_cell_length_b 9.388883
_cell_length_c 11.122316
_cell_angle_alpha 108.723655
_cell_angle_beta 61.781027
_cell_angle_gamma 57.566973
_cell_volume 712.129939
_symmetry_space_group_name_H-M "P -1"
_symmetry_group_IT_number 2
_symmetry_cell_setting 'triclinic'
loop_
_space_group_symop_operation_xyz
x,y,z
-x,-y,-z
loop_
_atom_site_type_symbol
_atom_site_label
_atom_site_fract_x
_atom_site_fract_y
_atom_site_fract_z
Si Si1 0.650695 0.411172 0.304658
Si Si2 0.185309 0.074642 0.002676
Si Si3 0.056073 0.979780 0.595928
Si Si4 0.219530 0.234166 0.794332
Si Si5 0.293097 0.406956 0.961719
Si Si6 0.374707 0.851552 0.391916
Si Si7 0.437937 0.993308 0.917150
Si Si8 0.193919 0.556125 0.580775
O O1 0.500000 0.500000 0.500000
O O2 0.534154 0.601086 0.314118
O O3 0.741048 0.429344 0.337711
O O4 0.802614 0.115181 0.084238
O O5 0.977466 0.347310 0.249299
O O6 0.254175 0.073483 0.836898
O O7 0.333853 0.955826 0.977145
O O8 0.223107 0.904811 0.471390
O O9 0.122531 0.760310 0.578144
O O10 0.000000 0.000000 0.500000
O O11 0.877170 0.277818 0.842022
O O12 0.294530 0.307206 0.810419
O O13 0.286044 0.090969 0.588643
O O14 0.000000 0.500000 0.000000
O O15 0.494306 0.242301 0.819388
O O16 0.282757 0.286242 0.033180
O O17 0.624460 0.744962 0.658803
O O18 0.500000 0.000000 0.000000
#
# Coordination Sequence:
#
# PCOD9056464 Si02
#       8
#     2   2   2   2   2   2   2   2
#     4  12  20  41  67  95 129 164 205 262 327 380
#     4  11  24  40  65  97 128 164 211 263 316 383
#     4  12  26  45  65  94 131 171 219 269 314 374
#     4  11  22  39  62  93 131 161 199 260 321 379
#     4  11  26  41  66  99 126 170 215 260 327 382
#     4  12  24  42  67  95 135 167 207 265 325 386
#     4  11  25  46  65  91 130 173 222 266 308 375
#     4  12  25  42  70  96 127 172 216 262 325 383
#
# _framework density 22.46781
#
# number of rings (size 3 to 8) (size 9 to 14) (size 15 to 20)
#    0.000    0.500    5.000    3.000    3.500    2.000 
#    0.000    0.000    0.000    0.000    0.000    0.000 
#    0.000    0.000    0.000    0.000    0.000    0.000 
#
# Total GULP energy -89420.786318 kJ/mol
# GULP energy per Si atom -5588.799145 kJ/mol
# Density = 2.241667 g / cm^3
# Si number density = 22.467810 Si / 1000 Ang^3
#
#
#
# Elastic Constant Matrix: (Units=GPa)
#
#
# Indices 1 2 3 4 5 6 
#
# 1 144.7457 16.6234 50.7744 -16.0892 -1.9497 -14.2872
# 2 16.6234 68.6993 6.6070 16.5479 10.0805 -4.4676
# 3 50.7744 6.6070 99.7371 15.8118 -21.1302 11.2478
# 4 -16.0892 16.5479 15.8118 31.0350 6.5404 -5.4825
# 5 -1.9497 10.0805 -21.1302 6.5404 42.2923 -5.0230
# 6 -14.2872 -4.4676 11.2478 -5.4825 -5.0230 28.5795
#
#
#
# Elastic Compliance Matrix: (Units=1/GPa)
#
#
# Indices 1 2 3 4 5 6 
#
# 1 0.018231 -0.006849 -0.016762 0.026534 -0.007825 0.018355
# 2 -0.006849 0.019610 0.005702 -0.017966 -0.000083 -0.006063
# 3 -0.016762 0.005702 0.029319 -0.033879 0.015038 -0.022883
# 4 0.026534 -0.017966 -0.033879 0.083445 -0.020017 0.036279
# 5 -0.007825 -0.000083 0.015038 -0.020017 0.032976 -0.007888
# 6 0.018355 -0.006063 -0.022883 0.036279 -0.007888 0.057797
#
#
# Mechanical properties :
#
#
# Convention : Reuss Voigt Hill
#
# Bulk Modulus (GPa) = 31.90462 51.24352 41.57407
# Shear Modulus (GPa) = 17.38264 36.32652 26.85458
#
# Velocity S-wave (km/s) = 2.78451 4.02534 3.46098
# Velocity P-wave (km/s) = 4.95671 6.66795 5.87497
#
# Compressibility (1/GPa) = 0.03134343
#
# Stress axis : x y z
#
# Youngs Moduli (GPa) = 54.85281 50.99338 34.10726
#
# Poissons Ratio (x) = 0.34925 0.57169
# Poissons Ratio (y) = 0.37568 -0.19448
# Poissons Ratio (z) = 0.91942 -0.29076
#
# Static dielectric constant tensor:
#      x y z
#    x 1.999860 0.563340 -0.095130 
#    y 0.563340 3.948290 -0.267240 
#    z -0.095130 -0.267240 1.920920 
# 
# From -- ./inp_files/447822.got.cif
#   From: 2010.05.17/outbox.cif.g08.bks.cpg/sg2_224_cif.got.tgz:447822.got - 2010.06.03 11:33:40.
