data_PCOD9056579
_publ_section_title
;
Structure prediction by ZEFSAII (Michael W. Deem and Ramdas Pophale) SiO2 
 PCOD9056579
Probable space group: P -1
;
_chemical_formula_sum "Si O2"
_cell_formula_units_Z 16
_cell_length_a 11.751185
_cell_length_b 8.794593
_cell_length_c 18.278502
_cell_angle_alpha 150.773823
_cell_angle_beta 127.567344
_cell_angle_gamma 45.648141
_cell_volume 659.523335
_symmetry_space_group_name_H-M "P -1"
_symmetry_group_IT_number 2
_symmetry_cell_setting 'triclinic'
loop_
_space_group_symop_operation_xyz
x,y,z
-x,-y,-z
loop_
_atom_site_type_symbol
_atom_site_label
_atom_site_fract_x
_atom_site_fract_y
_atom_site_fract_z
Si Si1 0.675085 0.415185 0.565354
Si Si2 0.772475 0.629217 0.266572
Si Si3 0.592787 0.652814 0.345378
Si Si4 0.405199 0.255473 0.168196
Si Si5 0.845070 0.318377 0.858027
Si Si6 0.295494 0.310860 0.896581
Si Si7 0.896845 0.628320 0.643448
Si Si8 0.877217 0.132823 0.319417
O O1 0.500000 0.500000 0.500000
O O2 0.655957 0.531900 0.691415
O O3 0.766329 0.600024 0.634411
O O4 0.772268 0.005248 0.424783
O O5 0.629172 0.678611 0.286154
O O6 0.730820 0.542186 0.133286
O O7 0.949722 0.374002 0.255684
O O8 0.508892 0.406152 0.226110
O O9 0.767118 0.459809 0.366648
O O10 0.500000 0.000000 0.500000
O O11 0.260599 0.354142 0.096751
O O12 0.523782 0.872525 0.079747
O O13 0.815308 0.970817 0.705069
O O14 0.812988 0.432540 0.976949
O O15 0.012549 0.157149 0.814838
O O16 0.236314 0.006962 0.743593
O O17 0.958118 0.283276 0.472646
#
# Coordination Sequence:
#
# PCOD9056579 Si02
#       8
#     2   2   2   2   2   2   2   2
#     4  12  23  43  71 105 139 175 227 285 349 402
#     4  12  24  43  69 102 142 173 229 279 355 403
#     4  11  22  39  69 105 136 173 219 294 341 401
#     4  11  24  42  70  99 133 182 235 276 340 406
#     4  12  26  45  68 100 139 181 234 280 338 410
#     4  11  26  46  67  96 143 187 222 277 348 416
#     4  12  26  43  70 108 133 176 229 292 337 400
#     4  11  23  45  67 102 135 178 230 278 344 405
#
# _framework density 24.259944999999998
#
# number of rings (size 3 to 8) (size 9 to 14) (size 15 to 20)
#    0.000    0.500    5.000    3.750    3.500    0.500 
#    0.000    3.750    0.000    0.000    0.000    0.000 
#    0.000    0.000    0.000    0.000    0.000    0.000 
#
# Total GULP energy -89474.134396 kJ/mol
# GULP energy per Si atom -5592.133400 kJ/mol
# Density = 2.420473 g / cm^3
# Si number density = 24.259945 Si / 1000 Ang^3
#
#
#
# Elastic Constant Matrix: (Units=GPa)
#
#
# Indices 1 2 3 4 5 6 
#
# 1 124.4215 31.6760 14.5895 -14.0123 -32.8454 8.8454
# 2 31.6760 114.3987 29.0866 -9.8744 -33.4690 -14.0995
# 3 14.5895 29.0866 77.4805 -11.7108 -40.1013 -5.6190
# 4 -14.0123 -9.8744 -11.7108 28.9385 12.8418 -11.9771
# 5 -32.8454 -33.4690 -40.1013 12.8418 46.9909 -5.4350
# 6 8.8454 -14.0995 -5.6190 -11.9771 -5.4350 29.9213
#
#
#
# Elastic Compliance Matrix: (Units=1/GPa)
#
#
# Indices 1 2 3 4 5 6 
#
# 1 0.010488 -0.001108 0.003130 0.001836 0.008627 -0.000733
# 2 -0.001108 0.013306 0.002130 0.004669 0.010490 0.010772
# 3 0.003130 0.002130 0.027191 0.006723 0.026540 0.012696
# 4 0.001836 0.004669 0.006723 0.049334 -0.000526 0.022572
# 5 0.008627 0.010490 0.026540 -0.000526 0.059657 0.018003
# 6 -0.000733 0.010772 0.012696 0.022572 0.018003 0.053403
#
#
# Mechanical properties :
#
#
# Convention : Reuss Voigt Hill
#
# Bulk Modulus (GPa) = 16.86652 51.88943 34.37798
# Shear Modulus (GPa) = 22.23811 37.23341 29.73576
#
# Velocity S-wave (km/s) = 3.03092 3.92186 3.50482
# Velocity P-wave (km/s) = 4.38363 6.47637 5.52990
#
# Compressibility (1/GPa) = 0.05928904
#
# Stress axis : x y z
#
# Youngs Moduli (GPa) = 95.34330 75.15170 36.77722
#
# Poissons Ratio (x) = 0.08327 -0.11512
# Poissons Ratio (y) = 0.10565 -0.07832
# Poissons Ratio (z) = -0.29844 -0.16005
#
# Static dielectric constant tensor:
#      x y z
#    x 1.923620 -0.019980 0.026020 
#    y -0.019980 2.018670 -0.040290 
#    z 0.026020 -0.040290 1.944410 
# 
# From -- ./inp_files/199622.got.cif
#   From: 2010.05.17/outbox.cif.g08.bks.cpg/sg2_100_cif.got.tgz:199622.got - 2010.06.03 11:33:40.
