data_PCOD9056325
_publ_section_title
;
Structure prediction by ZEFSAII (Michael W. Deem and Ramdas Pophale) SiO2 
 PCOD9056325
Probable space group: P -1
;
_chemical_formula_sum "Si O2"
_cell_formula_units_Z 14
_cell_length_a 31.050669
_cell_length_b 24.811454
_cell_length_c 15.272728
_cell_angle_alpha 18.486812
_cell_angle_beta 160.790518
_cell_angle_gamma 169.457192
_cell_volume 668.047018
_symmetry_space_group_name_H-M "P -1"
_symmetry_group_IT_number 2
_symmetry_cell_setting 'triclinic'
loop_
_space_group_symop_operation_xyz
x,y,z
-x,-y,-z
loop_
_atom_site_type_symbol
_atom_site_label
_atom_site_fract_x
_atom_site_fract_y
_atom_site_fract_z
Si Si1 0.911901 0.096345 0.670984
Si Si2 0.726368 0.167873 0.949494
Si Si3 0.695739 0.811023 0.213094
Si Si4 0.924247 0.880982 0.395886
Si Si5 0.222754 0.138799 0.413830
Si Si6 0.713429 0.210803 0.654203
Si Si7 0.458495 0.815863 0.279408
O O1 0.103099 0.436931 0.550281
O O2 0.887006 0.077474 0.547272
O O3 0.661903 0.892345 0.545367
O O4 0.000000 0.000000 0.000000
O O5 0.675229 0.166509 0.753984
O O6 0.555872 0.093412 0.799149
O O7 0.000000 0.500000 0.000000
O O8 0.678568 0.912818 0.260033
O O9 0.732503 0.792420 0.212400
O O10 0.425643 0.483824 0.232450
O O11 0.853941 0.875155 0.486472
O O12 0.796756 0.110065 0.951788
O O13 0.793998 0.556287 0.643861
O O14 0.029908 0.024018 0.281663
O O15 0.500000 0.000000 0.500000
O O16 0.500000 0.000000 0.000000
#
# Coordination Sequence:
#
# PCOD9056325 Si02
#       7
#     2   2   2   2   2   2   2
#     4  12  26  47  71  99 142 188 233 295 361 421
#     4  12  21  42  73 104 133 182 245 295 345 417
#     4  11  23  41  64 103 145 180 218 292 362 413
#     4  11  22  37  67 105 136 175 232 292 347 409
#     4  12  22  43  73 101 139 183 239 290 349 421
#     4  12  26  46  67  96 146 184 228 295 363 420
#     4  12  21  41  73 105 134 182 248 297 343 423
#
# _framework density 20.956607999999999
#
# number of rings (size 3 to 8) (size 9 to 14) (size 15 to 20)
#    0.000    0.286    7.143    2.143    0.000    1.143 
#    2.571    2.143    0.000    0.000    0.000    0.000 
#    0.000    0.000    0.000    0.000    0.000    0.000 
#
# Total GULP energy -78113.706009 kJ/mol
# GULP energy per Si atom -5579.550429 kJ/mol
# Density = 2.090891 g / cm^3
# Si number density = 20.956608 Si / 1000 Ang^3
#
#
#
# Elastic Constant Matrix: (Units=GPa)
#
#
# Indices 1 2 3 4 5 6 
#
# 1 155.7882 40.0604 22.3731 4.2120 20.7703 15.1589
# 2 40.0604 108.2514 27.4599 -11.9758 0.0659 -0.0070
# 3 22.3731 27.4599 84.2476 -6.7810 11.1121 14.9071
# 4 4.2120 -11.9758 -6.7810 34.1971 -12.9548 0.6614
# 5 20.7703 0.0659 11.1121 -12.9548 34.3668 6.7110
# 6 15.1589 -0.0070 14.9071 0.6614 6.7110 35.9898
#
#
#
# Elastic Compliance Matrix: (Units=1/GPa)
#
#
# Indices 1 2 3 4 5 6 
#
# 1 0.008604 -0.003653 -0.000229 -0.004801 -0.006493 -0.002231
# 2 -0.003653 0.012139 -0.003535 0.005927 0.005185 0.001929
# 3 -0.000229 -0.003535 0.014499 0.000512 -0.003314 -0.005301
# 4 -0.004801 0.005927 0.000512 0.038789 0.017779 -0.002217
# 5 -0.006493 0.005185 -0.003314 0.017779 0.041561 -0.003968
# 6 -0.002231 0.001929 -0.005301 -0.002217 -0.003968 0.031702
#
#
# Mechanical properties :
#
#
# Convention : Reuss Voigt Hill
#
# Bulk Modulus (GPa) = 49.00184 58.67490 53.83837
# Shear Modulus (GPa) = 29.59793 38.13699 33.86746
#
# Velocity S-wave (km/s) = 3.76219 4.27055 4.02441
# Velocity P-wave (km/s) = 6.50426 7.23712 6.88045
#
# Compressibility (1/GPa) = 0.02040740
#
# Stress axis : x y z
#
# Youngs Moduli (GPa) = 116.22720 82.37940 68.96932
#
# Poissons Ratio (x) = 0.30094 0.01583
# Poissons Ratio (y) = 0.42459 0.24378
# Poissons Ratio (z) = 0.02667 0.29118
#
# Static dielectric constant tensor:
#      x y z
#    x 1.779910 0.010600 -0.013670 
#    y 0.010600 1.811840 0.026740 
#    z -0.013670 0.026740 1.804440 
# 
# From -- ./inp_files/174478.got.cif
#   From: 2010.05.17/outbox.cif.g08.bks.cpg/sg2_88_cif.got.tgz:174478.got - 2010.06.03 11:33:40.
