data_PCOD9056564
_publ_section_title
;
Structure prediction by ZEFSAII (Michael W. Deem and Ramdas Pophale) SiO2 
 PCOD9056564
Probable space group: P -1
;
_chemical_formula_sum "Si O2"
_cell_formula_units_Z 14
_cell_length_a 11.977984
_cell_length_b 13.510281
_cell_length_c 19.629970
_cell_angle_alpha 151.091993
_cell_angle_beta 156.335671
_cell_angle_gamma 34.862708
_cell_volume 613.475622
_symmetry_space_group_name_H-M "P -1"
_symmetry_group_IT_number 2
_symmetry_cell_setting 'triclinic'
loop_
_space_group_symop_operation_xyz
x,y,z
-x,-y,-z
loop_
_atom_site_type_symbol
_atom_site_label
_atom_site_fract_x
_atom_site_fract_y
_atom_site_fract_z
Si Si1 0.917811 0.222663 0.554010
Si Si2 0.040721 0.588412 0.169255
Si Si3 0.549863 0.804958 0.822231
Si Si4 0.616529 0.089948 0.522799
Si Si5 0.393354 0.330589 0.786531
Si Si6 0.418510 0.469805 0.728854
Si Si7 0.870795 0.130534 0.249126
O O1 0.969228 0.381702 0.737430
O O2 0.604647 0.235172 0.358218
O O3 0.105952 0.276316 0.627768
O O4 0.000000 0.000000 0.500000
O O5 0.255929 0.388913 0.158085
O O6 0.180404 0.783731 0.334707
O O7 0.730750 0.552219 0.949477
O O8 0.314826 0.872260 0.787521
O O9 0.743987 0.988082 0.036289
O O10 0.432356 0.268889 0.567484
O O11 0.468419 0.907604 0.292265
O O12 0.826714 0.970631 0.622246
O O13 0.374018 0.425969 0.757560
O O14 0.500000 0.500000 0.000000
O O15 0.193016 0.641709 0.676782
#
# Coordination Sequence:
#
# PCOD9056564 Si02
#       7
#     2   2   2   2   2   2   2
#     4  12  23  44  71  96 134 186 234 282 341 407
#     4  12  22  42  74 102 138 180 232 290 341 403
#     4  11  22  39  68 109 134 173 236 287 337 409
#     4  12  24  46  72 104 139 183 234 284 338 411
#     4  12  27  46  69  99 140 188 232 278 349 414
#     4  12  25  44  72 104 144 180 223 290 349 408
#     4  11  22  39  71 103 138 174 227 285 347 404
#
# _framework density 22.820792999999998
#
# number of rings (size 3 to 8) (size 9 to 14) (size 15 to 20)
#    0.000    0.286    7.143    3.857    0.000    0.571 
#    0.000    0.000    0.000    6.000    0.000    0.000 
#    0.000    0.000    0.000    0.000    0.000    0.000 
#
# Total GULP energy -78253.699704 kJ/mol
# GULP energy per Si atom -5589.549979 kJ/mol
# Density = 2.276885 g / cm^3
# Si number density = 22.820793 Si / 1000 Ang^3
#
#
#
# Elastic Constant Matrix: (Units=GPa)
#
#
# Indices 1 2 3 4 5 6 
#
# 1 80.8919 25.6275 14.1664 8.4047 -13.2914 14.1418
# 2 25.6275 144.9219 46.6416 19.2518 3.1909 -3.6112
# 3 14.1664 46.6416 141.5715 21.9920 -21.7147 -5.2250
# 4 8.4047 19.2518 21.9920 35.7384 -1.3974 -2.5952
# 5 -13.2914 3.1909 -21.7147 -1.3974 44.1262 8.7911
# 6 14.1418 -3.6112 -5.2250 -2.5952 8.7911 28.1299
#
#
#
# Elastic Compliance Matrix: (Units=1/GPa)
#
#
# Indices 1 2 3 4 5 6 
#
# 1 0.016910 -0.003238 0.000642 -0.003159 0.007843 -0.011540
# 2 -0.003238 0.008787 -0.002661 -0.002245 -0.003626 0.003187
# 3 0.000642 -0.002661 0.009276 -0.004296 0.004994 -0.000898
# 4 -0.003159 -0.002245 -0.004296 0.032788 -0.002738 0.004383
# 5 0.007843 -0.003626 0.004994 -0.002738 0.030287 -0.013199
# 6 -0.011540 0.003187 -0.000898 0.004383 -0.013199 0.046122
#
#
# Mechanical properties :
#
#
# Convention : Reuss Voigt Hill
#
# Bulk Modulus (GPa) = 40.88215 60.02847 50.45531
# Shear Modulus (GPa) = 30.70604 40.32890 35.51747
#
# Velocity S-wave (km/s) = 3.67213 4.20837 3.94936
# Velocity P-wave (km/s) = 5.99439 7.06931 6.55393
#
# Compressibility (1/GPa) = 0.02446055
#
# Stress axis : x y z
#
# Youngs Moduli (GPa) = 59.13780 113.81028 107.80577
#
# Poissons Ratio (x) = 0.36846 -0.06925
# Poissons Ratio (y) = 0.19146 0.28683
# Poissons Ratio (z) = -0.03799 0.30281
#
# Static dielectric constant tensor:
#      x y z
#    x 1.915940 -0.015070 0.036480 
#    y -0.015070 1.806800 0.041280 
#    z 0.036480 0.041280 1.936000 
# 
# From -- ./inp_files/457777.got.cif
#   From: 2010.05.17/outbox.cif.g08.bks.cpg/sg2_229_cif.got.tgz:457777.got - 2010.06.03 11:33:40.
