data_PCOD9056986
_publ_section_title
;
Structure prediction by ZEFSAII (Michael W. Deem and Ramdas Pophale) SiO2 
 PCOD9056986
Probable space group: P -1
;
_chemical_formula_sum "Si O2"
_cell_formula_units_Z 16
_cell_length_a 9.364830
_cell_length_b 19.249669
_cell_length_c 12.462745
_cell_angle_alpha 36.277410
_cell_angle_beta 107.309254
_cell_angle_gamma 133.198529
_cell_volume 782.720637
_symmetry_space_group_name_H-M "P -1"
_symmetry_group_IT_number 2
_symmetry_cell_setting 'triclinic'
loop_
_space_group_symop_operation_xyz
x,y,z
-x,-y,-z
loop_
_atom_site_type_symbol
_atom_site_label
_atom_site_fract_x
_atom_site_fract_y
_atom_site_fract_z
Si Si1 0.132573 0.514234 0.197392
Si Si2 0.188419 0.097931 0.823749
Si Si3 0.198607 0.813202 0.863033
Si Si4 0.357710 0.537665 0.421292
Si Si5 0.055935 0.276711 0.867018
Si Si6 0.782074 0.557194 0.915880
Si Si7 0.430812 0.377986 0.353803
Si Si8 0.410622 0.742450 0.593312
O O1 0.269616 0.519780 0.307266
O O2 0.116313 0.443261 0.166889
O O3 0.858620 0.376311 0.342046
O O4 0.269362 0.723927 0.961428
O O5 0.450480 0.252174 0.747280
O O6 0.228249 0.229193 0.584735
O O7 0.000000 0.000000 0.000000
O O8 0.093566 0.928646 0.947333
O O9 0.985634 0.711871 0.857024
O O10 0.408416 0.038413 0.623241
O O11 0.088349 0.748228 0.039585
O O12 0.500000 0.500000 0.500000
O O13 0.129032 0.390163 0.633968
O O14 0.323314 0.413305 0.804514
O O15 0.657806 0.597300 0.794099
O O16 0.610931 0.355689 0.185722
O O17 0.503231 0.292831 0.436150
#
# Coordination Sequence:
#
# PCOD9056986 Si02
#       8
#     2   2   2   2   2   2   2   2
#     4  11  25  46  67  96 134 178 222 272 338 397
#     4  11  23  40  66 100 133 170 219 274 332 393
#     4  11  24  44  66  98 134 175 225 273 331 396
#     4  11  24  45  69  96 133 174 218 275 335 395
#     4  11  22  41  67  94 135 170 216 276 328 392
#     4  11  25  42  69  99 134 176 227 275 331 391
#     4  11  23  43  70  98 134 177 220 276 333 389
#     4  11  23  44  68  96 136 175 222 274 332 397
#
# _framework density 20.441520000000001
#
# number of rings (size 3 to 8) (size 9 to 14) (size 15 to 20)
#    0.000    1.000    5.000    3.375    0.000    5.000 
#    0.000    1.250    0.000    0.000    0.000    0.000 
#    0.000    0.000    0.000    0.000    0.000    0.000 
#
# Total GULP energy -89359.186011 kJ/mol
# GULP energy per Si atom -5584.949126 kJ/mol
# Density = 2.039499 g / cm^3
# Si number density = 20.441520 Si / 1000 Ang^3
#
#
#
# Elastic Constant Matrix: (Units=GPa)
#
#
# Indices 1 2 3 4 5 6 
#
# 1 62.8016 7.8358 16.0571 -9.1423 -3.6412 -20.7725
# 2 7.8358 58.6192 30.2394 -11.4176 -8.5923 -37.9952
# 3 16.0571 30.2394 125.0433 -21.7085 -11.2597 -4.8493
# 4 -9.1423 -11.4176 -21.7085 45.0370 -13.1569 10.3900
# 5 -3.6412 -8.5923 -11.2597 -13.1569 6.8489 -5.0503
# 6 -20.7725 -37.9952 -4.8493 10.3900 -5.0503 22.2523
#
#
#
# Elastic Compliance Matrix: (Units=1/GPa)
#
#
# Indices 1 2 3 4 5 6 
#
# 1 0.013896 -0.007850 -0.003939 -0.008255 -0.027508 -0.003679
# 2 -0.007850 0.003695 -0.010634 -0.024240 -0.069296 -0.007745
# 3 -0.003939 -0.010634 0.017671 0.021161 0.040499 -0.018672
# 4 -0.008255 -0.024240 0.021161 0.057953 0.070337 -0.055579
# 5 -0.027508 -0.069296 0.040499 0.070337 0.146829 -0.134692
# 6 -0.003679 -0.007745 -0.018672 -0.055579 -0.134692 0.019592
#
#
# Mechanical properties :
#
#
# Convention : Reuss Voigt Hill
#
# Bulk Modulus (GPa) = -104.34223 39.41429 -32.46397
# Shear Modulus (GPa) = 16.59539 27.64977 22.12258
#
# Velocity S-wave (km/s) = 2.85238 3.68180 3.29331
# Velocity P-wave (km/s) = 6.34877 6.11535 1.20611
#
# Compressibility (1/GPa) = -0.00958385
#
# Stress axis : x y z
#
# Youngs Moduli (GPa) = 71.96248 270.61147 56.58946
#
# Poissons Ratio (x) = 2.12443 0.22289
# Poissons Ratio (y) = 0.56494 0.60177
# Poissons Ratio (z) = 0.28344 2.87769
#
# Static dielectric constant tensor:
#      x y z
#    x 1.764180 -0.034650 -0.012160 
#    y -0.034650 1.714640 0.014940 
#    z -0.012160 0.014940 1.733950 
# 
# From -- ./inp_files/402850.got.cif
#   From: 2010.05.17/outbox.cif.g08.bks.cpg/sg2_202_cif.got.tgz:402850.got - 2010.06.03 11:33:40.
