data_PCOD9056515
_publ_section_title
;
Structure prediction by ZEFSAII (Michael W. Deem and Ramdas Pophale) SiO2 
 PCOD9056515
Probable space group: P -1
;
_chemical_formula_sum "Si O2"
_cell_formula_units_Z 16
_cell_length_a 9.183712
_cell_length_b 8.561999
_cell_length_c 14.915049
_cell_angle_alpha 94.852702
_cell_angle_beta 63.752001
_cell_angle_gamma 53.179925
_cell_volume 735.443111
_symmetry_space_group_name_H-M "P -1"
_symmetry_group_IT_number 2
_symmetry_cell_setting 'triclinic'
loop_
_space_group_symop_operation_xyz
x,y,z
-x,-y,-z
loop_
_atom_site_type_symbol
_atom_site_label
_atom_site_fract_x
_atom_site_fract_y
_atom_site_fract_z
Si Si1 0.056925 0.884683 0.382684
Si Si2 0.330632 0.264238 0.792493
Si Si3 0.126599 0.507954 0.578697
Si Si4 0.449814 0.869356 0.460978
Si Si5 0.759502 0.987517 0.776845
Si Si6 0.974574 0.207530 0.123182
Si Si7 0.773621 0.001208 0.145480
Si Si8 0.261246 0.432687 0.335632
O O1 0.169048 0.889718 0.267158
O O2 0.247999 0.625716 0.343586
O O3 0.799064 0.011037 0.433223
O O4 0.000000 0.000000 0.500000
O O5 0.516326 0.136102 0.654464
O O6 0.490585 0.153238 0.833079
O O7 0.192104 0.192916 0.824405
O O8 0.183814 0.526093 0.833238
O O9 0.344513 0.386842 0.575892
O O10 0.225735 0.412975 0.448212
O O11 0.970738 0.466415 0.645873
O O12 0.931099 0.773543 0.652559
O O13 0.500000 0.000000 0.500000
O O14 0.848490 0.888283 0.846917
O O15 0.108355 0.095890 0.987790
O O16 0.851751 0.119809 0.168186
O O17 0.496139 0.204138 0.223811
#
# Coordination Sequence:
#
# PCOD9056515 Si02
#       8
#     2   2   2   2   2   2   2   2
#     4  12  24  40  64 102 142 180 226 288 355 421
#     4  12  24  48  74 101 143 190 233 293 357 416
#     4  11  22  39  65  99 138 176 224 279 351 423
#     4  12  24  39  64 104 143 184 232 284 351 436
#     4  12  25  45  68 103 140 183 233 287 354 421
#     4  11  28  50  70 108 139 183 249 295 345 417
#     4  11  26  48  76 100 141 187 238 300 348 411
#     4  11  22  42  67  98 138 181 227 287 349 419
#
# _framework density 21.755593999999999
#
# number of rings (size 3 to 8) (size 9 to 14) (size 15 to 20)
#    0.000    0.500    6.250    1.875    3.500    1.000 
#    0.000    5.625    0.000    0.000    0.000    0.000 
#    0.000    0.000    0.000    0.000    0.000    0.000 
#
# Total GULP energy -89201.736007 kJ/mol
# GULP energy per Si atom -5575.108500 kJ/mol
# Density = 2.170608 g / cm^3
# Si number density = 21.755594 Si / 1000 Ang^3
#
#
#
# Elastic Constant Matrix: (Units=GPa)
#
#
# Indices 1 2 3 4 5 6 
#
# 1 62.2826 40.0562 -1.0355 1.4085 -0.0820 -1.4843
# 2 40.0562 126.4202 23.3235 13.0463 9.4147 2.2175
# 3 -1.0355 23.3235 53.5000 12.6335 3.7922 11.3133
# 4 1.4085 13.0463 12.6335 26.1874 9.6238 -0.4100
# 5 -0.0820 9.4147 3.7922 9.6238 22.2060 -3.1623
# 6 -1.4843 2.2175 11.3133 -0.4100 -3.1623 37.1097
#
#
#
# Elastic Compliance Matrix: (Units=1/GPa)
#
#
# Indices 1 2 3 4 5 6 
#
# 1 0.020927 -0.007462 0.003368 -0.000036 0.002751 0.000490
# 2 -0.007462 0.011552 -0.004498 -0.001973 -0.003290 0.000080
# 3 0.003368 -0.004498 0.024578 -0.010348 0.001195 -0.007102
# 4 -0.000036 -0.001973 -0.010348 0.051296 -0.019315 0.002192
# 5 0.002751 -0.003290 0.001195 -0.019315 0.055237 0.004436
# 6 0.000490 0.000080 -0.007102 0.002192 0.004436 0.029529
#
#
# Mechanical properties :
#
#
# Convention : Reuss Voigt Hill
#
# Bulk Modulus (GPa) = 25.07982 40.76571 32.92276
# Shear Modulus (GPa) = 22.36198 29.09120 25.72659
#
# Velocity S-wave (km/s) = 3.20952 3.66072 3.44252
# Velocity P-wave (km/s) = 5.02869 6.05364 5.56481
#
# Compressibility (1/GPa) = 0.03987270
#
# Stress axis : x y z
#
# Youngs Moduli (GPa) = 47.78539 86.56882 40.68609
#
# Poissons Ratio (x) = 0.64596 -0.13703
# Poissons Ratio (y) = 0.35656 0.18301
# Poissons Ratio (z) = -0.16094 0.38941
#
# Static dielectric constant tensor:
#      x y z
#    x 1.999700 0.141820 0.001530 
#    y 0.141820 2.054050 -0.040290 
#    z 0.001530 -0.040290 1.760610 
# 
# From -- ./inp_files/207171.got.cif
#   From: 2010.05.17/outbox.cif.g08.bks.cpg/sg2_104_cif.got.tgz:207171.got - 2010.06.03 11:33:40.
