data_PCOD9056869
_publ_section_title
;
Structure prediction by ZEFSAII (Michael W. Deem and Ramdas Pophale) SiO2 
 PCOD9056869
Probable space group: P -1
;
_chemical_formula_sum "Si O2"
_cell_formula_units_Z 16
_cell_length_a 12.359339
_cell_length_b 14.503232
_cell_length_c 9.087820
_cell_angle_alpha 70.340357
_cell_angle_beta 129.338324
_cell_angle_gamma 68.585986
_cell_volume 721.109571
_symmetry_space_group_name_H-M "P -1"
_symmetry_group_IT_number 2
_symmetry_cell_setting 'triclinic'
loop_
_space_group_symop_operation_xyz
x,y,z
-x,-y,-z
loop_
_atom_site_type_symbol
_atom_site_label
_atom_site_fract_x
_atom_site_fract_y
_atom_site_fract_z
Si Si1 0.859160 0.805089 0.554128
Si Si2 0.525357 0.690445 0.249804
Si Si3 0.945623 0.572071 0.574040
Si Si4 0.619162 0.330359 0.152879
Si Si5 0.680236 0.472628 0.741051
Si Si6 0.424992 0.307172 0.244528
Si Si7 0.164638 0.047732 0.801777
Si Si8 0.468046 0.945833 0.362608
O O1 0.942954 0.687231 0.556721
O O2 0.770315 0.945708 0.307673
O O3 0.676159 0.853220 0.476669
O O4 0.080863 0.703577 0.900995
O O5 0.690571 0.678939 0.328864
O O6 0.699704 0.543301 0.593710
O O7 0.438109 0.662243 0.069426
O O8 0.306993 0.867344 0.035334
O O9 0.000000 0.500000 0.500000
O O10 0.161764 0.416778 0.941406
O O11 0.523697 0.289976 0.184151
O O12 0.891535 0.186225 0.491551
O O13 0.500000 0.500000 0.000000
O O14 0.500000 0.500000 0.500000
O O15 0.571106 0.594642 0.713620
O O16 0.542220 0.154852 0.515445
O O17 0.248919 0.069743 0.997314
O O18 0.500000 0.000000 0.500000
#
# Coordination Sequence:
#
# PCOD9056869 Si02
#       8
#     2   2   2   2   2   2   2   2
#     4  11  25  47  71 105 146 186 246 298 355 440
#     4  12  24  45  73 105 141 186 242 299 365 421
#     4  11  22  40  76 102 134 182 237 294 355 422
#     4  12  27  46  73 106 145 192 247 291 361 451
#     4  11  23  45  71 101 139 188 235 292 363 430
#     4  11  24  45  68 106 142 180 242 297 356 432
#     4  12  27  48  71 105 148 192 239 303 365 431
#     4  12  28  45  71 104 143 192 243 301 372 418
#
# _framework density 22.188027000000002
#
# number of rings (size 3 to 8) (size 9 to 14) (size 15 to 20)
#    0.000    0.500    3.750    4.500    3.500    4.500 
#    0.000    0.000    0.000    0.000    0.000    0.000 
#    0.000    0.000    0.000    0.000    0.000    0.000 
#
# Total GULP energy -89308.208718 kJ/mol
# GULP energy per Si atom -5581.763045 kJ/mol
# Density = 2.213753 g / cm^3
# Si number density = 22.188027 Si / 1000 Ang^3
#
#
#
# Elastic Constant Matrix: (Units=GPa)
#
#
# Indices 1 2 3 4 5 6 
#
# 1 84.5325 10.2308 40.7603 -9.5035 -6.3473 2.4662
# 2 10.2308 100.9271 38.6220 28.1802 0.1992 -11.9168
# 3 40.7603 38.6220 143.0014 20.4107 -6.2127 -3.0087
# 4 -9.5035 28.1802 20.4107 35.9188 0.2860 -3.1972
# 5 -6.3473 0.1992 -6.2127 0.2860 44.0530 1.9087
# 6 2.4662 -11.9168 -3.0087 -3.1972 1.9087 21.1779
#
#
#
# Elastic Compliance Matrix: (Units=1/GPa)
#
#
# Indices 1 2 3 4 5 6 
#
# 1 0.015738 -0.002407 -0.005060 0.008671 0.001627 -0.002744
# 2 -0.002407 0.014495 -0.001629 -0.010479 -0.000864 0.006701
# 3 -0.005060 -0.001629 0.009702 -0.005566 0.000676 0.000150
# 4 0.008671 -0.010479 -0.005566 0.041385 0.000307 -0.001477
# 5 0.001627 -0.000864 0.000676 0.000307 0.023145 -0.002620
# 6 -0.002744 0.006701 0.000150 -0.001477 -0.002620 0.051343
#
#
# Mechanical properties :
#
#
# Convention : Reuss Voigt Hill
#
# Bulk Modulus (GPa) = 45.99569 56.40970 51.20270
# Shear Modulus (GPa) = 27.58620 36.15313 31.86966
#
# Velocity S-wave (km/s) = 3.52986 4.04096 3.79403
# Velocity P-wave (km/s) = 6.11459 6.87395 6.50536
#
# Compressibility (1/GPa) = 0.02174117
#
# Stress axis : x y z
#
# Youngs Moduli (GPa) = 63.53951 68.99145 103.06747
#
# Poissons Ratio (x) = 0.16607 0.52157
# Poissons Ratio (y) = 0.15295 0.16794
# Poissons Ratio (z) = 0.32154 0.11242
#
# Static dielectric constant tensor:
#      x y z
#    x 2.065260 0.432890 0.250940 
#    y 0.432890 2.861640 0.751690 
#    z 0.250940 0.751690 2.401130 
# 
# From -- ./inp_files/242721.got.cif
#   From: 2010.05.17/outbox.cif.g08.bks.cpg/sg2_122_cif.got.tgz:242721.got - 2010.06.03 11:33:40.
