data_PCOD9056552
_publ_section_title
;
Structure prediction by ZEFSAII (Michael W. Deem and Ramdas Pophale) SiO2 
 PCOD9056552
Probable space group: P -1
;
_chemical_formula_sum "Si O2"
_cell_formula_units_Z 16
_cell_length_a 9.329677
_cell_length_b 19.149486
_cell_length_c 5.371295
_cell_angle_alpha 126.770924
_cell_angle_beta 96.465404
_cell_angle_gamma 58.264147
_cell_volume 624.281637
_symmetry_space_group_name_H-M "P -1"
_symmetry_group_IT_number 2
_symmetry_cell_setting 'triclinic'
loop_
_space_group_symop_operation_xyz
x,y,z
-x,-y,-z
loop_
_atom_site_type_symbol
_atom_site_label
_atom_site_fract_x
_atom_site_fract_y
_atom_site_fract_z
Si Si1 0.197840 0.465498 0.506827
Si Si2 0.325829 0.959494 0.412382
Si Si3 0.106929 0.899755 0.988485
Si Si4 0.310837 0.527177 0.176006
Si Si5 0.065081 0.192102 0.944849
Si Si6 0.295691 0.670454 0.129209
Si Si7 0.582823 0.196781 0.529697
Si Si8 0.333223 0.241971 0.203745
O O1 0.243696 0.495008 0.848167
O O2 0.000000 0.500000 0.500000
O O3 0.230547 0.518314 0.395458
O O4 0.310591 0.336759 0.241185
O O5 0.177078 0.938021 0.297373
O O6 0.379782 0.913444 0.603082
O O7 0.499111 0.874344 0.105304
O O8 0.227451 0.083607 0.607714
O O9 0.995467 0.857821 0.970307
O O10 0.284486 0.818268 0.695804
O O11 0.000000 0.000000 0.000000
O O12 0.520456 0.447846 0.108094
O O13 0.258477 0.644451 0.346934
O O14 0.159009 0.245129 0.177819
O O15 0.895873 0.270405 0.909492
O O16 0.370238 0.734817 0.156822
O O17 0.387465 0.259433 0.520761
#
# Coordination Sequence:
#
# PCOD9056552 Si02
#       8
#     2   2   2   2   2   2   2   2
#     4  12  26  51  78 109 152 196 246 312 382 447
#     4  11  23  46  68  96 150 189 237 293 370 434
#     4  11  22  39  68 100 135 186 239 295 351 429
#     4  11  27  48  78 111 149 194 250 316 379 438
#     4  12  24  44  70 106 144 188 249 299 354 446
#     4  11  24  45  76 108 142 192 249 308 367 445
#     4  11  22  44  68  98 142 192 228 296 374 434
#     4  11  27  44  71 104 143 193 240 300 375 442
#
# _framework density 25.629460000000002
#
# number of rings (size 3 to 8) (size 9 to 14) (size 15 to 20)
#    0.000    0.750    3.750    3.375    1.750    4.500 
#    4.500    0.000    0.000    0.000    0.000    0.000 
#    0.000    0.000    0.000    0.000    0.000    0.000 
#
# Total GULP energy -89210.164540 kJ/mol
# GULP energy per Si atom -5575.635284 kJ/mol
# Density = 2.557113 g / cm^3
# Si number density = 25.629460 Si / 1000 Ang^3
#
#
#
# Elastic Constant Matrix: (Units=GPa)
#
#
# Indices 1 2 3 4 5 6 
#
# 1 127.0258 56.9050 21.1354 -1.6085 21.1984 -19.2768
# 2 56.9050 193.3844 42.0776 -3.4509 13.2761 -17.3151
# 3 21.1354 42.0776 41.8462 -5.4938 3.5265 0.2351
# 4 -1.6085 -3.4509 -5.4938 30.8551 6.2744 -2.2194
# 5 21.1984 13.2761 3.5265 6.2744 29.3603 -2.1331
# 6 -19.2768 -17.3151 0.2351 -2.2194 -2.1331 44.1633
#
#
#
# Elastic Compliance Matrix: (Units=1/GPa)
#
#
# Indices 1 2 3 4 5 6 
#
# 1 0.010869 -0.001704 -0.003033 0.001485 -0.006751 0.003841
# 2 -0.001704 0.007342 -0.006439 -0.000027 -0.001156 0.002112
# 3 -0.003033 -0.006439 0.032544 0.004659 -0.000078 -0.003792
# 4 0.001485 -0.000027 0.004659 0.035288 -0.009019 0.001950
# 5 -0.006751 -0.001156 -0.000078 -0.009019 0.041258 -0.001860
# 6 0.003841 0.002112 -0.003792 0.001950 -0.001860 0.025176
#
#
# Mechanical properties :
#
#
# Convention : Reuss Voigt Hill
#
# Bulk Modulus (GPa) = 35.21163 66.94360 51.07761
# Shear Modulus (GPa) = 27.13010 37.01832 32.07421
#
# Velocity S-wave (km/s) = 3.25707 3.80460 3.54143
# Velocity P-wave (km/s) = 5.28330 6.74363 6.05763
#
# Compressibility (1/GPa) = 0.02839971
#
# Stress axis : x y z
#
# Youngs Moduli (GPa) = 92.00569 136.20890 30.72793
#
# Poissons Ratio (x) = 0.23216 0.09321
# Poissons Ratio (y) = 0.15681 0.19787
# Poissons Ratio (z) = 0.27910 0.87710
#
# Static dielectric constant tensor:
#      x y z
#    x 2.227150 0.456580 0.133910 
#    y 0.456580 2.064690 0.505090 
#    z 0.133910 0.505090 2.369230 
# 
# From -- ./inp_files/49024.got.cif
#   From: 2010.05.17/outbox.cif.g08.bks.cpg/sg2_25_cif.got.tgz:49024.got - 2010.06.03 11:33:40.
