data_PCOD9056020
_publ_section_title
;
Structure prediction by ZEFSAII (Michael W. Deem and Ramdas Pophale) SiO2 
 PCOD9056020
Probable space group: P -1
;
_chemical_formula_sum "Si O2"
_cell_formula_units_Z 16
_cell_length_a 8.767309
_cell_length_b 15.907268
_cell_length_c 13.472155
_cell_angle_alpha 59.186256
_cell_angle_beta 79.932553
_cell_angle_gamma 130.514020
_cell_volume 771.659819
_symmetry_space_group_name_H-M "P -1"
_symmetry_group_IT_number 2
_symmetry_cell_setting 'triclinic'
loop_
_space_group_symop_operation_xyz
x,y,z
-x,-y,-z
loop_
_atom_site_type_symbol
_atom_site_label
_atom_site_fract_x
_atom_site_fract_y
_atom_site_fract_z
Si Si1 0.812271 0.315261 0.695970
Si Si2 0.699068 0.826646 0.709704
Si Si3 0.083344 0.906632 0.960018
Si Si4 0.318131 0.804636 0.681181
Si Si5 0.109503 0.081888 0.696689
Si Si6 0.172943 0.565072 0.690246
Si Si7 0.869400 0.720371 0.311118
Si Si8 0.848663 0.603826 0.031380
O O1 0.000000 0.500000 0.500000
O O2 0.881866 0.392602 0.751826
O O3 0.961080 0.289682 0.692975
O O4 0.457565 0.105772 0.823076
O O5 0.503071 0.817909 0.710442
O O6 0.503743 0.620352 0.830888
O O7 0.000000 0.000000 0.500000
O O8 0.847737 0.904939 0.754167
O O9 0.056077 0.996515 0.857649
O O10 0.920188 0.792954 0.151888
O O11 0.945833 0.757505 0.981602
O O12 0.185716 0.675989 0.676570
O O13 0.500000 0.000000 0.500000
O O14 0.066822 0.704155 0.850778
O O15 0.475366 0.263452 0.504532
O O16 0.044034 0.158063 0.684231
O O17 0.109102 0.451706 0.852086
O O18 0.500000 0.500000 0.500000
#
# Coordination Sequence:
#
# PCOD9056020 Si02
#       8
#     2   2   2   2   2   2   2   2
#     4  12  25  44  74 101 135 185 228 279 348 403
#     4  11  24  44  71  98 135 184 223 277 351 401
#     4  12  26  45  70 102 140 180 229 283 342 409
#     4  11  25  44  70 103 136 177 232 283 337 409
#     4  12  24  44  70 100 143 179 224 287 339 409
#     4  11  21  45  68  98 141 174 222 286 338 399
#     4  12  25  45  68 102 140 181 229 282 342 405
#     4  11  24  44  71  99 135 179 228 280 341 406
#
# _framework density 20.734525999999999
#
# number of rings (size 3 to 8) (size 9 to 14) (size 15 to 20)
#    0.000    0.500    6.250    3.000    1.750    1.500 
#    0.000    0.000    0.000    0.000    0.000    0.000 
#    0.000    0.000    0.000    0.000    0.000    0.000 
#
# Total GULP energy -89303.935687 kJ/mol
# GULP energy per Si atom -5581.495980 kJ/mol
# Density = 2.068733 g / cm^3
# Si number density = 20.734526 Si / 1000 Ang^3
#
#
#
# Elastic Constant Matrix: (Units=GPa)
#
#
# Indices 1 2 3 4 5 6 
#
# 1 49.5183 39.5872 18.6801 -1.9604 16.7110 0.3107
# 2 39.5872 163.6036 30.2066 -8.4668 -9.2076 -5.0615
# 3 18.6801 30.2066 131.7369 0.0122 10.0601 -3.2226
# 4 -1.9604 -8.4668 0.0122 36.5533 0.6575 0.4356
# 5 16.7110 -9.2076 10.0601 0.6575 26.5674 -0.3771
# 6 0.3107 -5.0615 -3.2226 0.4356 -0.3771 43.3097
#
#
#
# Elastic Compliance Matrix: (Units=1/GPa)
#
#
# Indices 1 2 3 4 5 6 
#
# 1 0.038454 -0.010738 -0.000929 0.000094 -0.027586 -0.001841
# 2 -0.010738 0.009697 -0.001486 0.001465 0.010658 0.001178
# 3 -0.000929 -0.001486 0.008308 -0.000347 -0.003062 0.000428
# 4 0.000094 0.001465 -0.000347 0.027705 -0.000107 -0.000135
# 5 -0.027586 0.010658 -0.003062 -0.000107 0.059872 0.001738
# 6 -0.001841 0.001178 0.000428 -0.000135 0.001738 0.023289
#
#
# Mechanical properties :
#
#
# Convention : Reuss Voigt Hill
#
# Bulk Modulus (GPa) = 33.16448 57.97853 45.57150
# Shear Modulus (GPa) = 24.54810 38.37841 31.46325
#
# Velocity S-wave (km/s) = 3.44455 4.30693 3.89965
# Velocity P-wave (km/s) = 5.64353 7.26332 6.50405
#
# Compressibility (1/GPa) = 0.03015275
#
# Stress axis : x y z
#
# Youngs Moduli (GPa) = 26.00513 103.12418 120.37028
#
# Poissons Ratio (x) = 1.10733 0.11183
# Poissons Ratio (y) = 0.27924 0.17888
# Poissons Ratio (z) = 0.02416 0.15325
#
# Static dielectric constant tensor:
#      x y z
#    x 1.697550 0.031300 -0.007800 
#    y 0.031300 1.793600 0.004900 
#    z -0.007800 0.004900 1.743020 
# 
# From -- ./inp_files/398938.got.cif
#   From: 2010.05.17/outbox.cif.g08.bks.cpg/sg2_200_cif.got.tgz:398938.got - 2010.06.03 11:33:40.
