data_PCOD9056755
_publ_section_title
;
Structure prediction by ZEFSAII (Michael W. Deem and Ramdas Pophale) SiO2 
 PCOD9056755
Probable space group: P -1
;
_chemical_formula_sum "Si O2"
_cell_formula_units_Z 12
_cell_length_a 10.373136
_cell_length_b 4.887297
_cell_length_c 11.858657
_cell_angle_alpha 73.154682
_cell_angle_beta 48.257697
_cell_angle_gamma 81.828151
_cell_volume 428.243051
_symmetry_space_group_name_H-M "P -1"
_symmetry_group_IT_number 2
_symmetry_cell_setting 'triclinic'
loop_
_space_group_symop_operation_xyz
x,y,z
-x,-y,-z
loop_
_atom_site_type_symbol
_atom_site_label
_atom_site_fract_x
_atom_site_fract_y
_atom_site_fract_z
Si Si1 0.224062 0.571988 0.569099
Si Si2 0.578973 0.874909 0.355354
Si Si3 0.564427 0.620408 0.115443
Si Si4 0.170552 0.010482 0.972599
Si Si5 0.012304 0.914298 0.317249
Si Si6 0.339544 0.163332 0.199607
O O1 0.411964 0.720300 0.408462
O O2 0.108273 0.378599 0.572141
O O3 0.500000 0.000000 0.500000
O O4 0.286282 0.348410 0.652555
O O5 0.889505 0.178731 0.348601
O O6 0.686129 0.095587 0.185208
O O7 0.411370 0.369559 0.232956
O O8 0.471785 0.919599 0.135928
O O9 0.728940 0.684065 0.092979
O O10 0.653007 0.626785 0.938620
O O11 0.118417 0.888277 0.140632
O O12 0.000000 0.000000 0.000000
O O13 0.150413 0.998929 0.324904
#
# Coordination Sequence:
#
# PCOD9056755 Si02
#       6
#     2   2   2   2   2   2
#     4  11  22  41  62  91 126 171 203 249 322 372
#     4  11  23  44  60  89 136 174 202 245 324 387
#     4   9  19  36  57  90 124 161 192 259 312 364
#     4  11  22  41  64 102 127 159 213 266 307 369
#     4  11  22  40  68  98 121 162 213 267 298 370
#     4   9  18  37  60  86 124 158 204 246 318 361
#
# _framework density 28.021473
#
# number of rings (size 3 to 8) (size 9 to 14) (size 15 to 20)
#    0.000    1.667    3.333    1.000    0.000    4.667 
#   15.000    0.000    0.000    6.000    0.000    0.000 
#    0.000    0.000    0.000    0.000    0.000    0.000 
#
# Total GULP energy -67131.930684 kJ/mol
# GULP energy per Si atom -5594.327557 kJ/mol
# Density = 2.795770 g / cm^3
# Si number density = 28.021473 Si / 1000 Ang^3
#
#
#
# Elastic Constant Matrix: (Units=GPa)
#
#
# Indices 1 2 3 4 5 6 
#
# 1 157.7812 56.9367 53.0195 -9.6606 -46.9906 49.8367
# 2 56.9367 175.8394 44.7472 -13.8891 -31.4992 26.2442
# 3 53.0195 44.7472 182.1003 -16.8546 -28.8161 22.4239
# 4 -9.6606 -13.8891 -16.8546 44.3422 16.3705 -27.9520
# 5 -46.9906 -31.4992 -28.8161 16.3705 57.5340 -16.4246
# 6 49.8367 26.2442 22.4239 -27.9520 -16.4246 56.5821
#
#
#
# Elastic Compliance Matrix: (Units=1/GPa)
#
#
# Indices 1 2 3 4 5 6 
#
# 1 0.013148 -0.001238 -0.001510 -0.009014 0.008316 -0.012447
# 2 -0.001238 0.006831 -0.000862 0.000124 0.001945 -0.001111
# 3 -0.001510 -0.000862 0.006436 0.001621 0.001146 0.000313
# 4 -0.009014 0.000124 0.001621 0.040492 -0.011150 0.024006
# 5 0.008316 0.001945 0.001146 -0.011150 0.027187 -0.006298
# 6 -0.012447 -0.001111 0.000313 0.024006 -0.006298 0.039059
#
#
# Mechanical properties :
#
#
# Convention : Reuss Voigt Hill
#
# Bulk Modulus (GPa) = 52.09333 91.68086 71.88710
# Shear Modulus (GPa) = 34.06655 55.75948 44.91301
#
# Velocity S-wave (km/s) = 3.49051 4.46565 4.00785
# Velocity P-wave (km/s) = 5.90557 7.70574 6.86492
#
# Compressibility (1/GPa) = 0.01919631
#
# Stress axis : x y z
#
# Youngs Moduli (GPa) = 76.05567 146.38785 155.38006
#
# Poissons Ratio (x) = 0.18118 0.23456
# Poissons Ratio (y) = 0.09413 0.13397
# Poissons Ratio (z) = 0.11481 0.12622
#
# Static dielectric constant tensor:
#      x y z
#    x 2.232870 0.000960 0.066520 
#    y 0.000960 2.253040 0.062930 
#    z 0.066520 0.062930 2.248540 
# 
# From -- ./inp_files/449520.got.cif
#   From: 2010.05.17/outbox.cif.g08.bks.cpg/sg2_225_cif.got.tgz:449520.got - 2010.06.03 11:33:40.
