data_PCOD9056893
_publ_section_title
;
Structure prediction by ZEFSAII (Michael W. Deem and Ramdas Pophale) SiO2 
 PCOD9056893
Probable space group: P -1
;
_chemical_formula_sum "Si O2"
_cell_formula_units_Z 16
_cell_length_a 15.145574
_cell_length_b 8.384550
_cell_length_c 17.010288
_cell_angle_alpha 122.800013
_cell_angle_beta 21.610244
_cell_angle_gamma 111.636967
_cell_volume 601.875594
_symmetry_space_group_name_H-M "P -1"
_symmetry_group_IT_number 2
_symmetry_cell_setting 'triclinic'
loop_
_space_group_symop_operation_xyz
x,y,z
-x,-y,-z
loop_
_atom_site_type_symbol
_atom_site_label
_atom_site_fract_x
_atom_site_fract_y
_atom_site_fract_z
Si Si1 0.041293 0.351581 0.687683
Si Si2 0.332946 0.243768 0.179627
Si Si3 0.567482 0.465295 0.546845
Si Si4 0.023523 0.267062 0.904716
Si Si5 0.158611 0.754209 0.329150
Si Si6 0.639074 0.023793 0.592816
Si Si7 0.539910 0.453378 0.741928
Si Si8 0.706725 0.027501 0.256928
O O1 0.185880 0.476097 0.645183
O O2 0.912186 0.378371 0.715139
O O3 0.268140 0.111860 0.442112
O O4 0.772981 0.411996 0.973336
O O5 0.019934 0.273476 0.455395
O O6 0.353479 0.388843 0.271212
O O7 0.522557 0.288287 0.965195
O O8 0.500000 0.000000 0.000000
O O9 0.623829 0.369894 0.562788
O O10 0.555585 0.281298 0.455635
O O11 0.291782 0.673747 0.819606
O O12 0.148520 0.125937 0.686793
O O13 0.238928 0.124508 0.753449
O O14 0.000000 0.500000 0.000000
O O15 0.000000 0.000000 0.500000
O O16 0.371398 0.056536 0.779105
O O17 0.620281 0.253052 0.677196
O O18 0.000000 0.000000 0.000000
#
# Coordination Sequence:
#
# PCOD9056893 Si02
#       8
#     2   2   2   2   2   2   2   2
#     4  11  24  39  64  94 124 164 218 268 331 395
#     4   9  18  36  66  97 128 171 217 263 335 410
#     4  12  23  40  64  88 123 170 218 274 323 394
#     4  12  24  40  60  82 120 170 215 266 328 386
#     4   9  18  36  65  96 128 169 215 264 332 404
#     4  12  24  40  60  90 125 165 219 271 325 393
#     4  11  22  41  63  90 128 165 214 269 334 388
#     4  12  26  40  58  87 123 168 221 271 330 386
#
# _framework density 26.583568
#
# number of rings (size 3 to 8) (size 9 to 14) (size 15 to 20)
#    0.000    1.000    5.000    2.625    1.750    1.000 
#    0.000    0.000    0.000   13.500    0.000    0.000 
#    0.000    0.000    0.000    0.000    0.000    0.000 
#
# Total GULP energy -89090.304283 kJ/mol
# GULP energy per Si atom -5568.144018 kJ/mol
# Density = 2.652306 g / cm^3
# Si number density = 26.583568 Si / 1000 Ang^3
#
#
#
# Elastic Constant Matrix: (Units=GPa)
#
#
# Indices 1 2 3 4 5 6 
#
# 1 76.0888 34.4611 28.3446 -9.7400 -21.8760 15.8268
# 2 34.4611 140.8730 40.6386 -13.8346 -15.5065 21.4801
# 3 28.3446 40.6386 134.7651 -22.4835 -26.8128 1.9788
# 4 -9.7400 -13.8346 -22.4835 48.3194 5.6835 0.3975
# 5 -21.8760 -15.5065 -26.8128 5.6835 47.1568 -1.9568
# 6 15.8268 21.4801 1.9788 0.3975 -1.9568 45.6387
#
#
#
# Elastic Compliance Matrix: (Units=1/GPa)
#
#
# Indices 1 2 3 4 5 6 
#
# 1 0.017723 -0.002361 -0.001450 0.001527 0.006241 -0.004718
# 2 -0.002361 0.008875 -0.001835 0.001179 0.000502 -0.003267
# 3 -0.001450 -0.001835 0.009551 0.003168 0.003818 0.001088
# 4 0.001527 0.001179 0.003168 0.022816 0.000089 -0.001417
# 5 0.006241 0.000502 0.003818 0.000089 0.026367 -0.001436
# 6 -0.004718 -0.003267 0.001088 -0.001417 -0.001436 0.024989
#
#
# Mechanical properties :
#
#
# Convention : Reuss Voigt Hill
#
# Bulk Modulus (GPa) = 40.23067 62.06838 51.14953
# Shear Modulus (GPa) = 38.49176 44.77516 41.63346
#
# Velocity S-wave (km/s) = 3.80933 4.10850 3.96174
# Velocity P-wave (km/s) = 5.87490 6.77535 6.34113
#
# Compressibility (1/GPa) = 0.02485666
#
# Stress axis : x y z
#
# Youngs Moduli (GPa) = 56.42362 112.67902 104.70269
#
# Poissons Ratio (x) = 0.26603 0.15182
# Poissons Ratio (y) = 0.13321 0.19214
# Poissons Ratio (z) = 0.08181 0.20678
#
# Static dielectric constant tensor:
#      x y z
#    x 2.313630 -0.357490 -0.069300 
#    y -0.357490 2.436650 -0.056540 
#    z -0.069300 -0.056540 1.937370 
# 
# From -- ./inp_files/599539.got.cif
#   From: 2010.05.17/outbox.cif.g08.bks.cpg/sg2_300_cif.got.tgz:599539.got - 2010.06.03 11:33:40.
