data_PCOD9056354
_publ_section_title
;
Structure prediction by ZEFSAII (Michael W. Deem and Ramdas Pophale) SiO2 
 PCOD9056354
Probable space group: P -1
;
_chemical_formula_sum "Si O2"
_cell_formula_units_Z 16
_cell_length_a 12.172144
_cell_length_b 25.380160
_cell_length_c 19.698346
_cell_angle_alpha 16.620102
_cell_angle_beta 154.164274
_cell_angle_gamma 153.639796
_cell_volume 730.496680
_symmetry_space_group_name_H-M "P -1"
_symmetry_group_IT_number 2
_symmetry_cell_setting 'triclinic'
loop_
_space_group_symop_operation_xyz
x,y,z
-x,-y,-z
loop_
_atom_site_type_symbol
_atom_site_label
_atom_site_fract_x
_atom_site_fract_y
_atom_site_fract_z
Si Si1 0.674832 0.884122 0.919880
Si Si2 0.189685 0.440152 0.886446
Si Si3 0.190060 0.632839 0.886236
Si Si4 0.884141 0.634351 0.585914
Si Si5 0.518365 0.759581 0.138408
Si Si6 0.854247 0.274411 0.600906
Si Si7 0.956550 0.084607 0.270065
Si Si8 0.321207 0.258371 0.385973
O O1 0.415401 0.802090 0.834161
O O2 0.778727 0.112881 0.698358
O O3 0.598447 0.837746 0.012759
O O4 0.894661 0.771527 0.168163
O O5 0.118521 0.527062 0.668886
O O6 0.049425 0.536492 0.747862
O O7 0.500000 0.500000 0.000000
O O8 0.080370 0.210159 0.119030
O O9 0.040675 0.705497 0.653040
O O10 0.320168 0.477010 0.117666
O O11 0.000000 0.500000 0.000000
O O12 0.765760 0.780399 0.298529
O O13 0.631324 0.464160 0.677575
O O14 0.304055 0.851860 0.935915
O O15 0.616337 0.247373 0.554689
O O16 0.167165 0.161684 0.352137
O O17 0.846535 0.857494 0.501145
#
# Coordination Sequence:
#
# PCOD9056354 Si02
#       8
#     2   2   2   2   2   2   2   2
#     4  11  23  39  64  95 124 161 215 259 306 372
#     4  11  19  34  59  90 121 157 208 257 300 361
#     4  12  23  38  62  97 130 160 204 269 322 359
#     4  10  20  34  59  89 122 159 200 253 312 364
#     4  10  17  36  61  89 115 159 211 249 293 370
#     4  11  23  40  65  92 122 171 216 250 300 390
#     4  10  20  33  62  90 118 159 214 254 296 371
#     4  11  21  38  61  93 125 163 209 259 313 367
#
# _framework density 21.902906000000002
#
# number of rings (size 3 to 8) (size 9 to 14) (size 15 to 20)
#    0.000    1.250    7.500    0.000    1.750    0.500 
#    0.000    0.625    0.000    4.500    0.000    0.000 
#    0.000    0.000    0.000    0.000    0.000    0.000 
#
# Total GULP energy -89343.837145 kJ/mol
# GULP energy per Si atom -5583.989822 kJ/mol
# Density = 2.185305 g / cm^3
# Si number density = 21.902906 Si / 1000 Ang^3
#
#
#
# Elastic Constant Matrix: (Units=GPa)
#
#
# Indices 1 2 3 4 5 6 
#
# 1 55.6671 15.4769 12.5447 8.3411 -4.4995 21.9336
# 2 15.4769 85.8768 28.2587 25.7480 -12.9848 1.7596
# 3 12.5447 28.2587 81.6647 10.9880 -15.8178 6.0765
# 4 8.3411 25.7480 10.9880 42.2519 14.0274 -3.5337
# 5 -4.4995 -12.9848 -15.8178 14.0274 36.5721 3.6246
# 6 21.9336 1.7596 6.0765 -3.5337 3.6246 29.1429
#
#
#
# Elastic Compliance Matrix: (Units=1/GPa)
#
#
# Indices 1 2 3 4 5 6 
#
# 1 0.030999 0.000183 0.001169 -0.012710 0.011896 -0.026606
# 2 0.000183 0.018766 -0.001740 -0.015460 0.012290 -0.004311
# 3 0.001169 -0.001740 0.015971 -0.007081 0.009762 -0.006177
# 4 -0.012710 -0.015460 -0.007081 0.049675 -0.031339 0.021897
# 5 0.011896 0.012290 0.009762 -0.031339 0.051588 -0.021947
# 6 -0.026606 -0.004311 -0.006177 0.021897 -0.021947 0.061271
#
#
# Mechanical properties :
#
#
# Convention : Reuss Voigt Hill
#
# Bulk Modulus (GPa) = 15.39419 37.30770 26.35095
# Shear Modulus (GPa) = 19.94417 32.72193 26.33305
#
# Velocity S-wave (km/s) = 3.02084 3.86936 3.47113
# Velocity P-wave (km/s) = 4.38303 6.08546 5.30301
#
# Compressibility (1/GPa) = 0.06495955
#
# Stress axis : x y z
#
# Youngs Moduli (GPa) = 32.25945 53.28708 62.61323
#
# Poissons Ratio (x) = -0.00978 -0.07318
# Poissons Ratio (y) = -0.00592 0.10898
# Poissons Ratio (z) = -0.03770 0.09274
#
# Static dielectric constant tensor:
#      x y z
#    x 1.809660 0.028110 -0.001310 
#    y 0.028110 1.814170 -0.042710 
#    z -0.001310 -0.042710 1.870230 
# 
# From -- ./inp_files/571036.got.cif
#   From: 2010.05.17/outbox.cif.g08.bks.cpg/sg2_286_cif.got.tgz:571036.got - 2010.06.03 11:33:40.
