data_PCOD9056993
_publ_section_title
;
Structure prediction by ZEFSAII (Michael W. Deem and Ramdas Pophale) SiO2 
 PCOD9056993
Probable space group: P -1
;
_chemical_formula_sum "Si O2"
_cell_formula_units_Z 14
_cell_length_a 9.263150
_cell_length_b 12.257714
_cell_length_c 18.004649
_cell_angle_alpha 31.064295
_cell_angle_beta 139.134001
_cell_angle_gamma 126.788220
_cell_volume 682.911541
_symmetry_space_group_name_H-M "P -1"
_symmetry_group_IT_number 2
_symmetry_cell_setting 'triclinic'
loop_
_space_group_symop_operation_xyz
x,y,z
-x,-y,-z
loop_
_atom_site_type_symbol
_atom_site_label
_atom_site_fract_x
_atom_site_fract_y
_atom_site_fract_z
Si Si1 0.805897 0.962487 0.848438
Si Si2 0.729521 0.019175 0.615262
Si Si3 0.695049 0.210701 0.889964
Si Si4 0.091816 0.550218 0.587022
Si Si5 0.346014 0.530713 0.493511
Si Si6 0.129637 0.706202 0.926215
Si Si7 0.426473 0.186121 0.010025
O O1 0.740644 0.929775 0.756140
O O2 0.761956 0.221548 0.686199
O O3 0.662461 0.873747 0.909067
O O4 0.064675 0.852449 0.021644
O O5 0.770668 0.260825 0.485470
O O6 0.500000 0.000000 0.500000
O O7 0.931681 0.891982 0.721945
O O8 0.524659 0.428102 0.683836
O O9 0.773283 0.229596 0.993808
O O10 0.562184 0.023967 0.916345
O O11 0.246623 0.358140 0.798635
O O12 0.000000 0.500000 0.500000
O O13 0.862962 0.599396 0.515735
O O14 0.500000 0.500000 0.500000
O O15 0.343758 0.713981 0.953402
O O16 0.000000 0.500000 0.000000
#
# Coordination Sequence:
#
# PCOD9056993 Si02
#       7
#     2   2   2   2   2   2   2
#     4  11  24  44  64 101 134 167 218 273 332 383
#     4  11  25  46  67  92 132 177 217 271 326 396
#     4  11  22  41  67  97 132 173 214 270 323 387
#     4  12  22  40  68 100 129 174 221 264 324 388
#     4  12  22  37  67 100 135 166 214 273 327 380
#     4  11  25  43  64  96 129 174 224 265 324 392
#     4  12  22  42  69  97 134 167 217 280 322 384
#
# _framework density 20.500458999999999
#
# number of rings (size 3 to 8) (size 9 to 14) (size 15 to 20)
#    0.000    0.571    4.286    5.143    2.000    0.000 
#    0.000    8.571    0.000    0.000    0.000    0.000 
#    0.000    0.000    0.000    0.000    0.000    0.000 
#
# Total GULP energy -78115.593665 kJ/mol
# GULP energy per Si atom -5579.685262 kJ/mol
# Density = 2.045380 g / cm^3
# Si number density = 20.500459 Si / 1000 Ang^3
#
#
#
# Elastic Constant Matrix: (Units=GPa)
#
#
# Indices 1 2 3 4 5 6 
#
# 1 127.2513 55.5353 46.1942 2.6996 -2.4239 34.8343
# 2 55.5353 106.6896 35.2445 6.8490 -3.8216 37.1783
# 3 46.1942 35.2445 141.7016 11.2603 8.6064 22.1094
# 4 2.6996 6.8490 11.2603 32.8855 4.4241 5.5738
# 5 -2.4239 -3.8216 8.6064 4.4241 33.3286 -2.5546
# 6 34.8343 37.1783 22.1094 5.5738 -2.5546 29.8334
#
#
#
# Elastic Compliance Matrix: (Units=1/GPa)
#
#
# Indices 1 2 3 4 5 6 
#
# 1 0.012417 -0.002236 -0.001999 0.001911 0.000098 -0.010580
# 2 -0.002236 0.017116 -0.000731 -0.000147 0.000621 -0.018098
# 3 -0.001999 -0.000731 0.008658 -0.001801 -0.002459 -0.003046
# 4 0.001911 -0.000147 -0.001801 0.032697 -0.004304 -0.007190
# 5 0.000098 0.000621 -0.002459 -0.004304 0.031630 0.004446
# 6 -0.010580 -0.018098 -0.003046 -0.007190 0.004446 0.072407
#
#
# Mechanical properties :
#
#
# Convention : Reuss Voigt Hill
#
# Bulk Modulus (GPa) = 35.38409 72.17671 53.78040
# Shear Modulus (GPa) = 25.73646 35.12074 30.42860
#
# Velocity S-wave (km/s) = 3.54702 4.14353 3.85683
# Velocity P-wave (km/s) = 5.83719 7.62730 6.79148
#
# Compressibility (1/GPa) = 0.02826129
#
# Stress axis : x y z
#
# Youngs Moduli (GPa) = 80.53272 58.42392 115.49666
#
# Poissons Ratio (x) = 0.13061 0.23088
# Poissons Ratio (y) = 0.18004 0.08439
# Poissons Ratio (z) = 0.16099 0.04269
#
# Static dielectric constant tensor:
#      x y z
#    x 1.822100 0.050880 -0.010550 
#    y 0.050880 1.985310 0.026320 
#    z -0.010550 0.026320 1.802310 
# 
# From -- ./inp_files/220696.got.cif
#   From: 2010.05.17/outbox.cif.g08.bks.cpg/sg2_111_cif.got.tgz:220696.got - 2010.06.03 11:33:40.
