data_PCOD9056231
_publ_section_title
;
Structure prediction by ZEFSAII (Michael W. Deem and Ramdas Pophale) SiO2 
 PCOD9056231
Probable space group: P -1
;
_chemical_formula_sum "Si O2"
_cell_formula_units_Z 14
_cell_length_a 10.322080
_cell_length_b 15.195718
_cell_length_c 9.083207
_cell_angle_alpha 129.312432
_cell_angle_beta 50.414387
_cell_angle_gamma 141.686227
_cell_volume 653.580927
_symmetry_space_group_name_H-M "P -1"
_symmetry_group_IT_number 2
_symmetry_cell_setting 'triclinic'
loop_
_space_group_symop_operation_xyz
x,y,z
-x,-y,-z
loop_
_atom_site_type_symbol
_atom_site_label
_atom_site_fract_x
_atom_site_fract_y
_atom_site_fract_z
Si Si1 0.811313 0.325593 0.483751
Si Si2 0.071956 0.365827 0.823662
Si Si3 0.293801 0.853467 0.910209
Si Si4 0.740336 0.931669 0.986348
Si Si5 0.280561 0.658245 0.119493
Si Si6 0.247247 0.930751 0.604528
Si Si7 0.042322 0.115593 0.471563
O O1 0.684205 0.230892 0.326534
O O2 0.681290 0.323215 0.713467
O O3 0.880107 0.232859 0.407873
O O4 0.000000 0.500000 0.500000
O O5 0.949408 0.379927 0.795112
O O6 0.150389 0.274455 0.628832
O O7 0.880733 0.270439 0.981446
O O8 0.257453 0.523641 0.926546
O O9 0.500000 0.000000 0.000000
O O10 0.191703 0.920558 0.979516
O O11 0.826861 0.873889 0.752896
O O12 0.478826 0.806522 0.053435
O O13 0.796876 0.978071 0.165573
O O14 0.181199 0.932248 0.488656
O O15 0.500000 0.000000 0.500000
O O16 0.000000 0.000000 0.500000
#
# Coordination Sequence:
#
# PCOD9056231 Si02
#       7
#     2   2   2   2   2   2   2
#     4  11  22  38  66  97 129 168 225 285 330 384
#     4  11  22  40  64  94 134 174 226 277 330 403
#     4  11  22  36  63 100 127 169 228 277 326 399
#     4  11  23  39  63  92 132 173 216 274 337 401
#     4  11  22  41  65  95 129 177 228 277 333 394
#     4  11  23  44  70  97 129 175 235 273 325 407
#     4  12  25  41  66 100 138 174 217 278 346 400
#
# _framework density 21.420453999999999
#
# number of rings (size 3 to 8) (size 9 to 14) (size 15 to 20)
#    0.000    0.857    7.143    0.429    2.000    0.571 
#    0.000    0.000    3.143    1.714    0.000    0.000 
#    0.000    0.000    0.000    0.000    0.000    0.000 
#
# Total GULP energy -78018.787158 kJ/mol
# GULP energy per Si atom -5572.770511 kJ/mol
# Density = 2.137170 g / cm^3
# Si number density = 21.420454 Si / 1000 Ang^3
#
#
#
# Elastic Constant Matrix: (Units=GPa)
#
#
# Indices 1 2 3 4 5 6 
#
# 1 50.2576 16.8899 23.9294 4.8208 16.7671 -9.3495
# 2 16.8899 107.5267 37.4129 16.6822 7.9652 -13.0868
# 3 23.9294 37.4129 173.8726 32.4648 16.5789 2.4001
# 4 4.8208 16.6822 32.4648 46.7462 1.3443 -0.1704
# 5 16.7671 7.9652 16.5789 1.3443 33.4795 2.5513
# 6 -9.3495 -13.0868 2.4001 -0.1704 2.5513 22.2121
#
#
#
# Elastic Compliance Matrix: (Units=1/GPa)
#
#
# Indices 1 2 3 4 5 6 
#
# 1 0.028535 -0.000890 -0.002521 -0.000428 -0.013830 0.013344
# 2 -0.000890 0.011420 -0.001753 -0.002690 -0.001808 0.006730
# 3 -0.002521 -0.001753 0.007465 -0.004262 -0.001637 -0.002745
# 4 -0.000428 -0.002690 -0.004262 0.025292 0.002052 -0.001346
# 5 -0.013830 -0.001808 -0.001637 0.002052 0.038803 -0.011151
# 6 0.013344 0.006730 -0.002745 -0.001346 -0.011151 0.056170
#
#
# Mechanical properties :
#
#
# Convention : Reuss Voigt Hill
#
# Bulk Modulus (GPa) = 26.96049 54.23571 40.59810
# Shear Modulus (GPa) = 26.26362 37.38255 31.82308
#
# Velocity S-wave (km/s) = 3.50537 4.18207 3.85858
# Velocity P-wave (km/s) = 5.38490 6.97812 6.23263
#
# Compressibility (1/GPa) = 0.03709131
#
# Stress axis : x y z
#
# Youngs Moduli (GPa) = 35.04528 87.56456 133.95379
#
# Poissons Ratio (x) = 0.07793 0.33773
# Poissons Ratio (y) = 0.03119 0.23484
# Poissons Ratio (z) = 0.08836 0.15351
#
# Static dielectric constant tensor:
#      x y z
#    x 1.865590 0.022420 0.039330 
#    y 0.022420 1.761170 0.022240 
#    z 0.039330 0.022240 1.868750 
# 
# From -- ./inp_files/208874.got.cif
#   From: 2010.05.17/outbox.cif.g08.bks.cpg/sg2_105_cif.got.tgz:208874.got - 2010.06.03 11:33:40.
