data_PCOD9056138
_publ_section_title
;
Structure prediction by ZEFSAII (Michael W. Deem and Ramdas Pophale) SiO2 
 PCOD9056138
Probable space group: P -1
;
_chemical_formula_sum "Si O2"
_cell_formula_units_Z 15
_cell_length_a 9.322512
_cell_length_b 9.456574
_cell_length_c 9.167583
_cell_angle_alpha 62.063482
_cell_angle_beta 60.827898
_cell_angle_gamma 72.204933
_cell_volume 620.321494
_symmetry_space_group_name_H-M "P -1"
_symmetry_group_IT_number 2
_symmetry_cell_setting 'triclinic'
loop_
_space_group_symop_operation_xyz
x,y,z
-x,-y,-z
loop_
_atom_site_type_symbol
_atom_site_label
_atom_site_fract_x
_atom_site_fract_y
_atom_site_fract_z
Si Si1 0.305756 0.152774 0.245815
Si Si2 0.164139 0.883931 0.933699
Si Si3 0.056956 0.727668 0.556223
Si Si4 0.500000 0.000000 0.500000
Si Si5 0.305219 0.851250 0.183636
Si Si6 0.620372 0.617464 0.143581
Si Si7 0.954685 0.590006 0.132783
Si Si8 0.660075 0.244025 0.362075
O O1 0.112411 0.172425 0.369004
O O2 0.403174 0.114340 0.362772
O O3 0.331465 0.012405 0.179674
O O4 0.341102 0.316654 0.067489
O O5 0.290869 0.882369 0.004167
O O6 0.085276 0.716939 0.028343
O O7 0.275843 0.895104 0.725062
O O8 0.000000 0.000000 0.000000
O O9 0.130245 0.787765 0.342533
O O10 0.038412 0.539469 0.678699
O O11 0.195721 0.759524 0.591263
O O12 0.496977 0.838263 0.470705
O O13 0.444777 0.709922 0.223198
O O14 0.767034 0.660679 0.158177
O O15 0.621440 0.425123 0.241092
O O16 0.000000 0.500000 0.000000
#
# Coordination Sequence:
#
# PCOD9056138 Si02
#       8
#     2   2   2   1   2   2   2   2
#     4  12  24  47  73 103 141 199 234 293 353 441
#     4  12  25  43  72 107 141 183 243 294 349 428
#     4  11  23  47  76  99 146 188 237 289 364 423
#     4  12  28  40  72 102 138 184 252 280 360 416
#     4  12  27  42  68 113 147 177 232 312 359 400
#     4  11  24  47  77  97 149 185 242 289 359 429
#     4  11  21  46  77 103 132 195 240 280 353 441
#     4  11  24  49  71 103 139 196 230 288 363 436
#
# _framework density 24.181007999999999
#
# number of rings (size 3 to 8) (size 9 to 14) (size 15 to 20)
#    0.000    0.533    5.333    3.200    1.867    6.933 
#    2.400    0.000    0.000    0.000    0.000    0.000 
#    0.000    0.000    0.000    0.000    0.000    0.000 
#
# Total GULP energy -83759.560354 kJ/mol
# GULP energy per Si atom -5583.970690 kJ/mol
# Density = 2.412597 g / cm^3
# Si number density = 24.181008 Si / 1000 Ang^3
#
#
#
# Elastic Constant Matrix: (Units=GPa)
#
#
# Indices 1 2 3 4 5 6 
#
# 1 102.7600 48.6417 -0.9258 -4.2185 7.5923 -8.0073
# 2 48.6417 79.2459 12.7884 -8.2505 0.1381 -19.4209
# 3 -0.9258 12.7884 78.3966 -6.8273 11.8111 -6.7010
# 4 -4.2185 -8.2505 -6.8273 48.8551 -4.5804 -7.8997
# 5 7.5923 0.1381 11.8111 -4.5804 37.4688 -2.7996
# 6 -8.0073 -19.4209 -6.7010 -7.8997 -2.7996 37.9220
#
#
#
# Elastic Compliance Matrix: (Units=1/GPa)
#
#
# Indices 1 2 3 4 5 6 
#
# 1 0.014481 -0.009804 0.002100 -0.000799 -0.003810 -0.002040
# 2 -0.009804 0.022013 -0.003104 0.004426 0.004163 0.009884
# 3 0.002100 -0.003104 0.014220 0.001425 -0.004624 0.001322
# 4 -0.000799 0.004426 0.001425 0.022815 0.003033 0.007326
# 5 -0.003810 0.004163 -0.004624 0.003033 0.029522 0.003322
# 6 -0.002040 0.009884 0.001322 0.007326 0.003322 0.033006
#
#
# Mechanical properties :
#
#
# Convention : Reuss Voigt Hill
#
# Bulk Modulus (GPa) = 34.36351 42.37899 38.37125
# Shear Modulus (GPa) = 29.87352 38.17574 34.02463
#
# Velocity S-wave (km/s) = 3.51866 3.97766 3.75518
# Velocity P-wave (km/s) = 5.54524 6.21767 5.89106
#
# Compressibility (1/GPa) = 0.02910064
#
# Stress axis : x y z
#
# Youngs Moduli (GPa) = 69.05729 45.42705 70.32123
#
# Poissons Ratio (x) = 0.44535 -0.14770
# Poissons Ratio (y) = 0.67702 0.21825
# Poissons Ratio (z) = -0.14505 0.14099
#
# Static dielectric constant tensor:
#      x y z
#    x 1.686820 -0.053480 0.172030 
#    y -0.053480 1.911430 0.076010 
#    z 0.172030 0.076010 1.741260 
# 
# From -- ./inp_files/157147.got.cif
#   From: 2010.05.17/outbox.cif.g08.bks.cpg/sg2_79_cif.got.tgz:157147.got - 2010.06.03 11:33:40.
