data_PCOD9056351
_publ_section_title
;
Structure prediction by ZEFSAII (Michael W. Deem and Ramdas Pophale) SiO2 
 PCOD9056351
Probable space group: P -1
;
_chemical_formula_sum "Si O2"
_cell_formula_units_Z 16
_cell_length_a 11.826196
_cell_length_b 18.413846
_cell_length_c 21.528663
_cell_angle_alpha 18.951019
_cell_angle_beta 28.532370
_cell_angle_gamma 30.535792
_cell_volume 713.161566
_symmetry_space_group_name_H-M "P -1"
_symmetry_group_IT_number 2
_symmetry_cell_setting 'triclinic'
loop_
_space_group_symop_operation_xyz
x,y,z
-x,-y,-z
loop_
_atom_site_type_symbol
_atom_site_label
_atom_site_fract_x
_atom_site_fract_y
_atom_site_fract_z
Si Si1 0.935254 0.607376 0.038764
Si Si2 0.043360 0.825648 0.001147
Si Si3 0.774608 0.020946 0.862952
Si Si4 0.726585 0.499161 0.437025
Si Si5 0.397932 0.754956 0.493062
Si Si6 0.159763 0.673776 0.207573
Si Si7 0.718654 0.799189 0.415949
Si Si8 0.320180 0.242593 0.087435
O O1 0.773150 0.426955 0.283627
O O2 0.188130 0.458425 0.016363
O O3 0.941699 0.803277 0.926581
O O4 0.796656 0.727754 0.947925
O O5 0.087311 0.786031 0.085399
O O6 0.945277 0.591660 0.224034
O O7 0.834487 0.000655 0.923195
O O8 0.271301 0.942429 0.777414
O O9 0.808067 0.252935 0.627402
O O10 0.500000 0.000000 0.000000
O O11 0.500000 0.500000 0.500000
O O12 0.616849 0.667021 0.410671
O O13 0.494137 0.768065 0.506362
O O14 0.276798 0.007532 0.327081
O O15 0.231851 0.397198 0.397276
O O16 0.943739 0.739371 0.307582
O O17 0.397419 0.759690 0.045414
#
# Coordination Sequence:
#
# PCOD9056351 Si02
#       8
#     2   2   2   2   2   2   2   2
#     4  11  25  44  63  96 129 174 214 259 320 375
#     4  12  23  39  61  96 127 166 210 262 330 377
#     4  12  25  41  65  92 134 170 212 267 314 383
#     4  12  23  38  63  96 130 169 205 259 327 380
#     4  12  21  39  66  98 129 160 212 268 322 373
#     4  11  22  38  61  95 131 161 211 263 322 378
#     4  11  23  36  65  99 128 163 207 276 326 371
#     4  11  24  41  68  93 131 169 215 263 314 387
#
# _framework density 22.435310000000001
#
# number of rings (size 3 to 8) (size 9 to 14) (size 15 to 20)
#    0.000    0.500    6.250    3.000    3.500    0.000 
#    0.000    0.625    0.000    1.500    0.000    0.000 
#    0.000    0.000    0.000    0.000    0.000    0.000 
#
# Total GULP energy -89354.762808 kJ/mol
# GULP energy per Si atom -5584.672675 kJ/mol
# Density = 2.238425 g / cm^3
# Si number density = 22.435310 Si / 1000 Ang^3
#
#
#
# Elastic Constant Matrix: (Units=GPa)
#
#
# Indices 1 2 3 4 5 6 
#
# 1 107.2517 34.4555 52.4726 -25.5814 12.6248 -0.4609
# 2 34.4555 53.0727 6.9953 -7.3505 7.0821 5.7978
# 3 52.4726 6.9953 160.5909 -32.6021 22.0752 -8.3682
# 4 -25.5814 -7.3505 -32.6021 24.4065 -8.3783 0.1062
# 5 12.6248 7.0821 22.0752 -8.3783 47.1894 -6.7147
# 6 -0.4609 5.7978 -8.3682 0.1062 -6.7147 15.6336
#
#
#
# Elastic Compliance Matrix: (Units=1/GPa)
#
#
# Indices 1 2 3 4 5 6 
#
# 1 0.015956 -0.008876 -0.002581 0.010779 0.000546 0.002542
# 2 -0.008876 0.026000 0.001627 -0.000599 -0.003919 -0.010712
# 3 -0.002581 0.001627 0.009396 0.009731 -0.001717 0.003547
# 4 0.010779 -0.000599 0.009731 0.066993 0.005647 0.007719
# 5 0.000546 -0.003919 -0.001717 0.005647 0.025042 0.011268
# 6 0.002542 -0.010712 0.003547 0.007719 0.011268 0.074698
#
#
# Mechanical properties :
#
#
# Convention : Reuss Voigt Hill
#
# Bulk Modulus (GPa) = 31.55513 56.52909 44.04211
# Shear Modulus (GPa) = 20.13605 32.57871 26.35738
#
# Velocity S-wave (km/s) = 2.99911 3.81480 3.43128
# Velocity P-wave (km/s) = 5.10767 6.68242 5.94740
#
# Compressibility (1/GPa) = 0.03169057
#
# Stress axis : x y z
#
# Youngs Moduli (GPa) = 62.67263 38.46081 106.43106
#
# Poissons Ratio (x) = 0.34139 0.27472
# Poissons Ratio (y) = 0.55630 -0.17313
# Poissons Ratio (z) = 0.16177 -0.06256
#
# Static dielectric constant tensor:
#      x y z
#    x 1.860860 0.045880 -0.046720 
#    y 0.045880 1.861250 -0.020730 
#    z -0.046720 -0.020730 1.873710 
# 
# From -- ./inp_files/595909.got.cif
#   From: 2010.05.17/outbox.cif.g08.bks.cpg/sg2_298_cif.got.tgz:595909.got - 2010.06.03 11:33:40.
