data_PCOD9056346
_publ_section_title
;
Structure prediction by ZEFSAII (Michael W. Deem and Ramdas Pophale) SiO2 
 PCOD9056346
Probable space group: P -1
;
_chemical_formula_sum "Si O2"
_cell_formula_units_Z 16
_cell_length_a 15.355029
_cell_length_b 10.751592
_cell_length_c 9.417546
_cell_angle_alpha 118.157457
_cell_angle_beta 49.009873
_cell_angle_gamma 136.347031
_cell_volume 810.085889
_symmetry_space_group_name_H-M "P -1"
_symmetry_group_IT_number 2
_symmetry_cell_setting 'triclinic'
loop_
_space_group_symop_operation_xyz
x,y,z
-x,-y,-z
loop_
_atom_site_type_symbol
_atom_site_label
_atom_site_fract_x
_atom_site_fract_y
_atom_site_fract_z
Si Si1 0.922919 0.591188 0.093484
Si Si2 0.990452 0.276987 0.456393
Si Si3 0.555766 0.980483 0.079695
Si Si4 0.647198 0.263441 0.358695
Si Si5 0.133145 0.928856 0.243815
Si Si6 0.095122 0.652627 0.683983
Si Si7 0.504656 0.307211 0.794350
Si Si8 0.253350 0.285793 0.159115
O O1 0.755966 0.447503 0.249343
O O2 0.006139 0.775531 0.191711
O O3 0.000000 0.500000 0.000000
O O4 0.964850 0.625961 0.901411
O O5 0.048694 0.459400 0.578858
O O6 0.125875 0.294571 0.253276
O O7 0.915590 0.124086 0.571450
O O8 0.884421 0.248211 0.430023
O O9 0.552988 0.100897 0.263705
O O10 0.484378 0.789445 0.132117
O O11 0.726413 0.066187 0.924701
O O12 0.500000 0.000000 0.000000
O O13 0.760514 0.251756 0.322078
O O14 0.546135 0.260400 0.581173
O O15 0.182784 0.122881 0.256984
O O16 0.622895 0.521344 0.800299
O O17 0.342520 0.253544 0.938174
#
# Coordination Sequence:
#
# PCOD9056346 Si02
#       8
#     2   2   2   2   2   2   2   2
#     4  10  17  36  61  88 120 149 190 257 321 343
#     4  11  20  35  61  93 119 151 204 251 298 357
#     4  11  24  37  63  95 121 152 201 263 303 354
#     4  11  19  39  62  93 120 156 196 250 317 355
#     4  11  20  37  60  88 120 160 201 245 306 367
#     4  10  20  32  61  95 118 146 188 260 312 347
#     4  10  22  40  60  83 122 172 204 233 297 369
#     4  10  22  38  58  85 125 170 206 235 291 368
#
# _framework density 19.750992
#
# number of rings (size 3 to 8) (size 9 to 14) (size 15 to 20)
#    0.000    1.500    6.250    0.750    1.750    1.000 
#    0.000    0.625    0.000   16.500    0.000    0.000 
#    0.000    0.000    0.000    0.000    0.000    0.000 
#
# Total GULP energy -89247.040034 kJ/mol
# GULP energy per Si atom -5577.940002 kJ/mol
# Density = 1.970604 g / cm^3
# Si number density = 19.750992 Si / 1000 Ang^3
#
#
#
# Elastic Constant Matrix: (Units=GPa)
#
#
# Indices 1 2 3 4 5 6 
#
# 1 53.9013 30.2710 47.6122 10.9149 13.0299 -4.3425
# 2 30.2710 105.4770 30.9732 -6.9071 14.1842 -13.4725
# 3 47.6122 30.9732 135.3962 -3.6791 4.8674 -11.6842
# 4 10.9149 -6.9071 -3.6791 17.7082 7.3409 3.9862
# 5 13.0299 14.1842 4.8674 7.3409 23.7795 -1.8346
# 6 -4.3425 -13.4725 -11.6842 3.9862 -1.8346 7.5485
#
#
#
# Elastic Compliance Matrix: (Units=1/GPa)
#
#
# Indices 1 2 3 4 5 6 
#
# 1 0.044235 -0.009699 -0.013804 -0.032180 -0.005507 0.002427
# 2 -0.009699 0.015557 0.001914 0.011118 -0.006422 0.017716
# 3 -0.013804 0.001914 0.012955 0.008508 0.002033 0.011528
# 4 -0.032180 0.011118 0.008508 0.103896 -0.026423 -0.046787
# 5 -0.005507 -0.006422 0.002033 -0.026423 0.057919 0.016548
# 6 0.002427 0.017716 0.011528 -0.046787 0.016548 0.212064
#
#
# Mechanical properties :
#
#
# Convention : Reuss Voigt Hill
#
# Bulk Modulus (GPa) = 33.81856 56.94305 45.38080
# Shear Modulus (GPa) = 10.00680 22.20178 16.10429
#
# Velocity S-wave (km/s) = 2.25333 3.35637 2.85856
# Velocity P-wave (km/s) = 4.89179 6.62672 5.82422
#
# Compressibility (1/GPa) = 0.02956956
#
# Stress axis : x y z
#
# Youngs Moduli (GPa) = 22.60628 64.28080 77.18990
#
# Poissons Ratio (x) = 0.62343 1.06552
# Poissons Ratio (y) = 0.21925 -0.14771
# Poissons Ratio (z) = 0.31205 -0.12300
#
# Static dielectric constant tensor:
#      x y z
#    x 1.685800 -0.011530 -0.030440 
#    y -0.011530 1.720610 -0.029810 
#    z -0.030440 -0.029810 1.758020 
# 
# From -- ./inp_files/304773.got.cif
#   From: 2010.05.17/outbox.cif.g08.bks.cpg/sg2_153_cif.got.tgz:304773.got - 2010.06.03 11:33:40.
