data_PCOD9056643
_publ_section_title
;
Structure prediction by ZEFSAII (Michael W. Deem and Ramdas Pophale) SiO2 
 PCOD9056643
Probable space group: P -1
;
_chemical_formula_sum "Si O2"
_cell_formula_units_Z 10
_cell_length_a 8.216228
_cell_length_b 12.050571
_cell_length_c 11.957292
_cell_angle_alpha 23.691539
_cell_angle_beta 86.398230
_cell_angle_gamma 85.189084
_cell_volume 473.738705
_symmetry_space_group_name_H-M "P -1"
_symmetry_group_IT_number 2
_symmetry_cell_setting 'triclinic'
loop_
_space_group_symop_operation_xyz
x,y,z
-x,-y,-z
loop_
_atom_site_type_symbol
_atom_site_label
_atom_site_fract_x
_atom_site_fract_y
_atom_site_fract_z
Si Si1 0.311655 0.775512 0.438794
Si Si2 0.777001 0.545725 0.665590
Si Si3 0.483864 0.220073 0.895351
Si Si4 0.493464 0.288795 0.295387
Si Si5 0.023314 0.991844 0.871964
O O1 0.356552 0.484960 0.641293
O O2 0.354949 0.700343 0.634443
O O3 0.137932 0.892691 0.293402
O O4 0.430620 0.024232 0.179124
O O5 0.650770 0.365656 0.770635
O O6 0.671929 0.647661 0.683663
O O7 0.837328 0.804180 0.356777
O O8 0.927549 0.319476 0.884251
O O9 0.500000 0.000000 0.000000
O O10 0.500000 0.000000 0.500000
O O11 0.500000 0.500000 0.000000
O O12 0.000000 0.000000 0.000000
#
# Coordination Sequence:
#
# PCOD9056643 Si02
#       5
#     2   2   2   2   2
#     4  11  24  41  64  96 129 170 219 266 322 391
#     4  11  24  43  66  97 130 173 222 263 320 396
#     4  11  22  40  64  93 127 173 221 265 314 387
#     4  11  23  45  70  92 123 171 226 283 320 360
#     4  12  25  43  64  98 143 175 200 261 334 398
#
# _framework density 21.108685000000001
#
# number of rings (size 3 to 8) (size 9 to 14) (size 15 to 20)
#    0.000    0.800    0.000    9.600    0.000    4.800 
#    0.000    6.000    0.000    0.000    0.000    0.000 
#    0.000    0.000    0.000    0.000    0.000    0.000 
#
# Total GULP energy -55908.867906 kJ/mol
# GULP energy per Si atom -5590.886791 kJ/mol
# Density = 2.106064 g / cm^3
# Si number density = 21.108685 Si / 1000 Ang^3
#
#
#
# Elastic Constant Matrix: (Units=GPa)
#
#
# Indices 1 2 3 4 5 6 
#
# 1 93.4768 62.1701 40.2934 14.1242 18.7891 -5.8137
# 2 62.1701 163.1176 79.0751 -2.2307 15.6783 -9.0796
# 3 40.2934 79.0751 181.2620 4.9655 0.7612 -17.5566
# 4 14.1242 -2.2307 4.9655 56.1118 -11.7743 5.4102
# 5 18.7891 15.6783 0.7612 -11.7743 56.2113 -7.5171
# 6 -5.8137 -9.0796 -17.5566 5.4102 -7.5171 27.5468
#
#
#
# Elastic Compliance Matrix: (Units=1/GPa)
#
#
# Indices 1 2 3 4 5 6 
#
# 1 0.016620 -0.005332 -0.001130 -0.005433 -0.005097 0.000706
# 2 -0.005332 0.009750 -0.003163 0.001939 -0.000550 -0.000458
# 3 -0.001130 -0.003163 0.007552 -0.000570 0.001583 0.004076
# 4 -0.005433 0.001939 -0.000570 0.020739 0.005154 -0.003538
# 5 -0.005097 -0.000550 0.001583 0.005154 0.021314 0.004556
# 6 0.000706 -0.000458 0.004076 -0.003538 0.004556 0.040836
#
#
# Mechanical properties :
#
#
# Convention : Reuss Voigt Hill
#
# Bulk Modulus (GPa) = 68.15793 88.99260 78.57527
# Shear Modulus (GPa) = 35.47275 45.06184 40.26730
#
# Velocity S-wave (km/s) = 4.10381 4.62535 4.37237
# Velocity P-wave (km/s) = 7.40366 8.41284 7.92433
#
# Compressibility (1/GPa) = 0.01467181
#
# Stress axis : x y z
#
# Youngs Moduli (GPa) = 60.16680 102.56275 132.41823
#
# Poissons Ratio (x) = 0.54687 0.14961
# Poissons Ratio (y) = 0.32081 0.41889
# Poissons Ratio (z) = 0.06798 0.32445
#
# Static dielectric constant tensor:
#      x y z
#    x 1.885730 -0.006630 0.048550 
#    y -0.006630 1.763130 0.025270 
#    z 0.048550 0.025270 1.783500 
# 
# From -- ./inp_files/223098.got.cif
#   From: 2010.05.17/outbox.cif.g08.bks.cpg/sg2_112_cif.got.tgz:223098.got - 2010.06.03 11:33:40.
