data_PCOD9056306
_publ_section_title
;
Structure prediction by ZEFSAII (Michael W. Deem and Ramdas Pophale) SiO2 
 PCOD9056306
Probable space group: P -1
;
_chemical_formula_sum "Si O2"
_cell_formula_units_Z 15
_cell_length_a 10.719113
_cell_length_b 16.213506
_cell_length_c 7.674492
_cell_angle_alpha 78.927563
_cell_angle_beta 94.970817
_cell_angle_gamma 29.726730
_cell_volume 554.103473
_symmetry_space_group_name_H-M "P -1"
_symmetry_group_IT_number 2
_symmetry_cell_setting 'triclinic'
loop_
_space_group_symop_operation_xyz
x,y,z
-x,-y,-z
loop_
_atom_site_type_symbol
_atom_site_label
_atom_site_fract_x
_atom_site_fract_y
_atom_site_fract_z
Si Si1 0.312665 0.945714 0.341622
Si Si2 0.792863 0.622528 0.258638
Si Si3 0.750463 0.355550 0.918790
Si Si4 0.573014 0.308596 0.432782
Si Si5 0.500000 0.000000 0.500000
Si Si6 0.746364 0.467782 0.321738
Si Si7 0.643407 0.847524 0.938772
Si Si8 0.059763 0.141702 0.668192
O O1 0.474005 0.832144 0.222723
O O2 0.333748 0.844884 0.489173
O O3 0.503384 0.898045 0.486292
O O4 0.985276 0.177377 0.158114
O O5 0.794245 0.528718 0.220360
O O6 0.000000 0.500000 0.500000
O O7 0.886315 0.644138 0.143127
O O8 0.615825 0.531385 0.807489
O O9 0.472635 0.460703 0.834955
O O10 0.910381 0.248858 0.792699
O O11 0.402096 0.426218 0.549495
O O12 0.865274 0.188889 0.538041
O O13 0.694521 0.863989 0.761510
O O14 0.045599 0.235385 0.504693
O O15 0.399414 0.924864 0.831754
O O16 0.500000 0.000000 0.000000
#
# Coordination Sequence:
#
# PCOD9056306 Si02
#       8
#     2   2   2   2   1   2   2   2
#     4  11  22  40  64  88 136 166 220 274 326 396
#     4  11  22  37  64  99 128 177 226 267 325 397
#     4   9  16  34  61  98 126 166 212 271 334 380
#     4   8  18  32  59  98 127 163 216 271 321 392
#     4  12  28  44  62 102 126 180 226 268 332 390
#     4   8  17  29  58  97 130 155 219 271 316 397
#     4  12  23  42  67  88 132 177 219 271 324 391
#     4   9  16  33  61  91 126 167 212 266 327 383
#
# _framework density 27.070755999999999
#
# number of rings (size 3 to 8) (size 9 to 14) (size 15 to 20)
#    0.000    2.133    2.667    2.400    1.867    3.733 
#    0.000    3.333    0.000    1.600    0.000    0.000 
#    0.000    0.000    0.000    0.000    0.000    0.000 
#
# Total GULP energy -83747.116859 kJ/mol
# GULP energy per Si atom -5583.141124 kJ/mol
# Density = 2.700914 g / cm^3
# Si number density = 27.070756 Si / 1000 Ang^3
#
#
#
# Elastic Constant Matrix: (Units=GPa)
#
#
# Indices 1 2 3 4 5 6 
#
# 1 163.4648 19.2621 64.4570 -21.5781 -22.6067 56.7734
# 2 19.2621 93.0761 40.9311 0.8455 -13.1906 5.4339
# 3 64.4570 40.9311 176.3226 -16.9551 -43.0400 26.1828
# 4 -21.5781 0.8455 -16.9551 42.4041 -9.4807 -6.7235
# 5 -22.6067 -13.1906 -43.0400 -9.4807 58.6163 -6.9720
# 6 56.7734 5.4339 26.1828 -6.7235 -6.9720 40.5516
#
#
#
# Elastic Compliance Matrix: (Units=1/GPa)
#
#
# Indices 1 2 3 4 5 6 
#
# 1 0.013484 -0.000966 -0.001069 0.004438 0.002915 -0.016822
# 2 -0.000966 0.012124 -0.002745 -0.001575 0.000238 0.001279
# 3 -0.001069 -0.002745 0.008834 0.004006 0.005846 -0.002170
# 4 0.004438 -0.001575 0.004006 0.029066 0.008730 -0.002269
# 5 0.002915 0.000238 0.005846 0.008730 0.023661 -0.002373
# 6 -0.016822 0.001279 -0.002170 -0.002269 -0.002373 0.048656
#
#
# Mechanical properties :
#
#
# Convention : Reuss Voigt Hill
#
# Bulk Modulus (GPa) = 40.18674 75.79599 57.99137
# Shear Modulus (GPa) = 32.53546 48.86194 40.69870
#
# Velocity S-wave (km/s) = 3.47056 4.25310 3.88160
# Velocity P-wave (km/s) = 5.56210 7.22347 6.44653
#
# Compressibility (1/GPa) = 0.02488383
#
# Stress axis : x y z
#
# Youngs Moduli (GPa) = 74.16096 82.48034 113.20055
#
# Poissons Ratio (x) = 0.07964 0.12099
# Poissons Ratio (y) = 0.07161 0.31071
# Poissons Ratio (z) = 0.07927 0.22639
#
# Static dielectric constant tensor:
#      x y z
#    x 1.789110 0.159940 0.000160 
#    y 0.159940 2.063710 -0.007070 
#    z 0.000160 -0.007070 2.084510 
# 
# From -- ./inp_files/276484.got.cif
#   From: 2010.05.17/outbox.cif.g08.bks.cpg/sg2_139_cif.got.tgz:276484.got - 2010.06.03 11:33:40.
