data_PCOD9056183
_publ_section_title
;
Structure prediction by ZEFSAII (Michael W. Deem and Ramdas Pophale) SiO2 
 PCOD9056183
Probable space group: P -1
;
_chemical_formula_sum "Si O2"
_cell_formula_units_Z 14
_cell_length_a 24.265739
_cell_length_b 11.858707
_cell_length_c 9.419181
_cell_angle_alpha 137.115485
_cell_angle_beta 146.235642
_cell_angle_gamma 27.948421
_cell_volume 706.009168
_symmetry_space_group_name_H-M "P -1"
_symmetry_group_IT_number 2
_symmetry_cell_setting 'triclinic'
loop_
_space_group_symop_operation_xyz
x,y,z
-x,-y,-z
loop_
_atom_site_type_symbol
_atom_site_label
_atom_site_fract_x
_atom_site_fract_y
_atom_site_fract_z
Si Si1 0.987137 0.106306 0.846664
Si Si2 0.278944 0.777569 0.706810
Si Si3 0.706085 0.875206 0.901312
Si Si4 0.905565 0.449551 0.742876
Si Si5 0.548144 0.638203 0.079735
Si Si6 0.216830 0.555305 0.805055
Si Si7 0.116257 0.489659 0.795462
O O1 0.851867 0.144030 0.585115
O O2 0.975040 0.225551 0.784920
O O3 0.964539 0.261479 0.069099
O O4 0.133136 0.826776 0.909212
O O5 0.335197 0.585949 0.772308
O O6 0.237377 0.005404 0.895901
O O7 0.419940 0.657027 0.804879
O O8 0.783925 0.716702 0.063472
O O9 0.755169 0.691005 0.715173
O O10 0.539666 0.109596 0.796553
O O11 0.874545 0.422577 0.495254
O O12 0.000000 0.500000 0.000000
O O13 0.628045 0.596733 0.071102
O O14 0.209159 0.450381 0.829555
O O15 0.000000 0.500000 0.500000
#
# Coordination Sequence:
#
# PCOD9056183 Si02
#       7
#     2   2   2   2   2   2   2
#     4  11  22  39  66  86 119 164 202 251 302 358
#     4   9  18  41  63  89 121 162 199 241 312 353
#     4   9  21  40  62  82 134 157 194 245 319 345
#     4  11  22  34  60  97 119 155 204 263 293 339
#     4   9  21  37  65  92 122 159 200 253 298 359
#     4  12  23  38  63  95 119 157 218 238 298 369
#     4  11  24  43  60  88 125 165 197 253 312 353
#
# _framework density 19.82977
#
# number of rings (size 3 to 8) (size 9 to 14) (size 15 to 20)
#    0.857    0.857    1.429    4.286    2.000    1.143 
#    0.000    0.714    0.000    0.000    0.000    0.000 
#    0.000    0.000    0.000    0.000    0.000    0.000 
#
# Total GULP energy -78150.332452 kJ/mol
# GULP energy per Si atom -5582.166604 kJ/mol
# Density = 1.978464 g / cm^3
# Si number density = 19.829770 Si / 1000 Ang^3
#
#
#
# Elastic Constant Matrix: (Units=GPa)
#
#
# Indices 1 2 3 4 5 6 
#
# 1 79.7864 28.1352 7.7001 3.6808 -2.5168 -6.5665
# 2 28.1352 88.8499 4.3716 23.8881 -2.8110 -0.2689
# 3 7.7001 4.3716 57.7273 11.6038 2.1595 -3.0560
# 4 3.6808 23.8881 11.6038 21.8388 -6.0005 6.7356
# 5 -2.5168 -2.8110 2.1595 -6.0005 33.3700 -3.7312
# 6 -6.5665 -0.2689 -3.0560 6.7356 -3.7312 22.7828
#
#
#
# Elastic Compliance Matrix: (Units=1/GPa)
#
#
# Indices 1 2 3 4 5 6 
#
# 1 0.014892 -0.005828 -0.002446 0.004848 0.001974 0.002786
# 2 -0.005828 0.019819 0.004999 -0.026192 -0.003081 0.006464
# 3 -0.002446 0.004999 0.021858 -0.020091 -0.003943 0.007580
# 4 0.004848 -0.026192 -0.020091 0.096687 0.013721 -0.027945
# 5 0.001974 -0.003081 -0.003943 0.013721 0.032725 0.001307
# 6 0.002786 0.006464 0.007580 -0.027945 0.001307 0.054264
#
#
# Mechanical properties :
#
#
# Convention : Reuss Voigt Hill
#
# Bulk Modulus (GPa) = 19.99245 34.08638 27.03942
# Shear Modulus (GPa) = 18.97764 28.00877 23.49320
#
# Velocity S-wave (km/s) = 3.09694 3.76235 3.44575
# Velocity P-wave (km/s) = 4.78456 6.00837 5.43105
#
# Compressibility (1/GPa) = 0.05001887
#
# Stress axis : x y z
#
# Youngs Moduli (GPa) = 67.14791 50.45769 45.75035
#
# Poissons Ratio (x) = 0.29406 0.11190
# Poissons Ratio (y) = 0.39133 -0.22870
# Poissons Ratio (z) = 0.16424 -0.25223
#
# Static dielectric constant tensor:
#      x y z
#    x 1.722010 -0.021730 0.034770 
#    y -0.021730 1.705960 0.007250 
#    z 0.034770 0.007250 1.691620 
# 
# From -- ./inp_files/353273.got.cif
#   From: 2010.05.17/outbox.cif.g08.bks.cpg/sg2_177_cif.got.tgz:353273.got - 2010.06.03 11:33:40.
