data_PCOD9056904
_publ_section_title
;
Structure prediction by ZEFSAII (Michael W. Deem and Ramdas Pophale) SiO2 
 PCOD9056904
Probable space group: P -1
;
_chemical_formula_sum "Si O2"
_cell_formula_units_Z 16
_cell_length_a 14.282671
_cell_length_b 9.386800
_cell_length_c 25.631077
_cell_angle_alpha 141.003385
_cell_angle_beta 158.107612
_cell_angle_gamma 51.945802
_cell_volume 721.502211
_symmetry_space_group_name_H-M "P -1"
_symmetry_group_IT_number 2
_symmetry_cell_setting 'triclinic'
loop_
_space_group_symop_operation_xyz
x,y,z
-x,-y,-z
loop_
_atom_site_type_symbol
_atom_site_label
_atom_site_fract_x
_atom_site_fract_y
_atom_site_fract_z
Si Si1 0.377275 0.598314 0.771476
Si Si2 0.645091 0.226587 0.941377
Si Si3 0.133071 0.253352 0.449280
Si Si4 0.837726 0.227413 0.638674
Si Si5 0.203990 0.909109 0.918349
Si Si6 0.407582 0.351534 0.505813
Si Si7 0.784901 0.599065 0.259206
Si Si8 0.578133 0.135789 0.365781
O O1 0.319409 0.424927 0.641566
O O2 0.348205 0.440631 0.763552
O O3 0.131884 0.687408 0.674626
O O4 0.659648 0.852179 0.981004
O O5 0.373850 0.278602 0.822288
O O6 0.630783 0.107846 0.843262
O O7 0.658343 0.036823 0.937908
O O8 0.914122 0.494946 0.164465
O O9 0.300380 0.320480 0.500756
O O10 0.045056 0.964577 0.336524
O O11 0.636986 0.255390 0.586224
O O12 0.654501 0.122565 0.461504
O O13 0.260722 0.676847 0.861390
O O14 0.871259 0.806860 0.717732
O O15 0.512737 0.640522 0.624455
O O16 0.118505 0.768458 0.479139
#
# Coordination Sequence:
#
# PCOD9056904 Si02
#       8
#     2   2   2   2   2   2   2   2
#     4  11  23  41  69  98 130 169 215 273 333 391
#     4  12  25  40  69 100 129 178 213 270 331 392
#     4  11  24  43  67  97 127 174 219 270 330 384
#     4  12  26  46  67  94 136 176 221 267 321 386
#     4  11  23  39  65  97 129 176 220 260 330 390
#     4  11  24  48  65  91 136 176 219 275 313 382
#     4  11  22  41  64 101 140 163 213 276 330 387
#     4  11  24  44  66  99 132 169 221 270 326 384
#
# _framework density 22.175954000000001
#
# number of rings (size 3 to 8) (size 9 to 14) (size 15 to 20)
#    0.000    0.750    5.000    4.125    5.250    0.500 
#    2.250    0.625    0.000    0.000    0.000    0.000 
#    0.000    0.000    0.000    0.000    0.000    0.000 
#
# Total GULP energy -89580.287266 kJ/mol
# GULP energy per Si atom -5598.767954 kJ/mol
# Density = 2.212548 g / cm^3
# Si number density = 22.175954 Si / 1000 Ang^3
#
#
#
# Elastic Constant Matrix: (Units=GPa)
#
#
# Indices 1 2 3 4 5 6 
#
# 1 73.0005 29.6448 19.0098 -2.0551 -12.8379 9.6378
# 2 29.6448 58.8057 6.9340 1.5584 4.5036 8.7566
# 3 19.0098 6.9340 34.2742 -1.2132 -14.1219 -12.8232
# 4 -2.0551 1.5584 -1.2132 14.6909 2.8177 -1.7525
# 5 -12.8379 4.5036 -14.1219 2.8177 27.1174 -1.9292
# 6 9.6378 8.7566 -12.8232 -1.7525 -1.9292 28.4987
#
#
#
# Elastic Compliance Matrix: (Units=1/GPa)
#
#
# Indices 1 2 3 4 5 6 
#
# 1 0.022861 -0.008878 -0.012729 0.000927 0.004836 -0.010347
# 2 -0.008878 0.025385 -0.010030 -0.003318 -0.014042 -0.010465
# 3 -0.012729 -0.010030 0.066910 0.003245 0.032987 0.039926
# 4 0.000927 -0.003318 0.003245 0.070363 -0.004190 0.006210
# 5 0.004836 -0.014042 0.032987 -0.004190 0.060632 0.021369
# 6 -0.010347 -0.010465 0.039926 0.006210 0.021369 0.061598
#
#
# Mechanical properties :
#
#
# Convention : Reuss Voigt Hill
#
# Bulk Modulus (GPa) = 19.27472 30.80642 25.04057
# Shear Modulus (GPa) = 12.87605 21.42752 17.15178
#
# Velocity S-wave (km/s) = 2.41224 3.11183 2.78410
# Velocity P-wave (km/s) = 4.05822 5.18008 4.65309
#
# Compressibility (1/GPa) = 0.05188144
#
# Stress axis : x y z
#
# Youngs Moduli (GPa) = 43.74238 39.39342 14.94543
#
# Poissons Ratio (x) = 0.34973 0.19025
# Poissons Ratio (y) = 0.38834 0.14990
# Poissons Ratio (z) = 0.55682 0.39512
#
# Static dielectric constant tensor:
#      x y z
#    x 1.845420 0.021810 -0.030160 
#    y 0.021810 1.790940 0.012970 
#    z -0.030160 0.012970 1.804890 
# 
# From -- ./inp_files/464927.got.cif
#   From: 2010.05.17/outbox.cif.g08.bks.cpg/sg2_233_cif.got.tgz:464927.got - 2010.06.03 11:33:40.
