data_PCOD9056511
_publ_section_title
;
Structure prediction by ZEFSAII (Michael W. Deem and Ramdas Pophale) SiO2 
 PCOD9056511
Probable space group: P -1
;
_chemical_formula_sum "Si O2"
_cell_formula_units_Z 16
_cell_length_a 16.160914
_cell_length_b 19.652761
_cell_length_c 9.406868
_cell_angle_alpha 51.101573
_cell_angle_beta 61.807927
_cell_angle_gamma 21.213502
_cell_volume 770.701280
_symmetry_space_group_name_H-M "P -1"
_symmetry_group_IT_number 2
_symmetry_cell_setting 'triclinic'
loop_
_space_group_symop_operation_xyz
x,y,z
-x,-y,-z
loop_
_atom_site_type_symbol
_atom_site_label
_atom_site_fract_x
_atom_site_fract_y
_atom_site_fract_z
Si Si1 0.230745 0.977522 0.194026
Si Si2 0.729066 0.199412 0.357532
Si Si3 0.382860 0.019851 0.152220
Si Si4 0.240205 0.337646 0.442619
Si Si5 0.740962 0.313394 0.450887
Si Si6 0.574693 0.642358 0.109536
Si Si7 0.310721 0.479183 0.141185
Si Si8 0.871961 0.546288 0.933283
O O1 0.395656 0.917781 0.192027
O O2 0.243366 0.898044 0.415265
O O3 0.340371 0.840234 0.143026
O O4 0.952124 0.248882 0.032713
O O5 0.693899 0.317732 0.322941
O O6 0.488487 0.382901 0.222014
O O7 0.991149 0.962910 0.369221
O O8 0.518765 0.898951 0.352628
O O9 0.091326 0.291210 0.044106
O O10 0.500000 0.000000 0.000000
O O11 0.248403 0.436585 0.310708
O O12 0.231288 0.323335 0.300249
O O13 0.000000 0.500000 0.500000
O O14 0.500000 0.500000 0.500000
O O15 0.756542 0.405505 0.316631
O O16 0.542883 0.660646 0.942691
O O17 0.676400 0.652769 0.028776
O O18 0.000000 0.500000 0.000000
#
# Coordination Sequence:
#
# PCOD9056511 Si02
#       8
#     2   2   2   2   2   2   2   2
#     4  12  22  44  69  94 136 184 217 278 340 397
#     4  11  24  43  74  96 133 182 224 280 342 401
#     4  12  21  39  68  93 132 180 224 277 336 397
#     4  11  22  39  65  97 133 177 228 272 333 409
#     4  11  23  45  70 103 135 177 227 281 344 404
#     4  11  24  43  66  98 140 172 225 280 335 402
#     4  11  24  44  66 103 135 175 232 276 338 405
#     4  11  24  42  64 100 137 172 224 282 334 404
#
# _framework density 20.760313
#
# number of rings (size 3 to 8) (size 9 to 14) (size 15 to 20)
#    0.000    0.750    7.500    0.750    0.000    2.000 
#    0.000    2.500    0.000    0.000    0.000    0.000 
#    0.000    0.000    0.000    0.000    0.000    0.000 
#
# Total GULP energy -89318.978156 kJ/mol
# GULP energy per Si atom -5582.436135 kJ/mol
# Density = 2.071306 g / cm^3
# Si number density = 20.760313 Si / 1000 Ang^3
#
#
#
# Elastic Constant Matrix: (Units=GPa)
#
#
# Indices 1 2 3 4 5 6 
#
# 1 117.5719 18.4894 32.9294 1.5829 17.7880 1.2403
# 2 18.4894 107.7468 28.8944 13.5289 8.5067 5.1132
# 3 32.9294 28.8944 106.4015 0.5846 15.0590 -3.5717
# 4 1.5829 13.5289 0.5846 21.6574 -12.5872 -1.7412
# 5 17.7880 8.5067 15.0590 -12.5872 41.8155 -2.2610
# 6 1.2403 5.1132 -3.5717 -1.7412 -2.2610 32.0437
#
#
#
# Elastic Compliance Matrix: (Units=1/GPa)
#
#
# Indices 1 2 3 4 5 6 
#
# 1 0.009924 -0.000286 -0.002408 -0.003052 -0.004273 -0.001074
# 2 -0.000286 0.011790 -0.002507 -0.010198 -0.004608 -0.003029
# 3 -0.002408 -0.002507 0.011210 0.000197 -0.002358 0.001587
# 4 -0.003052 -0.010198 0.000197 0.067240 0.023927 0.007109
# 5 -0.004273 -0.004608 -0.002358 0.023927 0.034959 0.004405
# 6 -0.001074 -0.003029 0.001587 0.007109 0.004405 0.032606
#
#
# Mechanical properties :
#
#
# Convention : Reuss Voigt Hill
#
# Bulk Modulus (GPa) = 44.39926 54.70517 49.55221
# Shear Modulus (GPa) = 26.93407 35.86377 31.39892
#
# Velocity S-wave (km/s) = 3.60583 4.16085 3.89324
# Velocity P-wave (km/s) = 6.22648 7.03503 6.64306
#
# Compressibility (1/GPa) = 0.02252290
#
# Stress axis : x y z
#
# Youngs Moduli (GPa) = 100.76886 84.81514 89.20357
#
# Poissons Ratio (x) = 0.02423 0.21482
# Poissons Ratio (y) = 0.02878 0.22362
# Poissons Ratio (z) = 0.24267 0.21262
#
# Static dielectric constant tensor:
#      x y z
#    x 0.963920 0.474620 0.392620 
#    y 0.474620 1.495260 -0.225110 
#    z 0.392620 -0.225110 1.521100 
# 
# From -- ./inp_files/337587.got.cif
#   From: 2010.05.17/outbox.cif.g08.bks.cpg/sg2_169_cif.got.tgz:337587.got - 2010.06.03 11:33:40.
