data_PCOD9056003
_publ_section_title
;
Structure prediction by ZEFSAII (Michael W. Deem and Ramdas Pophale) SiO2 
 PCOD9056003
Probable space group: P -1
;
_chemical_formula_sum "Si O2"
_cell_formula_units_Z 14
_cell_length_a 9.381709
_cell_length_b 17.507853
_cell_length_c 8.744156
_cell_angle_alpha 31.090733
_cell_angle_beta 62.399117
_cell_angle_gamma 45.728077
_cell_volume 494.698181
_symmetry_space_group_name_H-M "P -1"
_symmetry_group_IT_number 2
_symmetry_cell_setting 'triclinic'
loop_
_space_group_symop_operation_xyz
x,y,z
-x,-y,-z
loop_
_atom_site_type_symbol
_atom_site_label
_atom_site_fract_x
_atom_site_fract_y
_atom_site_fract_z
Si Si1 0.989945 0.927863 0.828884
Si Si2 0.298549 0.100662 0.188858
Si Si3 0.739583 0.353794 0.295389
Si Si4 0.592740 0.663820 0.348808
Si Si5 0.607867 0.168061 0.142594
Si Si6 0.904709 0.803372 0.386249
Si Si7 0.862568 0.512269 0.754970
O O1 0.895223 0.148698 0.478264
O O2 0.838164 0.921670 0.812021
O O3 0.245304 0.793399 0.920742
O O4 0.956860 0.889831 0.081021
O O5 0.436814 0.919926 0.548048
O O6 0.432977 0.141209 0.959052
O O7 0.106617 0.310386 0.006621
O O8 0.573960 0.344716 0.474189
O O9 0.881961 0.349019 0.359603
O O10 0.690376 0.513403 0.927358
O O11 0.808489 0.518757 0.590649
O O12 0.562302 0.663014 0.182569
O O13 0.754355 0.981728 0.274403
O O14 0.843415 0.688524 0.528667
#
# Coordination Sequence:
#
# PCOD9056003 Si02
#       7
#     2   2   2   2   2   2   2
#     4  11  21  44  77  93 131 183 235 266 326 408
#     4  12  26  44  69 101 140 178 219 276 344 399
#     4  11  23  44  72 100 130 179 232 275 325 398
#     4  12  25  44  65 105 139 173 220 289 330 396
#     4  11  23  44  72 100 130 179 232 275 325 398
#     4  11  21  44  77  93 131 183 235 266 326 408
#     4  12  26  44  69 101 140 178 219 276 344 399
#
# _framework density 28.300084999999999
#
# number of rings (size 3 to 8) (size 9 to 14) (size 15 to 20)
#    0.000    0.571    7.143    3.000    0.000    2.286 
#    0.000    2.857    0.000    0.000    0.000    0.000 
#    0.000    0.000    0.000    0.000    0.000    0.000 
#
# Total GULP energy -78365.565455 kJ/mol
# GULP energy per Si atom -5597.540390 kJ/mol
# Density = 2.823567 g / cm^3
# Si number density = 28.300085 Si / 1000 Ang^3
#
#
#
# Elastic Constant Matrix: (Units=GPa)
#
#
# Indices 1 2 3 4 5 6 
#
# 1 200.5792 9.0618 42.8787 17.9070 -8.7367 19.8805
# 2 9.0618 74.1738 22.3429 -10.0284 -3.2686 3.2692
# 3 42.8787 22.3429 139.4535 34.8730 -3.9104 2.8444
# 4 17.9070 -10.0284 34.8730 46.5450 9.2816 -9.2744
# 5 -8.7367 -3.2686 -3.9104 9.2816 64.4482 9.8538
# 6 19.8805 3.2692 2.8444 -9.2744 9.8538 38.0367
#
#
#
# Elastic Compliance Matrix: (Units=1/GPa)
#
#
# Indices 1 2 3 4 5 6 
#
# 1 0.005954 -0.000609 -0.000854 -0.002973 0.001793 -0.004185
# 2 -0.000609 0.015681 -0.004149 0.007111 -0.000748 0.001208
# 3 -0.000854 -0.004149 0.010589 -0.009490 0.002119 -0.002852
# 4 -0.002973 0.007111 -0.009490 0.035206 -0.007553 0.012193
# 5 0.001793 -0.000748 0.002119 -0.007553 0.018094 -0.007560
# 6 -0.004185 0.001208 -0.002852 0.012193 -0.007560 0.033519
#
#
# Mechanical properties :
#
#
# Convention : Reuss Voigt Hill
#
# Bulk Modulus (GPa) = 47.61849 62.53039 55.07444
# Shear Modulus (GPa) = 36.42542 52.46751 44.44646
#
# Velocity S-wave (km/s) = 3.59153 4.31045 3.96731
# Velocity P-wave (km/s) = 5.83623 6.84958 6.36311
#
# Compressibility (1/GPa) = 0.02100025
#
# Stress axis : x y z
#
# Youngs Moduli (GPa) = 167.95541 63.77013 94.43878
#
# Poissons Ratio (x) = 0.03882 0.08065
# Poissons Ratio (y) = 0.10223 0.39185
# Poissons Ratio (z) = 0.14344 0.26460
#
# Static dielectric constant tensor:
#      x y z
#    x 2.219120 -0.068920 0.043680 
#    y -0.068920 2.228480 -0.050020 
#    z 0.043680 -0.050020 2.197070 
# 
# From -- ./inp_files/190205.got.cif
#   From: 2010.05.17/outbox.cif.g08.bks.cpg/sg2_96_cif.got.tgz:190205.got - 2010.06.03 11:33:40.
