data_PCOD9056055
_publ_section_title
;
Structure prediction by ZEFSAII (Michael W. Deem and Ramdas Pophale) SiO2 
 PCOD9056055
Probable space group: P -1
;
_chemical_formula_sum "Si O2"
_cell_formula_units_Z 13
_cell_length_a 11.503867
_cell_length_b 7.975726
_cell_length_c 7.965854
_cell_angle_alpha 122.696138
_cell_angle_beta 117.117747
_cell_angle_gamma 87.435111
_cell_volume 527.280724
_symmetry_space_group_name_H-M "P -1"
_symmetry_group_IT_number 2
_symmetry_cell_setting 'triclinic'
loop_
_space_group_symop_operation_xyz
x,y,z
-x,-y,-z
loop_
_atom_site_type_symbol
_atom_site_label
_atom_site_fract_x
_atom_site_fract_y
_atom_site_fract_z
Si Si1 0.334955 0.192484 0.740489
Si Si2 0.426313 0.757588 0.849868
Si Si3 0.416482 0.332819 0.515814
Si Si4 0.000000 0.500000 0.000000
Si Si5 0.236511 0.923113 0.014454
Si Si6 0.709197 0.251149 0.686617
Si Si7 0.912796 0.888376 0.227532
O O1 0.325643 0.286608 0.602538
O O2 0.230673 0.213259 0.828101
O O3 0.316399 0.949459 0.558290
O O4 0.483306 0.289062 0.964103
O O5 0.423225 0.573854 0.617187
O O6 0.500000 0.000000 0.000000
O O7 0.283772 0.775209 0.832909
O O8 0.340182 0.151742 0.239856
O O9 0.563132 0.297623 0.637853
O O10 0.833530 0.433156 0.803713
O O11 0.005220 0.265922 0.862762
O O12 0.239374 0.810364 0.131719
O O13 0.109246 0.971991 0.866844
O O14 0.000000 0.000000 0.500000
#
# Coordination Sequence:
#
# PCOD9056055 Si02
#       7
#     2   2   2   1   2   2   2
#     4  11  21  45  72 102 138 183 230 290 349 409
#     4  12  23  38  70 110 144 172 226 291 353 415
#     4  11  24  43  74 107 143 178 225 296 354 407
#     4  12  28  46  72  96 142 196 234 276 356 414
#     4  11  25  44  72 106 137 181 237 292 347 414
#     4  11  23  46  73 103 146 185 231 282 354 416
#     4  12  27  48  69  97 142 189 235 289 345 416
#
# _framework density 24.654799000000001
#
# number of rings (size 3 to 8) (size 9 to 14) (size 15 to 20)
#    0.000    0.615    6.154    2.308    2.154    3.692 
#    0.000    0.769    0.000    0.000    0.000    0.000 
#    0.000    0.000    0.000    0.000    0.000    0.000 
#
# Total GULP energy -72413.772105 kJ/mol
# GULP energy per Si atom -5570.290162 kJ/mol
# Density = 2.459868 g / cm^3
# Si number density = 24.654799 Si / 1000 Ang^3
#
#
#
# Elastic Constant Matrix: (Units=GPa)
#
#
# Indices 1 2 3 4 5 6 
#
# 1 76.6769 26.3044 12.0650 3.2653 -23.6826 -30.2587
# 2 26.3044 95.0204 45.9125 -5.6337 -24.1486 -24.2618
# 3 12.0650 45.9125 119.1245 -1.7226 1.1366 -17.0180
# 4 3.2653 -5.6337 -1.7226 54.9430 -1.2585 -7.6067
# 5 -23.6826 -24.1486 1.1366 -1.2585 33.4709 9.2693
# 6 -30.2587 -24.2618 -17.0180 -7.6067 9.2693 49.6261
#
#
#
# Elastic Compliance Matrix: (Units=1/GPa)
#
#
# Indices 1 2 3 4 5 6 
#
# 1 0.020930 0.000480 -0.000921 0.000506 0.012309 0.010459
# 2 0.000480 0.018013 -0.006352 0.002596 0.012256 0.005029
# 3 -0.000921 -0.006352 0.011168 -0.000211 -0.005966 0.001245
# 4 0.000506 0.002596 -0.000211 0.019037 0.001824 0.004083
# 5 0.012309 0.012256 -0.005966 0.001824 0.046876 0.002975
# 6 0.010459 0.005029 0.001245 0.004083 0.002975 0.029484
#
#
# Mechanical properties :
#
#
# Convention : Reuss Voigt Hill
#
# Bulk Modulus (GPa) = 27.37897 51.04286 39.21091
# Shear Modulus (GPa) = 29.19390 41.37732 35.28561
#
# Velocity S-wave (km/s) = 3.44482 4.10111 3.78721
# Velocity P-wave (km/s) = 5.19147 6.57065 5.92135
#
# Compressibility (1/GPa) = 0.03652438
#
# Stress axis : x y z
#
# Youngs Moduli (GPa) = 47.77944 55.51393 89.54341
#
# Poissons Ratio (x) = -0.02662 0.08243
# Poissons Ratio (y) = -0.02291 0.56879
# Poissons Ratio (z) = 0.04398 0.35263
#
# Static dielectric constant tensor:
#      x y z
#    x 2.164680 0.038930 0.018310 
#    y 0.038930 1.986710 -0.006350 
#    z 0.018310 -0.006350 1.942430 
# 
# From -- ./inp_files/189589.got.cif
#   From: 2010.05.17/outbox.cif.g08.bks.cpg/sg2_95_cif.got.tgz:189589.got - 2010.06.03 11:33:40.
