data_PCOD9056034
_publ_section_title
;
Structure prediction by ZEFSAII (Michael W. Deem and Ramdas Pophale) SiO2 
 PCOD9056034
Probable space group: P -1
;
_chemical_formula_sum "Si O2"
_cell_formula_units_Z 15
_cell_length_a 8.633373
_cell_length_b 14.137908
_cell_length_c 8.063365
_cell_angle_alpha 40.489057
_cell_angle_beta 102.690808
_cell_angle_gamma 92.214292
_cell_volume 610.478801
_symmetry_space_group_name_H-M "P -1"
_symmetry_group_IT_number 2
_symmetry_cell_setting 'triclinic'
loop_
_space_group_symop_operation_xyz
x,y,z
-x,-y,-z
loop_
_atom_site_type_symbol
_atom_site_label
_atom_site_fract_x
_atom_site_fract_y
_atom_site_fract_z
Si Si1 0.607892 0.575827 0.152229
Si Si2 0.000000 0.500000 0.000000
Si Si3 0.382240 0.874039 0.286329
Si Si4 0.089048 0.789695 0.503578
Si Si5 0.910832 0.362154 0.641212
Si Si6 0.475380 0.903250 0.782083
Si Si7 0.663088 0.596632 0.756862
Si Si8 0.846701 0.091455 0.135355
O O1 0.725604 0.447997 0.451495
O O2 0.439917 0.525437 0.148567
O O3 0.568821 0.734762 0.013839
O O4 0.690502 0.590913 0.971966
O O5 0.840024 0.580504 0.748522
O O6 0.079143 0.649963 0.801395
O O7 0.269973 0.818841 0.474964
O O8 0.544497 0.749468 0.479102
O O9 0.440209 0.022433 0.150846
O O10 0.269825 0.892643 0.074937
O O11 0.038434 0.738658 0.376242
O O12 0.978023 0.940635 0.344257
O O13 0.000000 0.500000 0.500000
O O14 0.921869 0.240234 0.951644
O O15 0.283709 0.913101 0.746782
O O16 0.500000 0.000000 0.500000
#
# Coordination Sequence:
#
# PCOD9056034 Si02
#       8
#     2   1   2   2   2   2   2   2
#     4  11  23  44  71  96 144 188 239 299 367 427
#     4  12  24  38  72 108 130 184 248 298 346 430
#     4  11  22  49  73  99 144 196 241 297 366 447
#     4  11  24  45  74 102 144 195 242 296 365 441
#     4  11  24  45  71 110 146 189 240 311 371 426
#     4  12  27  43  68 105 143 189 242 305 359 425
#     4  11  21  45  70 100 140 188 244 295 364 441
#     4  11  26  48  70 107 145 198 245 294 372 443
#
# _framework density 24.570875999999998
#
# number of rings (size 3 to 8) (size 9 to 14) (size 15 to 20)
#    0.000    0.800    5.333    3.600    3.733    1.600 
#    0.000    0.667    0.000    0.000    0.000    0.000 
#    0.000    0.000    0.000    0.000    0.000    0.000 
#
# Total GULP energy -83775.099944 kJ/mol
# GULP energy per Si atom -5585.006663 kJ/mol
# Density = 2.451495 g / cm^3
# Si number density = 24.570876 Si / 1000 Ang^3
#
#
#
# Elastic Constant Matrix: (Units=GPa)
#
#
# Indices 1 2 3 4 5 6 
#
# 1 65.3269 -3.6552 73.2485 -5.6867 -25.0607 3.6252
# 2 -3.6552 71.0312 34.0155 -18.8018 -26.0438 13.2976
# 3 73.2485 34.0155 111.4635 -39.3502 -0.6111 -18.4528
# 4 -5.6867 -18.8018 -39.3502 35.3152 11.3751 -3.7619
# 5 -25.0607 -26.0438 -0.6111 11.3751 47.5367 -3.2334
# 6 3.6252 13.2976 -18.4528 -3.7619 -3.2334 25.8099
#
#
#
# Elastic Compliance Matrix: (Units=1/GPa)
#
#
# Indices 1 2 3 4 5 6 
#
# 1 -0.004843 -0.010095 0.014257 0.014856 -0.010303 0.016949
# 2 -0.010095 0.011498 0.009763 0.016694 -0.002580 0.004584
# 3 0.014257 0.009763 -0.007526 -0.006493 0.013529 -0.011665
# 4 0.014856 0.016694 -0.006493 0.028249 0.009453 -0.010028
# 5 -0.010303 -0.002580 0.013529 0.009453 0.013156 0.015475
# 6 0.016949 0.004584 -0.011665 -0.010028 0.015475 0.026139
#
#
# Mechanical properties :
#
#
# Convention : Reuss Voigt Hill
#
# Bulk Modulus (GPa) = 37.06386 50.55992 43.81189
# Shear Modulus (GPa) = 104.56907 31.34654 67.95780
#
# Velocity S-wave (km/s) = 6.53074 3.57565 5.26478
# Velocity P-wave (km/s) = 8.48437 6.13750 7.40451
#
# Compressibility (1/GPa) = 0.02698046
#
# Stress axis : x y z
#
# Youngs Moduli (GPa) = -206.48497 86.97093 -132.86779
#
# Poissons Ratio (x) = 0.87796 1.89433
# Poissons Ratio (y) = -2.08445 1.29725
# Poissons Ratio (z) = 2.94391 -0.84914
#
# Static dielectric constant tensor:
#      x y z
#    x 2.004820 -0.062590 -0.064730 
#    y -0.062590 2.028820 0.075850 
#    z -0.064730 0.075850 1.923410 
# 
# From -- ./inp_files/205283.got.cif
#   From: 2010.05.17/outbox.cif.g08.bks.cpg/sg2_103_cif.got.tgz:205283.got - 2010.06.03 11:33:40.
