data_PCOD9056217
_publ_section_title
;
Structure prediction by ZEFSAII (Michael W. Deem and Ramdas Pophale) SiO2 
 PCOD9056217
Probable space group: P -1
;
_chemical_formula_sum "Si O2"
_cell_formula_units_Z 12
_cell_length_a 14.100243
_cell_length_b 7.504128
_cell_length_c 8.335258
_cell_angle_alpha 144.661017
_cell_angle_beta 75.429492
_cell_angle_gamma 106.299241
_cell_volume 489.223701
_symmetry_space_group_name_H-M "P -1"
_symmetry_group_IT_number 2
_symmetry_cell_setting 'triclinic'
loop_
_space_group_symop_operation_xyz
x,y,z
-x,-y,-z
loop_
_atom_site_type_symbol
_atom_site_label
_atom_site_fract_x
_atom_site_fract_y
_atom_site_fract_z
Si Si1 0.839918 0.604093 0.083321
Si Si2 0.945760 0.068128 0.807412
Si Si3 0.391715 0.092033 0.136424
Si Si4 0.296672 0.916062 0.392440
Si Si5 0.903097 0.408141 0.365850
Si Si6 0.677724 0.259328 0.408200
O O1 0.936370 0.844241 0.175588
O O2 0.767777 0.801047 0.353686
O O3 0.889808 0.319525 0.927095
O O4 0.770880 0.418844 0.842552
O O5 0.913766 0.732088 0.499022
O O6 0.911347 0.111349 0.035343
O O7 0.382173 0.455184 0.392740
O O8 0.352966 0.970880 0.239027
O O9 0.500000 0.000000 0.000000
O O10 0.331213 0.942318 0.898466
O O11 0.354388 0.903537 0.527926
O O12 0.795236 0.368088 0.456360
O O13 0.000000 0.500000 0.500000
#
# Coordination Sequence:
#
# PCOD9056217 Si02
#       6
#     2   2   2   2   2   2
#     4  11  22  39  63  97 137 186 234 282 336 405
#     4  11  22  36  59  91 138 190 236 274 327 399
#     4  12  28  50  76 104 136 180 236 298 360 418
#     4  12  25  45  71 101 140 178 231 292 353 418
#     4  12  23  38  61  97 143 186 228 276 333 408
#     4  12  26  46  74 106 142 186 232 286 352 414
#
# _framework density 24.528655000000001
#
# number of rings (size 3 to 8) (size 9 to 14) (size 15 to 20)
#    0.000    0.333    0.000   11.000    0.000    4.000 
#    0.000    0.000    0.000    0.000    0.000    0.000 
#    0.000    0.000    0.000    0.000    0.000    0.000 
#
# Total GULP energy -67140.088966 kJ/mol
# GULP energy per Si atom -5595.007414 kJ/mol
# Density = 2.447283 g / cm^3
# Si number density = 24.528655 Si / 1000 Ang^3
#
#
#
# Elastic Constant Matrix: (Units=GPa)
#
#
# Indices 1 2 3 4 5 6 
#
# 1 91.8791 36.5280 13.3732 -23.5861 -19.9607 2.8170
# 2 36.5280 121.7854 32.4264 -33.4658 -1.3870 -15.9828
# 3 13.3732 32.4264 105.0547 -1.7796 -17.5293 6.3054
# 4 -23.5861 -33.4658 -1.7796 41.4118 0.5013 -1.4368
# 5 -19.9607 -1.3870 -17.5293 0.5013 38.7211 -7.3417
# 6 2.8170 -15.9828 6.3054 -1.4368 -7.3417 27.5297
#
#
#
# Elastic Compliance Matrix: (Units=1/GPa)
#
#
# Indices 1 2 3 4 5 6 
#
# 1 0.015326 -0.003094 0.000460 0.006117 0.007711 -0.001094
# 2 -0.003094 0.014457 -0.004739 0.010079 -0.001471 0.009929
# 3 0.000460 -0.004739 0.011912 -0.003267 0.004658 -0.004455
# 4 0.006117 0.010079 -0.003267 0.035900 0.003222 0.008707
# 5 0.007711 -0.001471 0.004658 0.003222 0.033002 0.006260
# 6 -0.001094 0.009929 -0.004455 0.008707 0.006260 0.045345
#
#
# Mechanical properties :
#
#
# Convention : Reuss Voigt Hill
#
# Bulk Modulus (GPa) = 37.10688 53.70826 45.40757
# Shear Modulus (GPa) = 27.82844 37.29196 32.56020
#
# Velocity S-wave (km/s) = 3.37193 3.90339 3.64735
# Velocity P-wave (km/s) = 5.50642 6.50068 6.02410
#
# Compressibility (1/GPa) = 0.02694918
#
# Stress axis : x y z
#
# Youngs Moduli (GPa) = 65.24768 69.16961 83.94680
#
# Poissons Ratio (x) = 0.21403 -0.03863
# Poissons Ratio (y) = 0.20190 0.39783
# Poissons Ratio (z) = -0.03002 0.32780
#
# Static dielectric constant tensor:
#      x y z
#    x 1.953620 -0.073080 0.046860 
#    y -0.073080 2.113670 -0.021670 
#    z 0.046860 -0.021670 1.917460 
# 
# From -- ./inp_files/34809.got.cif
#   From: 2010.05.17/outbox.cif.g08.bks.cpg/sg2_18_cif.got.tgz:34809.got - 2010.06.03 11:33:40.
