data_PCOD9056000
_publ_section_title
;
Structure prediction by ZEFSAII (Michael W. Deem and Ramdas Pophale) SiO2 
 PCOD9056000
Probable space group: P -1
;
_chemical_formula_sum "Si O2"
_cell_formula_units_Z 13
_cell_length_a 8.982666
_cell_length_b 10.409470
_cell_length_c 8.467816
_cell_angle_alpha 88.536065
_cell_angle_beta 133.997775
_cell_angle_gamma 84.496913
_cell_volume 562.240314
_symmetry_space_group_name_H-M "P -1"
_symmetry_group_IT_number 2
_symmetry_cell_setting 'triclinic'
loop_
_space_group_symop_operation_xyz
x,y,z
-x,-y,-z
loop_
_atom_site_type_symbol
_atom_site_label
_atom_site_fract_x
_atom_site_fract_y
_atom_site_fract_z
Si Si1 0.600074 0.551316 0.416168
Si Si2 0.062325 0.493277 0.860124
Si Si3 0.323488 0.227000 0.999817
Si Si4 0.071454 0.998927 0.734272
Si Si5 0.500000 0.500000 0.000000
Si Si6 0.556039 0.198938 0.869046
Si Si7 0.391161 0.968271 0.578585
O O1 0.500000 0.500000 0.500000
O O2 0.587493 0.471437 0.247746
O O3 0.471201 0.695754 0.290160
O O4 0.844916 0.554591 0.618748
O O5 0.141193 0.338984 0.909046
O O6 0.254848 0.542473 0.906397
O O7 0.000000 0.500000 0.000000
O O8 0.211939 0.108329 0.866451
O O9 0.444434 0.277626 0.936893
O O10 0.495848 0.165370 0.255254
O O11 0.847070 0.029109 0.647721
O O12 0.000000 0.000000 0.500000
O O13 0.215727 0.868337 0.905419
O O14 0.430362 0.083079 0.726037
O O15 0.500000 0.000000 0.500000
#
# Coordination Sequence:
#
# PCOD9056000 Si02
#       7
#     2   2   2   2   1   2   2
#     4  12  28  49  76 113 153 203 265 317 380 464
#     4  12  28  50  75 110 155 204 266 318 380 461
#     4  11  24  44  72 109 142 187 254 302 372 465
#     4  11  21  44  77 106 140 190 238 304 384 450
#     4  12  26  50  76 104 148 208 254 316 392 444
#     4  11  24  44  73 108 146 188 251 303 374 467
#     4  11  25  42  69 109 144 183 236 306 380 446
#
# _framework density 23.121787000000001
#
# number of rings (size 3 to 8) (size 9 to 14) (size 15 to 20)
#    0.000    0.615    6.154    1.385    2.154    8.615 
#    0.000    0.000    0.000    0.000    0.000    0.000 
#    0.000    0.000    0.000    0.000    0.000    0.000 
#
# Total GULP energy -72382.585118 kJ/mol
# GULP energy per Si atom -5567.891163 kJ/mol
# Density = 2.306916 g / cm^3
# Si number density = 23.121787 Si / 1000 Ang^3
#
#
#
# Elastic Constant Matrix: (Units=GPa)
#
#
# Indices 1 2 3 4 5 6 
#
# 1 191.6578 17.4573 67.7028 -4.7039 -2.2649 8.8709
# 2 17.4573 65.7450 36.2957 -28.4678 -7.4728 -2.6527
# 3 67.7028 36.2957 168.4272 -23.7209 17.0609 4.4258
# 4 -4.7039 -28.4678 -23.7209 48.4168 1.9767 -6.6514
# 5 -2.2649 -7.4728 17.0609 1.9767 50.4836 0.6495
# 6 8.8709 -2.6527 4.4258 -6.6514 0.6495 26.1562
#
#
#
# Elastic Compliance Matrix: (Units=1/GPa)
#
#
# Indices 1 2 3 4 5 6 
#
# 1 0.006297 -0.000841 -0.002620 -0.001513 0.001131 -0.002191
# 2 -0.000841 0.023658 -0.003538 0.012814 0.004075 0.006440
# 3 -0.002620 -0.003538 0.008384 0.001873 -0.003544 -0.000324
# 4 -0.001513 0.012814 0.001873 0.030225 -0.000106 0.009185
# 5 0.001131 0.004075 -0.003544 -0.000106 0.021663 0.000064
# 6 -0.002191 0.006440 -0.000324 0.009185 0.000064 0.042017
#
#
# Mechanical properties :
#
#
# Convention : Reuss Voigt Hill
#
# Bulk Modulus (GPa) = 41.08084 74.30464 57.69274
# Shear Modulus (GPa) = 32.39255 45.30294 38.84775
#
# Velocity S-wave (km/s) = 3.74699 4.43122 4.10339
# Velocity P-wave (km/s) = 6.04365 7.64113 6.88885
#
# Compressibility (1/GPa) = 0.02434225
#
# Stress axis : x y z
#
# Youngs Moduli (GPa) = 158.79395 42.26896 119.27067
#
# Poissons Ratio (x) = 0.03553 0.31254
# Poissons Ratio (y) = 0.13349 0.42194
# Poissons Ratio (z) = 0.41610 0.14954
#
# Static dielectric constant tensor:
#      x y z
#    x 1.835580 -0.013980 -0.074680 
#    y -0.013980 1.848490 0.044330 
#    z -0.074680 0.044330 1.808370 
# 
# From -- ./inp_files/170058.got.cif
#   From: 2010.05.17/outbox.cif.g08.bks.cpg/sg2_86_cif.got.tgz:170058.got - 2010.06.03 11:33:40.
