data_PCOD9056980
_publ_section_title
;
Structure prediction by ZEFSAII (Michael W. Deem and Ramdas Pophale) SiO2 
 PCOD9056980
Probable space group: P -1
;
_chemical_formula_sum "Si O2"
_cell_formula_units_Z 16
_cell_length_a 11.432553
_cell_length_b 14.914267
_cell_length_c 11.288078
_cell_angle_alpha 29.513458
_cell_angle_beta 46.825954
_cell_angle_gamma 65.403466
_cell_volume 599.307543
_symmetry_space_group_name_H-M "P -1"
_symmetry_group_IT_number 2
_symmetry_cell_setting 'triclinic'
loop_
_space_group_symop_operation_xyz
x,y,z
-x,-y,-z
loop_
_atom_site_type_symbol
_atom_site_label
_atom_site_fract_x
_atom_site_fract_y
_atom_site_fract_z
Si Si1 0.322287 0.459520 0.947258
Si Si2 0.301198 0.820362 0.463275
Si Si3 0.099829 0.707301 0.487767
Si Si4 0.778875 0.832102 0.873484
Si Si5 0.749042 0.158127 0.260377
Si Si6 0.802887 0.895378 0.190337
Si Si7 0.150487 0.361504 0.723944
Si Si8 0.480889 0.254910 0.231034
O O1 0.300260 0.314921 0.016517
O O2 0.422713 0.414592 0.035821
O O3 0.113822 0.377832 0.233291
O O4 0.408845 0.697799 0.564993
O O5 0.189126 0.708775 0.551352
O O6 0.204810 0.794134 0.688382
O O7 0.346202 0.058847 0.137323
O O8 0.142112 0.569642 0.523257
O O9 0.179567 0.937448 0.113006
O O10 0.777779 0.701143 0.137881
O O11 0.000000 0.000000 0.500000
O O12 0.683068 0.305688 0.073699
O O13 0.584882 0.924243 0.619520
O O14 0.937435 0.188241 0.045508
O O15 0.758026 0.676933 0.409172
O O16 0.650872 0.858780 0.435061
O O17 0.000000 0.000000 0.000000
#
# Coordination Sequence:
#
# PCOD9056980 Si02
#       8
#     2   2   2   2   2   2   2   2
#     4  12  20  36  61  95 132 155 210 271 318 365
#     4  12  22  36  65 101 124 157 213 277 325 358
#     4  12  22  37  67  99 124 162 217 269 318 373
#     4  12  18  32  61  96 127 151 203 274 326 351
#     4  11  22  41  67  92 131 168 215 261 318 379
#     4  12  24  43  63  89 137 175 209 254 315 388
#     4  12  22  40  68  99 126 162 214 271 318 369
#     4  11  25  43  61  94 134 179 207 250 322 388
#
# _framework density 26.697478
#
# number of rings (size 3 to 8) (size 9 to 14) (size 15 to 20)
#    0.000    0.250   10.000    0.375    0.000    1.000 
#    2.250    0.625    0.000    0.750    0.000    0.000 
#    0.000    0.000    0.000    0.000    0.000    0.000 
#
# Total GULP energy -89556.017846 kJ/mol
# GULP energy per Si atom -5597.251115 kJ/mol
# Density = 2.663671 g / cm^3
# Si number density = 26.697478 Si / 1000 Ang^3
#
#
#
# Elastic Constant Matrix: (Units=GPa)
#
#
# Indices 1 2 3 4 5 6 
#
# 1 182.3486 49.0305 46.0462 -0.7051 42.4534 -6.6164
# 2 49.0305 148.4760 25.7998 -25.8480 6.1993 19.6309
# 3 46.0462 25.7998 71.5824 -3.5812 17.4000 -8.1106
# 4 -0.7051 -25.8480 -3.5812 48.8413 -4.9908 6.8308
# 5 42.4534 6.1993 17.4000 -4.9908 36.7830 -16.6331
# 6 -6.6164 19.6309 -8.1106 6.8308 -16.6331 45.5281
#
#
#
# Elastic Compliance Matrix: (Units=1/GPa)
#
#
# Indices 1 2 3 4 5 6 
#
# 1 0.008979 -0.002224 -0.002922 -0.002035 -0.009530 -0.001433
# 2 -0.002224 0.009625 -0.002474 0.005705 0.000336 -0.005648
# 3 -0.002922 -0.002474 0.017871 -0.000776 -0.003578 0.002635
# 4 -0.002035 0.005705 -0.000776 0.024454 0.002521 -0.005642
# 5 -0.009530 0.000336 -0.003578 0.002521 0.046733 0.014528
# 6 -0.001433 -0.005648 0.002635 -0.005642 0.014528 0.030815
#
#
# Mechanical properties :
#
#
# Convention : Reuss Voigt Hill
#
# Bulk Modulus (GPa) = 47.09433 71.57334 59.33383
# Shear Modulus (GPa) = 31.09541 44.99919 38.04730
#
# Velocity S-wave (km/s) = 3.41652 4.10996 3.77918
# Velocity P-wave (km/s) = 5.76557 7.02778 6.42773
#
# Compressibility (1/GPa) = 0.02123398
#
# Stress axis : x y z
#
# Youngs Moduli (GPa) = 111.37492 103.89208 55.95759
#
# Poissons Ratio (x) = 0.23108 0.16349
# Poissons Ratio (y) = 0.24773 0.13847
# Poissons Ratio (z) = 0.32540 0.25708
#
# Static dielectric constant tensor:
#      x y z
#    x 2.009790 -0.002310 -0.019900 
#    y -0.002310 2.132050 -0.073350 
#    z -0.019900 -0.073350 2.125600 
# 
# From -- ./inp_files/432244.got.cif
#   From: 2010.05.17/outbox.cif.g08.bks.cpg/sg2_217_cif.got.tgz:432244.got - 2010.06.03 11:33:40.
