data_PCOD9056955
_publ_section_title
;
Structure prediction by ZEFSAII (Michael W. Deem and Ramdas Pophale) SiO2 
 PCOD9056955
Probable space group: P -1
;
_chemical_formula_sum "Si O2"
_cell_formula_units_Z 16
_cell_length_a 17.840716
_cell_length_b 9.337020
_cell_length_c 19.790500
_cell_angle_alpha 129.199563
_cell_angle_beta 20.721028
_cell_angle_gamma 116.678020
_cell_volume 772.930784
_symmetry_space_group_name_H-M "P -1"
_symmetry_group_IT_number 2
_symmetry_cell_setting 'triclinic'
loop_
_space_group_symop_operation_xyz
x,y,z
-x,-y,-z
loop_
_atom_site_type_symbol
_atom_site_label
_atom_site_fract_x
_atom_site_fract_y
_atom_site_fract_z
Si Si1 0.992150 0.286178 0.305196
Si Si2 0.988109 0.445894 0.743460
Si Si3 0.575631 0.519228 0.554615
Si Si4 0.195088 0.075407 0.356410
Si Si5 0.694161 0.031014 0.302408
Si Si6 0.186189 0.917942 0.922490
Si Si7 0.584446 0.373386 0.129026
Si Si8 0.741530 0.878007 0.828075
O O1 0.105063 0.395774 0.195273
O O2 0.696651 0.451224 0.602831
O O3 0.091040 0.234669 0.282174
O O4 0.070738 0.071212 0.130925
O O5 0.164192 0.493808 0.655322
O O6 0.160972 0.214152 0.492846
O O7 0.771950 0.439310 0.961959
O O8 0.618214 0.281875 0.442010
O O9 0.416099 0.688421 0.681915
O O10 0.421531 0.617647 0.782580
O O11 0.150152 0.205257 0.362540
O O12 0.482136 0.887732 0.056488
O O13 0.000000 0.000000 0.500000
O O14 0.725257 0.979718 0.180673
O O15 0.500000 0.000000 0.500000
O O16 0.963443 0.901822 0.071922
O O17 0.668372 0.129637 0.964906
#
# Coordination Sequence:
#
# PCOD9056955 Si02
#       8
#     2   2   2   2   2   2   2   2
#     4  11  23  43  64  98 125 170 215 259 316 377
#     4  11  23  42  65  94 129 170 215 263 315 373
#     4  11  23  45  66  94 129 169 212 257 319 378
#     4  11  22  41  66  93 130 171 211 266 322 369
#     4  11  26  43  65 100 129 163 209 263 319 377
#     4  11  23  43  68  92 133 166 206 262 319 379
#     4  11  22  41  66  93 126 167 215 262 308 375
#     4  11  23  43  66  90 133 167 213 267 315 375
#
# _framework density 20.700430000000001
#
# number of rings (size 3 to 8) (size 9 to 14) (size 15 to 20)
#    0.000    1.000    7.500    0.375    1.750    3.000 
#    2.250    1.250    0.000    0.000    0.000    0.000 
#    0.000    0.000    0.000    0.000    0.000    0.000 
#
# Total GULP energy -89387.856614 kJ/mol
# GULP energy per Si atom -5586.741038 kJ/mol
# Density = 2.065331 g / cm^3
# Si number density = 20.700430 Si / 1000 Ang^3
#
#
#
# Elastic Constant Matrix: (Units=GPa)
#
#
# Indices 1 2 3 4 5 6 
#
# 1 111.1510 25.1547 50.9267 -8.4696 -19.5988 -29.5302
# 2 25.1547 102.1646 66.0566 -24.6233 -14.1669 -9.6613
# 3 50.9267 66.0566 90.8494 -21.4804 -4.9070 -20.8105
# 4 -8.4696 -24.6233 -21.4804 47.6604 -6.5627 10.0435
# 5 -19.5988 -14.1669 -4.9070 -6.5627 31.4881 12.3487
# 6 -29.5302 -9.6613 -20.8105 10.0435 12.3487 29.6955
#
#
#
# Elastic Compliance Matrix: (Units=1/GPa)
#
#
# Indices 1 2 3 4 5 6 
#
# 1 0.015735 0.004211 -0.009861 0.000076 0.007425 0.006993
# 2 0.004211 0.025919 -0.020821 0.009977 0.018178 -0.012905
# 3 -0.009861 -0.020821 0.033491 -0.002825 -0.016671 0.014778
# 4 0.000076 0.009977 -0.002825 0.030535 0.016709 -0.015934
# 5 0.007425 0.018178 -0.016671 0.016709 0.056189 -0.027402
# 6 0.006993 -0.012905 0.014778 -0.015934 -0.027402 0.063571
#
#
# Mechanical properties :
#
#
# Convention : Reuss Voigt Hill
#
# Bulk Modulus (GPa) = 45.04188 65.38232 55.21210
# Shear Modulus (GPa) = 17.49573 32.57061 25.03317
#
# Velocity S-wave (km/s) = 2.91036 3.97095 3.48128
# Velocity P-wave (km/s) = 5.75324 7.25797 6.54897
#
# Compressibility (1/GPa) = 0.02220156
#
# Stress axis : x y z
#
# Youngs Moduli (GPa) = 63.55290 38.58208 29.85875
#
# Poissons Ratio (x) = -0.16247 0.29445
# Poissons Ratio (y) = -0.26763 0.62170
# Poissons Ratio (z) = 0.62672 0.80333
#
# Static dielectric constant tensor:
#      x y z
#    x 1.780960 0.029580 0.049830 
#    y 0.029580 1.753530 0.040540 
#    z 0.049830 0.040540 1.749280 
# 
# From -- ./inp_files/599541.got.cif
#   From: 2010.05.17/outbox.cif.g08.bks.cpg/sg2_300_cif.got.tgz:599541.got - 2010.06.03 11:33:40.
