data_PCOD9056841
_publ_section_title
;
Structure prediction by ZEFSAII (Michael W. Deem and Ramdas Pophale) SiO2 
 PCOD9056841
Probable space group: P -1
;
_chemical_formula_sum "Si O2"
_cell_formula_units_Z 14
_cell_length_a 14.439324
_cell_length_b 10.347950
_cell_length_c 16.161562
_cell_angle_alpha 50.411556
_cell_angle_beta 28.605351
_cell_angle_gamma 71.152704
_cell_volume 684.003829
_symmetry_space_group_name_H-M "P -1"
_symmetry_group_IT_number 2
_symmetry_cell_setting 'triclinic'
loop_
_space_group_symop_operation_xyz
x,y,z
-x,-y,-z
loop_
_atom_site_type_symbol
_atom_site_label
_atom_site_fract_x
_atom_site_fract_y
_atom_site_fract_z
Si Si1 0.339755 0.107800 0.437263
Si Si2 0.089400 0.635191 0.134091
Si Si3 0.133850 0.364917 0.516395
Si Si4 0.716717 0.163994 0.540783
Si Si5 0.616290 0.161728 0.920204
Si Si6 0.811910 0.020940 0.216776
Si Si7 0.624357 0.748410 0.320274
O O1 0.247323 0.244041 0.468104
O O2 0.182968 0.908811 0.577174
O O3 0.326084 0.012777 0.576557
O O4 0.624276 0.261840 0.117559
O O5 0.962082 0.639975 0.314186
O O6 0.927093 0.391143 0.327470
O O7 0.109984 0.784679 0.984361
O O8 0.336367 0.617905 0.227949
O O9 0.891759 0.246072 0.695089
O O10 0.529263 0.191573 0.630384
O O11 0.565349 0.975956 0.804528
O O12 0.500000 0.000000 0.000000
O O13 0.645842 0.805002 0.377875
O O14 0.082493 0.092551 0.000727
O O15 0.500000 0.500000 0.500000
#
# Coordination Sequence:
#
# PCOD9056841 Si02
#       7
#     2   2   2   2   2   2   2
#     4  12  27  44  67 103 142 174 228 279 336 409
#     4  12  24  46  68  99 139 182 226 271 337 410
#     4  11  25  47  74  98 133 182 222 284 348 392
#     4  12  25  43  66 104 139 174 230 285 333 406
#     4  11  23  46  78  98 129 178 232 282 341 406
#     4  11  23  41  67  98 138 185 219 275 335 397
#     4  11  22  40  71  99 137 183 232 270 335 405
#
# _framework density 20.467721000000001
#
# number of rings (size 3 to 8) (size 9 to 14) (size 15 to 20)
#    0.000    0.571    5.714    3.000    0.000    3.429 
#    0.000    1.429    0.000    0.000    0.000    0.000 
#    0.000    0.000    0.000    0.000    0.000    0.000 
#
# Total GULP energy -78293.231277 kJ/mol
# GULP energy per Si atom -5592.373663 kJ/mol
# Density = 2.042114 g / cm^3
# Si number density = 20.467721 Si / 1000 Ang^3
#
#
#
# Elastic Constant Matrix: (Units=GPa)
#
#
# Indices 1 2 3 4 5 6 
#
# 1 81.5317 67.4502 36.3176 -11.5622 17.8082 16.0922
# 2 67.4502 179.8411 73.3355 -15.2471 17.2924 18.4903
# 3 36.3176 73.3355 77.2602 -19.7376 16.8227 13.3060
# 4 -11.5622 -15.2471 -19.7376 38.4449 3.1678 -4.1303
# 5 17.8082 17.2924 16.8227 3.1678 35.7966 -4.3344
# 6 16.0922 18.4903 13.3060 -4.1303 -4.3344 46.0662
#
#
#
# Elastic Compliance Matrix: (Units=1/GPa)
#
#
# Indices 1 2 3 4 5 6 
#
# 1 0.020731 -0.005949 -0.000473 0.003753 -0.008173 -0.005150
# 2 -0.005949 0.010883 -0.008469 -0.001959 0.001875 0.000157
# 3 -0.000473 -0.008469 0.026717 0.010570 -0.009663 -0.004114
# 4 0.003753 -0.001959 0.010570 0.032363 -0.008936 -0.001517
# 5 -0.008173 0.001875 -0.009663 -0.008936 0.037349 0.007607
# 6 -0.005150 0.000157 -0.004114 -0.001517 0.007607 0.025212
#
#
# Mechanical properties :
#
#
# Convention : Reuss Voigt Hill
#
# Bulk Modulus (GPa) = 35.02750 76.98220 56.00485
# Shear Modulus (GPa) = 25.96682 34.83019 30.39850
#
# Velocity S-wave (km/s) = 3.56571 4.12966 3.85800
# Velocity P-wave (km/s) = 5.83978 7.77380 6.87514
#
# Compressibility (1/GPa) = 0.02854900
#
# Stress axis : x y z
#
# Youngs Moduli (GPa) = 48.23655 91.88908 37.42889
#
# Poissons Ratio (x) = 0.54664 0.01771
# Poissons Ratio (y) = 0.28695 0.31699
# Poissons Ratio (z) = 0.02282 0.77822
#
# Static dielectric constant tensor:
#      x y z
#    x 1.759900 -0.010040 0.001350 
#    y -0.010040 1.735120 0.001200 
#    z 0.001350 0.001200 1.722490 
# 
# From -- ./inp_files/528222.got.cif
#   From: 2010.05.17/outbox.cif.g08.bks.cpg/sg2_265_cif.got.tgz:528222.got - 2010.06.03 11:33:40.
