data_PCOD9056419
_publ_section_title
;
Structure prediction by ZEFSAII (Michael W. Deem and Ramdas Pophale) SiO2 
 PCOD9056419
Probable space group: P -1
;
_chemical_formula_sum "Si O2"
_cell_formula_units_Z 14
_cell_length_a 14.732733
_cell_length_b 12.213335
_cell_length_c 12.079543
_cell_angle_alpha 34.174323
_cell_angle_beta 150.797173
_cell_angle_gamma 131.974073
_cell_volume 584.273938
_symmetry_space_group_name_H-M "P -1"
_symmetry_group_IT_number 2
_symmetry_cell_setting 'triclinic'
loop_
_space_group_symop_operation_xyz
x,y,z
-x,-y,-z
loop_
_atom_site_type_symbol
_atom_site_label
_atom_site_fract_x
_atom_site_fract_y
_atom_site_fract_z
Si Si1 0.770072 0.485491 0.575060
Si Si2 0.712016 0.524907 0.732194
Si Si3 0.755251 0.118766 0.204091
Si Si4 0.521639 0.206679 0.463104
Si Si5 0.115368 0.144053 0.262080
Si Si6 0.209796 0.996843 0.267853
Si Si7 0.385122 0.087729 0.983365
O O1 0.796355 0.528336 0.696995
O O2 0.580036 0.400908 0.414850
O O3 0.748299 0.697738 0.316383
O O4 0.940238 0.297335 0.895037
O O5 0.500000 0.500000 0.500000
O O6 0.732888 0.721162 0.655082
O O7 0.804037 0.332901 0.059864
O O8 0.915876 0.962148 0.568040
O O9 0.698250 0.040095 0.091352
O O10 0.569651 0.133491 0.074289
O O11 0.646844 0.152935 0.530370
O O12 0.307299 0.193495 0.210680
O O13 0.582729 0.033633 0.765972
O O14 0.187717 0.970243 0.397472
O O15 0.000000 0.000000 0.000000
#
# Coordination Sequence:
#
# PCOD9056419 Si02
#       7
#     2   2   2   2   2   2   2
#     4  12  24  41  68 104 141 173 223 285 344 405
#     4  12  22  39  67 101 138 178 220 275 348 408
#     4  11  22  38  68  99 142 178 218 275 343 415
#     4  11  24  46  75  95 135 187 225 280 344 400
#     4  12  25  43  66 101 142 175 227 287 334 406
#     4  11  24  48  73  95 133 187 233 279 334 401
#     4  11  22  40  67 105 134 176 224 273 343 415
#
# _framework density 23.961364
#
# number of rings (size 3 to 8) (size 9 to 14) (size 15 to 20)
#    0.000    0.571    7.143    2.143    0.000    1.714 
#    0.000    5.000    0.000    0.000    0.000    0.000 
#    0.000    0.000    0.000    0.000    0.000    0.000 
#
# Total GULP energy -78228.471369 kJ/mol
# GULP energy per Si atom -5587.747955 kJ/mol
# Density = 2.390683 g / cm^3
# Si number density = 23.961364 Si / 1000 Ang^3
#
#
#
# Elastic Constant Matrix: (Units=GPa)
#
#
# Indices 1 2 3 4 5 6 
#
# 1 82.2393 32.1301 27.2461 7.9095 -0.4941 -14.4275
# 2 32.1301 124.9274 52.0254 11.0038 -22.6646 -8.2092
# 3 27.2461 52.0254 92.3273 -5.5414 -2.7810 5.9213
# 4 7.9095 11.0038 -5.5414 56.1190 12.8677 -4.5749
# 5 -0.4941 -22.6646 -2.7810 12.8677 32.7998 7.4938
# 6 -14.4275 -8.2092 5.9213 -4.5749 7.4938 38.9846
#
#
#
# Elastic Compliance Matrix: (Units=1/GPa)
#
#
# Indices 1 2 3 4 5 6 
#
# 1 0.015524 -0.002466 -0.003732 -0.000910 -0.002854 0.006234
# 2 -0.002466 0.014303 -0.007357 -0.005771 0.011408 0.000347
# 3 -0.003732 -0.007357 0.016460 0.004295 -0.004501 -0.004061
# 4 -0.000910 -0.005771 0.004295 0.022792 -0.013269 0.003021
# 5 -0.002854 0.011408 -0.004501 -0.013269 0.045021 -0.008182
# 6 0.006234 0.000347 -0.004061 0.003021 -0.008182 0.030575
#
#
# Mechanical properties :
#
#
# Convention : Reuss Voigt Hill
#
# Bulk Modulus (GPa) = 52.14480 58.03302 55.08891
# Shear Modulus (GPa) = 28.06179 38.12017 33.09098
#
# Velocity S-wave (km/s) = 3.42589 3.99294 3.72023
# Velocity P-wave (km/s) = 6.12031 6.74760 6.44159
#
# Compressibility (1/GPa) = 0.01917737
#
# Stress axis : x y z
#
# Youngs Moduli (GPa) = 64.41778 69.91333 60.75166
#
# Poissons Ratio (x) = 0.17244 0.22670
# Poissons Ratio (y) = 0.15889 0.44695
# Poissons Ratio (z) = 0.24039 0.51435
#
# Static dielectric constant tensor:
#      x y z
#    x 1.996280 0.021460 0.098100 
#    y 0.021460 1.877140 0.033800 
#    z 0.098100 0.033800 2.059170 
# 
# From -- ./inp_files/424885.got.cif
#   From: 2010.05.17/outbox.cif.g08.bks.cpg/sg2_213_cif.got.tgz:424885.got - 2010.06.03 11:33:40.
