data_PCOD9056288
_publ_section_title
;
Structure prediction by ZEFSAII (Michael W. Deem and Ramdas Pophale) SiO2 
 PCOD9056288
Probable space group: P -1
;
_chemical_formula_sum "Si O2"
_cell_formula_units_Z 16
_cell_length_a 8.387984
_cell_length_b 11.144104
_cell_length_c 8.115200
_cell_angle_alpha 88.643646
_cell_angle_beta 91.023649
_cell_angle_gamma 101.339714
_cell_volume 743.496536
_symmetry_space_group_name_H-M "P -1"
_symmetry_group_IT_number 2
_symmetry_cell_setting 'triclinic'
loop_
_space_group_symop_operation_xyz
x,y,z
-x,-y,-z
loop_
_atom_site_type_symbol
_atom_site_label
_atom_site_fract_x
_atom_site_fract_y
_atom_site_fract_z
Si Si1 0.289635 0.894288 0.139317
Si Si2 0.199131 0.524139 0.500967
Si Si3 0.850345 0.505166 0.857784
Si Si4 0.409908 0.791606 0.486366
Si Si5 0.548549 0.371186 0.998539
Si Si6 0.513140 0.859687 0.827920
Si Si7 0.962924 0.701487 0.101062
Si Si8 0.665896 0.688597 0.314915
O O1 0.348057 0.849705 0.318541
O O2 0.114433 0.813086 0.100601
O O3 0.321859 0.041233 0.152343
O O4 0.400736 0.874007 0.984477
O O5 0.240546 0.493733 0.314820
O O6 0.280271 0.665989 0.524716
O O7 0.290284 0.437907 0.615269
O O8 0.000000 0.500000 0.500000
O O9 0.741670 0.411299 0.986646
O O10 0.988164 0.425242 0.827643
O O11 0.895979 0.641362 0.927281
O O12 0.430297 0.872634 0.650038
O O13 0.587894 0.759986 0.451918
O O14 0.471849 0.320413 0.826627
O O15 0.500000 0.500000 0.000000
O O16 0.477988 0.281718 0.145661
O O17 0.828956 0.742168 0.214253
#
# Coordination Sequence:
#
# PCOD9056288 Si02
#       8
#     2   2   2   2   2   2   2   2
#     4  11  23  49  67  94 129 170 231 273 307 399
#     4  12  23  37  58  99 135 168 212 269 331 399
#     4  11  22  37  62  91 135 170 219 261 331 386
#     4  12  24  41  66  97 131 169 222 273 327 381
#     4  12  22  41  63  98 131 167 213 272 329 386
#     4  11  25  42  75  92 124 180 222 262 333 387
#     4  11  22  40  63  91 131 180 209 274 326 381
#     4  12  23  37  61  93 139 167 209 274 331 384
#
# _framework density 21.519938
#
# number of rings (size 3 to 8) (size 9 to 14) (size 15 to 20)
#    0.000    0.500    7.500    1.500    3.500    0.000 
#    0.000    1.250    0.000    0.000    0.000    0.000 
#    0.000    0.000    0.000    0.000    0.000    0.000 
#
# Total GULP energy -89136.239057 kJ/mol
# GULP energy per Si atom -5571.014941 kJ/mol
# Density = 2.147096 g / cm^3
# Si number density = 21.519938 Si / 1000 Ang^3
#
#
#
# Elastic Constant Matrix: (Units=GPa)
#
#
# Indices 1 2 3 4 5 6 
#
# 1 77.0462 35.9828 9.9846 -6.4909 -8.6480 24.1575
# 2 35.9828 128.1424 28.3096 3.7945 -3.5425 42.2853
# 3 9.9846 28.3096 87.9142 3.6216 4.0039 17.6003
# 4 -6.4909 3.7945 3.6216 21.2483 5.5377 4.7233
# 5 -8.6480 -3.5425 4.0039 5.5377 18.7133 1.6024
# 6 24.1575 42.2853 17.6003 4.7233 1.6024 33.4219
#
#
#
# Elastic Compliance Matrix: (Units=1/GPa)
#
#
# Indices 1 2 3 4 5 6 
#
# 1 0.019348 -0.000630 0.000301 0.007192 0.007892 -0.014741
# 2 -0.000630 0.013845 -0.001248 0.000212 0.003958 -0.016624
# 3 0.000301 -0.001248 0.012918 -0.000085 -0.002381 -0.005316
# 4 0.007192 0.000212 -0.000085 0.055136 -0.011851 -0.012645
# 5 0.007892 0.003958 -0.002381 -0.011851 0.062775 -0.010792
# 6 -0.014741 -0.016624 -0.005316 -0.012645 -0.010792 0.066713
#
#
# Mechanical properties :
#
#
# Convention : Reuss Voigt Hill
#
# Bulk Modulus (GPa) = 23.27817 49.07300 36.17558
# Shear Modulus (GPa) = 20.14440 29.26508 24.70474
#
# Velocity S-wave (km/s) = 3.06286 3.69169 3.39188
# Velocity P-wave (km/s) = 4.83205 6.40503 5.67332
#
# Compressibility (1/GPa) = 0.04295871
#
# Stress axis : x y z
#
# Youngs Moduli (GPa) = 51.68447 72.22679 77.40860
#
# Poissons Ratio (x) = 0.04550 -0.02329
# Poissons Ratio (y) = 0.03256 0.09658
# Poissons Ratio (z) = -0.01555 0.09011
#
# Static dielectric constant tensor:
#      x y z
#    x 1.794010 -0.096070 -0.169030 
#    y -0.096070 1.766360 -0.069580 
#    z -0.169030 -0.069580 1.801630 
# 
# From -- ./inp_files/179131.got.cif
#   From: 2010.05.17/outbox.cif.g08.bks.cpg/sg2_90_cif.got.tgz:179131.got - 2010.06.03 11:33:40.
