data_PCOD9056679
_publ_section_title
;
Structure prediction by ZEFSAII (Michael W. Deem and Ramdas Pophale) SiO2 
 PCOD9056679
Probable space group: P -1
;
_chemical_formula_sum "Si O2"
_cell_formula_units_Z 14
_cell_length_a 12.388601
_cell_length_b 8.971296
_cell_length_c 11.374699
_cell_angle_alpha 72.780402
_cell_angle_beta 107.068471
_cell_angle_gamma 148.325511
_cell_volume 631.888022
_symmetry_space_group_name_H-M "P -1"
_symmetry_group_IT_number 2
_symmetry_cell_setting 'triclinic'
loop_
_space_group_symop_operation_xyz
x,y,z
-x,-y,-z
loop_
_atom_site_type_symbol
_atom_site_label
_atom_site_fract_x
_atom_site_fract_y
_atom_site_fract_z
Si Si1 0.479383 0.246466 0.899026
Si Si2 0.148462 0.303687 0.921698
Si Si3 0.601956 0.327287 0.479221
Si Si4 0.121086 0.627680 0.850565
Si Si5 0.218070 0.752021 0.576288
Si Si6 0.201364 0.203935 0.725942
Si Si7 0.187910 0.464875 0.256052
O O1 0.355198 0.257906 0.822184
O O2 0.643831 0.398301 0.814252
O O3 0.309521 0.912358 0.921939
O O4 0.618842 0.433280 0.014684
O O5 0.074883 0.392744 0.907920
O O6 0.149999 0.273850 0.790972
O O7 0.000000 0.000000 0.000000
O O8 0.656583 0.259197 0.415927
O O9 0.693586 0.593788 0.398805
O O10 0.289763 0.602922 0.382897
O O11 0.360786 0.053176 0.497307
O O12 0.189616 0.730639 0.711726
O O13 0.922311 0.505881 0.830589
O O14 0.000000 0.500000 0.500000
O O15 0.993906 0.871252 0.709376
#
# Coordination Sequence:
#
# PCOD9056679 Si02
#       7
#     2   2   2   2   2   2   2
#     4  11  25  47  66  97 138 181 225 273 337 398
#     4  12  25  48  70  97 131 178 232 283 332 389
#     4  11  23  40  68 102 136 174 218 273 337 401
#     4  11  24  45  70  96 136 176 224 278 335 403
#     4  11  22  40  66 101 134 174 222 271 335 403
#     4  11  25  44  69  99 137 178 222 280 332 394
#     4  11  23  44  69 102 136 175 219 273 345 407
#
# _framework density 22.155823000000002
#
# number of rings (size 3 to 8) (size 9 to 14) (size 15 to 20)
#    0.000    0.857    5.714    1.286    0.000    3.429 
#    5.143    0.000    0.000    0.000    0.000    0.000 
#    0.000    0.000    0.000    0.000    0.000    0.000 
#
# Total GULP energy -78377.326497 kJ/mol
# GULP energy per Si atom -5598.380464 kJ/mol
# Density = 2.210540 g / cm^3
# Si number density = 22.155823 Si / 1000 Ang^3
#
#
#
# Elastic Constant Matrix: (Units=GPa)
#
#
# Indices 1 2 3 4 5 6 
#
# 1 52.4836 26.8008 -0.9734 -9.3940 -1.7306 -11.2772
# 2 26.8008 160.5201 53.4961 -3.3047 13.8149 -6.8561
# 3 -0.9734 53.4961 47.8089 -15.1830 -3.0387 -0.2857
# 4 -9.3940 -3.3047 -15.1830 47.5264 -5.6656 2.5421
# 5 -1.7306 13.8149 -3.0387 -5.6656 32.3327 -9.2417
# 6 -11.2772 -6.8561 -0.2857 2.5421 -9.2417 27.0850
#
#
#
# Elastic Compliance Matrix: (Units=1/GPa)
#
#
# Indices 1 2 3 4 5 6 
#
# 1 0.031236 -0.011953 0.018974 0.012411 0.014753 0.014049
# 2 -0.011953 0.016462 -0.022589 -0.009718 -0.012785 -0.004498
# 3 0.018974 -0.022589 0.054994 0.021935 0.022029 0.008220
# 4 0.012411 -0.009718 0.021935 0.031207 0.013684 0.004679
# 5 0.014753 -0.012785 0.022029 0.013684 0.046737 0.017801
# 6 0.014049 -0.004498 0.008220 0.004679 0.017801 0.047353
#
#
# Mechanical properties :
#
#
# Convention : Reuss Voigt Hill
#
# Bulk Modulus (GPa) = 13.97513 46.60663 30.29088
# Shear Modulus (GPa) = 17.66938 33.48808 25.57873
#
# Velocity S-wave (km/s) = 2.82708 3.89199 3.40147
# Velocity P-wave (km/s) = 4.12042 6.42482 5.39704
#
# Compressibility (1/GPa) = 0.07155571
#
# Stress axis : x y z
#
# Youngs Moduli (GPa) = 32.01464 60.74751 18.18384
#
# Poissons Ratio (x) = 0.72609 -0.34501
# Poissons Ratio (y) = 0.38266 0.41075
# Poissons Ratio (z) = -0.60743 1.37221
#
# Static dielectric constant tensor:
#      x y z
#    x 1.807620 -0.018390 -0.003580 
#    y -0.018390 1.811990 -0.019020 
#    z -0.003580 -0.019020 1.804150 
# 
# From -- ./inp_files/514120.got.cif
#   From: 2010.05.17/outbox.cif.g08.bks.cpg/sg2_258_cif.got.tgz:514120.got - 2010.06.03 11:33:40.
