data_PCOD9056587
_publ_section_title
;
Structure prediction by ZEFSAII (Michael W. Deem and Ramdas Pophale) SiO2 
 PCOD9056587
Probable space group: P -1
;
_chemical_formula_sum "Si O2"
_cell_formula_units_Z 14
_cell_length_a 8.746668
_cell_length_b 11.719999
_cell_length_c 18.704670
_cell_angle_alpha 137.506570
_cell_angle_beta 38.712532
_cell_angle_gamma 108.618964
_cell_volume 644.280447
_symmetry_space_group_name_H-M "P -1"
_symmetry_group_IT_number 2
_symmetry_cell_setting 'triclinic'
loop_
_space_group_symop_operation_xyz
x,y,z
-x,-y,-z
loop_
_atom_site_type_symbol
_atom_site_label
_atom_site_fract_x
_atom_site_fract_y
_atom_site_fract_z
Si Si1 0.960674 0.267724 0.844072
Si Si2 0.255299 0.592123 0.399250
Si Si3 0.250128 0.511618 0.210949
Si Si4 0.043081 0.624501 0.952358
Si Si5 0.707211 0.829443 0.032614
Si Si6 0.875509 0.135790 0.680116
Si Si7 0.639305 0.846462 0.810328
O O1 0.081720 0.096372 0.656791
O O2 0.939132 0.472475 0.921872
O O3 0.613240 0.347346 0.018024
O O4 0.085659 0.230696 0.861988
O O5 0.123680 0.647952 0.392112
O O6 0.586049 0.540516 0.257977
O O7 0.323893 0.366960 0.287068
O O8 0.982639 0.769466 0.631265
O O9 0.212365 0.644207 0.217462
O O10 0.131551 0.375950 0.173145
O O11 0.925612 0.770098 0.992500
O O12 0.415445 0.851335 0.182736
O O13 0.575672 0.029558 0.122652
O O14 0.000000 0.000000 0.500000
O O15 0.500000 0.000000 0.000000
#
# Coordination Sequence:
#
# PCOD9056587 Si02
#       7
#     2   2   2   2   2   2   2
#     4   9  18  34  59  84 131 166 191 238 317 366
#     4  10  23  40  66  89 120 161 213 255 315 366
#     4  10  17  36  62  89 119 164 208 241 297 383
#     4  10  19  37  63  91 124 162 201 257 314 367
#     4  11  20  37  65  89 121 166 210 253 311 356
#     4  11  20  33  57  96 127 163 208 245 299 387
#     4  11  23  43  65  87 116 168 217 262 298 372
#
# _framework density 21.729668
#
# number of rings (size 3 to 8) (size 9 to 14) (size 15 to 20)
#    0.000    1.714    4.286    1.714    0.000    0.571 
#    0.000    2.857    0.000    0.000    0.000    0.000 
#    0.000    0.000    0.000    0.000    0.000    0.000 
#
# Total GULP energy -78083.996341 kJ/mol
# GULP energy per Si atom -5577.428310 kJ/mol
# Density = 2.168021 g / cm^3
# Si number density = 21.729668 Si / 1000 Ang^3
#
#
#
# Elastic Constant Matrix: (Units=GPa)
#
#
# Indices 1 2 3 4 5 6 
#
# 1 137.2705 19.8925 43.9012 -4.4935 28.7390 -28.2592
# 2 19.8925 70.6114 7.0727 2.5681 -3.5202 -29.4561
# 3 43.9012 7.0727 96.5024 -12.0544 32.5700 -9.4693
# 4 -4.4935 2.5681 -12.0544 25.0262 -9.1997 -0.2484
# 5 28.7390 -3.5202 32.5700 -9.1997 27.8620 3.4456
# 6 -28.2592 -29.4561 -9.4693 -0.2484 3.4456 32.7541
#
#
#
# Elastic Compliance Matrix: (Units=1/GPa)
#
#
# Indices 1 2 3 4 5 6 
#
# 1 0.013536 0.001748 0.000728 -0.003763 -0.017726 0.015297
# 2 0.001748 0.023015 0.000455 -0.002758 -0.003138 0.022647
# 3 0.000728 0.000455 0.019001 0.000563 -0.023836 0.009042
# 4 -0.003763 -0.002758 0.000563 0.046835 0.019233 -0.007232
# 5 -0.017726 -0.003138 -0.023836 0.019233 0.092268 -0.034567
# 6 0.015297 0.022647 0.009042 -0.007232 -0.034567 0.070290
#
#
# Mechanical properties :
#
#
# Convention : Reuss Voigt Hill
#
# Bulk Modulus (GPa) = 16.28322 49.56858 32.92590
# Shear Modulus (GPa) = 17.88561 32.69633 25.29097
#
# Velocity S-wave (km/s) = 2.87208 3.88324 3.41529
# Velocity P-wave (km/s) = 4.30212 6.55492 5.54415
#
# Compressibility (1/GPa) = 0.06141293
#
# Stress axis : x y z
#
# Youngs Moduli (GPa) = 73.87778 43.44995 52.62995
#
# Poissons Ratio (x) = -0.07596 -0.03830
# Poissons Ratio (y) = -0.12916 -0.02394
# Poissons Ratio (z) = -0.05376 -0.01976
#
# Static dielectric constant tensor:
#      x y z
#    x 1.849450 -0.015580 0.060330 
#    y -0.015580 1.815520 0.015320 
#    z 0.060330 0.015320 1.863010 
# 
# From -- ./inp_files/177154.got.cif
#   From: 2010.05.17/outbox.cif.g08.bks.cpg/sg2_89_cif.got.tgz:177154.got - 2010.06.03 11:33:40.
