data_PCOD9056991
_publ_section_title
;
Structure prediction by ZEFSAII (Michael W. Deem and Ramdas Pophale) SiO2 
 PCOD9056991
Probable space group: P -1
;
_chemical_formula_sum "Si O2"
_cell_formula_units_Z 16
_cell_length_a 8.597155
_cell_length_b 11.626229
_cell_length_c 14.218916
_cell_angle_alpha 109.410270
_cell_angle_beta 127.095247
_cell_angle_gamma 41.762931
_cell_volume 736.324077
_symmetry_space_group_name_H-M "P -1"
_symmetry_group_IT_number 2
_symmetry_cell_setting 'triclinic'
loop_
_space_group_symop_operation_xyz
x,y,z
-x,-y,-z
loop_
_atom_site_type_symbol
_atom_site_label
_atom_site_fract_x
_atom_site_fract_y
_atom_site_fract_z
Si Si1 0.216917 0.430867 0.199746
Si Si2 0.603342 0.644616 0.957207
Si Si3 0.206010 0.668402 0.385193
Si Si4 0.668771 0.124905 0.916266
Si Si5 0.627641 0.887245 0.346942
Si Si6 0.728663 0.733282 0.642179
Si Si7 0.366853 0.491350 0.805673
Si Si8 0.460475 0.310388 0.605924
O O1 0.411728 0.334463 0.154142
O O2 0.157906 0.590459 0.264611
O O3 0.343326 0.300252 0.296801
O O4 0.919010 0.514101 0.077032
O O5 0.507283 0.549747 0.909582
O O6 0.422363 0.826869 0.995689
O O7 0.500000 0.500000 0.500000
O O8 0.268486 0.767739 0.379384
O O9 0.942084 0.773027 0.389719
O O10 0.564367 0.056436 0.800164
O O11 0.499461 0.315543 0.859910
O O12 0.000000 0.000000 0.000000
O O13 0.567318 0.798431 0.368953
O O14 0.507224 0.058759 0.403905
O O15 0.757802 0.622490 0.538849
O O16 0.034342 0.653022 0.744603
O O17 0.406690 0.443573 0.696202
#
# Coordination Sequence:
#
# PCOD9056991 Si02
#       8
#     2   2   2   2   2   2   2   2
#     4  11  23  42  67  99 133 179 229 288 340 412
#     4  11  22  41  67  96 135 175 232 283 343 408
#     4  12  24  47  73  99 140 184 234 291 348 412
#     4  11  23  42  67  99 139 183 228 286 346 411
#     4  11  27  46  66 105 147 178 236 290 344 419
#     4  12  24  46  70 100 140 184 229 288 351 412
#     4  11  23  41  72  98 131 181 238 283 344 418
#     4  11  25  45  74 102 139 187 231 287 358 409
#
# _framework density 21.729562000000001
#
# number of rings (size 3 to 8) (size 9 to 14) (size 15 to 20)
#    0.000    0.750    5.000    2.625    3.500    0.500 
#    6.750    0.625    0.000    0.000    0.000    0.000 
#    0.000    0.000    0.000    0.000    0.000    0.000 
#
# Total GULP energy -89277.453841 kJ/mol
# GULP energy per Si atom -5579.840865 kJ/mol
# Density = 2.168010 g / cm^3
# Si number density = 21.729562 Si / 1000 Ang^3
#
#
#
# Elastic Constant Matrix: (Units=GPa)
#
#
# Indices 1 2 3 4 5 6 
#
# 1 129.8446 33.7614 24.9109 -4.5265 -4.6225 -3.3843
# 2 33.7614 56.1780 17.9853 1.6693 -1.1168 -16.1960
# 3 24.9109 17.9853 91.3838 18.2570 0.2276 -8.2207
# 4 -4.5265 1.6693 18.2570 28.6916 -7.2294 5.9793
# 5 -4.6225 -1.1168 0.2276 -7.2294 49.0293 6.9745
# 6 -3.3843 -16.1960 -8.2207 5.9793 6.9745 30.0881
#
#
#
# Elastic Compliance Matrix: (Units=1/GPa)
#
#
# Indices 1 2 3 4 5 6 
#
# 1 0.010161 -0.006677 -0.003005 0.005514 0.002331 -0.004908
# 2 -0.006677 0.026593 -0.000831 -0.006025 -0.003077 0.015247
# 3 -0.003005 -0.000831 0.014906 -0.012009 -0.003050 0.006381
# 4 0.005514 -0.006025 -0.012009 0.050157 0.010436 -0.018291
# 5 0.002331 -0.003077 -0.003050 0.010436 0.023485 -0.009745
# 6 -0.004908 0.015247 0.006381 -0.018291 -0.009745 0.048528
#
#
# Mechanical properties :
#
#
# Convention : Reuss Voigt Hill
#
# Bulk Modulus (GPa) = 32.64206 47.85794 40.25000
# Shear Modulus (GPa) = 24.38219 34.94506 29.66363
#
# Velocity S-wave (km/s) = 3.35337 4.01456 3.69877
# Velocity P-wave (km/s) = 5.48161 6.60008 6.06668
#
# Compressibility (1/GPa) = 0.03063532
#
# Stress axis : x y z
#
# Youngs Moduli (GPa) = 98.41101 37.60397 67.08582
#
# Poissons Ratio (x) = 0.25110 0.20158
# Poissons Ratio (y) = 0.65713 0.05572
# Poissons Ratio (z) = 0.29570 0.03123
#
# Static dielectric constant tensor:
#      x y z
#    x 1.878580 -0.001610 -0.033390 
#    y -0.001610 1.784090 0.007950 
#    z -0.033390 0.007950 1.800590 
# 
# From -- ./inp_files/346477.got.cif
#   From: 2010.05.17/outbox.cif.g08.bks.cpg/sg2_174_cif.got.tgz:346477.got - 2010.06.03 11:33:40.
