data_PCOD9056193
_publ_section_title
;
Structure prediction by ZEFSAII (Michael W. Deem and Ramdas Pophale) SiO2 
 PCOD9056193
Probable space group: P -1
;
_chemical_formula_sum "Si O2"
_cell_formula_units_Z 14
_cell_length_a 14.000022
_cell_length_b 9.491269
_cell_length_c 8.235290
_cell_angle_alpha 100.714958
_cell_angle_beta 36.658552
_cell_angle_gamma 85.815658
_cell_volume 594.155220
_symmetry_space_group_name_H-M "P -1"
_symmetry_group_IT_number 2
_symmetry_cell_setting 'triclinic'
loop_
_space_group_symop_operation_xyz
x,y,z
-x,-y,-z
loop_
_atom_site_type_symbol
_atom_site_label
_atom_site_fract_x
_atom_site_fract_y
_atom_site_fract_z
Si Si1 0.929807 0.397571 0.443752
Si Si2 0.878729 0.703244 0.381992
Si Si3 0.469142 0.328221 0.179504
Si Si4 0.022410 0.161318 0.017802
Si Si5 0.417585 0.410051 0.886290
Si Si6 0.302155 0.175294 0.864475
Si Si7 0.355337 0.997459 0.067207
O O1 0.945625 0.540067 0.350063
O O2 0.775815 0.462276 0.793385
O O3 0.122027 0.295004 0.216548
O O4 0.893469 0.276359 0.348166
O O5 0.704718 0.694826 0.537275
O O6 0.997454 0.735651 0.092695
O O7 0.813029 0.862275 0.609644
O O8 0.462083 0.337685 0.992791
O O9 0.471198 0.487862 0.277471
O O10 0.631552 0.177467 0.978554
O O11 0.216741 0.128773 0.815682
O O12 0.000000 0.000000 0.000000
O O13 0.416583 0.280388 0.732641
O O14 0.384661 0.039026 0.851830
O O15 0.500000 0.000000 0.000000
#
# Coordination Sequence:
#
# PCOD9056193 Si02
#       7
#     2   2   2   2   2   2   2
#     4   9  20  35  61  81 121 148 193 234 293 336
#     4  10  19  39  58  82 116 158 188 236 294 337
#     4   9  20  33  60  86 116 148 193 235 288 335
#     4  10  24  39  55  85 121 156 189 235 296 347
#     4  10  17  36  60  91 109 150 192 242 281 340
#     4  10  20  36  60  87 117 151 193 238 290 335
#     4  10  18  35  58  83 120 150 194 236 284 331
#
# _framework density 23.562867000000001
#
# number of rings (size 3 to 8) (size 9 to 14) (size 15 to 20)
#    0.857    1.429    4.286    0.857    2.000    0.000 
#    2.571    5.000    0.000    0.000    0.000    0.000 
#    0.000    0.000    0.000    0.000    0.000    0.000 
#
# Total GULP energy -77998.179254 kJ/mol
# GULP energy per Si atom -5571.298518 kJ/mol
# Density = 2.350924 g / cm^3
# Si number density = 23.562867 Si / 1000 Ang^3
#
#
#
# Elastic Constant Matrix: (Units=GPa)
#
#
# Indices 1 2 3 4 5 6 
#
# 1 73.7659 50.9220 -1.2061 5.4238 4.9101 16.5360
# 2 50.9220 142.3587 10.0109 9.8415 -4.4991 22.6508
# 3 -1.2061 10.0109 28.3774 6.4633 -5.9764 8.4558
# 4 5.4238 9.8415 6.4633 31.2891 -0.5353 -4.8750
# 5 4.9101 -4.4991 -5.9764 -0.5353 17.5921 13.3152
# 6 16.5360 22.6508 8.4558 -4.8750 13.3152 49.1453
#
#
#
# Elastic Compliance Matrix: (Units=1/GPa)
#
#
# Indices 1 2 3 4 5 6 
#
# 1 0.019373 -0.006530 0.004281 -0.002821 -0.002873 -0.003747
# 2 -0.006530 0.010674 -0.000018 -0.002903 0.008471 -0.005302
# 3 0.004281 -0.000018 0.051001 -0.013849 0.030784 -0.019922
# 4 -0.002821 -0.002903 -0.013849 0.037848 -0.012434 0.011793
# 5 -0.002873 0.008471 0.030784 -0.012434 0.096936 -0.035731
# 6 -0.003747 -0.005302 -0.019922 0.011793 -0.035731 0.038331
#
#
# Mechanical properties :
#
#
# Convention : Reuss Voigt Hill
#
# Bulk Modulus (GPa) = 13.06952 40.43951 26.75451
# Shear Modulus (GPa) = 17.59317 31.92366 24.75841
#
# Velocity S-wave (km/s) = 2.73545 3.68479 3.24503
# Velocity P-wave (km/s) = 3.94153 5.94165 5.04177
#
# Compressibility (1/GPa) = 0.07651391
#
# Stress axis : x y z
#
# Youngs Moduli (GPa) = 51.61803 93.68769 19.60736
#
# Poissons Ratio (x) = 0.61182 -0.08394
# Poissons Ratio (y) = 0.33709 0.00035
# Poissons Ratio (z) = -0.22099 0.00167
#
# Static dielectric constant tensor:
#      x y z
#    x 2.019900 0.003580 0.015580 
#    y 0.003580 1.883680 0.035320 
#    z 0.015580 0.035320 1.965660 
# 
# From -- ./inp_files/295393.got.cif
#   From: 2010.05.17/outbox.cif.g08.bks.cpg/sg2_148_cif.got.tgz:295393.got - 2010.06.03 11:33:40.
