data_PCOD9056279
_publ_section_title
;
Structure prediction by ZEFSAII (Michael W. Deem and Ramdas Pophale) SiO2 
 PCOD9056279
Probable space group: P -1
;
_chemical_formula_sum "Si O2"
_cell_formula_units_Z 14
_cell_length_a 12.243728
_cell_length_b 5.466122
_cell_length_c 20.754029
_cell_angle_alpha 45.711354
_cell_angle_beta 35.173531
_cell_angle_gamma 55.647593
_cell_volume 572.685090
_symmetry_space_group_name_H-M "P -1"
_symmetry_group_IT_number 2
_symmetry_cell_setting 'triclinic'
loop_
_space_group_symop_operation_xyz
x,y,z
-x,-y,-z
loop_
_atom_site_type_symbol
_atom_site_label
_atom_site_fract_x
_atom_site_fract_y
_atom_site_fract_z
Si Si1 0.439803 0.374643 0.481222
Si Si2 0.515880 0.651991 0.263005
Si Si3 0.190326 0.937224 0.030343
Si Si4 0.162034 0.213725 0.480906
Si Si5 0.282419 0.250168 0.279212
Si Si6 0.378341 0.322615 0.979640
Si Si7 0.041910 0.496730 0.698814
O O1 0.500000 0.500000 0.500000
O O2 0.523300 0.635309 0.339818
O O3 0.212233 0.374480 0.594904
O O4 0.500000 0.000000 0.500000
O O5 0.374496 0.328646 0.377576
O O6 0.722395 0.782664 0.114013
O O7 0.374510 0.945090 0.251469
O O8 0.305056 0.587520 0.020104
O O9 0.221771 0.160341 0.038898
O O10 0.990695 0.749444 0.178775
O O11 0.182579 0.101195 0.417372
O O12 0.000000 0.500000 0.500000
O O13 0.090627 0.894630 0.616467
O O14 0.466748 0.460995 0.175040
O O15 0.147589 0.472444 0.259012
O O16 0.500000 0.000000 0.000000
#
# Coordination Sequence:
#
# PCOD9056279 Si02
#       7
#     2   2   2   2   2   2   2
#     4  12  29  52  75  98 136 191 247 306 357 411
#     4  11  24  46  70 103 144 188 231 286 362 429
#     4  11  26  41  68 104 145 191 226 285 353 427
#     4  12  22  35  66 104 147 191 228 279 346 429
#     4  11  22  38  66 106 146 184 222 281 354 432
#     4  11  22  37  60  98 156 191 215 258 350 444
#     4  12  25  45  70 111 144 186 243 294 354 430
#
# _framework density 24.446244
#
# number of rings (size 3 to 8) (size 9 to 14) (size 15 to 20)
#    0.000    0.571    5.714    2.571    4.000    2.286 
#    0.000    1.429    0.000    0.000    0.000    0.000 
#    0.000    0.000    0.000    0.000    0.000    0.000 
#
# Total GULP energy -77956.120232 kJ/mol
# GULP energy per Si atom -5568.294302 kJ/mol
# Density = 2.439060 g / cm^3
# Si number density = 24.446244 Si / 1000 Ang^3
#
#
#
# Elastic Constant Matrix: (Units=GPa)
#
#
# Indices 1 2 3 4 5 6 
#
# 1 48.4207 8.6587 25.8785 -11.1255 3.8312 14.6954
# 2 8.6587 102.3895 16.0948 -7.9583 -11.0898 4.9790
# 3 25.8785 16.0948 203.7900 -25.0805 11.3612 4.3549
# 4 -11.1255 -7.9583 -25.0805 31.7235 11.6650 -6.4635
# 5 3.8312 -11.0898 11.3612 11.6650 21.1954 -8.3469
# 6 14.6954 4.9790 4.3549 -6.4635 -8.3469 28.0117
#
#
#
# Elastic Compliance Matrix: (Units=1/GPa)
#
#
# Indices 1 2 3 4 5 6 
#
# 1 0.032844 -0.003136 -0.000320 0.015060 -0.023647 -0.020195
# 2 -0.003136 0.010938 -0.001297 -0.002291 0.009063 0.002075
# 3 -0.000320 -0.001297 0.006531 0.007714 -0.008961 -0.001507
# 4 0.015060 -0.002291 0.007714 0.056165 -0.042243 -0.008320
# 5 -0.023647 0.009063 -0.008961 -0.042243 0.096538 0.031206
# 6 -0.020195 0.002075 -0.001507 -0.008320 0.031206 0.053538
#
#
# Mechanical properties :
#
#
# Convention : Reuss Voigt Hill
#
# Bulk Modulus (GPa) = 24.50513 50.65157 37.57835
# Shear Modulus (GPa) = 17.87862 36.45067 27.16464
#
# Velocity S-wave (km/s) = 2.70727 3.86561 3.33708
# Velocity P-wave (km/s) = 4.45177 6.37875 5.50030
#
# Compressibility (1/GPa) = 0.04080779
#
# Stress axis : x y z
#
# Youngs Moduli (GPa) = 30.44676 91.42094 153.11194
#
# Poissons Ratio (x) = 0.28668 0.04897
# Poissons Ratio (y) = 0.09548 0.19863
# Poissons Ratio (z) = 0.00974 0.11860
#
# Static dielectric constant tensor:
#      x y z
#    x 2.056520 -0.003180 -0.005110 
#    y -0.003180 2.004140 -0.052120 
#    z -0.005110 -0.052120 2.059840 
# 
# From -- ./inp_files/99559.got.cif
#   From: 2010.05.17/outbox.cif.g08.bks.cpg/sg2_50_cif.got.tgz:99559.got - 2010.06.03 11:33:40.
