data_PCOD9056018
_publ_section_title
;
Structure prediction by ZEFSAII (Michael W. Deem and Ramdas Pophale) SiO2 
 PCOD9056018
Probable space group: P -1
;
_chemical_formula_sum "Si O2"
_cell_formula_units_Z 16
_cell_length_a 10.083540
_cell_length_b 21.447134
_cell_length_c 6.427991
_cell_angle_alpha 105.618542
_cell_angle_beta 122.473717
_cell_angle_gamma 41.918427
_cell_volume 762.275895
_symmetry_space_group_name_H-M "P -1"
_symmetry_group_IT_number 2
_symmetry_cell_setting 'triclinic'
loop_
_space_group_symop_operation_xyz
x,y,z
-x,-y,-z
loop_
_atom_site_type_symbol
_atom_site_label
_atom_site_fract_x
_atom_site_fract_y
_atom_site_fract_z
Si Si1 0.081193 0.409955 0.099336
Si Si2 0.903338 0.711211 0.329144
Si Si3 0.224863 0.581647 0.865522
Si Si4 0.468598 0.067562 0.199024
Si Si5 0.404455 0.763262 0.493026
Si Si6 0.766449 0.083225 0.244774
Si Si7 0.051367 0.755624 0.136657
Si Si8 0.412076 0.884463 0.301891
O O1 0.330644 0.340995 0.360597
O O2 0.885195 0.445744 0.129181
O O3 0.121805 0.339249 0.904495
O O4 0.000000 0.500000 0.000000
O O5 0.665942 0.798967 0.331474
O O6 0.095842 0.629300 0.581020
O O7 0.989812 0.747993 0.308586
O O8 0.500000 0.500000 0.000000
O O9 0.156448 0.663904 0.020092
O O10 0.560490 0.100581 0.174297
O O11 0.593745 0.047190 0.506242
O O12 0.195822 0.152093 0.089350
O O13 0.500000 0.000000 0.000000
O O14 0.315802 0.819225 0.689333
O O15 0.228038 0.760720 0.284540
O O16 0.388613 0.828872 0.381018
O O17 0.774834 0.062985 0.992758
O O18 0.000000 0.000000 0.500000
#
# Coordination Sequence:
#
# PCOD9056018 Si02
#       8
#     2   2   2   2   2   2   2   2
#     4  11  25  41  64  97 135 178 223 279 331 395
#     4  11  21  45  68  89 133 181 220 271 339 393
#     4  11  25  42  65  96 131 175 228 272 333 403
#     4  11  23  42  67 100 135 171 222 275 334 405
#     4  11  24  41  65  98 134 171 226 275 337 399
#     4  11  23  44  68  97 134 174 224 280 338 403
#     4  11  24  42  65  98 134 170 218 282 330 393
#     4  11  21  45  70  93 135 184 217 278 342 397
#
# _framework density 20.989775999999999
#
# number of rings (size 3 to 8) (size 9 to 14) (size 15 to 20)
#    0.000    1.000    5.000    2.250    3.500    6.000 
#    0.000    0.000    0.000    0.000    0.000    0.000 
#    0.000    0.000    0.000    0.000    0.000    0.000 
#
# Total GULP energy -89353.991589 kJ/mol
# GULP energy per Si atom -5584.624474 kJ/mol
# Density = 2.094200 g / cm^3
# Si number density = 20.989776 Si / 1000 Ang^3
#
#
#
# Elastic Constant Matrix: (Units=GPa)
#
#
# Indices 1 2 3 4 5 6 
#
# 1 110.2029 23.3838 54.9656 -5.7475 24.8023 -4.7862
# 2 23.3838 70.3561 28.3835 -6.3866 14.5417 -12.2474
# 3 54.9656 28.3835 150.7308 -11.4031 6.8574 1.9830
# 4 -5.7475 -6.3866 -11.4031 29.9985 -6.2066 4.5190
# 5 24.8023 14.5417 6.8574 -6.2066 36.3463 0.9187
# 6 -4.7862 -12.2474 1.9830 4.5190 0.9187 39.7343
#
#
#
# Elastic Compliance Matrix: (Units=1/GPa)
#
#
# Indices 1 2 3 4 5 6 
#
# 1 0.013327 -0.000698 -0.004477 -0.001296 -0.008241 0.001952
# 2 -0.000698 0.017920 -0.002878 0.000446 -0.006218 0.005676
# 3 -0.004477 -0.002878 0.008918 0.002898 0.003077 -0.002272
# 4 -0.001296 0.000446 0.002898 0.036291 0.006469 -0.004440
# 5 -0.008241 -0.006218 0.003077 0.006469 0.036266 -0.004637
# 6 0.001952 0.005676 -0.002272 -0.004440 -0.004637 0.027877
#
#
# Mechanical properties :
#
#
# Convention : Reuss Voigt Hill
#
# Bulk Modulus (GPa) = 41.56416 60.52840 51.04628
# Shear Modulus (GPa) = 30.35348 36.18627 33.26987
#
# Velocity S-wave (km/s) = 3.80690 4.15661 3.98559
# Velocity P-wave (km/s) = 6.25846 7.20668 6.74924
#
# Compressibility (1/GPa) = 0.02405919
#
# Stress axis : x y z
#
# Youngs Moduli (GPa) = 75.03374 55.80316 112.13011
#
# Poissons Ratio (x) = 0.03894 0.50205
# Poissons Ratio (y) = 0.05236 0.32272
# Poissons Ratio (z) = 0.33595 0.16061
#
# Static dielectric constant tensor:
#      x y z
#    x 1.745070 -0.011810 -0.037300 
#    y -0.011810 1.776000 0.028180 
#    z -0.037300 0.028180 1.811440 
# 
# From -- ./inp_files/53315.got.cif
#   From: 2010.05.17/outbox.cif.g08.bks.cpg/sg2_27_cif.got.tgz:53315.got - 2010.06.03 11:33:40.
