data_PCOD9056403
_publ_section_title
;
Structure prediction by ZEFSAII (Michael W. Deem and Ramdas Pophale) SiO2 
 PCOD9056403
Probable space group: P -1
;
_chemical_formula_sum "Si O2"
_cell_formula_units_Z 12
_cell_length_a 10.248856
_cell_length_b 7.414073
_cell_length_c 10.033719
_cell_angle_alpha 41.785509
_cell_angle_beta 81.167103
_cell_angle_gamma 88.884191
_cell_volume 496.753608
_symmetry_space_group_name_H-M "P -1"
_symmetry_group_IT_number 2
_symmetry_cell_setting 'triclinic'
loop_
_space_group_symop_operation_xyz
x,y,z
-x,-y,-z
loop_
_atom_site_type_symbol
_atom_site_label
_atom_site_fract_x
_atom_site_fract_y
_atom_site_fract_z
Si Si1 0.862771 0.196431 0.821227
Si Si2 0.926777 0.876018 0.757745
Si Si3 0.139610 0.551338 0.589156
Si Si4 0.193751 0.732886 0.920056
Si Si5 0.483766 0.750111 0.773150
Si Si6 0.568511 0.348363 0.456887
O O1 0.829568 0.417130 0.593176
O O2 0.018030 0.312984 0.762976
O O3 0.787597 0.157200 0.992798
O O4 0.855058 0.929058 0.879684
O O5 0.087685 0.841799 0.471999
O O6 0.076584 0.844753 0.794953
O O7 0.854613 0.591124 0.871365
O O8 0.277645 0.523773 0.650981
O O9 0.330151 0.794815 0.785386
O O10 0.508308 0.669108 0.662083
O O11 0.570504 0.025573 0.661090
O O12 0.500000 0.500000 0.000000
O O13 0.500000 0.500000 0.500000
#
# Coordination Sequence:
#
# PCOD9056403 Si02
#       6
#     2   2   2   2   2   2
#     4   9  21  39  63  94 131 164 208 273 333 387
#     4   9  21  37  59  99 125 166 210 268 337 392
#     4   9  21  43  62  97 131 166 221 268 329 407
#     4  11  22  38  66  95 129 170 215 274 336 392
#     4  11  28  48  67 102 137 179 235 282 327 405
#     4  11  27  48  71  96 136 188 229 275 336 404
#
# _framework density 24.156844
#
# number of rings (size 3 to 8) (size 9 to 14) (size 15 to 20)
#    1.000    1.000    0.000    1.500    9.333    2.667 
#    3.000    0.000    0.000    0.000    0.000    0.000 
#    0.000    0.000    0.000    0.000    0.000    0.000 
#
# Total GULP energy -67091.030388 kJ/mol
# GULP energy per Si atom -5590.919199 kJ/mol
# Density = 2.410186 g / cm^3
# Si number density = 24.156844 Si / 1000 Ang^3
#
#
#
# Elastic Constant Matrix: (Units=GPa)
#
#
# Indices 1 2 3 4 5 6 
#
# 1 48.2049 18.8160 6.2389 -2.2022 -10.1531 -1.0987
# 2 18.8160 136.6065 31.0175 9.4910 4.3504 -7.2985
# 3 6.2389 31.0175 87.3006 0.9493 4.9192 -4.6950
# 4 -2.2022 9.4910 0.9493 42.0106 -3.8279 -2.2819
# 5 -10.1531 4.3504 4.9192 -3.8279 25.6660 -2.0515
# 6 -1.0987 -7.2985 -4.6950 -2.2819 -2.0515 21.0834
#
#
#
# Elastic Compliance Matrix: (Units=1/GPa)
#
#
# Indices 1 2 3 4 5 6 
#
# 1 0.024876 -0.003704 -0.001066 0.003257 0.011256 0.001225
# 2 -0.003704 0.008751 -0.002576 -0.002259 -0.002651 0.001760
# 3 -0.001066 -0.002576 0.012662 0.000125 -0.002260 0.001666
# 4 0.003257 -0.002259 0.000125 0.025139 0.005611 0.002682
# 5 0.011256 -0.002651 -0.002260 0.005611 0.045470 0.004197
# 6 0.001225 0.001760 0.001666 0.002682 0.004197 0.049173
#
#
# Mechanical properties :
#
#
# Convention : Reuss Voigt Hill
#
# Bulk Modulus (GPa) = 31.64773 42.69519 37.17146
# Shear Modulus (GPa) = 26.13794 32.15466 29.14630
#
# Velocity S-wave (km/s) = 3.29296 3.65235 3.47730
# Velocity P-wave (km/s) = 5.25238 5.95809 5.61633
#
# Compressibility (1/GPa) = 0.03159784
#
# Stress axis : x y z
#
# Youngs Moduli (GPa) = 40.19953 114.27653 78.97909
#
# Poissons Ratio (x) = 0.42325 0.08416
# Poissons Ratio (y) = 0.14889 0.20343
# Poissons Ratio (z) = 0.04284 0.29435
#
# Static dielectric constant tensor:
#      x y z
#    x 1.924890 -0.005870 0.051910 
#    y -0.005870 1.972860 0.026200 
#    z 0.051910 0.026200 1.958240 
# 
# From -- ./inp_files/59202.got.cif
#   From: 2010.05.17/outbox.cif.g08.bks.cpg/sg2_30_cif.got.tgz:59202.got - 2010.06.03 11:33:40.
