data_PCOD9056359
_publ_section_title
;
Structure prediction by ZEFSAII (Michael W. Deem and Ramdas Pophale) SiO2 
 PCOD9056359
Probable space group: P -1
;
_chemical_formula_sum "Si O2"
_cell_formula_units_Z 16
_cell_length_a 29.440401
_cell_length_b 8.667884
_cell_length_c 13.207560
_cell_angle_alpha 51.548616
_cell_angle_beta 161.066676
_cell_angle_gamma 140.174065
_cell_volume 605.211203
_symmetry_space_group_name_H-M "P -1"
_symmetry_group_IT_number 2
_symmetry_cell_setting 'triclinic'
loop_
_space_group_symop_operation_xyz
x,y,z
-x,-y,-z
loop_
_atom_site_type_symbol
_atom_site_label
_atom_site_fract_x
_atom_site_fract_y
_atom_site_fract_z
Si Si1 0.317844 0.101303 0.245326
Si Si2 0.723583 0.395622 0.351588
Si Si3 0.191640 0.693472 0.928094
Si Si4 0.558781 0.151806 0.406717
Si Si5 0.317983 0.397405 0.299906
Si Si6 0.062758 0.287418 0.502543
Si Si7 0.274042 0.031491 0.533268
Si Si8 0.271912 0.330240 0.567938
O O1 0.294150 0.261628 0.200675
O O2 0.452930 0.300122 0.352586
O O3 0.433112 0.036255 0.567489
O O4 0.096854 0.809317 0.879735
O O5 0.810797 0.641767 0.517015
O O6 0.736962 0.489809 0.225773
O O7 0.800215 0.244905 0.564613
O O8 0.488466 0.171939 0.968465
O O9 0.326924 0.804249 0.269268
O O10 0.178099 0.449188 0.976218
O O11 0.330149 0.951132 0.035940
O O12 0.995315 0.621159 0.568308
O O13 0.691047 0.455324 0.519488
O O14 0.287104 0.217184 0.400577
O O15 0.000000 0.000000 0.500000
O O16 0.180232 0.052867 0.425359
O O17 0.500000 0.500000 0.000000
#
# Coordination Sequence:
#
# PCOD9056359 Si02
#       8
#     2   2   2   2   2   2   2   2
#     4   9  20  33  60  90 115 153 194 253 299 346
#     4  10  23  39  57  91 121 156 203 240 301 366
#     4   9  19  32  59  85 110 152 199 239 290 354
#     4   9  16  33  56  86 113 146 201 246 281 347
#     4  10  17  36  61  89 116 145 208 249 292 344
#     4  11  23  40  59  82 122 161 191 242 315 363
#     4  10  20  38  64  85 115 160 199 253 291 351
#     4  10  20  33  60  88 117 154 201 246 295 350
#
# _framework density 26.437052999999999
#
# number of rings (size 3 to 8) (size 9 to 14) (size 15 to 20)
#    0.000    2.250    1.250    2.250    3.500    0.000 
#    2.250    8.125    0.000    0.000    0.000    0.000 
#    0.000    0.000    0.000    0.000    0.000    0.000 
#
# Total GULP energy -89127.141283 kJ/mol
# GULP energy per Si atom -5570.446330 kJ/mol
# Density = 2.637688 g / cm^3
# Si number density = 26.437053 Si / 1000 Ang^3
#
#
#
# Elastic Constant Matrix: (Units=GPa)
#
#
# Indices 1 2 3 4 5 6 
#
# 1 113.3620 66.2447 36.2264 -24.8395 38.8554 -37.0577
# 2 66.2447 123.9754 21.3133 -34.3200 31.5065 -31.1829
# 3 36.2264 21.3133 44.4478 -9.1947 14.2851 -8.6644
# 4 -24.8395 -34.3200 -9.1947 29.9329 -10.3900 15.0430
# 5 38.8554 31.5065 14.2851 -10.3900 41.3053 -16.4059
# 6 -37.0577 -31.1829 -8.6644 15.0430 -16.4059 47.5480
#
#
#
# Elastic Compliance Matrix: (Units=1/GPa)
#
#
# Indices 1 2 3 4 5 6 
#
# 1 0.020641 -0.004628 -0.009848 0.001873 -0.009008 0.007557
# 2 -0.004628 0.014920 0.000456 0.011419 -0.003779 0.001345
# 3 -0.009848 0.000456 0.031000 0.002746 -0.002486 -0.003454
# 4 0.001873 0.011419 0.002746 0.052235 -0.001267 -0.007514
# 5 -0.009008 -0.003779 -0.002486 -0.001267 0.037445 0.003369
# 6 0.007557 0.001345 -0.003454 -0.007514 0.003369 0.030713
#
#
# Mechanical properties :
#
#
# Convention : Reuss Voigt Hill
#
# Bulk Modulus (GPa) = 25.95951 58.81709 42.38830
# Shear Modulus (GPa) = 21.94567 34.29065 28.11816
#
# Velocity S-wave (km/s) = 2.88429 3.60539 3.26481
# Velocity P-wave (km/s) = 4.57524 6.29508 5.50277
#
# Compressibility (1/GPa) = 0.03852153
#
# Stress axis : x y z
#
# Youngs Moduli (GPa) = 48.44705 67.02329 32.25804
#
# Poissons Ratio (x) = 0.31016 0.31769
# Poissons Ratio (y) = 0.22419 -0.01471
# Poissons Ratio (z) = 0.47713 -0.03057
#
# Static dielectric constant tensor:
#      x y z
#    x 2.335310 -0.086160 0.049390 
#    y -0.086160 2.053820 0.061050 
#    z 0.049390 0.061050 2.091920 
# 
# From -- ./inp_files/388140.got.cif
#   From: 2010.05.17/outbox.cif.g08.bks.cpg/sg2_195_cif.got.tgz:388140.got - 2010.06.03 11:33:40.
