data_PCOD9056834
_publ_section_title
;
Structure prediction by ZEFSAII (Michael W. Deem and Ramdas Pophale) SiO2 
 PCOD9056834
Probable space group: P -1
;
_chemical_formula_sum "Si O2"
_cell_formula_units_Z 14
_cell_length_a 12.139072
_cell_length_b 8.313542
_cell_length_c 9.359773
_cell_angle_alpha 131.546729
_cell_angle_beta 118.146768
_cell_angle_gamma 73.720670
_cell_volume 622.575684
_symmetry_space_group_name_H-M "P -1"
_symmetry_group_IT_number 2
_symmetry_cell_setting 'triclinic'
loop_
_space_group_symop_operation_xyz
x,y,z
-x,-y,-z
loop_
_atom_site_type_symbol
_atom_site_label
_atom_site_fract_x
_atom_site_fract_y
_atom_site_fract_z
Si Si1 0.403813 0.097570 0.174910
Si Si2 0.381299 0.606335 0.919931
Si Si3 0.028437 0.969701 0.164648
Si Si4 0.292733 0.188996 0.467626
Si Si5 0.190017 0.573441 0.041858
Si Si6 0.334235 0.838245 0.513006
Si Si7 0.200185 0.094840 0.816581
O O1 0.326526 0.141525 0.297488
O O2 0.540137 0.206685 0.351520
O O3 0.418681 0.840841 0.022392
O O4 0.323592 0.152194 0.020666
O O5 0.328549 0.433758 0.671742
O O6 0.500000 0.500000 0.000000
O O7 0.276180 0.631140 0.991555
O O8 0.074921 0.727777 0.068059
O O9 0.907865 0.004129 0.206333
O O10 0.147245 0.126305 0.367785
O O11 0.000000 0.000000 0.000000
O O12 0.362270 0.027127 0.522305
O O13 0.272979 0.640119 0.270908
O O14 0.156902 0.321719 0.865714
O O15 0.237405 0.936404 0.621258
#
# Coordination Sequence:
#
# PCOD9056834 Si02
#       7
#     2   2   2   2   2   2   2
#     4  12  23  42  67  98 139 166 218 278 319 390
#     4  12  21  39  69 101 128 172 220 264 324 391
#     4  11  23  48  67  93 135 171 224 273 317 391
#     4  11  22  40  71  96 128 175 221 263 332 377
#     4  11  24  42  67  96 132 174 218 267 333 383
#     4  11  23  41  68 100 130 172 219 269 333 384
#     4  12  25  44  65  96 136 173 212 277 328 386
#
# _framework density 22.487224999999999
#
# number of rings (size 3 to 8) (size 9 to 14) (size 15 to 20)
#    0.000    0.571    7.143    2.143    0.000    4.000 
#    2.571    1.429    0.000    0.000    0.000    0.000 
#    0.000    0.000    0.000    0.000    0.000    0.000 
#
# Total GULP energy -78409.876706 kJ/mol
# GULP energy per Si atom -5600.705479 kJ/mol
# Density = 2.243604 g / cm^3
# Si number density = 22.487225 Si / 1000 Ang^3
#
#
#
# Elastic Constant Matrix: (Units=GPa)
#
#
# Indices 1 2 3 4 5 6 
#
# 1 90.0375 -5.9418 7.7025 2.6824 -12.8278 0.1502
# 2 -5.9418 48.0846 13.6625 3.7442 2.0290 -7.2599
# 3 7.7025 13.6625 82.0323 12.7522 -4.7220 -8.1003
# 4 2.6824 3.7442 12.7522 32.1990 -6.8242 0.0778
# 5 -12.8278 2.0290 -4.7220 -6.8242 36.3566 -5.8275
# 6 0.1502 -7.2599 -8.1003 0.0778 -5.8275 19.5740
#
#
#
# Elastic Compliance Matrix: (Units=1/GPa)
#
#
# Indices 1 2 3 4 5 6 
#
# 1 0.011909 0.001795 -0.001054 0.000105 0.004207 0.001390
# 2 0.001795 0.023120 -0.003053 -0.001691 -0.000210 0.007242
# 3 -0.001054 -0.003053 0.014156 -0.004845 0.001564 0.005219
# 4 0.000105 -0.001691 -0.004845 0.034393 0.005790 -0.001046
# 5 0.004207 -0.000210 0.001564 0.005790 0.031896 0.010010
# 6 0.001390 0.007242 0.005219 -0.001046 0.010010 0.058908
#
#
# Mechanical properties :
#
#
# Convention : Reuss Voigt Hill
#
# Bulk Modulus (GPa) = 22.44100 27.88898 25.16499
# Shear Modulus (GPa) = 25.79178 31.27466 28.53322
#
# Velocity S-wave (km/s) = 3.39034 3.73335 3.56598
# Velocity P-wave (km/s) = 5.03259 5.56893 5.30754
#
# Compressibility (1/GPa) = 0.04456130
#
# Stress axis : x y z
#
# Youngs Moduli (GPa) = 83.96925 43.25256 70.63961
#
# Poissons Ratio (x) = -0.07765 0.07446
# Poissons Ratio (y) = -0.15075 0.21569
# Poissons Ratio (z) = 0.08851 0.13207
#
# Static dielectric constant tensor:
#      x y z
#    x 1.827270 -0.006310 0.018770 
#    y -0.006310 1.836640 -0.020750 
#    z 0.018770 -0.020750 1.802900 
# 
# From -- ./inp_files/176950.got.cif
#   From: 2010.05.17/outbox.cif.g08.bks.cpg/sg2_89_cif.got.tgz:176950.got - 2010.06.03 11:33:40.
