data_PCOD9056814
_publ_section_title
;
Structure prediction by ZEFSAII (Michael W. Deem and Ramdas Pophale) SiO2 
 PCOD9056814
Probable space group: P -1
;
_chemical_formula_sum "Si O2"
_cell_formula_units_Z 16
_cell_length_a 9.804264
_cell_length_b 18.421034
_cell_length_c 11.978797
_cell_angle_alpha 151.727415
_cell_angle_beta 45.428115
_cell_angle_gamma 131.343253
_cell_volume 724.187004
_symmetry_space_group_name_H-M "P -1"
_symmetry_group_IT_number 2
_symmetry_cell_setting 'triclinic'
loop_
_space_group_symop_operation_xyz
x,y,z
-x,-y,-z
loop_
_atom_site_type_symbol
_atom_site_label
_atom_site_fract_x
_atom_site_fract_y
_atom_site_fract_z
Si Si1 0.799636 0.456731 0.618360
Si Si2 0.623087 0.743137 0.060151
Si Si3 0.092820 0.295070 0.564816
Si Si4 0.405284 0.308707 0.600878
Si Si5 0.000140 0.027353 0.904893
Si Si6 0.550905 0.008212 0.112195
Si Si7 0.736996 0.393666 0.816608
Si Si8 0.576171 0.669247 0.734553
O O1 0.728225 0.621123 0.902754
O O2 0.629152 0.365447 0.518245
O O3 0.801886 0.377106 0.629545
O O4 0.000000 0.500000 0.500000
O O5 0.550709 0.673603 0.887210
O O6 0.799252 0.870736 0.101842
O O7 0.425662 0.747881 0.248020
O O8 0.255787 0.307646 0.583135
O O9 0.203004 0.317774 0.414023
O O10 0.919863 0.397219 0.798655
O O11 0.996962 0.120185 0.375730
O O12 0.421847 0.137293 0.407091
O O13 0.348280 0.443986 0.896961
O O14 0.780822 0.067425 0.068027
O O15 0.000000 0.000000 0.000000
O O16 0.500000 0.000000 0.000000
O O17 0.513291 0.832816 0.945967
O O18 0.500000 0.500000 0.500000
#
# Coordination Sequence:
#
# PCOD9056814 Si02
#       8
#     2   2   2   2   2   2   2   2
#     4  11  24  44  74 104 132 184 240 292 355 426
#     4  11  22  41  66 100 139 185 233 295 352 413
#     4  11  23  43  67 100 142 194 234 290 346 424
#     4  11  22  43  69 102 146 182 231 297 355 413
#     4  11  22  42  69 104 138 183 249 288 344 414
#     4  11  22  41  70 106 144 189 235 300 344 408
#     4  11  26  44  69 101 143 185 238 290 363 422
#     4  11  22  40  70 105 137 181 246 286 351 414
#
# _framework density 22.093741999999999
#
# number of rings (size 3 to 8) (size 9 to 14) (size 15 to 20)
#    0.000    1.000    5.000    4.875    1.750    0.500 
#    2.250    1.250    2.750    4.500    0.000    0.000 
#    0.000    0.000    0.000    0.000    0.000    0.000 
#
# Total GULP energy -89132.062249 kJ/mol
# GULP energy per Si atom -5570.753891 kJ/mol
# Density = 2.204346 g / cm^3
# Si number density = 22.093742 Si / 1000 Ang^3
#
#
#
# Elastic Constant Matrix: (Units=GPa)
#
#
# Indices 1 2 3 4 5 6 
#
# 1 163.5175 82.0487 44.1779 -7.4774 -1.9626 16.1730
# 2 82.0487 151.7029 35.6409 2.9969 7.1003 6.2879
# 3 44.1779 35.6409 95.4436 15.0330 -16.4415 8.6271
# 4 -7.4774 2.9969 15.0330 32.4325 2.0208 2.9204
# 5 -1.9626 7.1003 -16.4415 2.0208 47.6149 1.1290
# 6 16.1730 6.2879 8.6271 2.9204 1.1290 29.9401
#
#
#
# Elastic Compliance Matrix: (Units=1/GPa)
#
#
# Indices 1 2 3 4 5 6 
#
# 1 0.009833 -0.004470 -0.003279 0.004558 -0.000162 -0.003867
# 2 -0.004470 0.009510 -0.001800 -0.001039 -0.002206 0.001121
# 3 -0.003279 -0.001800 0.015016 -0.007757 0.005686 -0.001636
# 4 0.004558 -0.001039 -0.007757 0.036117 -0.003788 -0.003389
# 5 -0.000162 -0.002206 0.005686 -0.003788 0.023486 -0.001604
# 6 -0.003867 0.001121 -0.001636 -0.003389 -0.001604 0.036116
#
#
# Mechanical properties :
#
#
# Convention : Reuss Voigt Hill
#
# Bulk Modulus (GPa) = 65.52221 81.59990 73.56105
# Shear Modulus (GPa) = 32.41220 38.58394 35.49807
#
# Velocity S-wave (km/s) = 3.83434 4.18350 4.01272
# Velocity P-wave (km/s) = 7.02308 7.76848 7.40516
#
# Compressibility (1/GPa) = 0.01526200
#
# Stress axis : x y z
#
# Youngs Moduli (GPa) = 101.69473 105.15485 66.59483
#
# Poissons Ratio (x) = 0.47008 0.21833
# Poissons Ratio (y) = 0.45461 0.11986
# Poissons Ratio (z) = 0.33341 0.18926
#
# Static dielectric constant tensor:
#      x y z
#    x 1.831140 0.020750 -0.015240 
#    y 0.020750 1.910710 0.066090 
#    z -0.015240 0.066090 1.937530 
# 
# From -- ./inp_files/403494.got.cif
#   From: 2010.05.17/outbox.cif.g08.bks.cpg/sg2_202_cif.got.tgz:403494.got - 2010.06.03 11:33:40.
