data_PCOD9056847
_publ_section_title
;
Structure prediction by ZEFSAII (Michael W. Deem and Ramdas Pophale) SiO2 
 PCOD9056847
Probable space group: P -1
;
_chemical_formula_sum "Si O2"
_cell_formula_units_Z 16
_cell_length_a 13.276739
_cell_length_b 11.164820
_cell_length_c 19.766524
_cell_angle_alpha 33.648527
_cell_angle_beta 28.058674
_cell_angle_gamma 33.228391
_cell_volume 702.903888
_symmetry_space_group_name_H-M "P -1"
_symmetry_group_IT_number 2
_symmetry_cell_setting 'triclinic'
loop_
_space_group_symop_operation_xyz
x,y,z
-x,-y,-z
loop_
_atom_site_type_symbol
_atom_site_label
_atom_site_fract_x
_atom_site_fract_y
_atom_site_fract_z
Si Si1 0.712266 0.157994 0.031664
Si Si2 0.765279 0.825172 0.727846
Si Si3 0.269954 0.996931 0.605298
Si Si4 0.610372 0.101507 0.826651
Si Si5 0.366078 0.546377 0.833996
Si Si6 0.175390 0.577597 0.285884
Si Si7 0.890935 0.896687 0.482539
Si Si8 0.043781 0.636247 0.101314
O O1 0.437328 0.239496 0.155491
O O2 0.781781 0.269043 0.872377
O O3 0.799196 0.256540 0.998978
O O4 0.824436 0.872844 0.102222
O O5 0.845091 0.956979 0.560146
O O6 0.967523 0.580280 0.747293
O O7 0.633501 0.980905 0.797067
O O8 0.300816 0.947775 0.530291
O O9 0.054156 0.242263 0.626019
O O10 0.500000 0.000000 0.500000
O O11 0.228735 0.801745 0.765205
O O12 0.448794 0.374691 0.801883
O O13 0.872575 0.082429 0.691470
O O14 0.500000 0.000000 0.000000
O O15 0.598317 0.511256 0.757068
O O16 0.187825 0.509686 0.009154
O O17 0.111269 0.363336 0.399291
#
# Coordination Sequence:
#
# PCOD9056847 Si02
#       8
#     2   2   2   2   2   2   2   2
#     4  11  23  40  71 111 137 180 226 286 357 428
#     4  12  25  47  71 100 148 187 231 285 346 414
#     4  12  25  40  68 106 142 175 226 295 358 414
#     4  12  26  48  73  97 138 194 245 280 337 423
#     4  12  23  43  70 103 134 183 236 287 343 413
#     4  12  21  42  71 103 143 173 231 291 354 414
#     4  12  26  46  71 104 143 187 230 294 355 406
#     4  11  22  40  72 107 138 178 229 286 353 411
#
# _framework density 22.762713999999999
#
# number of rings (size 3 to 8) (size 9 to 14) (size 15 to 20)
#    0.000    0.250    7.500    2.625    0.000    0.000 
#    4.500    1.875    0.000    0.000    0.000    0.000 
#    0.000    0.000    0.000    0.000    0.000    0.000 
#
# Total GULP energy -89394.954062 kJ/mol
# GULP energy per Si atom -5587.184629 kJ/mol
# Density = 2.271090 g / cm^3
# Si number density = 22.762714 Si / 1000 Ang^3
#
#
#
# Elastic Constant Matrix: (Units=GPa)
#
#
# Indices 1 2 3 4 5 6 
#
# 1 79.6288 37.6368 41.8345 -6.0190 31.3219 -3.0612
# 2 37.6368 96.2714 16.2656 5.3075 14.9783 -4.4947
# 3 41.8345 16.2656 114.9115 16.6564 23.7884 -6.8704
# 4 -6.0190 5.3075 16.6564 24.1880 4.9759 10.5235
# 5 31.3219 14.9783 23.7884 4.9759 36.5733 -0.8094
# 6 -3.0612 -4.4947 -6.8704 10.5235 -0.8094 34.5885
#
#
#
# Elastic Compliance Matrix: (Units=1/GPa)
#
#
# Indices 1 2 3 4 5 6 
#
# 1 0.031937 -0.009348 -0.010181 0.024906 -0.020477 -0.008467
# 2 -0.009348 0.014029 0.002680 -0.009600 0.001923 0.004494
# 3 -0.010181 0.002680 0.014801 -0.016648 0.000425 0.007462
# 4 0.024906 -0.009600 -0.016648 0.075961 -0.017477 -0.025870
# 5 -0.020477 0.001923 0.000425 -0.017477 0.046302 0.004923
# 6 -0.008467 0.004494 0.007462 -0.025870 0.004923 0.038214
#
#
# Mechanical properties :
#
#
# Convention : Reuss Voigt Hill
#
# Bulk Modulus (GPa) = 36.94415 53.58728 45.26571
# Shear Modulus (GPa) = 18.94186 32.07496 25.50841
#
# Velocity S-wave (km/s) = 2.88782 3.75787 3.35120
# Velocity P-wave (km/s) = 5.23304 6.51319 5.90789
#
# Compressibility (1/GPa) = 0.02706789
#
# Stress axis : x y z
#
# Youngs Moduli (GPa) = 31.31167 71.28095 67.56401
#
# Poissons Ratio (x) = 0.66633 0.68787
# Poissons Ratio (y) = 0.29270 -0.18104
# Poissons Ratio (z) = 0.31879 -0.19100
#
# Static dielectric constant tensor:
#      x y z
#    x 1.931680 0.062070 0.030090 
#    y 0.062070 1.876520 -0.034870 
#    z 0.030090 -0.034870 1.910310 
# 
# From -- ./inp_files/597774.got.cif
#   From: 2010.05.17/outbox.cif.g08.bks.cpg/sg2_299_cif.got.tgz:597774.got - 2010.06.03 11:33:40.
