data_PCOD9056799
_publ_section_title
;
Structure prediction by ZEFSAII (Michael W. Deem and Ramdas Pophale) SiO2 
 PCOD9056799
Probable space group: P -1
;
_chemical_formula_sum "Si O2"
_cell_formula_units_Z 16
_cell_length_a 17.503295
_cell_length_b 19.845049
_cell_length_c 10.997819
_cell_angle_alpha 147.342760
_cell_angle_beta 30.494993
_cell_angle_gamma 159.597070
_cell_volume 663.004161
_symmetry_space_group_name_H-M "P -1"
_symmetry_group_IT_number 2
_symmetry_cell_setting 'triclinic'
loop_
_space_group_symop_operation_xyz
x,y,z
-x,-y,-z
loop_
_atom_site_type_symbol
_atom_site_label
_atom_site_fract_x
_atom_site_fract_y
_atom_site_fract_z
Si Si1 0.390261 0.542496 0.444833
Si Si2 0.669299 0.934569 0.074669
Si Si3 0.819117 0.279329 0.509546
Si Si4 0.103752 0.130279 0.175604
Si Si5 0.765722 0.359121 0.384484
Si Si6 0.716665 0.093810 0.631832
Si Si7 0.060252 0.709565 0.151385
Si Si8 0.227529 0.070295 0.339710
O O1 0.343098 0.368849 0.206900
O O2 0.331394 0.584745 0.470543
O O3 0.628257 0.747308 0.489865
O O4 0.193420 0.441795 0.666430
O O5 0.414380 0.783100 0.261313
O O6 0.790153 0.147166 0.254384
O O7 0.834728 0.936455 0.913078
O O8 0.636082 0.880771 0.897113
O O9 0.797612 0.199176 0.552315
O O10 0.078969 0.506035 0.507750
O O11 0.895175 0.097148 0.432052
O O12 0.000000 0.000000 0.000000
O O13 0.542028 0.128092 0.363657
O O14 0.935476 0.393908 0.112416
O O15 0.749182 0.202734 0.870298
O O16 0.143205 0.889311 0.244707
O O17 0.000000 0.000000 0.500000
#
# Coordination Sequence:
#
# PCOD9056799 Si02
#       8
#     2   2   2   2   2   2   2   2
#     4  11  24  40  69  98 133 180 229 276 340 405
#     4  11  25  45  71  93 145 183 219 282 348 397
#     4  11  24  46  68 101 136 182 224 284 339 404
#     4  11  22  47  72  95 133 182 224 279 339 406
#     4  12  22  39  70 105 131 172 236 277 341 399
#     4  11  22  40  70 101 132 169 230 283 329 402
#     4  11  23  39  68  99 135 172 223 288 333 395
#     4  12  26  45  65 101 143 180 227 283 342 407
#
# _framework density 24.132577999999999
#
# number of rings (size 3 to 8) (size 9 to 14) (size 15 to 20)
#    0.000    0.750    5.000    3.750    1.750    3.000 
#    2.250    8.125    0.000    0.000    0.000    0.000 
#    0.000    0.000    0.000    0.000    0.000    0.000 
#
# Total GULP energy -89565.307090 kJ/mol
# GULP energy per Si atom -5597.831693 kJ/mol
# Density = 2.407765 g / cm^3
# Si number density = 24.132578 Si / 1000 Ang^3
#
#
#
# Elastic Constant Matrix: (Units=GPa)
#
#
# Indices 1 2 3 4 5 6 
#
# 1 132.9910 16.3867 26.4243 10.7460 -0.9329 23.5987
# 2 16.3867 121.0417 14.3690 22.6854 -2.6268 34.4314
# 3 26.4243 14.3690 68.5562 22.0005 2.4583 12.5123
# 4 10.7460 22.6854 22.0005 38.9277 8.4054 6.6793
# 5 -0.9329 -2.6268 2.4583 8.4054 35.7058 3.8020
# 6 23.5987 34.4314 12.5123 6.6793 3.8020 43.4572
#
#
#
# Elastic Compliance Matrix: (Units=1/GPa)
#
#
# Indices 1 2 3 4 5 6 
#
# 1 0.008812 0.000556 -0.002467 -0.000834 0.001115 -0.004485
# 2 0.000556 0.012128 0.001078 -0.006959 0.003478 -0.009456
# 3 -0.002467 0.001078 0.019304 -0.010579 0.001558 -0.003583
# 4 -0.000834 -0.006959 -0.010579 0.037195 -0.008996 0.004082
# 5 0.001115 0.003478 0.001558 -0.008996 0.030848 -0.005125
# 6 -0.004485 -0.009456 -0.003583 0.004082 -0.005125 0.033791
#
#
# Mechanical properties :
#
#
# Convention : Reuss Voigt Hill
#
# Bulk Modulus (GPa) = 25.92119 48.54988 37.23553
# Shear Modulus (GPa) = 31.92778 41.31206 36.61992
#
# Velocity S-wave (km/s) = 3.64127 4.14198 3.89967
# Velocity P-wave (km/s) = 5.33320 6.56020 5.97826
#
# Compressibility (1/GPa) = 0.03857848
#
# Stress axis : x y z
#
# Youngs Moduli (GPa) = 113.48220 82.45463 51.80150
#
# Poissons Ratio (x) = -0.04585 0.12779
# Poissons Ratio (y) = -0.06310 -0.05584
# Poissons Ratio (z) = 0.27996 -0.08889
#
# Static dielectric constant tensor:
#      x y z
#    x 1.963870 -0.008810 0.036330 
#    y -0.008810 1.963500 0.032860 
#    z 0.036330 0.032860 2.022140 
# 
# From -- ./inp_files/332693.got.cif
#   From: 2010.05.17/outbox.cif.g08.bks.cpg/sg2_167_cif.got.tgz:332693.got - 2010.06.03 11:33:40.
