data_PCOD9056913
_publ_section_title
;
Structure prediction by ZEFSAII (Michael W. Deem and Ramdas Pophale) SiO2 
 PCOD9056913
Probable space group: P -1
;
_chemical_formula_sum "Si O2"
_cell_formula_units_Z 16
_cell_length_a 21.123349
_cell_length_b 8.850469
_cell_length_c 11.599379
_cell_angle_alpha 46.833983
_cell_angle_beta 27.887958
_cell_angle_gamma 37.702843
_cell_volume 619.444291
_symmetry_space_group_name_H-M "P -1"
_symmetry_group_IT_number 2
_symmetry_cell_setting 'triclinic'
loop_
_space_group_symop_operation_xyz
x,y,z
-x,-y,-z
loop_
_atom_site_type_symbol
_atom_site_label
_atom_site_fract_x
_atom_site_fract_y
_atom_site_fract_z
Si Si1 0.284590 0.453541 0.390479
Si Si2 0.938477 0.769183 0.135327
Si Si3 0.412597 0.134097 0.954317
Si Si4 0.726974 0.400168 0.918963
Si Si5 0.228235 0.246820 0.981491
Si Si6 0.650264 0.248271 0.448018
Si Si7 0.988821 0.891721 0.736456
Si Si8 0.561316 0.631179 0.574451
O O1 0.178421 0.333504 0.633038
O O2 0.339199 0.455889 0.171292
O O3 0.409970 0.354285 0.344770
O O4 0.158009 0.738951 0.480635
O O5 0.829264 0.047151 0.218804
O O6 0.997086 0.786411 0.905242
O O7 0.096588 0.541536 0.062744
O O8 0.309063 0.099661 0.045846
O O9 0.565052 0.097943 0.660887
O O10 0.296990 0.414781 0.039184
O O11 0.500000 0.000000 0.000000
O O12 0.910723 0.182002 0.720184
O O13 0.625164 0.281649 0.181952
O O14 0.364212 0.241565 0.684138
O O15 0.133476 0.149962 0.117372
O O16 0.500000 0.500000 0.500000
O O17 0.651464 0.353258 0.518004
#
# Coordination Sequence:
#
# PCOD9056913 Si02
#       8
#     2   2   2   2   2   2   2   2
#     4  11  22  45  64  96 136 173 220 270 330 393
#     4  11  22  42  71  97 132 177 219 272 331 395
#     4  11  25  46  65  93 136 175 219 277 332 395
#     4  11  26  41  65  96 132 178 216 272 335 383
#     4  11  23  43  68  99 132 172 227 272 330 395
#     4  11  23  40  63  99 135 171 220 270 323 393
#     4  11  23  41  67 100 133 170 221 275 325 396
#     4  11  22  41  64  98 130 168 224 269 324 390
#
# _framework density 25.829602999999999
#
# number of rings (size 3 to 8) (size 9 to 14) (size 15 to 20)
#    0.000    1.000    3.750    3.750    0.000    6.000 
#    0.000    5.625    0.000    0.000    0.000    0.000 
#    0.000    0.000    0.000    0.000    0.000    0.000 
#
# Total GULP energy -89451.241273 kJ/mol
# GULP energy per Si atom -5590.702580 kJ/mol
# Density = 2.577081 g / cm^3
# Si number density = 25.829603 Si / 1000 Ang^3
#
#
#
# Elastic Constant Matrix: (Units=GPa)
#
#
# Indices 1 2 3 4 5 6 
#
# 1 135.6396 23.9499 20.2753 11.7038 9.7553 -19.1334
# 2 23.9499 101.6332 12.6368 31.7821 6.2648 -0.0515
# 3 20.2753 12.6368 58.8062 14.7199 14.0237 3.3280
# 4 11.7038 31.7821 14.7199 43.3219 10.2379 12.2657
# 5 9.7553 6.2648 14.0237 10.2379 30.1084 1.7886
# 6 -19.1334 -0.0515 3.3280 12.2657 1.7886 39.7928
#
#
#
# Elastic Compliance Matrix: (Units=1/GPa)
#
#
# Indices 1 2 3 4 5 6 
#
# 1 0.008899 -0.001117 -0.002342 -0.001958 -0.001199 0.005131
# 2 -0.001117 0.013319 -0.000290 -0.010382 0.001098 0.002655
# 3 -0.002342 -0.000290 0.020729 -0.004098 -0.007367 -0.001266
# 4 -0.001958 -0.010382 -0.004098 0.037749 -0.007425 -0.011914
# 5 -0.001199 0.001098 -0.007367 -0.007425 0.039296 0.000563
# 6 0.005131 0.002655 -0.001266 -0.011914 0.000563 0.031353
#
#
# Mechanical properties :
#
#
# Convention : Reuss Voigt Hill
#
# Bulk Modulus (GPa) = 28.21089 45.53364 36.87227
# Shear Modulus (GPa) = 29.29800 38.59245 33.94522
#
# Velocity S-wave (km/s) = 3.37156 3.86957 3.62912
# Velocity P-wave (km/s) = 5.10903 6.13446 5.64508
#
# Compressibility (1/GPa) = 0.03544730
#
# Stress axis : x y z
#
# Youngs Moduli (GPa) = 112.37540 75.08168 48.24077
#
# Poissons Ratio (x) = 0.08386 0.11300
# Poissons Ratio (y) = 0.12551 0.01401
# Poissons Ratio (z) = 0.26323 0.02181
#
# Static dielectric constant tensor:
#      x y z
#    x 2.026640 -0.018730 0.026640 
#    y -0.018730 2.109790 -0.017940 
#    z 0.026640 -0.017940 2.010670 
# 
# From -- ./inp_files/469813.got.cif
#   From: 2010.05.17/outbox.cif.g08.bks.cpg/sg2_235_cif.got.tgz:469813.got - 2010.06.03 11:33:40.
