data_PCOD9056681
_publ_section_title
;
Structure prediction by ZEFSAII (Michael W. Deem and Ramdas Pophale) SiO2 
 PCOD9056681
Probable space group: P -1
;
_chemical_formula_sum "Si O2"
_cell_formula_units_Z 12
_cell_length_a 5.821230
_cell_length_b 16.035360
_cell_length_c 13.729049
_cell_angle_alpha 27.935157
_cell_angle_beta 118.563880
_cell_angle_gamma 115.436019
_cell_volume 527.215973
_symmetry_space_group_name_H-M "P -1"
_symmetry_group_IT_number 2
_symmetry_cell_setting 'triclinic'
loop_
_space_group_symop_operation_xyz
x,y,z
-x,-y,-z
loop_
_atom_site_type_symbol
_atom_site_label
_atom_site_fract_x
_atom_site_fract_y
_atom_site_fract_z
Si Si1 0.263262 0.109772 0.892841
Si Si2 0.071394 0.630442 0.570543
Si Si3 0.914766 0.466480 0.905980
Si Si4 0.635500 0.076751 0.592820
Si Si5 0.144537 0.093800 0.345131
Si Si6 0.376653 0.303209 0.913463
O O1 0.383995 0.225706 0.886318
O O2 0.148653 0.255543 0.644702
O O3 0.500000 0.000000 0.000000
O O4 0.000000 0.000000 0.000000
O O5 0.315517 0.772175 0.474788
O O6 0.131146 0.436350 0.737798
O O7 0.013810 0.596529 0.707785
O O8 0.609190 0.430631 0.867100
O O9 0.000000 0.500000 0.000000
O O10 0.038854 0.278629 0.099893
O O11 0.425775 0.130960 0.413418
O O12 0.883099 0.036938 0.616403
O O13 0.590459 0.879302 0.829976
O O14 0.000000 0.000000 0.500000
#
# Coordination Sequence:
#
# PCOD9056681 Si02
#       6
#     2   2   2   2   2   2
#     4  12  31  55  89 118 158 214 277 339 415 482
#     4  12  28  49  78 114 161 202 274 332 403 479
#     4  12  27  43  75 117 160 208 267 323 404 482
#     4  11  24  43  73 104 153 207 257 321 398 470
#     4  11  22  40  66 104 153 205 255 316 388 474
#     4  12  27  50  79 113 159 208 267 334 408 476
#
# _framework density 22.761071999999999
#
# number of rings (size 3 to 8) (size 9 to 14) (size 15 to 20)
#    0.000    0.333    5.000    2.500    9.333    3.333 
#    0.000    0.000    0.000    0.000    0.000    0.000 
#    0.000    0.000    0.000    0.000    0.000    0.000 
#
# Total GULP energy -66855.120194 kJ/mol
# GULP energy per Si atom -5571.260016 kJ/mol
# Density = 2.270927 g / cm^3
# Si number density = 22.761072 Si / 1000 Ang^3
#
#
#
# Elastic Constant Matrix: (Units=GPa)
#
#
# Indices 1 2 3 4 5 6 
#
# 1 66.7915 39.0980 49.2284 -3.1774 12.6550 -15.1523
# 2 39.0980 120.8969 29.2789 0.3715 9.2115 -20.6999
# 3 49.2284 29.2789 149.1571 -13.7837 41.9693 -19.2947
# 4 -3.1774 0.3715 -13.7837 37.9422 8.8842 2.5495
# 5 12.6550 9.2115 41.9693 8.8842 29.4837 -2.1756
# 6 -15.1523 -20.6999 -19.2947 2.5495 -2.1756 31.0488
#
#
#
# Elastic Compliance Matrix: (Units=1/GPa)
#
#
# Indices 1 2 3 4 5 6 
#
# 1 0.023731 -0.005486 -0.006961 -0.001237 0.002094 0.003846
# 2 -0.005486 0.010831 0.000789 -0.000206 -0.001727 0.004930
# 3 -0.006961 0.000789 0.017889 0.011582 -0.025808 0.005486
# 4 -0.001237 -0.000206 0.011582 0.036635 -0.026815 0.001570
# 5 0.002094 -0.001727 -0.025808 -0.026815 0.077746 -0.008517
# 6 0.003846 0.004930 0.005486 0.001570 -0.008517 0.040054
#
#
# Mechanical properties :
#
#
# Convention : Reuss Voigt Hill
#
# Bulk Modulus (GPa) = 34.32389 63.56179 48.94284
# Shear Modulus (GPa) = 20.84075 34.31095 27.57585
#
# Velocity S-wave (km/s) = 3.02922 3.88679 3.48449
# Velocity P-wave (km/s) = 5.22951 6.93752 6.14316
#
# Compressibility (1/GPa) = 0.02913423
#
# Stress axis : x y z
#
# Youngs Moduli (GPa) = 42.13878 92.32891 55.90107
#
# Poissons Ratio (x) = 0.50651 0.38915
# Poissons Ratio (y) = 0.23117 -0.04411
# Poissons Ratio (z) = 0.29334 -0.07286
#
# Static dielectric constant tensor:
#      x y z
#    x 1.931910 -0.008230 0.016710 
#    y -0.008230 1.898840 -0.041690 
#    z 0.016710 -0.041690 1.588870 
# 
# From -- ./inp_files/36778.got.cif
#   From: 2010.05.17/outbox.cif.g08.bks.cpg/sg2_19_cif.got.tgz:36778.got - 2010.06.03 11:33:40.
