data_PCOD9056973
_publ_section_title
;
Structure prediction by ZEFSAII (Michael W. Deem and Ramdas Pophale) SiO2 
 PCOD9056973
Probable space group: P -1
;
_chemical_formula_sum "Si O2"
_cell_formula_units_Z 16
_cell_length_a 5.275893
_cell_length_b 14.682671
_cell_length_c 14.350297
_cell_angle_alpha 141.227950
_cell_angle_beta 82.180836
_cell_angle_gamma 95.195226
_cell_volume 689.443438
_symmetry_space_group_name_H-M "P -1"
_symmetry_group_IT_number 2
_symmetry_cell_setting 'triclinic'
loop_
_space_group_symop_operation_xyz
x,y,z
-x,-y,-z
loop_
_atom_site_type_symbol
_atom_site_label
_atom_site_fract_x
_atom_site_fract_y
_atom_site_fract_z
Si Si1 0.766269 0.098141 0.167639
Si Si2 0.906494 0.185999 0.047589
Si Si3 0.960739 0.635846 0.544707
Si Si4 0.391309 0.376014 0.735701
Si Si5 0.549974 0.870666 0.319030
Si Si6 0.905777 0.072974 0.753881
Si Si7 0.383414 0.197802 0.414644
Si Si8 0.893093 0.500555 0.757630
O O1 0.693480 0.157837 0.115671
O O2 0.565611 0.101320 0.263959
O O3 0.965210 0.219175 0.289133
O O4 0.882832 0.936369 0.030750
O O5 0.020110 0.345165 0.163410
O O6 0.839148 0.147897 0.915038
O O7 0.679848 0.664639 0.539140
O O8 0.000000 0.500000 0.500000
O O9 0.113700 0.601445 0.414922
O O10 0.400893 0.283798 0.755835
O O11 0.458138 0.254754 0.556432
O O12 0.614748 0.493270 0.812374
O O13 0.115827 0.442105 0.770234
O O14 0.298530 0.871960 0.268491
O O15 0.805595 0.901974 0.272660
O O16 0.500000 0.000000 0.500000
O O17 0.860436 0.901397 0.632827
#
# Coordination Sequence:
#
# PCOD9056973 Si02
#       8
#     2   2   2   2   2   2   2   2
#     4  11  23  46  68 104 148 192 246 286 350 423
#     4  11  26  46  70 104 151 197 233 290 360 438
#     4  11  22  41  67 103 143 189 243 293 338 417
#     4  11  25  44  74 106 140 180 241 311 362 414
#     4  12  26  45  76 110 139 180 244 310 365 419
#     4  12  26  45  71 109 143 185 237 298 362 426
#     4  11  24  40  73 106 143 183 242 299 353 416
#     4  11  25  45  71 105 147 191 239 292 362 424
#
# _framework density 23.207125999999999
#
# number of rings (size 3 to 8) (size 9 to 14) (size 15 to 20)
#    0.000    0.750    5.000    1.875    3.500    4.000 
#    2.250    3.750    0.000    0.000    0.000    0.000 
#    0.000    0.000    0.000    0.000    0.000    0.000 
#
# Total GULP energy -89412.838180 kJ/mol
# GULP energy per Si atom -5588.302386 kJ/mol
# Density = 2.315431 g / cm^3
# Si number density = 23.207126 Si / 1000 Ang^3
#
#
#
# Elastic Constant Matrix: (Units=GPa)
#
#
# Indices 1 2 3 4 5 6 
#
# 1 72.1418 32.4246 -1.5580 -9.8460 2.8692 1.6261
# 2 32.4246 136.9837 19.3442 8.2930 0.0127 -19.2732
# 3 -1.5580 19.3442 66.9067 0.7254 13.8829 -1.5306
# 4 -9.8460 8.2930 0.7254 39.2211 -6.2840 6.4742
# 5 2.8692 0.0127 13.8829 -6.2840 14.9171 -1.2914
# 6 1.6261 -19.2732 -1.5306 6.4742 -1.2914 36.7035
#
#
#
# Elastic Compliance Matrix: (Units=1/GPa)
#
#
# Indices 1 2 3 4 5 6 
#
# 1 0.017413 -0.005490 0.002614 0.005646 -0.003803 -0.004675
# 2 -0.005490 0.010229 -0.003568 -0.003995 0.003229 0.006284
# 3 0.002614 -0.003568 0.020236 -0.001965 -0.020291 -0.001513
# 4 0.005646 -0.003995 -0.001965 0.031144 0.013220 -0.007458
# 5 -0.003803 0.003229 -0.020291 0.013220 0.092387 0.001937
# 6 -0.004675 0.006284 -0.001513 -0.007458 0.001937 0.032073
#
#
# Mechanical properties :
#
#
# Convention : Reuss Voigt Hill
#
# Bulk Modulus (GPa) = 28.58065 41.82818 35.20442
# Shear Modulus (GPa) = 21.92653 33.22312 27.57483
#
# Velocity S-wave (km/s) = 3.07713 3.78774 3.45077
# Velocity P-wave (km/s) = 4.99671 6.09855 5.57492
#
# Compressibility (1/GPa) = 0.03498871
#
# Stress axis : x y z
#
# Youngs Moduli (GPa) = 57.42910 97.75868 49.41739
#
# Poissons Ratio (x) = 0.53670 -0.12917
# Poissons Ratio (y) = 0.31529 0.17634
# Poissons Ratio (z) = -0.15011 0.34883
#
# Static dielectric constant tensor:
#      x y z
#    x 1.965840 0.014590 -0.014830 
#    y 0.014590 1.897460 -0.015680 
#    z -0.014830 -0.015680 1.889360 
# 
# From -- ./inp_files/484481.got.cif
#   From: 2010.05.17/outbox.cif.g08.bks.cpg/sg2_243_cif.got.tgz:484481.got - 2010.06.03 11:33:40.
