data_PCOD9056305
_publ_section_title
;
Structure prediction by ZEFSAII (Michael W. Deem and Ramdas Pophale) SiO2 
 PCOD9056305
Probable space group: P -1
;
_chemical_formula_sum "Si O2"
_cell_formula_units_Z 16
_cell_length_a 15.275394
_cell_length_b 9.789560
_cell_length_c 14.917618
_cell_angle_alpha 81.428796
_cell_angle_beta 28.617700
_cell_angle_gamma 101.615610
_cell_volume 753.093098
_symmetry_space_group_name_H-M "P -1"
_symmetry_group_IT_number 2
_symmetry_cell_setting 'triclinic'
loop_
_space_group_symop_operation_xyz
x,y,z
-x,-y,-z
loop_
_atom_site_type_symbol
_atom_site_label
_atom_site_fract_x
_atom_site_fract_y
_atom_site_fract_z
Si Si1 0.922819 0.148146 0.760313
Si Si2 0.405185 0.992248 0.488615
Si Si3 0.246962 0.455298 0.294908
Si Si4 0.198971 0.675238 0.029821
Si Si5 0.368286 0.716264 0.412779
Si Si6 0.452799 0.842656 0.120694
Si Si7 0.075903 0.119674 0.133632
Si Si8 0.780886 0.603564 0.861725
O O1 0.755482 0.162237 0.969210
O O2 0.084353 0.338396 0.539359
O O3 0.051196 0.096572 0.707473
O O4 0.748466 0.966350 0.867656
O O5 0.500000 0.000000 0.500000
O O6 0.388839 0.848079 0.454300
O O7 0.613882 0.205810 0.234312
O O8 0.121567 0.909613 0.751839
O O9 0.321771 0.654042 0.199605
O O10 0.090064 0.330966 0.359291
O O11 0.504055 0.509673 0.085717
O O12 0.253121 0.564068 0.046684
O O13 0.890726 0.505032 0.308706
O O14 0.337847 0.763673 0.333784
O O15 0.631988 0.765481 0.169340
O O16 0.500000 0.000000 0.000000
O O17 0.099313 0.232841 0.187911
#
# Coordination Sequence:
#
# PCOD9056305 Si02
#       8
#     2   2   2   2   2   2   2   2
#     4  11  22  40  67  96 137 194 231 284 350 411
#     4  12  28  49  77 109 137 180 242 304 374 440
#     4  11  23  39  60 103 143 188 254 275 342 419
#     4  12  23  45  75  99 142 189 234 295 369 420
#     4  11  24  47  71 105 147 184 240 291 361 422
#     4  11  22  37  64  98 142 190 237 281 333 413
#     4  11  23  49  73 101 148 189 230 301 366 419
#     4  11  23  40  65 100 144 193 230 297 341 415
#
# _framework density 21.245712000000001
#
# number of rings (size 3 to 8) (size 9 to 14) (size 15 to 20)
#    0.000    0.750    7.500    1.500    1.750    2.500 
#    0.000    0.625    0.000    0.000    0.000    0.000 
#    0.000    0.000    0.000    0.000    0.000    0.000 
#
# Total GULP energy -89166.256194 kJ/mol
# GULP energy per Si atom -5572.891012 kJ/mol
# Density = 2.119736 g / cm^3
# Si number density = 21.245712 Si / 1000 Ang^3
#
#
#
# Elastic Constant Matrix: (Units=GPa)
#
#
# Indices 1 2 3 4 5 6 
#
# 1 110.7213 28.3374 34.0172 8.5541 -18.4166 -11.5220
# 2 28.3374 98.2771 11.1802 -5.3822 -6.6692 -11.0947
# 3 34.0172 11.1802 93.4011 -7.3838 -10.2315 -2.9152
# 4 8.5541 -5.3822 -7.3838 29.1299 -4.9696 0.6293
# 5 -18.4166 -6.6692 -10.2315 -4.9696 29.6918 1.4633
# 6 -11.5220 -11.0947 -2.9152 0.6293 1.4633 19.5801
#
#
#
# Elastic Compliance Matrix: (Units=1/GPa)
#
#
# Indices 1 2 3 4 5 6 
#
# 1 0.012574 -0.002506 -0.003934 -0.004431 0.004885 0.005171
# 2 -0.002506 0.011711 0.000055 0.003038 0.001359 0.004971
# 3 -0.003934 0.000055 0.012809 0.004914 0.002846 -0.000747
# 4 -0.004431 0.003038 0.004914 0.038529 0.006167 -0.001854
# 5 0.004885 0.001359 0.002846 0.006167 0.038980 0.000957
# 6 0.005171 0.004971 -0.000747 -0.001854 0.000957 0.056809
#
#
# Mechanical properties :
#
#
# Convention : Reuss Voigt Hill
#
# Bulk Modulus (GPa) = 41.10730 49.94098 45.52414
# Shear Modulus (GPa) = 26.00231 30.93801 28.47016
#
# Velocity S-wave (km/s) = 3.50220 3.82016 3.66463
# Velocity P-wave (km/s) = 5.97866 6.55863 6.27535
#
# Compressibility (1/GPa) = 0.02432658
#
# Stress axis : x y z
#
# Youngs Moduli (GPa) = 79.52657 85.38786 78.06744
#
# Poissons Ratio (x) = 0.21395 0.30708
# Poissons Ratio (y) = 0.19926 -0.00428
# Poissons Ratio (z) = 0.31282 -0.00468
#
# Static dielectric constant tensor:
#      x y z
#    x 1.766020 0.016630 0.011810 
#    y 0.016630 1.834720 0.101930 
#    z 0.011810 0.101930 1.975900 
# 
# From -- ./inp_files/529621.got.cif
#   From: 2010.05.17/outbox.cif.g08.bks.cpg/sg2_265_cif.got.tgz:529621.got - 2010.06.03 11:33:40.
