data_PCOD9056467
_publ_section_title
;
Structure prediction by ZEFSAII (Michael W. Deem and Ramdas Pophale) SiO2 
 PCOD9056467
Probable space group: P -1
;
_chemical_formula_sum "Si O2"
_cell_formula_units_Z 16
_cell_length_a 14.849005
_cell_length_b 16.198531
_cell_length_c 7.873597
_cell_angle_alpha 88.064420
_cell_angle_beta 64.447356
_cell_angle_gamma 33.865234
_cell_volume 727.390510
_symmetry_space_group_name_H-M "P -1"
_symmetry_group_IT_number 2
_symmetry_cell_setting 'triclinic'
loop_
_space_group_symop_operation_xyz
x,y,z
-x,-y,-z
loop_
_atom_site_type_symbol
_atom_site_label
_atom_site_fract_x
_atom_site_fract_y
_atom_site_fract_z
Si Si1 0.703294 0.581764 0.019635
Si Si2 0.284196 0.606581 0.466444
Si Si3 0.106929 0.721982 0.250996
Si Si4 0.895560 0.593106 0.390492
Si Si5 0.835220 0.203590 0.114714
Si Si6 0.888196 0.423735 0.224727
Si Si7 0.392072 0.041577 0.842648
Si Si8 0.621378 0.027345 0.770664
O O1 0.719515 0.483562 0.917733
O O2 0.939181 0.459415 0.813993
O O3 0.692228 0.570720 0.229046
O O4 0.499530 0.794596 0.111216
O O5 0.206969 0.693746 0.336910
O O6 0.563159 0.391257 0.275412
O O7 0.178584 0.741486 0.694257
O O8 0.179106 0.593979 0.581741
O O9 0.078298 0.799419 0.103227
O O10 0.862321 0.863606 0.492536
O O11 0.912798 0.495179 0.281309
O O12 0.000000 0.500000 0.500000
O O13 0.625105 0.822975 0.602282
O O14 0.000000 0.000000 0.000000
O O15 0.141625 0.211947 0.951695
O O16 0.453778 0.092577 0.793577
O O17 0.350994 0.041016 0.069404
#
# Coordination Sequence:
#
# PCOD9056467 Si02
#       8
#     2   2   2   2   2   2   2   2
#     4  12  25  41  64 102 142 187 233 281 340 404
#     4  11  26  49  74 106 139 179 227 294 350 422
#     4  12  25  47  74 104 142 185 229 285 353 418
#     4  12  22  39  65  94 139 194 230 274 336 403
#     4  11  28  51  78 105 136 172 234 299 361 418
#     4  12  25  42  65 101 145 182 233 285 341 407
#     4  11  22  39  62  97 140 189 235 278 322 401
#     4  11  23  38  66  98 140 186 234 274 329 408
#
# _framework density 21.996437
#
# number of rings (size 3 to 8) (size 9 to 14) (size 15 to 20)
#    0.000    0.500    6.250    2.250    1.750    4.000 
#    0.000    0.000    0.000    0.000    0.000    0.000 
#    0.000    0.000    0.000    0.000    0.000    0.000 
#
# Total GULP energy -89537.272944 kJ/mol
# GULP energy per Si atom -5596.079559 kJ/mol
# Density = 2.194637 g / cm^3
# Si number density = 21.996437 Si / 1000 Ang^3
#
#
#
# Elastic Constant Matrix: (Units=GPa)
#
#
# Indices 1 2 3 4 5 6 
#
# 1 65.2859 25.9566 20.8146 3.9277 20.1617 -0.1109
# 2 25.9566 92.2302 36.0451 -1.6267 18.4224 20.8734
# 3 20.8146 36.0451 77.7240 6.4047 18.0118 7.3073
# 4 3.9277 -1.6267 6.4047 23.9069 -1.3126 11.8277
# 5 20.1617 18.4224 18.0118 -1.3126 25.0467 0.5792
# 6 -0.1109 20.8734 7.3073 11.8277 0.5792 27.3724
#
#
#
# Elastic Compliance Matrix: (Units=1/GPa)
#
#
# Indices 1 2 3 4 5 6 
#
# 1 0.022666 -0.005449 -0.000169 -0.009081 -0.014788 0.008529
# 2 -0.005449 0.020474 -0.006099 0.013376 -0.005131 -0.019678
# 3 -0.000169 -0.006099 0.018093 -0.007280 -0.008843 0.003153
# 4 -0.009081 0.013376 -0.007280 0.064533 0.006928 -0.036325
# 5 -0.014788 -0.005131 -0.008843 0.006928 0.062282 0.001902
# 6 0.008529 -0.019678 0.003153 -0.036325 0.001902 0.066388
#
#
# Mechanical properties :
#
#
# Convention : Reuss Voigt Hill
#
# Bulk Modulus (GPa) = 26.45701 44.54141 35.49921
# Shear Modulus (GPa) = 17.21356 25.42679 21.32017
#
# Velocity S-wave (km/s) = 2.80046 3.40362 3.11666
# Velocity P-wave (km/s) = 4.74455 5.97825 5.39677
#
# Compressibility (1/GPa) = 0.03779717
#
# Stress axis : x y z
#
# Youngs Moduli (GPa) = 44.11989 48.84298 55.27148
#
# Poissons Ratio (x) = 0.26616 0.00935
# Poissons Ratio (y) = 0.24042 0.33709
# Poissons Ratio (z) = 0.00747 0.29788
#
# Static dielectric constant tensor:
#      x y z
#    x 1.793840 -0.023680 0.010310 
#    y -0.023680 1.823980 -0.032000 
#    z 0.010310 -0.032000 1.819310 
# 
# From -- ./inp_files/313285.got.cif
#   From: 2010.05.17/outbox.cif.g08.bks.cpg/sg2_157_cif.got.tgz:313285.got - 2010.06.03 11:33:40.
