data_PCOD9056726
_publ_section_title
;
Structure prediction by ZEFSAII (Michael W. Deem and Ramdas Pophale) SiO2 
 PCOD9056726
Probable space group: P -1
;
_chemical_formula_sum "Si O2"
_cell_formula_units_Z 14
_cell_length_a 9.575150
_cell_length_b 9.402515
_cell_length_c 7.695859
_cell_angle_alpha 119.143084
_cell_angle_beta 109.375421
_cell_angle_gamma 61.825299
_cell_volume 528.761794
_symmetry_space_group_name_H-M "P -1"
_symmetry_group_IT_number 2
_symmetry_cell_setting 'triclinic'
loop_
_space_group_symop_operation_xyz
x,y,z
-x,-y,-z
loop_
_atom_site_type_symbol
_atom_site_label
_atom_site_fract_x
_atom_site_fract_y
_atom_site_fract_z
Si Si1 0.773708 0.578943 0.407816
Si Si2 0.369930 0.167614 0.962284
Si Si3 0.538336 0.183505 0.713098
Si Si4 0.683567 0.363642 0.510489
Si Si5 0.138013 0.017796 0.751802
Si Si6 0.308960 0.549523 0.063181
Si Si7 0.876740 0.888854 0.597988
O O1 0.586465 0.716298 0.427633
O O2 0.786931 0.442722 0.482950
O O3 0.877953 0.698303 0.535353
O O4 0.780845 0.489318 0.165376
O O5 0.421686 0.131622 0.760126
O O6 0.205334 0.153338 0.946958
O O7 0.364592 0.364064 0.082953
O O8 0.500000 0.000000 0.000000
O O9 0.588306 0.340024 0.903902
O O10 0.701061 0.024237 0.655836
O O11 0.500000 0.500000 0.500000
O O12 0.716830 0.170524 0.332082
O O13 0.751835 0.332302 0.717201
O O14 0.005999 0.966572 0.765583
O O15 0.094886 0.101782 0.591768
#
# Coordination Sequence:
#
# PCOD9056726 Si02
#       7
#     2   2   2   2   2   2   2
#     4  11  23  41  69  95 133 174 225 276 329 392
#     4  11  24  39  69  98 135 168 227 283 327 391
#     4  11  22  40  67  97 130 178 226 266 333 395
#     4  12  24  39  71  97 130 171 226 279 331 390
#     4  11  24  43  64  99 134 177 220 273 340 394
#     4  11  23  41  62 104 128 166 224 278 331 383
#     4  11  23  44  65  91 141 180 216 272 335 404
#
# _framework density 26.476953000000002
#
# number of rings (size 3 to 8) (size 9 to 14) (size 15 to 20)
#    0.000    0.857    5.714    3.000    6.000    0.571 
#    0.000    3.571    0.000    0.000    0.000    0.000 
#    0.000    0.000    0.000    0.000    0.000    0.000 
#
# Total GULP energy -78074.062212 kJ/mol
# GULP energy per Si atom -5576.718729 kJ/mol
# Density = 2.641669 g / cm^3
# Si number density = 26.476953 Si / 1000 Ang^3
#
#
#
# Elastic Constant Matrix: (Units=GPa)
#
#
# Indices 1 2 3 4 5 6 
#
# 1 134.0268 19.5103 39.8197 20.9461 20.2693 26.3839
# 2 19.5103 124.5516 27.9581 20.4162 11.7055 55.1541
# 3 39.8197 27.9581 82.3985 21.2681 14.3766 24.9228
# 4 20.9461 20.4162 21.2681 44.2617 9.0241 3.3253
# 5 20.2693 11.7055 14.3766 9.0241 24.7117 23.0586
# 6 26.3839 55.1541 24.9228 3.3253 23.0586 57.1841
#
#
#
# Elastic Compliance Matrix: (Units=1/GPa)
#
#
# Indices 1 2 3 4 5 6 
#
# 1 0.009635 0.001234 -0.002898 -0.002915 -0.002909 -0.003030
# 2 0.001234 0.019584 0.000554 -0.011623 0.018252 -0.026384
# 3 -0.002898 0.000554 0.016898 -0.006674 0.000773 -0.006486
# 4 -0.002915 -0.011623 -0.006674 0.035328 -0.021858 0.022224
# 5 -0.002909 0.018252 0.000773 -0.021858 0.089848 -0.051557
# 6 -0.003030 -0.026384 -0.006486 0.022224 -0.051557 0.066657
#
#
# Mechanical properties :
#
#
# Convention : Reuss Voigt Hill
#
# Bulk Modulus (GPa) = 22.77999 57.28368 40.03183
# Shear Modulus (GPa) = 19.62309 42.14410 30.88360
#
# Velocity S-wave (km/s) = 2.72534 3.99397 3.41901
# Velocity P-wave (km/s) = 4.30415 6.55373 5.54423
#
# Compressibility (1/GPa) = 0.04389817
#
# Stress axis : x y z
#
# Youngs Moduli (GPa) = 103.79182 51.06126 59.17766
#
# Poissons Ratio (x) = -0.06303 0.17151
# Poissons Ratio (y) = -0.12813 -0.03280
# Poissons Ratio (z) = 0.30082 -0.02830
#
# Static dielectric constant tensor:
#      x y z
#    x 2.257290 -0.099430 0.013030 
#    y -0.099430 2.135250 -0.015310 
#    z 0.013030 -0.015310 2.223300 
# 
# From -- ./inp_files/160212.got.cif
#   From: 2010.05.17/outbox.cif.g08.bks.cpg/sg2_81_cif.got.tgz:160212.got - 2010.06.03 11:33:40.
