data_PCOD9056718
_publ_section_title
;
Structure prediction by ZEFSAII (Michael W. Deem and Ramdas Pophale) SiO2 
 PCOD9056718
Probable space group: P -1
;
_chemical_formula_sum "Si O2"
_cell_formula_units_Z 12
_cell_length_a 17.451940
_cell_length_b 17.512846
_cell_length_c 9.692135
_cell_angle_alpha 46.561941
_cell_angle_beta 46.449837
_cell_angle_gamma 16.873075
_cell_volume 617.515224
_symmetry_space_group_name_H-M "P -1"
_symmetry_group_IT_number 2
_symmetry_cell_setting 'triclinic'
loop_
_space_group_symop_operation_xyz
x,y,z
-x,-y,-z
loop_
_atom_site_type_symbol
_atom_site_label
_atom_site_fract_x
_atom_site_fract_y
_atom_site_fract_z
Si Si1 0.772680 0.771234 0.861803
Si Si2 0.587597 0.484688 0.541327
Si Si3 0.161613 0.042040 0.783001
Si Si4 0.842081 0.958764 0.536407
Si Si5 0.592910 0.492958 0.013022
Si Si6 0.226519 0.231609 0.467173
O O1 0.829762 0.844260 0.706890
O O2 0.758296 0.756147 0.732872
O O3 0.000000 0.500000 0.000000
O O4 0.500000 0.000000 0.000000
O O5 0.500000 0.500000 0.500000
O O6 0.896689 0.232783 0.477901
O O7 0.417663 0.746202 0.448954
O O8 0.507447 0.476620 0.768946
O O9 0.140699 0.031743 0.660088
O O10 0.160334 0.168397 0.634922
O O11 0.907337 0.225756 0.947355
O O12 0.434065 0.746180 0.872335
O O13 0.500000 0.500000 0.000000
O O14 0.000000 0.500000 0.500000
O O15 0.500000 0.000000 0.500000
#
# Coordination Sequence:
#
# PCOD9056718 Si02
#       6
#     2   2   2   2   2   2
#     4  11  24  45  70  95 126 176 223 259 318 401
#     4  12  25  41  59  94 130 163 200 261 318 359
#     4  11  22  40  67  94 117 170 210 252 311 375
#     4  11  22  43  66  86 127 168 209 251 313 379
#     4  12  21  39  67  90 122 159 219 251 294 389
#     4  11  24  45  67  98 136 162 211 283 330 366
#
# _framework density 19.43272
#
# number of rings (size 3 to 8) (size 9 to 14) (size 15 to 20)
#    0.000    0.667    3.333    5.000    0.000    5.333 
#   18.000    0.000    0.000    0.000    0.000    0.000 
#    0.000    0.000    0.000    0.000    0.000    0.000 
#
# Total GULP energy -67061.802166 kJ/mol
# GULP energy per Si atom -5588.483514 kJ/mol
# Density = 1.938849 g / cm^3
# Si number density = 19.432720 Si / 1000 Ang^3
#
#
#
# Elastic Constant Matrix: (Units=GPa)
#
#
# Indices 1 2 3 4 5 6 
#
# 1 95.1060 6.3269 26.5693 -5.6153 21.6908 -2.8507
# 2 6.3269 97.1871 13.7576 -12.6572 11.1383 -0.6095
# 3 26.5693 13.7576 105.3258 -4.5148 18.5686 2.4922
# 4 -5.6153 -12.6572 -4.5148 35.7857 -1.6961 -13.4780
# 5 21.6908 11.1383 18.5686 -1.6961 32.7018 -2.4794
# 6 -2.8507 -0.6095 2.4922 -13.4780 -2.4794 33.4804
#
#
#
# Elastic Compliance Matrix: (Units=1/GPa)
#
#
# Indices 1 2 3 4 5 6 
#
# 1 0.012892 0.000588 -0.001967 0.002238 -0.007397 0.001608
# 2 0.000588 0.011370 -0.000888 0.004561 -0.003378 0.001909
# 3 -0.001967 -0.000888 0.010972 0.000035 -0.004723 -0.001336
# 4 0.002238 0.004561 0.000035 0.035368 -0.000124 0.014500
# 5 -0.007397 -0.003378 -0.004723 -0.000124 0.039503 0.002536
# 6 0.001608 0.001909 -0.001336 0.014500 0.002536 0.036164
#
#
# Mechanical properties :
#
#
# Convention : Reuss Voigt Hill
#
# Bulk Modulus (GPa) = 32.57184 43.43629 38.00407
# Shear Modulus (GPa) = 31.04887 37.12461 34.08674
#
# Velocity S-wave (km/s) = 4.00154 4.37557 4.19273
# Velocity P-wave (km/s) = 6.17636 6.92302 6.56032
#
# Compressibility (1/GPa) = 0.03070136
#
# Stress axis : x y z
#
# Youngs Moduli (GPa) = 77.56567 87.95221 91.13939
#
# Poissons Ratio (x) = -0.05176 0.17928
# Poissons Ratio (y) = -0.04564 0.08091
# Poissons Ratio (z) = 0.15258 0.07808
#
# Static dielectric constant tensor:
#      x y z
#    x 1.639270 0.008770 0.005710 
#    y 0.008770 1.677400 -0.015610 
#    z 0.005710 -0.015610 1.652330 
# 
# From -- ./inp_files/59419.got.cif
#   From: 2010.05.17/outbox.cif.g08.bks.cpg/sg2_30_cif.got.tgz:59419.got - 2010.06.03 11:33:40.
