data_PCOD9056004
_publ_section_title
;
Structure prediction by ZEFSAII (Michael W. Deem and Ramdas Pophale) SiO2 
 PCOD9056004
Probable space group: P -1
;
_chemical_formula_sum "Si O2"
_cell_formula_units_Z 12
_cell_length_a 9.436214
_cell_length_b 15.052368
_cell_length_c 12.629483
_cell_angle_alpha 28.855083
_cell_angle_beta 36.223548
_cell_angle_gamma 48.435830
_cell_volume 505.703611
_symmetry_space_group_name_H-M "P -1"
_symmetry_group_IT_number 2
_symmetry_cell_setting 'triclinic'
loop_
_space_group_symop_operation_xyz
x,y,z
-x,-y,-z
loop_
_atom_site_type_symbol
_atom_site_label
_atom_site_fract_x
_atom_site_fract_y
_atom_site_fract_z
Si Si1 0.965472 0.231497 0.077445
Si Si2 0.192911 0.915579 0.043982
Si Si3 0.769880 0.387349 0.816592
Si Si4 0.527465 0.747713 0.335599
Si Si5 0.967937 0.185444 0.534684
Si Si6 0.676628 0.474805 0.123160
O O1 0.827022 0.311227 0.172813
O O2 0.938159 0.010261 0.330123
O O3 0.255048 0.293699 0.827756
O O4 0.851661 0.306169 0.961664
O O5 0.324791 0.787089 0.021954
O O6 0.052477 0.787897 0.354500
O O7 0.352150 0.088365 0.827630
O O8 0.000000 0.000000 0.000000
O O9 0.559057 0.513286 0.819097
O O10 0.000000 0.500000 0.500000
O O11 0.304917 0.817862 0.338409
O O12 0.425588 0.567800 0.653970
O O13 0.138512 0.341723 0.205419
#
# Coordination Sequence:
#
# PCOD9056004 Si02
#       6
#     2   2   2   2   2   2
#     4  11  24  47  73 104 146 185 242 296 355 421
#     4  11  21  44  78 100 139 192 234 292 360 413
#     4  12  23  45  72 107 145 182 240 300 356 419
#     4  11  25  50  71 105 150 189 236 294 359 426
#     4  11  26  48  72 109 144 189 242 293 355 429
#     4  12  27  44  73 106 145 192 237 295 357 425
#
# _framework density 23.729313000000001
#
# number of rings (size 3 to 8) (size 9 to 14) (size 15 to 20)
#    0.000    0.667    5.000    4.000    2.333    3.333 
#    6.000    0.000    0.000    0.000    0.000    0.000 
#    0.000    0.000    0.000    0.000    0.000    0.000 
#
# Total GULP energy -67224.226645 kJ/mol
# GULP energy per Si atom -5602.018887 kJ/mol
# Density = 2.367530 g / cm^3
# Si number density = 23.729313 Si / 1000 Ang^3
#
#
#
# Elastic Constant Matrix: (Units=GPa)
#
#
# Indices 1 2 3 4 5 6 
#
# 1 102.5442 6.0670 10.5360 -9.2059 -8.4278 -18.4791
# 2 6.0670 76.4238 0.4565 9.1403 -12.5287 -13.4739
# 3 10.5360 0.4565 72.4242 4.7927 -5.1424 7.3236
# 4 -9.2059 9.1403 4.7927 23.2678 -19.8179 5.5995
# 5 -8.4278 -12.5287 -5.1424 -19.8179 28.2123 4.0599
# 6 -18.4791 -13.4739 7.3236 5.5995 4.0599 29.8996
#
#
#
# Elastic Compliance Matrix: (Units=1/GPa)
#
#
# Indices 1 2 3 4 5 6 
#
# 1 0.013729 -0.000116 -0.002395 0.019828 0.017112 0.002982
# 2 -0.000116 0.015585 -0.000430 -0.008595 -0.000487 0.008733
# 3 -0.002395 -0.000430 0.014907 -0.000818 0.002020 -0.005446
# 4 0.019828 -0.008595 -0.000818 0.178309 0.133388 -0.042924
# 5 0.017112 -0.000487 0.002020 0.133388 0.139307 -0.034034
# 6 0.002982 0.008733 -0.005446 -0.042924 -0.034034 0.053218
#
#
# Mechanical properties :
#
#
# Convention : Reuss Voigt Hill
#
# Bulk Modulus (GPa) = 26.08385 31.72349 28.90367
# Shear Modulus (GPa) = 11.52831 31.89809 21.71320
#
# Velocity S-wave (km/s) = 2.20654 3.67038 3.02824
# Velocity P-wave (km/s) = 4.18424 5.60001 4.94308
#
# Compressibility (1/GPa) = 0.03833790
#
# Stress axis : x y z
#
# Youngs Moduli (GPa) = 72.83984 64.16628 67.08266
#
# Poissons Ratio (x) = 0.00743 0.16067
# Poissons Ratio (y) = 0.00844 0.02886
# Poissons Ratio (z) = 0.17446 0.02760
#
# Static dielectric constant tensor:
#      x y z
#    x 1.895320 0.043350 -0.024430 
#    y 0.043350 1.901200 -0.026490 
#    z -0.024430 -0.026490 1.912470 
# 
# From -- ./inp_files/168625.got.cif
#   From: 2010.05.17/outbox.cif.g08.bks.cpg/sg2_85_cif.got.tgz:168625.got - 2010.06.03 11:33:40.
