data_PCOD9056941
_publ_section_title
;
Structure prediction by ZEFSAII (Michael W. Deem and Ramdas Pophale) SiO2 
 PCOD9056941
Probable space group: P -1
;
_chemical_formula_sum "Si O2"
_cell_formula_units_Z 14
_cell_length_a 12.026226
_cell_length_b 12.218745
_cell_length_c 9.658471
_cell_angle_alpha 130.384385
_cell_angle_beta 133.406564
_cell_angle_gamma 44.496357
_cell_volume 687.095283
_symmetry_space_group_name_H-M "P -1"
_symmetry_group_IT_number 2
_symmetry_cell_setting 'triclinic'
loop_
_space_group_symop_operation_xyz
x,y,z
-x,-y,-z
loop_
_atom_site_type_symbol
_atom_site_label
_atom_site_fract_x
_atom_site_fract_y
_atom_site_fract_z
Si Si1 0.777673 0.212741 0.076060
Si Si2 0.842104 0.507428 0.283991
Si Si3 0.389363 0.143788 0.626604
Si Si4 0.172648 0.016451 0.635249
Si Si5 0.466505 0.807867 0.937643
Si Si6 0.856860 0.625398 0.086281
Si Si7 0.835530 0.006333 0.692724
O O1 0.815396 0.353196 0.166375
O O2 0.628754 0.269240 0.111834
O O3 0.956604 0.068530 0.178224
O O4 0.747839 0.127421 0.845284
O O5 0.662036 0.671584 0.302586
O O6 0.876445 0.534998 0.176116
O O7 0.000000 0.500000 0.500000
O O8 0.205211 0.144022 0.460298
O O9 0.500000 0.000000 0.500000
O O10 0.475615 0.105313 0.821137
O O11 0.125490 0.208587 0.749262
O O12 0.234249 0.928345 0.465965
O O13 0.323264 0.927554 0.805313
O O14 0.000000 0.000000 0.500000
O O15 0.651684 0.688472 0.926307
O O16 0.000000 0.500000 0.000000
#
# Coordination Sequence:
#
# PCOD9056941 Si02
#       7
#     2   2   2   2   2   2   2
#     4  11  23  41  72 105 132 178 227 288 336 401
#     4  11  23  44  70  95 137 176 223 279 339 399
#     4  11  22  41  66 100 131 173 222 277 336 401
#     4  12  24  44  71  96 135 183 229 279 333 410
#     4  11  24  44  72  97 139 176 233 277 337 407
#     4  11  27  45  65  99 138 179 223 279 344 398
#     4  11  22  41  67 103 133 173 233 273 343 400
#
# _framework density 20.375630999999998
#
# number of rings (size 3 to 8) (size 9 to 14) (size 15 to 20)
#    0.000    0.857    7.143    0.429    2.000    3.429 
#    0.000    0.714    0.000    0.000    0.000    0.000 
#    0.000    0.000    0.000    0.000    0.000    0.000 
#
# Total GULP energy -78029.522936 kJ/mol
# GULP energy per Si atom -5573.537353 kJ/mol
# Density = 2.032926 g / cm^3
# Si number density = 20.375631 Si / 1000 Ang^3
#
#
#
# Elastic Constant Matrix: (Units=GPa)
#
#
# Indices 1 2 3 4 5 6 
#
# 1 121.7370 64.2534 40.3124 4.5413 0.8153 -6.4035
# 2 64.2534 107.4988 70.2815 -8.3466 -13.2546 0.8839
# 3 40.3124 70.2815 128.0825 -13.6669 -2.8348 3.7597
# 4 4.5413 -8.3466 -13.6669 28.1123 -0.7163 5.9173
# 5 0.8153 -13.2546 -2.8348 -0.7163 38.4865 6.2598
# 6 -6.4035 0.8839 3.7597 5.9173 6.2598 42.2352
#
#
#
# Elastic Compliance Matrix: (Units=1/GPa)
#
#
# Indices 1 2 3 4 5 6 
#
# 1 0.013380 -0.008873 -0.000150 -0.005736 -0.004048 0.003631
# 2 -0.008873 0.021200 -0.008106 0.004568 0.007434 -0.002809
# 3 -0.000150 -0.008106 0.012739 0.004050 -0.001559 -0.001323
# 4 -0.005736 0.004568 0.004050 0.041556 0.004026 -0.007745
# 5 -0.004048 0.007434 -0.001559 0.004026 0.029494 -0.005566
# 6 0.003631 -0.002809 -0.001323 -0.007745 -0.005566 0.026314
#
#
# Mechanical properties :
#
#
# Convention : Reuss Voigt Hill
#
# Bulk Modulus (GPa) = 76.57039 78.55701 77.56370
# Shear Modulus (GPa) = 27.27844 33.93153 30.60499
#
# Velocity S-wave (km/s) = 3.66290 4.08524 3.87982
# Velocity P-wave (km/s) = 7.45319 7.80322 7.63022
#
# Compressibility (1/GPa) = 0.01305988
#
# Stress axis : x y z
#
# Youngs Moduli (GPa) = 74.74026 47.17031 78.49897
#
# Poissons Ratio (x) = 0.41855 0.01181
# Poissons Ratio (y) = 0.66318 0.63628
# Poissons Ratio (z) = 0.01125 0.38235
#
# Static dielectric constant tensor:
#      x y z
#    x 1.886650 0.005970 0.025410 
#    y 0.005970 1.721120 -0.020420 
#    z 0.025410 -0.020420 1.716970 
# 
# From -- ./inp_files/260786.got.cif
#   From: 2010.05.17/outbox.cif.g08.bks.cpg/sg2_131_cif.got.tgz:260786.got - 2010.06.03 11:33:40.
