data_PCOD9056199
_publ_section_title
;
Structure prediction by ZEFSAII (Michael W. Deem and Ramdas Pophale) SiO2 
 PCOD9056199
Probable space group: P -1
;
_chemical_formula_sum "Si O2"
_cell_formula_units_Z 16
_cell_length_a 11.738264
_cell_length_b 16.263890
_cell_length_c 8.105551
_cell_angle_alpha 109.937450
_cell_angle_beta 72.236317
_cell_angle_gamma 152.889269
_cell_volume 662.912413
_symmetry_space_group_name_H-M "P -1"
_symmetry_group_IT_number 2
_symmetry_cell_setting 'triclinic'
loop_
_space_group_symop_operation_xyz
x,y,z
-x,-y,-z
loop_
_atom_site_type_symbol
_atom_site_label
_atom_site_fract_x
_atom_site_fract_y
_atom_site_fract_z
Si Si1 0.210915 0.115718 0.348719
Si Si2 0.700507 0.380725 0.172075
Si Si3 0.880829 0.681856 0.364733
Si Si4 0.559439 0.299521 0.803850
Si Si5 0.861549 0.839178 0.066702
Si Si6 0.447316 0.056254 0.465516
Si Si7 0.643820 0.607946 0.714256
Si Si8 0.925520 0.392689 0.301630
O O1 0.492157 0.258598 0.328034
O O2 0.268275 0.245559 0.320130
O O3 0.000000 0.000000 0.500000
O O4 0.068897 0.953502 0.187192
O O5 0.858985 0.570918 0.229172
O O6 0.882637 0.422138 0.177666
O O7 0.568081 0.287866 0.989497
O O8 0.772058 0.616141 0.555123
O O9 0.657114 0.588757 0.301328
O O10 0.170107 0.891149 0.400644
O O11 0.362350 0.248302 0.817548
O O12 0.493641 0.168707 0.644569
O O13 0.831678 0.507889 0.772395
O O14 0.751402 0.691415 0.904607
O O15 0.000000 0.000000 0.000000
O O16 0.658255 0.183820 0.320010
O O17 0.500000 0.000000 0.500000
O O18 0.000000 0.500000 0.500000
#
# Coordination Sequence:
#
# PCOD9056199 Si02
#       8
#     2   2   2   2   2   2   2   2
#     4  10  21  32  60  93 128 160 211 257 299 370
#     4  11  22  41  63  95 124 166 211 252 310 373
#     4  10  19  36  63  89 124 160 200 251 312 365
#     4  11  21  41  67  89 124 166 209 262 299 377
#     4  10  17  36  60  95 119 160 212 245 310 366
#     4  11  24  42  65  89 122 162 208 259 321 369
#     4   9  19  35  61  88 121 164 203 248 316 366
#     4  10  24  40  64  91 119 163 211 257 311 370
#
# _framework density 24.135921
#
# number of rings (size 3 to 8) (size 9 to 14) (size 15 to 20)
#    0.000    1.750    3.750    3.375    5.250    0.000 
#    0.000    2.500    0.000    8.250    0.000    0.000 
#    0.000    0.000    0.000    0.000    0.000    0.000 
#
# Total GULP energy -89339.548472 kJ/mol
# GULP energy per Si atom -5583.721780 kJ/mol
# Density = 2.408099 g / cm^3
# Si number density = 24.135921 Si / 1000 Ang^3
#
#
#
# Elastic Constant Matrix: (Units=GPa)
#
#
# Indices 1 2 3 4 5 6 
#
# 1 57.4624 18.8929 9.4089 2.5496 4.1994 11.9211
# 2 18.8929 166.4047 46.8157 -1.6755 -0.3221 35.3841
# 3 9.4089 46.8157 95.4930 25.4227 -2.6573 3.5394
# 4 2.5496 -1.6755 25.4227 52.4924 6.4841 -2.5055
# 5 4.1994 -0.3221 -2.6573 6.4841 29.3814 -1.9785
# 6 11.9211 35.3841 3.5394 -2.5055 -1.9785 33.9866
#
#
#
# Elastic Compliance Matrix: (Units=1/GPa)
#
#
# Indices 1 2 3 4 5 6 
#
# 1 0.019365 -0.000414 -0.001532 -0.000108 -0.003318 -0.006403
# 2 -0.000414 0.009376 -0.004913 0.002445 -0.001429 -0.009007
# 3 -0.001532 -0.004913 0.015013 -0.007602 0.003452 0.003729
# 4 -0.000108 0.002445 -0.007602 0.023523 -0.005858 -0.000323
# 5 -0.003318 -0.001429 0.003452 -0.005858 0.036367 0.003977
# 6 -0.006403 -0.009007 0.003729 -0.000323 0.003977 0.040867
#
#
# Mechanical properties :
#
#
# Convention : Reuss Voigt Hill
#
# Bulk Modulus (GPa) = 33.29089 52.17724 42.73407
# Shear Modulus (GPa) = 29.71970 39.45493 34.58732
#
# Velocity S-wave (km/s) = 3.51286 4.04753 3.78963
# Velocity P-wave (km/s) = 5.50242 6.59608 6.07392
#
# Compressibility (1/GPa) = 0.03003825
#
# Stress axis : x y z
#
# Youngs Moduli (GPa) = 51.63902 106.65928 66.60955
#
# Poissons Ratio (x) = 0.04412 0.10202
# Poissons Ratio (y) = 0.02136 0.32722
# Poissons Ratio (z) = 0.07909 0.52397
#
# Static dielectric constant tensor:
#      x y z
#    x 1.984700 -0.062040 0.060000 
#    y -0.062040 1.943960 -0.038890 
#    z 0.060000 -0.038890 1.982860 
# 
# From -- ./inp_files/319417.got.cif
#   From: 2010.05.17/outbox.cif.g08.bks.cpg/sg2_160_cif.got.tgz:319417.got - 2010.06.03 11:33:40.
