data_PCOD9056576
_publ_section_title
;
Structure prediction by ZEFSAII (Michael W. Deem and Ramdas Pophale) SiO2 
 PCOD9056576
Probable space group: P -1
;
_chemical_formula_sum "Si O2"
_cell_formula_units_Z 16
_cell_length_a 17.721341
_cell_length_b 11.556827
_cell_length_c 9.462491
_cell_angle_alpha 49.894190
_cell_angle_beta 48.798309
_cell_angle_gamma 33.597921
_cell_volume 785.327694
_symmetry_space_group_name_H-M "P -1"
_symmetry_group_IT_number 2
_symmetry_cell_setting 'triclinic'
loop_
_space_group_symop_operation_xyz
x,y,z
-x,-y,-z
loop_
_atom_site_type_symbol
_atom_site_label
_atom_site_fract_x
_atom_site_fract_y
_atom_site_fract_z
Si Si1 0.686444 0.555919 0.028534
Si Si2 0.356905 0.929386 0.634930
Si Si3 0.804820 0.132836 0.678174
Si Si4 0.153210 0.411816 0.410251
Si Si5 0.020839 0.794793 0.460846
Si Si6 0.860569 0.072306 0.176804
Si Si7 0.457469 0.708369 0.958463
Si Si8 0.581788 0.553850 0.430521
O O1 0.794863 0.556082 0.820697
O O2 0.572194 0.642895 0.979928
O O3 0.765243 0.313818 0.148100
O O4 0.617265 0.646231 0.197795
O O5 0.232120 0.936469 0.800173
O O6 0.434572 0.853165 0.748737
O O7 0.471291 0.741994 0.530824
O O8 0.275509 0.162796 0.496346
O O9 0.718655 0.336056 0.515455
O O10 0.886729 0.153038 0.671228
O O11 0.921103 0.903127 0.637016
O O12 0.686484 0.164137 0.878297
O O13 0.000000 0.500000 0.500000
O O14 0.125992 0.552162 0.467317
O O15 0.909700 0.927197 0.365910
O O16 0.000000 0.000000 0.000000
O O17 0.500000 0.500000 0.000000
O O18 0.500000 0.500000 0.500000
#
# Coordination Sequence:
#
# PCOD9056576 Si02
#       8
#     2   2   2   2   2   2   2   2
#     4  12  24  39  70 100 129 175 228 277 335 396
#     4  12  25  41  67  96 137 180 216 277 342 396
#     4  11  22  39  69 104 133 166 227 296 326 380
#     4  12  27  46  65  94 144 183 218 268 340 419
#     4  11  23  39  66  97 135 177 219 276 339 389
#     4  12  19  36  67  96 123 170 236 268 317 391
#     4  12  21  39  67 102 129 167 227 285 331 387
#     4  12  21  41  70 102 133 167 224 286 333 390
#
# _framework density 20.373659
#
# number of rings (size 3 to 8) (size 9 to 14) (size 15 to 20)
#    0.000    0.250    8.750    1.500    0.000    1.000 
#    0.000    0.625    0.000    0.000    0.000    0.000 
#    0.000    0.000    0.000    0.000    0.000    0.000 
#
# Total GULP energy -89340.316919 kJ/mol
# GULP energy per Si atom -5583.769807 kJ/mol
# Density = 2.032729 g / cm^3
# Si number density = 20.373659 Si / 1000 Ang^3
#
#
#
# Elastic Constant Matrix: (Units=GPa)
#
#
# Indices 1 2 3 4 5 6 
#
# 1 44.6246 8.0587 23.6058 17.6335 12.5864 -8.4264
# 2 8.0587 95.7735 38.8304 4.8977 7.8870 6.0317
# 3 23.6058 38.8304 111.6487 14.2157 0.0018 5.2763
# 4 17.6335 4.8977 14.2157 43.9032 -12.7710 2.0491
# 5 12.5864 7.8870 0.0018 -12.7710 29.4460 0.4191
# 6 -8.4264 6.0317 5.2763 2.0491 0.4191 30.1619
#
#
#
# Elastic Compliance Matrix: (Units=1/GPa)
#
#
# Indices 1 2 3 4 5 6 
#
# 1 0.051902 0.002604 -0.008972 -0.029531 -0.035947 0.018054
# 2 0.002604 0.012737 -0.004617 -0.002574 -0.005630 -0.000759
# 3 -0.008972 -0.004617 0.012387 0.002042 0.006013 -0.003972
# 4 -0.029531 -0.002574 0.002042 0.044315 0.032696 -0.011557
# 5 -0.035947 -0.005630 0.006013 0.032696 0.065200 -0.013096
# 6 0.018054 -0.000759 -0.003972 -0.011557 -0.013096 0.040012
#
#
# Mechanical properties :
#
#
# Convention : Reuss Voigt Hill
#
# Bulk Modulus (GPa) = 18.16319 43.67072 30.91696
# Shear Modulus (GPa) = 18.73541 32.80567 25.77054
#
# Velocity S-wave (km/s) = 3.03576 4.01708 3.56039
# Velocity P-wave (km/s) = 4.60676 6.55724 5.66655
#
# Compressibility (1/GPa) = 0.05505640
#
# Stress axis : x y z
#
# Youngs Moduli (GPa) = 19.26706 78.51123 80.73119
#
# Poissons Ratio (x) = -0.20442 0.72430
# Poissons Ratio (y) = -0.05016 0.37270
# Poissons Ratio (z) = 0.17286 0.36246
#
# Static dielectric constant tensor:
#      x y z
#    x 1.727020 0.009420 0.011170 
#    y 0.009420 1.789130 0.042450 
#    z 0.011170 0.042450 1.773790 
# 
# From -- ./inp_files/332838.got.cif
#   From: 2010.05.17/outbox.cif.g08.bks.cpg/sg2_167_cif.got.tgz:332838.got - 2010.06.03 11:33:40.
