data_PCOD9056209
_publ_section_title
;
Structure prediction by ZEFSAII (Michael W. Deem and Ramdas Pophale) SiO2 
 PCOD9056209
Probable space group: P -1
;
_chemical_formula_sum "Si O2"
_cell_formula_units_Z 16
_cell_length_a 14.484074
_cell_length_b 10.635048
_cell_length_c 12.031009
_cell_angle_alpha 79.174886
_cell_angle_beta 78.950574
_cell_angle_gamma 149.505773
_cell_volume 651.195551
_symmetry_space_group_name_H-M "P -1"
_symmetry_group_IT_number 2
_symmetry_cell_setting 'triclinic'
loop_
_space_group_symop_operation_xyz
x,y,z
-x,-y,-z
loop_
_atom_site_type_symbol
_atom_site_label
_atom_site_fract_x
_atom_site_fract_y
_atom_site_fract_z
Si Si1 0.199333 0.185198 0.335649
Si Si2 0.356495 0.342359 0.678487
Si Si3 0.349072 0.640204 0.152865
Si Si4 0.554066 0.262935 0.443997
Si Si5 0.120753 0.448842 0.038345
Si Si6 0.032749 0.454911 0.371567
Si Si7 0.025533 0.353622 0.633566
Si Si8 0.698045 0.120207 0.206271
O O1 0.437305 0.437305 0.312695
O O2 0.275145 0.398479 0.203670
O O3 0.000000 0.000000 0.500000
O O4 0.102127 0.941134 0.326858
O O5 0.500000 0.500000 0.500000
O O6 0.305818 0.429152 0.672996
O O7 0.094848 0.933855 0.834137
O O8 0.120234 0.441547 0.286048
O O9 0.361204 0.716143 0.015572
O O10 0.565135 0.919206 0.151874
O O11 0.752712 0.397772 0.370512
O O12 0.486358 0.165045 0.607361
O O13 0.277045 0.922974 0.505946
O O14 0.955654 0.364700 0.126304
O O15 0.233067 0.642656 0.863770
O O16 0.117308 0.526355 0.464650
O O17 0.129804 0.720216 0.273358
#
# Coordination Sequence:
#
# PCOD9056209 Si02
#       8
#     2   2   2   2   2   2   2   2
#     4  12  20  34  55  85 118 151 187 237 293 344
#     4  12  20  34  55  85 118 151 187 237 293 344
#     4  12  20  38  60  83 118 159 193 237 298 343
#     4  12  20  38  60  83 118 159 193 237 298 343
#     4  11  23  36  55  86 124 152 195 240 292 348
#     4  11  22  36  55  89 119 155 193 242 289 352
#     4  11  23  36  55  86 124 152 195 240 292 348
#     4  11  22  36  55  89 119 155 193 242 289 352
#
# _framework density 24.570193
#
# number of rings (size 3 to 8) (size 9 to 14) (size 15 to 20)
#    0.000    0.500    7.500    3.000    0.000    0.000 
#    0.000    0.000    0.000    0.000    0.000   24.500 
#    0.000    0.000    0.000    0.000    0.000    0.000 
#
# Total GULP energy -89334.399712 kJ/mol
# GULP energy per Si atom -5583.399982 kJ/mol
# Density = 2.451427 g / cm^3
# Si number density = 24.570193 Si / 1000 Ang^3
#
#
#
# Elastic Constant Matrix: (Units=GPa)
#
#
# Indices 1 2 3 4 5 6 
#
# 1 175.6623 56.9867 49.8733 -5.3341 41.9441 15.9838
# 2 56.9867 128.3947 42.3880 -11.2194 13.2967 17.0613
# 3 49.8733 42.3880 88.4607 -11.3132 38.7056 1.9869
# 4 -5.3341 -11.2194 -11.3132 34.8621 1.9439 15.4693
# 5 41.9441 13.2967 38.7056 1.9439 46.2766 -5.1466
# 6 15.9838 17.0613 1.9869 15.4693 -5.1466 51.5942
#
#
#
# Elastic Compliance Matrix: (Units=1/GPa)
#
#
# Indices 1 2 3 4 5 6 
#
# 1 0.008686 -0.002388 0.000002 0.002506 -0.007674 -0.003418
# 2 -0.002388 0.010754 -0.004278 0.003078 0.002150 -0.003360
# 3 0.000002 -0.004278 0.022677 0.008763 -0.018545 -0.003937
# 4 0.002506 0.003078 0.008763 0.040651 -0.013940 -0.015710
# 5 -0.007674 0.002150 -0.018545 -0.013940 0.045276 0.011077
# 6 -0.003418 -0.003360 -0.003937 -0.015710 0.011077 0.027519
#
#
# Mechanical properties :
#
#
# Convention : Reuss Voigt Hill
#
# Bulk Modulus (GPa) = 34.73592 76.77931 55.75762
# Shear Modulus (GPa) = 28.01337 42.76457 35.38897
#
# Velocity S-wave (km/s) = 3.38025 4.17646 3.79927
# Velocity P-wave (km/s) = 5.42245 7.38742 6.47985
#
# Compressibility (1/GPa) = 0.02878864
#
# Stress axis : x y z
#
# Youngs Moduli (GPa) = 115.12228 92.99264 44.09802
#
# Poissons Ratio (x) = 0.22208 -0.00009
# Poissons Ratio (y) = 0.27493 0.18865
# Poissons Ratio (z) = -0.00023 0.39782
#
# Static dielectric constant tensor:
#      x y z
#    x 1.987360 -0.084990 -0.066200 
#    y -0.084990 2.036630 -0.005710 
#    z -0.066200 -0.005710 2.110340 
# 
# From -- ./inp_files/531064.got.cif
#   From: 2010.05.17/outbox.cif.g08.bks.cpg/sg2_266_cif.got.tgz:531064.got - 2010.06.03 11:33:40.
