data_PCOD9056703
_publ_section_title
;
Structure prediction by ZEFSAII (Michael W. Deem and Ramdas Pophale) SiO2 
 PCOD9056703
Probable space group: P -1
;
_chemical_formula_sum "Si O2"
_cell_formula_units_Z 14
_cell_length_a 9.628054
_cell_length_b 23.963221
_cell_length_c 7.799871
_cell_angle_alpha 39.468723
_cell_angle_beta 47.976307
_cell_angle_gamma 34.211398
_cell_volume 640.733529
_symmetry_space_group_name_H-M "P -1"
_symmetry_group_IT_number 2
_symmetry_cell_setting 'triclinic'
loop_
_space_group_symop_operation_xyz
x,y,z
-x,-y,-z
loop_
_atom_site_type_symbol
_atom_site_label
_atom_site_fract_x
_atom_site_fract_y
_atom_site_fract_z
Si Si1 0.389438 0.620974 0.395013
Si Si2 0.871037 0.584357 0.070556
Si Si3 0.087873 0.134358 0.930519
Si Si4 0.042460 0.010105 0.742415
Si Si5 0.373434 0.150048 0.370047
Si Si6 0.888720 0.826794 0.805745
Si Si7 0.776086 0.413931 0.040292
O O1 0.500000 0.500000 0.500000
O O2 0.633719 0.601762 0.283090
O O3 0.243409 0.636051 0.649174
O O4 0.188799 0.738032 0.172004
O O5 0.757495 0.715423 0.815252
O O6 0.000000 0.500000 0.000000
O O7 0.087893 0.537600 0.139088
O O8 0.068093 0.035609 0.165919
O O9 0.256720 0.119736 0.674311
O O10 0.194256 0.129852 0.036334
O O11 0.336181 0.925823 0.668134
O O12 0.956013 0.134922 0.472228
O O13 0.000000 0.000000 0.000000
O O14 0.312090 0.132957 0.270472
O O15 0.061281 0.688503 0.987100
O O16 0.500000 0.500000 0.000000
#
# Coordination Sequence:
#
# PCOD9056703 Si02
#       7
#     2   2   2   2   2   2   2
#     4  12  21  41  70  94 137 182 221 283 344 400
#     4  11  22  40  67 100 130 179 230 269 345 410
#     4  12  24  45  69  98 138 183 225 281 341 405
#     4  12  24  46  73  97 140 182 226 287 341 401
#     4  11  24  46  68 100 139 177 227 284 341 404
#     4  11  25  44  66 104 135 177 233 277 340 407
#     4  11  24  43  66  99 139 172 230 286 336 409
#
# _framework density 21.849955000000001
#
# number of rings (size 3 to 8) (size 9 to 14) (size 15 to 20)
#    0.000    0.571    7.143    1.714    0.000    1.143 
#    2.571    1.429    0.000    0.000    0.000    0.000 
#    0.000    0.000    0.000    0.000    0.000    0.000 
#
# Total GULP energy -78304.532375 kJ/mol
# GULP energy per Si atom -5593.180884 kJ/mol
# Density = 2.180022 g / cm^3
# Si number density = 21.849955 Si / 1000 Ang^3
#
#
#
# Elastic Constant Matrix: (Units=GPa)
#
#
# Indices 1 2 3 4 5 6 
#
# 1 150.4920 51.6940 41.7471 8.8680 -21.7657 11.3113
# 2 51.6940 80.9480 3.7741 6.5374 -14.7831 4.9047
# 3 41.7471 3.7741 54.3974 8.3106 -21.9248 -1.8165
# 4 8.8680 6.5374 8.3106 39.8466 -0.5123 -11.3219
# 5 -21.7657 -14.7831 -21.9248 -0.5123 44.9481 4.2997
# 6 11.3113 4.9047 -1.8165 -11.3219 4.2997 46.2300
#
#
#
# Elastic Compliance Matrix: (Units=1/GPa)
#
#
# Indices 1 2 3 4 5 6 
#
# 1 0.011529 -0.006910 -0.008680 -0.000325 -0.000694 -0.002444
# 2 -0.006910 0.017864 0.006909 -0.003113 0.005984 -0.001252
# 3 -0.008680 0.006909 0.030603 -0.005399 0.012929 0.000069
# 4 -0.000325 -0.003113 -0.005399 0.028932 -0.004219 0.007676
# 5 -0.000694 0.005984 0.012929 -0.004219 0.030504 -0.003827
# 6 -0.002444 -0.001252 0.000069 0.007676 -0.003827 0.024600
#
#
# Mechanical properties :
#
#
# Convention : Reuss Voigt Hill
#
# Bulk Modulus (GPa) = 23.45502 53.36309 38.40905
# Shear Modulus (GPa) = 28.47282 38.77976 33.62629
#
# Velocity S-wave (km/s) = 3.61377 4.21743 3.92722
# Velocity P-wave (km/s) = 5.30758 6.94199 6.17906
#
# Compressibility (1/GPa) = 0.04263480
#
# Stress axis : x y z
#
# Youngs Moduli (GPa) = 86.73928 55.97749 32.67630
#
# Poissons Ratio (x) = 0.38681 0.28363
# Poissons Ratio (y) = 0.59937 -0.22577
# Poissons Ratio (z) = 0.75288 -0.38676
#
# Static dielectric constant tensor:
#      x y z
#    x 1.804420 -0.015020 0.024520 
#    y -0.015020 1.814110 -0.060100 
#    z 0.024520 -0.060100 1.819880 
# 
# From -- ./inp_files/210694.got.cif
#   From: 2010.05.17/outbox.cif.g08.bks.cpg/sg2_106_cif.got.tgz:210694.got - 2010.06.03 11:33:40.
