data_PCOD9056344
_publ_section_title
;
Structure prediction by ZEFSAII (Michael W. Deem and Ramdas Pophale) SiO2 
 PCOD9056344
Probable space group: P -1
;
_chemical_formula_sum "Si O2"
_cell_formula_units_Z 16
_cell_length_a 11.582798
_cell_length_b 13.420145
_cell_length_c 12.755045
_cell_angle_alpha 112.908954
_cell_angle_beta 109.274394
_cell_angle_gamma 129.455176
_cell_volume 823.163105
_symmetry_space_group_name_H-M "P -1"
_symmetry_group_IT_number 2
_symmetry_cell_setting 'triclinic'
loop_
_space_group_symop_operation_xyz
x,y,z
-x,-y,-z
loop_
_atom_site_type_symbol
_atom_site_label
_atom_site_fract_x
_atom_site_fract_y
_atom_site_fract_z
Si Si1 0.897653 0.255637 0.917573
Si Si2 0.690184 0.892886 0.116649
Si Si3 0.389210 0.742821 0.170518
Si Si4 0.368542 0.347242 0.296210
Si Si5 0.188897 0.983693 0.024103
Si Si6 0.202100 0.201204 0.507340
Si Si7 0.796616 0.053402 0.601038
Si Si8 0.670482 0.575673 0.169643
O O1 0.773086 0.275546 0.907887
O O2 0.863231 0.153599 0.966914
O O3 0.755501 0.086861 0.708733
O O4 0.190028 0.503430 0.067045
O O5 0.532649 0.818777 0.137729
O O6 0.525887 0.661324 0.936680
O O7 0.963599 0.067800 0.318258
O O8 0.723383 0.982360 0.053345
O O9 0.602810 0.930702 0.399942
O O10 0.500000 0.500000 0.500000
O O11 0.534081 0.535619 0.335801
O O12 0.365550 0.215075 0.224946
O O13 0.079642 0.164219 0.134568
O O14 0.199671 0.232264 0.641070
O O15 0.216361 0.085724 0.440733
O O16 0.087226 0.300130 0.752264
O O17 0.500000 0.500000 0.000000
#
# Coordination Sequence:
#
# PCOD9056344 Si02
#       8
#     2   2   2   2   2   2   2   2
#     4  11  26  45  66  93 126 170 221 272 313 371
#     4  12  23  42  65  95 133 168 211 263 319 391
#     4  11  25  46  68  90 124 173 224 268 315 366
#     4  11  22  38  60  92 135 165 198 251 322 394
#     4  11  25  40  64  95 132 170 206 259 324 385
#     4  12  23  37  63 100 132 168 204 256 334 386
#     4  12  23  39  68  95 129 167 213 268 317 386
#     4  12  23  36  60 100 134 163 209 262 324 381
#
# _framework density 19.437217
#
# number of rings (size 3 to 8) (size 9 to 14) (size 15 to 20)
#    0.000    0.500    6.250    3.000    3.500    0.500 
#    0.000    0.000    0.000    1.500    0.000    0.000 
#    0.000    0.000    0.000    0.000    0.000    0.000 
#
# Total GULP energy -89273.831688 kJ/mol
# GULP energy per Si atom -5579.614480 kJ/mol
# Density = 1.939298 g / cm^3
# Si number density = 19.437217 Si / 1000 Ang^3
#
#
#
# Elastic Constant Matrix: (Units=GPa)
#
#
# Indices 1 2 3 4 5 6 
#
# 1 42.7965 23.7419 11.0311 -7.8886 -8.8831 14.6609
# 2 23.7419 117.6290 27.9385 -12.2115 -9.4363 10.6625
# 3 11.0311 27.9385 97.0274 -9.6745 -15.3348 11.7167
# 4 -7.8886 -12.2115 -9.6745 32.4425 4.5217 -0.5624
# 5 -8.8831 -9.4363 -15.3348 4.5217 27.9082 1.0710
# 6 14.6609 10.6625 11.7167 -0.5624 1.0710 26.5369
#
#
#
# Elastic Compliance Matrix: (Units=1/GPa)
#
#
# Indices 1 2 3 4 5 6 
#
# 1 0.034893 -0.004355 0.001732 0.005591 0.010394 -0.018594
# 2 -0.004355 0.010201 -0.002042 0.002070 0.000635 -0.000773
# 3 0.001732 -0.002042 0.012715 0.002409 0.006686 -0.005969
# 4 0.005591 0.002070 0.002409 0.033819 -0.001515 -0.004206
# 5 0.010394 0.000635 0.006686 -0.001515 0.043687 -0.010745
# 6 -0.018594 -0.000773 -0.005969 -0.004206 -0.010745 0.051247
#
#
# Mechanical properties :
#
#
# Convention : Reuss Voigt Hill
#
# Bulk Modulus (GPa) = 20.62663 42.54175 31.58419
# Shear Modulus (GPa) = 23.57920 30.36026 26.96973
#
# Velocity S-wave (km/s) = 3.48673 3.95646 3.72900
# Velocity P-wave (km/s) = 5.18119 6.54261 5.90129
#
# Compressibility (1/GPa) = 0.04848101
#
# Stress axis : x y z
#
# Youngs Moduli (GPa) = 28.65877 98.02767 78.64584
#
# Poissons Ratio (x) = 0.42687 -0.13624
# Poissons Ratio (y) = 0.12480 0.16060
# Poissons Ratio (z) = -0.04965 0.20019
#
# Static dielectric constant tensor:
#      x y z
#    x 2.238040 0.282480 -0.310200 
#    y 0.282480 1.992740 -0.108010 
#    z -0.310200 -0.108010 1.811900 
# 
# From -- ./inp_files/81433.got.cif
#   From: 2010.05.17/outbox.cif.g08.bks.cpg/sg2_41_cif.got.tgz:81433.got - 2010.06.03 11:33:40.
