data_PCOD9056385
_publ_section_title
;
Structure prediction by ZEFSAII (Michael W. Deem and Ramdas Pophale) SiO2 
 PCOD9056385
Probable space group: P -1
;
_chemical_formula_sum "Si O2"
_cell_formula_units_Z 14
_cell_length_a 9.149664
_cell_length_b 13.734479
_cell_length_c 5.619398
_cell_angle_alpha 65.153496
_cell_angle_beta 90.925807
_cell_angle_gamma 115.685738
_cell_volume 565.462626
_symmetry_space_group_name_H-M "P -1"
_symmetry_group_IT_number 2
_symmetry_cell_setting 'triclinic'
loop_
_space_group_symop_operation_xyz
x,y,z
-x,-y,-z
loop_
_atom_site_type_symbol
_atom_site_label
_atom_site_fract_x
_atom_site_fract_y
_atom_site_fract_z
Si Si1 0.632201 0.761218 0.190970
Si Si2 0.153953 0.327218 0.455603
Si Si3 0.064971 0.634329 0.274063
Si Si4 0.601270 0.430143 0.992005
Si Si5 0.157085 0.810295 0.722352
Si Si6 0.977625 0.930596 0.819613
Si Si7 0.383918 0.775276 0.466562
O O1 0.710174 0.714712 0.447713
O O2 0.488518 0.648594 0.163097
O O3 0.546656 0.832438 0.246935
O O4 0.782937 0.832346 0.938906
O O5 0.224766 0.455315 0.191799
O O6 0.090039 0.342824 0.694556
O O7 0.994070 0.224457 0.428006
O O8 0.225067 0.715789 0.352128
O O9 0.000000 0.500000 0.500000
O O10 0.120213 0.679824 0.964990
O O11 0.500000 0.500000 0.000000
O O12 0.608741 0.335313 0.276199
O O13 0.117035 0.884997 0.844074
O O14 0.334942 0.856381 0.557501
O O15 0.000000 0.000000 0.500000
O O16 0.000000 0.000000 0.000000
#
# Coordination Sequence:
#
# PCOD9056385 Si02
#       7
#     2   2   2   2   2   2   2
#     4  12  25  45  71 105 146 186 244 318 365 442
#     4  11  22  38  68 104 150 198 238 278 360 448
#     4  11  22  38  65 102 151 197 235 280 357 448
#     4  12  24  37  67 108 154 197 243 289 365 449
#     4  11  24  47  71 106 150 191 244 309 358 447
#     4  12  29  52  84 108 135 194 264 323 386 440
#     4  11  25  40  68 103 154 189 238 296 375 427
#
# _framework density 24.758490999999999
#
# number of rings (size 3 to 8) (size 9 to 14) (size 15 to 20)
#    0.000    0.571    2.857    5.571    6.000    2.286 
#    0.000    1.429    0.000    0.000    0.000    0.000 
#    0.000    0.000    0.000    0.000    0.000    0.000 
#
# Total GULP energy -78218.580900 kJ/mol
# GULP energy per Si atom -5587.041493 kJ/mol
# Density = 2.470214 g / cm^3
# Si number density = 24.758491 Si / 1000 Ang^3
#
#
#
# Elastic Constant Matrix: (Units=GPa)
#
#
# Indices 1 2 3 4 5 6 
#
# 1 170.7566 34.5009 42.7790 12.8500 -36.9192 -29.9288
# 2 34.5009 64.1346 16.0548 11.9279 -11.9107 -11.1594
# 3 42.7790 16.0548 105.8456 -1.0087 -6.6993 -13.2924
# 4 12.8500 11.9279 -1.0087 26.9792 -3.3789 -3.0996
# 5 -36.9192 -11.9107 -6.6993 -3.3789 54.1969 19.8924
# 6 -29.9288 -11.1594 -13.2924 -3.0996 19.8924 30.8515
#
#
#
# Elastic Compliance Matrix: (Units=1/GPa)
#
#
# Indices 1 2 3 4 5 6 
#
# 1 0.008518 -0.002228 -0.002409 -0.002277 0.003407 0.003994
# 2 -0.002228 0.019181 -0.001675 -0.007042 0.001078 0.002653
# 3 -0.002409 -0.001675 0.010983 0.002449 -0.001632 0.003088
# 4 -0.002277 -0.007042 0.002449 0.041382 -0.000502 0.000781
# 5 0.003407 0.001078 -0.001632 -0.000502 0.025803 -0.013696
# 6 0.003994 0.002653 0.003088 0.000781 -0.013696 0.047487
#
#
# Mechanical properties :
#
#
# Convention : Reuss Voigt Hill
#
# Bulk Modulus (GPa) = 38.37484 58.60070 48.48777
# Shear Modulus (GPa) = 28.62637 38.89899 33.76268
#
# Velocity S-wave (km/s) = 3.40402 3.96806 3.69681
# Velocity P-wave (km/s) = 5.56625 6.68687 6.15213
#
# Compressibility (1/GPa) = 0.02605874
#
# Stress axis : x y z
#
# Youngs Moduli (GPa) = 117.39818 52.13367 91.04765
#
# Poissons Ratio (x) = 0.11616 0.21935
# Poissons Ratio (y) = 0.26157 0.15248
# Poissons Ratio (z) = 0.28284 0.08731
#
# Static dielectric constant tensor:
#      x y z
#    x 2.059850 -0.089580 -0.054700 
#    y -0.089580 2.033550 0.013390 
#    z -0.054700 0.013390 1.995300 
# 
# From -- ./inp_files/37508.got.cif
#   From: 2010.05.17/outbox.cif.g08.bks.cpg/sg2_19_cif.got.tgz:37508.got - 2010.06.03 11:33:40.
