data_PCOD9056495
_publ_section_title
;
Structure prediction by ZEFSAII (Michael W. Deem and Ramdas Pophale) SiO2 
 PCOD9056495
Probable space group: P -1
;
_chemical_formula_sum "Si O2"
_cell_formula_units_Z 14
_cell_length_a 9.277840
_cell_length_b 24.567844
_cell_length_c 9.490771
_cell_angle_alpha 38.422077
_cell_angle_beta 133.608105
_cell_angle_gamma 153.885574
_cell_volume 590.999936
_symmetry_space_group_name_H-M "P -1"
_symmetry_group_IT_number 2
_symmetry_cell_setting 'triclinic'
loop_
_space_group_symop_operation_xyz
x,y,z
-x,-y,-z
loop_
_atom_site_type_symbol
_atom_site_label
_atom_site_fract_x
_atom_site_fract_y
_atom_site_fract_z
Si Si1 0.808005 0.054661 0.659880
Si Si2 0.672198 0.144504 0.752960
Si Si3 0.530549 0.358868 0.613618
Si Si4 0.610800 0.193871 0.896533
Si Si5 0.678394 0.579960 0.101307
Si Si6 0.402578 0.330291 0.894950
Si Si7 0.246727 0.077097 0.379462
O O1 0.140249 0.220654 0.591263
O O2 0.500000 0.000000 0.500000
O O3 0.886779 0.016358 0.661080
O O4 0.672729 0.955295 0.906927
O O5 0.581983 0.186693 0.722482
O O6 0.539071 0.123339 0.553768
O O7 0.053278 0.254977 0.782732
O O8 0.500000 0.000000 0.000000
O O9 0.642807 0.300561 0.769009
O O10 0.700490 0.494690 0.366558
O O11 0.592341 0.401331 0.732857
O O12 0.952679 0.259843 0.009613
O O13 0.484258 0.578305 0.075710
O O14 0.500000 0.500000 0.000000
O O15 0.354611 0.212011 0.136834
O O16 0.000000 0.000000 0.500000
#
# Coordination Sequence:
#
# PCOD9056495 Si02
#       7
#     2   2   2   2   2   2   2
#     4  12  25  41  71 105 138 173 226 286 339 400
#     4  11  22  39  64  97 140 177 220 281 342 401
#     4  12  24  46  69  98 142 179 224 282 346 405
#     4  11  24  44  68 101 133 179 227 279 347 402
#     4  11  27  46  72  96 136 183 228 281 341 411
#     4  11  25  45  67  97 137 182 228 277 344 408
#     4  12  24  39  68 104 136 178 228 281 339 404
#
# _framework density 23.688665
#
# number of rings (size 3 to 8) (size 9 to 14) (size 15 to 20)
#    0.000    0.571    2.857    5.571    6.000    0.000 
#    0.000    0.714    0.000    0.000    0.000    0.000 
#    0.000    0.000    0.000    0.000    0.000    0.000 
#
# Total GULP energy -78381.476575 kJ/mol
# GULP energy per Si atom -5598.676898 kJ/mol
# Density = 2.363475 g / cm^3
# Si number density = 23.688665 Si / 1000 Ang^3
#
#
#
# Elastic Constant Matrix: (Units=GPa)
#
#
# Indices 1 2 3 4 5 6 
#
# 1 128.6126 19.8850 15.5699 9.4031 -14.3252 -24.7373
# 2 19.8850 65.7117 11.0288 7.0974 -15.2491 -19.6898
# 3 15.5699 11.0288 86.3448 8.6449 -13.0965 7.8579
# 4 9.4031 7.0974 8.6449 34.7729 -5.0536 -9.4503
# 5 -14.3252 -15.2491 -13.0965 -5.0536 42.9847 3.9656
# 6 -24.7373 -19.6898 7.8579 -9.4503 3.9656 36.8535
#
#
#
# Elastic Compliance Matrix: (Units=1/GPa)
#
#
# Indices 1 2 3 4 5 6 
#
# 1 0.009507 -0.000143 -0.002002 0.000007 0.001906 0.006529
# 2 -0.000143 0.020146 -0.002753 0.000307 0.005304 0.010762
# 3 -0.002002 -0.002753 0.013730 -0.003819 0.002738 -0.007016
# 4 0.000007 0.000307 -0.003819 0.032390 0.001918 0.009083
# 5 0.001906 0.005304 0.002738 0.001918 0.026735 0.001144
# 6 0.006529 0.010762 -0.007016 0.009083 0.001144 0.040969
#
#
# Mechanical properties :
#
#
# Convention : Reuss Voigt Hill
#
# Bulk Modulus (GPa) = 29.77342 41.51516 35.64429
# Shear Modulus (GPa) = 30.40091 38.53460 34.46776
#
# Velocity S-wave (km/s) = 3.58628 4.03763 3.81863
# Velocity P-wave (km/s) = 5.45385 6.26897 5.87556
#
# Compressibility (1/GPa) = 0.03358700
#
# Stress axis : x y z
#
# Youngs Moduli (GPa) = 105.18249 49.63814 72.83190
#
# Poissons Ratio (x) = 0.00711 0.14580
# Poissons Ratio (y) = 0.01506 0.20052
# Poissons Ratio (z) = 0.21056 0.13666
#
# Static dielectric constant tensor:
#      x y z
#    x 1.940630 -0.012330 0.004730 
#    y -0.012330 1.940110 0.003450 
#    z 0.004730 0.003450 1.802480 
# 
# From -- ./inp_files/163491.got.cif
#   From: 2010.05.17/outbox.cif.g08.bks.cpg/sg2_82_cif.got.tgz:163491.got - 2010.06.03 11:33:40.
