data_PCOD9056843
_publ_section_title
;
Structure prediction by ZEFSAII (Michael W. Deem and Ramdas Pophale) SiO2 
 PCOD9056843
Probable space group: P -1
;
_chemical_formula_sum "Si O2"
_cell_formula_units_Z 16
_cell_length_a 12.153597
_cell_length_b 14.085056
_cell_length_c 10.068209
_cell_angle_alpha 88.593496
_cell_angle_beta 80.822510
_cell_angle_gamma 149.243904
_cell_volume 824.311657
_symmetry_space_group_name_H-M "P -1"
_symmetry_group_IT_number 2
_symmetry_cell_setting 'triclinic'
loop_
_space_group_symop_operation_xyz
x,y,z
-x,-y,-z
loop_
_atom_site_type_symbol
_atom_site_label
_atom_site_fract_x
_atom_site_fract_y
_atom_site_fract_z
Si Si1 0.371025 0.001142 0.065374
Si Si2 0.144748 0.513939 0.432159
Si Si3 0.269152 0.221793 0.951709
Si Si4 0.975682 0.279587 0.210710
Si Si5 0.366976 0.517978 0.914759
Si Si6 0.870804 0.566644 0.279161
Si Si7 0.629565 0.881979 0.210264
Si Si8 0.211676 0.673655 0.853288
O O1 0.548377 0.175925 0.131921
O O2 0.351088 0.053537 0.939931
O O3 0.121586 0.791264 0.179079
O O4 0.500000 0.000000 0.000000
O O5 0.396224 0.736261 0.332167
O O6 0.000000 0.500000 0.500000
O O7 0.051151 0.383035 0.330150
O O8 0.840287 0.545435 0.442686
O O9 0.319982 0.370436 0.917794
O O10 0.376123 0.233666 0.817846
O O11 0.386522 0.284257 0.068984
O O12 0.000000 0.000000 0.000000
O O13 0.795944 0.222346 0.188346
O O14 0.846117 0.082379 0.244774
O O15 0.184072 0.424417 0.060430
O O16 0.311014 0.519416 0.781764
O O17 0.847795 0.438310 0.252564
O O18 0.000000 0.500000 0.000000
#
# Coordination Sequence:
#
# PCOD9056843 Si02
#       8
#     2   2   2   2   2   2   2   2
#     4  12  20  34  63  93 122 166 216 266 310 378
#     4  12  27  41  62  94 142 179 206 253 325 391
#     4  11  22  40  72 103 117 157 225 284 322 369
#     4  12  22  39  64  93 127 175 213 256 321 389
#     4  11  22  41  70  97 122 162 222 273 323 379
#     4  12  24  41  59  96 132 168 213 270 316 377
#     4  12  23  41  65  94 132 168 214 267 325 381
#     4  12  20  33  61  92 126 165 219 261 314 377
#
# _framework density 19.410136000000001
#
# number of rings (size 3 to 8) (size 9 to 14) (size 15 to 20)
#    0.000    0.250    8.750    2.250    0.000    1.500 
#    0.000    0.625    0.000    1.500    0.000    0.000 
#    0.000    0.000    0.000    0.000    0.000    0.000 
#
# Total GULP energy -89354.616409 kJ/mol
# GULP energy per Si atom -5584.663526 kJ/mol
# Density = 1.936596 g / cm^3
# Si number density = 19.410136 Si / 1000 Ang^3
#
#
#
# Elastic Constant Matrix: (Units=GPa)
#
#
# Indices 1 2 3 4 5 6 
#
# 1 83.1514 24.4600 31.0773 15.7689 2.7976 -0.6505
# 2 24.4600 123.7527 35.9304 3.5182 11.7922 15.9727
# 3 31.0773 35.9304 86.3886 13.4220 13.7177 2.3655
# 4 15.7689 3.5182 13.4220 30.7724 4.8003 -0.7160
# 5 2.7976 11.7922 13.7177 4.8003 29.8005 7.1210
# 6 -0.6505 15.9727 2.3655 -0.7160 7.1210 31.7428
#
#
#
# Elastic Compliance Matrix: (Units=1/GPa)
#
#
# Indices 1 2 3 4 5 6 
#
# 1 0.015217 -0.001980 -0.004042 -0.006088 0.001949 0.001035
# 2 -0.001980 0.010132 -0.003377 0.001445 -0.001418 -0.004537
# 3 -0.004042 -0.003377 0.015795 -0.003560 -0.005354 0.001560
# 4 -0.006088 0.001445 -0.003560 0.037779 -0.004766 0.001335
# 5 0.001949 -0.001418 -0.005354 -0.004766 0.039008 -0.007706
# 6 0.001035 -0.004537 0.001560 0.001335 -0.007706 0.035450
#
#
# Mechanical properties :
#
#
# Convention : Reuss Voigt Hill
#
# Bulk Modulus (GPa) = 44.75339 52.91424 48.83382
# Shear Modulus (GPa) = 27.83543 31.91815 29.87679
#
# Velocity S-wave (km/s) = 3.79102 4.05953 3.92757
# Velocity P-wave (km/s) = 6.50147 7.02092 6.76618
#
# Compressibility (1/GPa) = 0.02234468
#
# Stress axis : x y z
#
# Youngs Moduli (GPa) = 65.71769 98.69706 63.31141
#
# Poissons Ratio (x) = 0.19544 0.25593
# Poissons Ratio (y) = 0.13013 0.21379
# Poissons Ratio (z) = 0.26566 0.33329
#
# Static dielectric constant tensor:
#      x y z
#    x 1.725160 0.009470 -0.007460 
#    y 0.009470 1.739550 0.053660 
#    z -0.007460 0.053660 1.740830 
# 
# From -- ./inp_files/432946.got.cif
#   From: 2010.05.17/outbox.cif.g08.bks.cpg/sg2_217_cif.got.tgz:432946.got - 2010.06.03 11:33:40.
