data_PCOD9056342
_publ_section_title
;
Structure prediction by ZEFSAII (Michael W. Deem and Ramdas Pophale) SiO2 
 PCOD9056342
Probable space group: P -1
;
_chemical_formula_sum "Si O2"
_cell_formula_units_Z 14
_cell_length_a 12.480937
_cell_length_b 14.075812
_cell_length_c 10.806911
_cell_angle_alpha 111.129500
_cell_angle_beta 70.047060
_cell_angle_gamma 160.114639
_cell_volume 602.339905
_symmetry_space_group_name_H-M "P -1"
_symmetry_group_IT_number 2
_symmetry_cell_setting 'triclinic'
loop_
_space_group_symop_operation_xyz
x,y,z
-x,-y,-z
loop_
_atom_site_type_symbol
_atom_site_label
_atom_site_fract_x
_atom_site_fract_y
_atom_site_fract_z
Si Si1 0.000000 0.000000 0.500000
Si Si2 0.404652 0.481092 0.873974
Si Si3 0.214347 0.834640 0.886655
Si Si4 0.417993 0.640578 0.709711
Si Si5 0.772482 0.144237 0.815886
Si Si6 0.531777 0.290110 0.851148
Si Si7 0.968202 0.029303 0.252694
Si Si8 0.500000 0.500000 0.500000
O O1 0.094818 0.148003 0.401265
O O2 0.768292 0.727709 0.393277
O O3 0.410813 0.574880 0.810914
O O4 0.132339 0.169444 0.838043
O O5 0.426282 0.567686 0.028093
O O6 0.731840 0.695345 0.818908
O O7 0.489815 0.984378 0.819134
O O8 0.884191 0.542822 0.811066
O O9 0.348300 0.056522 0.900149
O O10 0.146744 0.767840 0.029753
O O11 0.650583 0.928022 0.757108
O O12 0.553479 0.675781 0.567114
O O13 0.068881 0.395894 0.725586
O O14 0.319547 0.136827 0.743129
#
# Coordination Sequence:
#
# PCOD9056342 Si02
#       8
#     1   2   2   2   2   2   2   1
#     4  12  22  40  56  86 120 156 206 250 278 374
#     4  12  21  38  57  88 130 158 201 240 305 384
#     4  11  22  38  60  90 121 164 213 239 306 370
#     4  12  21  38  60  90 126 158 199 257 301 350
#     4  11  22  38  61  88 125 164 200 260 300 353
#     4  12  23  37  59  89 126 167 193 252 300 375
#     4  12  24  38  57  86 127 166 200 244 307 360
#     4  12  24  36  62  86 124 150 208 252 298 372
#
# _framework density 23.24269
#
# number of rings (size 3 to 8) (size 9 to 14) (size 15 to 20)
#    0.000    0.286    5.714    5.143    0.000    2.286 
#    0.000    0.000    0.000    0.000    0.000   20.000 
#    0.000    0.000    0.000    0.000    0.000    0.000 
#
# Total GULP energy -78008.005021 kJ/mol
# GULP energy per Si atom -5572.000359 kJ/mol
# Density = 2.318979 g / cm^3
# Si number density = 23.242690 Si / 1000 Ang^3
#
#
#
# Elastic Constant Matrix: (Units=GPa)
#
#
# Indices 1 2 3 4 5 6 
#
# 1 80.2002 27.8389 29.7419 -4.4694 2.9488 29.8903
# 2 27.8389 135.9025 -1.6681 -7.8523 -5.5752 16.4554
# 3 29.7419 -1.6681 68.5431 -9.9896 -5.1791 21.8115
# 4 -4.4694 -7.8523 -9.9896 29.5269 0.3198 -8.1787
# 5 2.9488 -5.5752 -5.1791 0.3198 25.9195 -3.9999
# 6 29.8903 16.4554 21.8115 -8.1787 -3.9999 63.2391
#
#
#
# Elastic Compliance Matrix: (Units=1/GPa)
#
#
# Indices 1 2 3 4 5 6 
#
# 1 0.018582 -0.003486 -0.006903 -0.002081 -0.005157 -0.006090
# 2 -0.003486 0.008459 0.002555 0.002288 0.002547 -0.000978
# 3 -0.006903 0.002555 0.019822 0.005391 0.004729 -0.003243
# 4 -0.002081 0.002288 0.005391 0.036912 0.001879 0.003421
# 5 -0.005157 0.002547 0.004729 0.001879 0.041098 0.002986
# 6 -0.006090 -0.000978 -0.003243 0.003421 0.002986 0.020696
#
#
# Mechanical properties :
#
#
# Convention : Reuss Voigt Hill
#
# Bulk Modulus (GPa) = 32.05462 44.05237 38.05350
# Shear Modulus (GPa) = 29.13188 38.98598 34.05893
#
# Velocity S-wave (km/s) = 3.54415 4.09998 3.83216
# Velocity P-wave (km/s) = 5.52894 6.43487 5.99903
#
# Compressibility (1/GPa) = 0.03119675
#
# Stress axis : x y z
#
# Youngs Moduli (GPa) = 53.81529 118.22180 50.44992
#
# Poissons Ratio (x) = 0.41206 0.34824
# Poissons Ratio (y) = 0.18757 -0.12892
# Poissons Ratio (z) = 0.37147 -0.30210
#
# Static dielectric constant tensor:
#      x y z
#    x 1.955820 0.024970 -0.003740 
#    y 0.024970 1.225860 -0.103990 
#    z -0.003740 -0.103990 1.680690 
# 
# From -- ./inp_files/76759.got.cif
#   From: 2010.05.17/outbox.cif.g08.bks.cpg/sg2_39_cif.got.tgz:76759.got - 2010.06.03 11:33:40.
