data_PCOD9056923
_publ_section_title
;
Structure prediction by ZEFSAII (Michael W. Deem and Ramdas Pophale) SiO2 
 PCOD9056923
Probable space group: P -1
;
_chemical_formula_sum "Si O2"
_cell_formula_units_Z 10
_cell_length_a 5.040807
_cell_length_b 6.847371
_cell_length_c 14.146187
_cell_angle_alpha 121.192944
_cell_angle_beta 102.154413
_cell_angle_gamma 101.474275
_cell_volume 379.621353
_symmetry_space_group_name_H-M "P -1"
_symmetry_group_IT_number 2
_symmetry_cell_setting 'triclinic'
loop_
_space_group_symop_operation_xyz
x,y,z
-x,-y,-z
loop_
_atom_site_type_symbol
_atom_site_label
_atom_site_fract_x
_atom_site_fract_y
_atom_site_fract_z
Si Si1 0.734614 0.184892 0.631195
Si Si2 0.768667 0.341189 0.020988
Si Si3 0.363172 0.361165 0.761098
Si Si4 0.826371 0.585524 0.587489
Si Si5 0.255341 0.825056 0.818611
O O1 0.592065 0.232858 0.727803
O O2 0.796808 0.428240 0.638878
O O3 0.044837 0.164445 0.659032
O O4 0.500000 0.000000 0.500000
O O5 0.642276 0.530153 0.109188
O O6 0.885211 0.244944 0.102803
O O7 0.000000 0.500000 0.000000
O O8 0.519011 0.087099 0.907318
O O9 0.388647 0.606381 0.762035
O O10 0.500000 0.500000 0.500000
O O11 0.000000 0.500000 0.500000
O O12 0.042858 0.831565 0.717752
#
# Coordination Sequence:
#
# PCOD9056923 Si02
#       5
#     2   2   2   2   2
#     4  11  22  41  65  93 136 180 228 288 346 408
#     4   9  18  40  72 103 142 187 238 293 363 424
#     4   9  20  39  63  95 136 177 224 287 354 405
#     4  11  23  42  68  98 136 189 235 280 361 427
#     4   8  19  40  66 104 146 178 240 295 355 422
#
# _framework density 26.342034999999999
#
# number of rings (size 3 to 8) (size 9 to 14) (size 15 to 20)
#    1.200    1.200    0.000    3.000    0.000    1.600 
#    0.000   14.000    0.000    0.000    0.000    0.000 
#    0.000    0.000    0.000    0.000    0.000    0.000 
#
# Total GULP energy -55719.989510 kJ/mol
# GULP energy per Si atom -5571.998951 kJ/mol
# Density = 2.628208 g / cm^3
# Si number density = 26.342035 Si / 1000 Ang^3
#
#
#
# Elastic Constant Matrix: (Units=GPa)
#
#
# Indices 1 2 3 4 5 6 
#
# 1 97.0739 27.5486 41.1647 -4.6316 12.2575 28.8816
# 2 27.5486 139.2792 50.8092 -17.1650 10.1691 14.7451
# 3 41.1647 50.8092 199.5315 4.0906 41.1394 33.6942
# 4 -4.6316 -17.1650 4.0906 46.3255 7.9905 6.4992
# 5 12.2575 10.1691 41.1394 7.9905 60.5980 -6.9771
# 6 28.8816 14.7451 33.6942 6.4992 -6.9771 38.8022
#
#
#
# Elastic Compliance Matrix: (Units=1/GPa)
#
#
# Indices 1 2 3 4 5 6 
#
# 1 0.015000 -0.000885 0.000187 0.003764 -0.004949 -0.012512
# 2 -0.000885 0.008669 -0.001554 0.003717 -0.000950 -0.002079
# 3 0.000187 -0.001554 0.007915 0.000882 -0.006150 -0.007675
# 4 0.003764 0.003717 0.000882 0.025874 -0.006604 -0.010501
# 5 -0.004949 -0.000950 -0.006150 -0.006604 0.024423 0.014883
# 6 -0.012512 -0.002079 -0.007675 -0.010501 0.014883 0.046974
#
#
# Mechanical properties :
#
#
# Convention : Reuss Voigt Hill
#
# Bulk Modulus (GPa) = 36.92811 74.99218 55.96014
# Shear Modulus (GPa) = 35.11527 50.23596 42.67561
#
# Velocity S-wave (km/s) = 3.65506 4.37173 4.02936
# Velocity P-wave (km/s) = 5.64462 7.34937 6.55267
#
# Compressibility (1/GPa) = 0.02707964
#
# Stress axis : x y z
#
# Youngs Moduli (GPa) = 66.66457 115.34789 126.34203
#
# Poissons Ratio (x) = 0.10212 -0.02360
# Poissons Ratio (y) = 0.05902 0.19635
# Poissons Ratio (z) = -0.01245 0.17927
#
# Static dielectric constant tensor:
#      x y z
#    x 2.144790 0.002040 0.121410 
#    y 0.002040 2.109550 0.105130 
#    z 0.121410 0.105130 2.298420 
# 
# From -- ./inp_files/172571.got.cif
#   From: 2010.05.17/outbox.cif.g08.bks.cpg/sg2_87_cif.got.tgz:172571.got - 2010.06.03 11:33:40.
