data_PCOD9056400
_publ_section_title
;
Structure prediction by ZEFSAII (Michael W. Deem and Ramdas Pophale) SiO2 
 PCOD9056400
Probable space group: P -1
;
_chemical_formula_sum "Si O2"
_cell_formula_units_Z 15
_cell_length_a 11.731348
_cell_length_b 8.374874
_cell_length_c 7.885799
_cell_angle_alpha 94.104266
_cell_angle_beta 92.507629
_cell_angle_gamma 132.669686
_cell_volume 563.691401
_symmetry_space_group_name_H-M "P -1"
_symmetry_group_IT_number 2
_symmetry_cell_setting 'triclinic'
loop_
_space_group_symop_operation_xyz
x,y,z
-x,-y,-z
loop_
_atom_site_type_symbol
_atom_site_label
_atom_site_fract_x
_atom_site_fract_y
_atom_site_fract_z
Si Si1 0.829065 0.770639 0.520325
Si Si2 0.955829 0.596596 0.884013
Si Si3 0.169129 0.222106 0.072033
Si Si4 0.529065 0.229562 0.218251
Si Si5 0.620132 0.876300 0.434115
Si Si6 0.500000 0.500000 0.000000
Si Si7 0.173330 0.603713 0.484829
Si Si8 0.315092 0.946376 0.883191
O O1 0.815455 0.759087 0.722667
O O2 0.811777 0.565482 0.453113
O O3 0.709145 0.793561 0.454473
O O4 0.000000 0.000000 0.500000
O O5 0.130499 0.815976 0.844970
O O6 0.853631 0.621944 0.984611
O O7 0.837237 0.436037 0.718482
O O8 0.000000 0.500000 0.000000
O O9 0.318639 0.284043 0.014814
O O10 0.000000 0.000000 0.000000
O O11 0.557382 0.426909 0.149021
O O12 0.653204 0.207634 0.182800
O O13 0.492805 0.212965 0.416864
O O14 0.377546 0.019730 0.084711
O O15 0.721779 0.136339 0.469834
O O16 0.573999 0.842752 0.226781
O O17 0.000000 0.500000 0.500000
#
# Coordination Sequence:
#
# PCOD9056400 Si02
#       8
#     2   2   2   2   2   1   2   2
#     4  11  23  42  70 108 151 198 262 326 392 476
#     4  11  22  38  66 107 136 191 259 309 384 471
#     4  11  25  44  72 108 151 201 253 324 394 470
#     4  11  26  47  72 104 152 204 257 329 392 478
#     4  12  23  48  74 104 155 203 258 328 404 464
#     4  12  24  48  74 110 160 202 256 328 404 464
#     4  11  22  40  66 103 145 186 250 322 392 464
#     4  11  24  46  72 103 148 204 261 318 396 474
#
# _framework density 26.610302999999998
#
# number of rings (size 3 to 8) (size 9 to 14) (size 15 to 20)
#    0.000    0.800    4.000    3.600    1.867    3.200 
#    4.800    0.667    0.000    0.000    0.000    0.000 
#    0.000    0.000    0.000    0.000    0.000    0.000 
#
# Total GULP energy -83556.974089 kJ/mol
# GULP energy per Si atom -5570.464939 kJ/mol
# Density = 2.654974 g / cm^3
# Si number density = 26.610303 Si / 1000 Ang^3
#
#
#
# Elastic Constant Matrix: (Units=GPa)
#
#
# Indices 1 2 3 4 5 6 
#
# 1 177.7319 68.0306 28.2867 -9.2232 4.3559 -13.9103
# 2 68.0306 107.3848 31.1705 -21.2100 -3.2481 -8.0277
# 3 28.2867 31.1705 102.7788 -24.2347 2.0134 -4.7159
# 4 -9.2232 -21.2100 -24.2347 49.9244 -7.5894 5.1801
# 5 4.3559 -3.2481 2.0134 -7.5894 49.3124 -18.7740
# 6 -13.9103 -8.0277 -4.7159 5.1801 -18.7740 50.4286
#
#
#
# Elastic Compliance Matrix: (Units=1/GPa)
#
#
# Indices 1 2 3 4 5 6 
#
# 1 0.007632 -0.004766 -0.000889 -0.001273 -0.000719 0.001127
# 2 -0.004766 0.013908 -0.001867 0.004383 0.002554 0.001226
# 3 -0.000889 -0.001867 0.011657 0.004725 0.000269 0.000162
# 4 -0.001273 0.004383 0.004725 0.024571 0.003879 -0.000291
# 5 -0.000719 0.002554 0.000269 0.003879 0.024507 0.008959
# 6 0.001127 0.001226 0.000162 -0.000291 0.008959 0.023716
#
#
# Mechanical properties :
#
#
# Convention : Reuss Voigt Hill
#
# Bulk Modulus (GPa) = 55.08638 71.43012 63.25825
# Shear Modulus (GPa) = 39.34344 47.29360 43.31852
#
# Velocity S-wave (km/s) = 3.84930 4.22034 4.03908
# Velocity P-wave (km/s) = 6.36414 7.11686 6.75100
#
# Compressibility (1/GPa) = 0.01815331
#
# Stress axis : x y z
#
# Youngs Moduli (GPa) = 131.02870 71.90143 85.78617
#
# Poissons Ratio (x) = 0.34266 0.07630
# Poissons Ratio (y) = 0.62444 0.16013
# Poissons Ratio (z) = 0.11654 0.13421
#
# Static dielectric constant tensor:
#      x y z
#    x 2.071930 -0.008070 -0.010010 
#    y -0.008070 2.192250 0.026270 
#    z -0.010010 0.026270 2.112430 
# 
# From -- ./inp_files/238572.got.cif
#   From: 2010.05.17/outbox.cif.g08.bks.cpg/sg2_120_cif.got.tgz:238572.got - 2010.06.03 11:33:40.
