data_PCOD9056037
_publ_section_title
;
Structure prediction by ZEFSAII (Michael W. Deem and Ramdas Pophale) SiO2 
 PCOD9056037
Probable space group: P -1
;
_chemical_formula_sum "Si O2"
_cell_formula_units_Z 14
_cell_length_a 7.466048
_cell_length_b 9.413967
_cell_length_c 15.995068
_cell_angle_alpha 125.304328
_cell_angle_beta 134.025476
_cell_angle_gamma 66.386735
_cell_volume 659.684810
_symmetry_space_group_name_H-M "P -1"
_symmetry_group_IT_number 2
_symmetry_cell_setting 'triclinic'
loop_
_space_group_symop_operation_xyz
x,y,z
-x,-y,-z
loop_
_atom_site_type_symbol
_atom_site_label
_atom_site_fract_x
_atom_site_fract_y
_atom_site_fract_z
Si Si1 0.733074 0.925111 0.676834
Si Si2 0.793776 0.543636 0.518312
Si Si3 0.990814 0.600783 0.905393
Si Si4 0.208406 0.506552 0.773577
Si Si5 0.672971 0.307741 0.797077
Si Si6 0.693615 0.128354 0.146329
Si Si7 0.549646 0.775099 0.733241
O O1 0.712497 0.745464 0.556627
O O2 0.581008 0.889177 0.700029
O O3 0.566997 0.411747 0.391612
O O4 0.670793 0.117082 0.690242
O O5 0.000000 0.500000 0.500000
O O6 0.942200 0.509048 0.641048
O O7 0.025734 0.930862 0.795385
O O8 0.161774 0.515352 0.859976
O O9 0.805279 0.454219 0.832787
O O10 0.815756 0.742793 0.852175
O O11 0.158154 0.684083 0.060964
O O12 0.394109 0.360016 0.751086
O O13 0.334542 0.685222 0.843376
O O14 0.633625 0.145919 0.230547
O O15 0.500000 0.000000 0.000000
#
# Coordination Sequence:
#
# PCOD9056037 Si02
#       7
#     2   2   2   2   2   2   2
#     4  11  25  40  67  98 125 170 224 270 316 387
#     4  11  21  45  70  91 128 172 225 269 321 380
#     4  11  23  41  68  91 133 177 208 260 336 391
#     4  11  23  43  65  94 131 177 210 264 331 390
#     4  11  25  43  61  98 136 168 211 269 333 384
#     4  11  23  38  67  99 130 164 219 271 313 388
#     4  12  22  43  72  94 127 173 220 270 321 385
#
# _framework density 21.222256000000002
#
# number of rings (size 3 to 8) (size 9 to 14) (size 15 to 20)
#    0.000    0.857    7.143    1.714    4.000    2.286 
#    0.000    3.571    0.000    0.000    0.000    0.000 
#    0.000    0.000    0.000    0.000    0.000    0.000 
#
# Total GULP energy -78278.416279 kJ/mol
# GULP energy per Si atom -5591.315449 kJ/mol
# Density = 2.117395 g / cm^3
# Si number density = 21.222256 Si / 1000 Ang^3
#
#
#
# Elastic Constant Matrix: (Units=GPa)
#
#
# Indices 1 2 3 4 5 6 
#
# 1 112.2439 4.9746 11.3020 13.3803 -11.0784 8.8855
# 2 4.9746 46.5422 3.1215 8.2653 -4.5043 -17.5721
# 3 11.3020 3.1215 79.3710 6.9136 0.7972 -7.3701
# 4 13.3803 8.2653 6.9136 21.0439 -3.8271 -11.4528
# 5 -11.0784 -4.5043 0.7972 -3.8271 31.5252 -6.5322
# 6 8.8855 -17.5721 -7.3701 -11.4528 -6.5322 24.0284
#
#
#
# Elastic Compliance Matrix: (Units=1/GPa)
#
#
# Indices 1 2 3 4 5 6 
#
# 1 0.012014 -0.004588 -0.001732 -0.013776 -0.001217 -0.015226
# 2 -0.004588 0.034684 0.001583 0.010421 0.011980 0.035771
# 3 -0.001732 0.001583 0.013371 -0.000794 0.000346 0.005615
# 4 -0.013776 0.010421 -0.000794 0.088861 0.019939 0.060246
# 5 -0.001217 0.011980 0.000346 0.019939 0.041663 0.030147
# 6 -0.015226 0.035771 0.005615 0.060246 0.030147 0.112041
#
#
# Mechanical properties :
#
#
# Convention : Reuss Voigt Hill
#
# Bulk Modulus (GPa) = 19.76500 30.77259 25.26880
# Shear Modulus (GPa) = 15.19881 29.90344 22.55112
#
# Velocity S-wave (km/s) = 2.67904 3.75782 3.26332
# Velocity P-wave (km/s) = 4.34779 5.77580 5.11190
#
# Compressibility (1/GPa) = 0.05059448
#
# Stress axis : x y z
#
# Youngs Moduli (GPa) = 83.23378 28.83152 74.79145
#
# Poissons Ratio (x) = 0.13228 0.12954
# Poissons Ratio (y) = 0.38188 -0.11838
# Poissons Ratio (z) = 0.14416 -0.04563
#
# Static dielectric constant tensor:
#      x y z
#    x 1.768660 -0.007570 -0.042740 
#    y -0.007570 1.771530 -0.011110 
#    z -0.042740 -0.011110 1.789000 
# 
# From -- ./inp_files/556620.got.cif
#   From: 2010.05.17/outbox.cif.g08.bks.cpg/sg2_279_cif.got.tgz:556620.got - 2010.06.03 11:33:40.
