data_PCOD9056589
_publ_section_title
;
Structure prediction by ZEFSAII (Michael W. Deem and Ramdas Pophale) SiO2 
 PCOD9056589
Probable space group: P -1
;
_chemical_formula_sum "Si O2"
_cell_formula_units_Z 14
_cell_length_a 5.492979
_cell_length_b 21.455909
_cell_length_c 8.840895
_cell_angle_alpha 37.910063
_cell_angle_beta 87.709565
_cell_angle_gamma 106.987776
_cell_volume 543.552255
_symmetry_space_group_name_H-M "P -1"
_symmetry_group_IT_number 2
_symmetry_cell_setting 'triclinic'
loop_
_space_group_symop_operation_xyz
x,y,z
-x,-y,-z
loop_
_atom_site_type_symbol
_atom_site_label
_atom_site_fract_x
_atom_site_fract_y
_atom_site_fract_z
Si Si1 0.598907 0.401490 0.376207
Si Si2 0.793394 0.906062 0.555812
Si Si3 0.402795 0.936606 0.791658
Si Si4 0.009980 0.363800 0.969384
Si Si5 0.511965 0.343468 0.841138
Si Si6 0.926509 0.267741 0.607072
Si Si7 0.856297 0.136034 0.567732
O O1 0.812490 0.543131 0.079257
O O2 0.586221 0.388108 0.584040
O O3 0.750634 0.331280 0.453753
O O4 0.271115 0.349490 0.437066
O O5 0.839808 0.829573 0.573817
O O6 0.745054 0.992357 0.288258
O O7 0.594377 0.796766 0.882938
O O8 0.000000 0.000000 0.500000
O O9 0.500000 0.000000 0.500000
O O10 0.680284 0.000937 0.767996
O O11 0.186753 0.799707 0.098232
O O12 0.255117 0.362216 0.864517
O O13 0.799565 0.399756 0.827891
O O14 0.808325 0.228879 0.295273
O O15 0.841517 0.163432 0.686832
#
# Coordination Sequence:
#
# PCOD9056589 Si02
#       7
#     2   2   2   2   2   2   2
#     4  12  26  46  70 102 144 184 235 287 349 412
#     4  11  22  39  70 101 137 183 229 290 344 410
#     4  12  24  45  73 101 137 182 238 289 347 413
#     4  11  24  44  74 102 137 186 234 292 345 408
#     4  11  22  42  70 108 138 174 242 291 347 401
#     4  12  30  45  70 105 147 185 229 286 352 423
#     4  11  27  45  68 104 142 188 229 284 354 419
#
# _framework density 25.756495000000001
#
# number of rings (size 3 to 8) (size 9 to 14) (size 15 to 20)
#    0.000    0.571    2.857    4.714    6.000    1.714 
#    0.000    0.000    0.000    0.000    0.000    0.000 
#    0.000    0.000    0.000    0.000    0.000    0.000 
#
# Total GULP energy -78030.178160 kJ/mol
# GULP energy per Si atom -5573.584154 kJ/mol
# Density = 2.569787 g / cm^3
# Si number density = 25.756495 Si / 1000 Ang^3
#
#
#
# Elastic Constant Matrix: (Units=GPa)
#
#
# Indices 1 2 3 4 5 6 
#
# 1 139.7861 36.9876 13.7823 6.3913 -11.1236 2.8726
# 2 36.9876 97.7005 17.3341 2.3913 -23.5393 -5.0203
# 3 13.7823 17.3341 72.5903 -2.1264 -12.1779 2.1213
# 4 6.3913 2.3913 -2.1264 40.8072 8.0346 -10.9236
# 5 -11.1236 -23.5393 -12.1779 8.0346 31.3491 -5.8581
# 6 2.8726 -5.0203 2.1213 -10.9236 -5.8581 32.1777
#
#
#
# Elastic Compliance Matrix: (Units=1/GPa)
#
#
# Indices 1 2 3 4 5 6 
#
# 1 0.008139 -0.002842 -0.000771 -0.001689 0.000591 -0.001585
# 2 -0.002842 0.014261 -0.001295 -0.001428 0.010302 0.003955
# 3 -0.000771 -0.001295 0.014999 0.000008 0.004523 -0.000296
# 4 -0.001689 -0.001428 0.000008 0.028529 -0.007437 0.008259
# 5 0.000591 0.010302 0.004523 -0.007437 0.044794 0.006887
# 6 -0.001585 0.003955 -0.000296 0.008259 0.006887 0.035913
#
#
# Mechanical properties :
#
#
# Convention : Reuss Voigt Hill
#
# Bulk Modulus (GPa) = 36.25309 49.58719 42.92014
# Shear Modulus (GPa) = 30.18503 36.99833 33.59168
#
# Velocity S-wave (km/s) = 3.42707 3.79419 3.61529
# Velocity P-wave (km/s) = 5.45579 6.20392 5.84184
#
# Compressibility (1/GPa) = 0.02758386
#
# Stress axis : x y z
#
# Youngs Moduli (GPa) = 122.87110 70.11975 66.67012
#
# Poissons Ratio (x) = 0.19929 0.05137
# Poissons Ratio (y) = 0.34921 0.08634
# Poissons Ratio (z) = 0.09468 0.09081
#
# Static dielectric constant tensor:
#      x y z
#    x 2.935030 0.188060 -0.044240 
#    y 0.188060 2.142400 0.014790 
#    z -0.044240 0.014790 2.107590 
# 
# From -- ./inp_files/60932.got.cif
#   From: 2010.05.17/outbox.cif.g08.bks.cpg/sg2_31_cif.got.tgz:60932.got - 2010.06.03 11:33:40.
