data_PCOD9056454
_publ_section_title
;
Structure prediction by ZEFSAII (Michael W. Deem and Ramdas Pophale) SiO2 
 PCOD9056454
Probable space group: P -1
;
_chemical_formula_sum "Si O2"
_cell_formula_units_Z 16
_cell_length_a 6.787826
_cell_length_b 15.897848
_cell_length_c 16.513313
_cell_angle_alpha 143.019713
_cell_angle_beta 128.643168
_cell_angle_gamma 47.048694
_cell_volume 771.472267
_symmetry_space_group_name_H-M "P -1"
_symmetry_group_IT_number 2
_symmetry_cell_setting 'triclinic'
loop_
_space_group_symop_operation_xyz
x,y,z
-x,-y,-z
loop_
_atom_site_type_symbol
_atom_site_label
_atom_site_fract_x
_atom_site_fract_y
_atom_site_fract_z
Si Si1 0.884727 0.302824 0.960267
Si Si2 0.969979 0.109359 0.150569
Si Si3 0.398419 0.361223 0.157754
Si Si4 0.691144 0.726044 0.457998
Si Si5 0.742006 0.544721 0.626037
Si Si6 0.477691 0.186009 0.343979
Si Si7 0.534132 0.466620 0.849098
Si Si8 0.957509 0.970038 0.713958
O O1 0.763722 0.407570 0.931503
O O2 0.724816 0.400821 0.072355
O O3 0.823639 0.151682 0.818198
O O4 0.208902 0.265231 0.020092
O O5 0.718833 0.264563 0.182698
O O6 0.902298 0.067136 0.189653
O O7 0.276028 0.099568 0.235045
O O8 0.000000 0.000000 0.000000
O O9 0.273480 0.446775 0.274793
O O10 0.379856 0.465017 0.155311
O O11 0.540673 0.737791 0.514325
O O12 0.539655 0.673984 0.308340
O O13 0.978357 0.583477 0.429875
O O14 0.766428 0.873909 0.577658
O O15 0.500000 0.500000 0.500000
O O16 0.672540 0.701297 0.681600
O O17 0.790149 0.091402 0.330376
#
# Coordination Sequence:
#
# PCOD9056454 Si02
#       8
#     2   2   2   2   2   2   2   2
#     4  11  26  46  68  93 130 172 223 279 318 380
#     4  11  23  36  62  96 135 171 202 259 329 400
#     4  12  23  40  66  97 128 168 218 268 320 382
#     4  11  23  41  66  95 131 174 216 268 323 386
#     4  12  20  37  62  96 129 168 206 260 319 388
#     4  11  22  39  60  99 136 169 207 261 323 397
#     4  11  25  46  70  94 123 174 231 273 319 372
#     4  11  24  42  63 100 136 168 213 261 337 394
#
# _framework density 20.739567999999998
#
# number of rings (size 3 to 8) (size 9 to 14) (size 15 to 20)
#    0.000    0.750    3.750    4.500    1.750    2.500 
#    0.000    0.625    0.000    0.000    0.000    0.000 
#    0.000    0.000    0.000    0.000    0.000    0.000 
#
# Total GULP energy -89308.090848 kJ/mol
# GULP energy per Si atom -5581.755678 kJ/mol
# Density = 2.069236 g / cm^3
# Si number density = 20.739568 Si / 1000 Ang^3
#
#
#
# Elastic Constant Matrix: (Units=GPa)
#
#
# Indices 1 2 3 4 5 6 
#
# 1 104.6771 18.5097 53.7819 -2.6076 -26.8097 6.3789
# 2 18.5097 46.0632 12.9474 2.4694 -10.9360 18.7567
# 3 53.7819 12.9474 99.3937 7.6018 -21.7572 7.8992
# 4 -2.6076 2.4694 7.6018 27.1342 1.7298 2.4505
# 5 -26.8097 -10.9360 -21.7572 1.7298 39.0899 -5.9213
# 6 6.3789 18.7567 7.8992 2.4505 -5.9213 18.4351
#
#
#
# Elastic Compliance Matrix: (Units=1/GPa)
#
#
# Indices 1 2 3 4 5 6 
#
# 1 0.015233 -0.004474 -0.006930 0.003112 0.005759 0.003687
# 2 -0.004474 0.039388 0.000998 -0.001050 0.002810 -0.037912
# 3 -0.006930 0.000998 0.015120 -0.004932 0.003666 -0.003264
# 4 0.003112 -0.001050 -0.004932 0.039214 -0.003269 -0.004159
# 5 0.005759 0.002810 0.003666 -0.003269 0.033212 0.004679
# 6 0.003687 -0.037912 -0.003264 -0.004159 0.004679 0.094997
#
#
# Mechanical properties :
#
#
# Convention : Reuss Voigt Hill
#
# Bulk Modulus (GPa) = 20.43762 46.73465 33.58613
# Shear Modulus (GPa) = 18.22932 27.92485 23.07708
#
# Velocity S-wave (km/s) = 2.96795 3.67339 3.33935
# Velocity P-wave (km/s) = 4.64981 6.36982 5.57653
#
# Compressibility (1/GPa) = 0.04892938
#
# Stress axis : x y z
#
# Youngs Moduli (GPa) = 65.64808 25.38869 66.13864
#
# Poissons Ratio (x) = 0.11358 0.45834
# Poissons Ratio (y) = 0.29370 -0.06604
# Poissons Ratio (z) = 0.45494 -0.02535
#
# Static dielectric constant tensor:
#      x y z
#    x 1.025320 -0.372650 -0.400490 
#    y -0.372650 1.538520 -0.202570 
#    z -0.400490 -0.202570 1.550790 
# 
# From -- ./inp_files/69114.got.cif
#   From: 2010.05.17/outbox.cif.g08.bks.cpg/sg2_35_cif.got.tgz:69114.got - 2010.06.03 11:33:40.
