data_PCOD9056892
_publ_section_title
;
Structure prediction by ZEFSAII (Michael W. Deem and Ramdas Pophale) SiO2 
 PCOD9056892
Probable space group: P -1
;
_chemical_formula_sum "Si O2"
_cell_formula_units_Z 14
_cell_length_a 7.589924
_cell_length_b 18.636049
_cell_length_c 6.537274
_cell_angle_alpha 128.585070
_cell_angle_beta 119.495658
_cell_angle_gamma 48.070227
_cell_volume 533.174282
_symmetry_space_group_name_H-M "P -1"
_symmetry_group_IT_number 2
_symmetry_cell_setting 'triclinic'
loop_
_space_group_symop_operation_xyz
x,y,z
-x,-y,-z
loop_
_atom_site_type_symbol
_atom_site_label
_atom_site_fract_x
_atom_site_fract_y
_atom_site_fract_z
Si Si1 0.246479 0.314623 0.074385
Si Si2 0.780524 0.471970 0.863444
Si Si3 0.967825 0.356092 0.377566
Si Si4 0.275958 0.822727 0.735021
Si Si5 0.399524 0.086910 0.858033
Si Si6 0.794567 0.871960 0.738057
Si Si7 0.633756 0.340314 0.830408
O O1 0.145241 0.360426 0.325779
O O2 0.525890 0.271535 0.167138
O O3 0.249729 0.200906 0.853177
O O4 0.052617 0.405480 0.980068
O O5 0.668124 0.406498 0.785074
O O6 0.794358 0.456015 0.599980
O O7 0.625453 0.587163 0.088883
O O8 0.126565 0.252864 0.429603
O O9 0.623142 0.098675 0.073484
O O10 0.303227 0.770448 0.435651
O O11 0.013501 0.872063 0.758954
O O12 0.192821 0.668205 0.905302
O O13 0.540583 0.961060 0.651124
O O14 0.245418 0.099649 0.991888
#
# Coordination Sequence:
#
# PCOD9056892 Si02
#       7
#     2   2   2   2   2   2   2
#     4   8  20  36  57  84 123 145 198 248 283 352
#     4  10  19  38  59  83 117 164 197 237 299 346
#     4  10  19  37  58  82 119 155 200 242 285 351
#     4  10  19  37  58  90 124 146 195 250 290 349
#     4   8  19  35  61  91 119 149 199 239 286 367
#     4  10  17  36  64  82 122 160 186 239 303 342
#     4  10  21  34  60  88 117 154 202 245 289 348
#
# _framework density 26.257829999999998
#
# number of rings (size 3 to 8) (size 9 to 14) (size 15 to 20)
#    0.857    1.714    1.429    0.857    0.000    0.571 
#    2.571    2.143    6.286    0.000    0.000    0.000 
#    0.000    0.000    0.000    0.000    0.000    0.000 
#
# Total GULP energy -78223.527041 kJ/mol
# GULP energy per Si atom -5587.394789 kJ/mol
# Density = 2.619807 g / cm^3
# Si number density = 26.257830 Si / 1000 Ang^3
#
#
#
# Elastic Constant Matrix: (Units=GPa)
#
#
# Indices 1 2 3 4 5 6 
#
# 1 87.1079 13.6972 33.3109 16.9652 -33.0553 -11.3589
# 2 13.6972 130.4730 49.6695 6.5383 -11.7111 -20.6261
# 3 33.3109 49.6695 113.5204 17.1232 -21.3134 -14.2763
# 4 16.9652 6.5383 17.1232 50.3791 -7.3834 -11.9816
# 5 -33.0553 -11.7111 -21.3134 -7.3834 38.2172 9.9354
# 6 -11.3589 -20.6261 -14.2763 -11.9816 9.9354 44.8863
#
#
#
# Elastic Compliance Matrix: (Units=1/GPa)
#
#
# Indices 1 2 3 4 5 6 
#
# 1 0.018285 0.000435 -0.002428 -0.003327 0.013930 0.000083
# 2 0.000435 0.009668 -0.003978 0.000822 0.000390 0.003420
# 3 -0.002428 -0.003978 0.012195 -0.002337 0.002991 0.000150
# 4 -0.003327 0.000822 -0.002337 0.022734 -0.000850 0.005049
# 5 0.013930 0.000390 0.002991 -0.000850 0.041049 -0.004657
# 6 0.000083 0.003420 0.000150 0.005049 -0.004657 0.026298
#
#
# Mechanical properties :
#
#
# Convention : Reuss Voigt Hill
#
# Bulk Modulus (GPa) = 35.45427 58.27298 46.86362
# Shear Modulus (GPa) = 32.98735 42.32476 37.65605
#
# Velocity S-wave (km/s) = 3.54826 4.01919 3.79104
# Velocity P-wave (km/s) = 5.50623 6.61659 6.08678
#
# Compressibility (1/GPa) = 0.02820535
#
# Stress axis : x y z
#
# Youngs Moduli (GPa) = 54.68902 103.43666 81.99985
#
# Poissons Ratio (x) = -0.04500 0.19910
# Poissons Ratio (y) = -0.02379 0.32622
# Poissons Ratio (z) = 0.13279 0.41150
#
# Static dielectric constant tensor:
#      x y z
#    x 2.070340 0.044430 0.040890 
#    y 0.044430 2.128060 0.000600 
#    z 0.040890 0.000600 2.065980 
# 
# From -- ./inp_files/51672.got.cif
#   From: 2010.05.17/outbox.cif.g08.bks.cpg/sg2_26_cif.got.tgz:51672.got - 2010.06.03 11:33:40.
