data_PCOD9056547
_publ_section_title
;
Structure prediction by ZEFSAII (Michael W. Deem and Ramdas Pophale) SiO2 
 PCOD9056547
Probable space group: P -1
;
_chemical_formula_sum "Si O2"
_cell_formula_units_Z 16
_cell_length_a 33.631519
_cell_length_b 15.708730
_cell_length_c 9.909676
_cell_angle_alpha 139.119458
_cell_angle_beta 33.013487
_cell_angle_gamma 162.712072
_cell_volume 814.893525
_symmetry_space_group_name_H-M "P -1"
_symmetry_group_IT_number 2
_symmetry_cell_setting 'triclinic'
loop_
_space_group_symop_operation_xyz
x,y,z
-x,-y,-z
loop_
_atom_site_type_symbol
_atom_site_label
_atom_site_fract_x
_atom_site_fract_y
_atom_site_fract_z
Si Si1 0.711965 0.281731 0.118009
Si Si2 0.401909 0.180334 0.756995
Si Si3 0.584653 0.770684 0.539772
Si Si4 0.077420 0.248029 0.148123
Si Si5 0.256555 0.153561 0.347779
Si Si6 0.366817 0.681042 0.054911
Si Si7 0.804786 0.154907 0.624933
Si Si8 0.339442 0.783127 0.519972
O O1 0.756374 0.391892 0.276480
O O2 0.533097 0.056568 0.323703
O O3 0.840178 0.532112 0.939425
O O4 0.703619 0.112501 0.928453
O O5 0.380238 0.175751 0.655249
O O6 0.597741 0.507375 0.633884
O O7 0.336116 0.929967 0.669899
O O8 0.312363 0.143644 0.060841
O O9 0.500000 0.500000 0.500000
O O10 0.744804 0.047490 0.512631
O O11 0.462653 0.698951 0.824125
O O12 0.220829 0.436751 0.068948
O O13 0.922868 0.074399 0.447515
O O14 0.000000 0.000000 0.000000
O O15 0.238669 0.043432 0.405316
O O16 0.292310 0.619439 0.331185
O O17 0.500000 0.000000 0.000000
O O18 0.000000 0.500000 0.500000
#
# Coordination Sequence:
#
# PCOD9056547 Si02
#       8
#     2   2   2   2   2   2   2   2
#     4  11  22  40  65  97 129 172 219 269 325 397
#     4  11  23  43  67  97 132 174 224 274 336 398
#     4  12  24  42  67  98 129 178 223 273 330 398
#     4  12  25  45  68  95 135 177 217 271 336 397
#     4  11  24  42  65  99 132 174 217 273 337 398
#     4  12  23  43  70  98 132 176 229 272 325 401
#     4  12  23  40  65  96 132 169 216 271 331 393
#     4  11  22  39  67  98 128 174 226 273 322 393
#
# _framework density 19.634466
#
# number of rings (size 3 to 8) (size 9 to 14) (size 15 to 20)
#    0.000    0.500    7.500    1.500    0.000    0.000 
#    4.500    1.875    0.000    0.000    0.000    0.000 
#    0.000    0.000    0.000    0.000    0.000    0.000 
#
# Total GULP energy -89451.086072 kJ/mol
# GULP energy per Si atom -5590.692880 kJ/mol
# Density = 1.958978 g / cm^3
# Si number density = 19.634466 Si / 1000 Ang^3
#
#
#
# Elastic Constant Matrix: (Units=GPa)
#
#
# Indices 1 2 3 4 5 6 
#
# 1 96.3924 41.3415 29.7782 10.7824 0.3312 25.5091
# 2 41.3415 89.0794 27.9917 5.6529 -5.7035 26.9518
# 3 29.7782 27.9917 76.7813 6.1489 3.6837 18.2971
# 4 10.7824 5.6529 6.1489 29.7500 2.5057 -0.7437
# 5 0.3312 -5.7035 3.6837 2.5057 38.2548 11.5570
# 6 25.5091 26.9518 18.2971 -0.7437 11.5570 36.7733
#
#
#
# Elastic Compliance Matrix: (Units=1/GPa)
#
#
# Indices 1 2 3 4 5 6 
#
# 1 0.015162 -0.003567 -0.002546 -0.004655 0.002122 -0.007397
# 2 -0.003567 0.017646 -0.002475 -0.002376 0.006472 -0.011310
# 3 -0.002546 -0.002475 0.016132 -0.002011 -0.000456 -0.004344
# 4 -0.004655 -0.002376 -0.002011 0.036799 -0.005038 0.008299
# 5 0.002122 0.006472 -0.000456 -0.005038 0.032375 -0.016265
# 6 -0.007397 -0.011310 -0.004344 0.008299 -0.016265 0.048055
#
#
# Mechanical properties :
#
#
# Convention : Reuss Voigt Hill
#
# Bulk Modulus (GPa) = 31.48257 51.16398 41.32328
# Shear Modulus (GPa) = 25.78217 31.83174 28.80696
#
# Velocity S-wave (km/s) = 3.62761 4.03080 3.83451
# Velocity P-wave (km/s) = 5.79787 6.91216 6.37939
#
# Compressibility (1/GPa) = 0.03176361
#
# Stress axis : x y z
#
# Youngs Moduli (GPa) = 65.95596 56.66956 61.98946
#
# Poissons Ratio (x) = 0.20215 0.15782
# Poissons Ratio (y) = 0.23528 0.15341
# Poissons Ratio (z) = 0.16792 0.14025
#
# Static dielectric constant tensor:
#      x y z
#    x 1.817780 -0.230200 0.023440 
#    y -0.230200 2.079380 -0.024030 
#    z 0.023440 -0.024030 1.700240 
# 
# From -- ./inp_files/358807.got.cif
#   From: 2010.05.17/outbox.cif.g08.bks.cpg/sg2_180_cif.got.tgz:358807.got - 2010.06.03 11:33:40.
