data_PCOD9056740
_publ_section_title
;
Structure prediction by ZEFSAII (Michael W. Deem and Ramdas Pophale) SiO2 
 PCOD9056740
Probable space group: P -1
;
_chemical_formula_sum "Si O2"
_cell_formula_units_Z 16
_cell_length_a 18.340470
_cell_length_b 11.296306
_cell_length_c 18.634918
_cell_angle_alpha 147.029588
_cell_angle_beta 22.326100
_cell_angle_gamma 148.123001
_cell_volume 746.548808
_symmetry_space_group_name_H-M "P -1"
_symmetry_group_IT_number 2
_symmetry_cell_setting 'triclinic'
loop_
_space_group_symop_operation_xyz
x,y,z
-x,-y,-z
loop_
_atom_site_type_symbol
_atom_site_label
_atom_site_fract_x
_atom_site_fract_y
_atom_site_fract_z
Si Si1 0.486052 0.555245 0.456245
Si Si2 0.223136 0.465230 0.082974
Si Si3 0.075165 0.303530 0.296138
Si Si4 0.157388 0.612226 0.978471
Si Si5 0.886907 0.455242 0.285000
Si Si6 0.417934 0.151512 0.981086
Si Si7 0.630026 0.927178 0.283433
Si Si8 0.627752 0.081497 0.611644
O O1 0.500000 0.500000 0.500000
O O2 0.680339 0.515063 0.227451
O O3 0.300038 0.455140 0.517861
O O4 0.494162 0.814894 0.588320
O O5 0.149457 0.357392 0.174311
O O6 0.432808 0.685621 0.012712
O O7 0.039369 0.537326 0.255162
O O8 0.265731 0.264330 0.895067
O O9 0.000000 0.500000 0.500000
O O10 0.858164 0.094540 0.393934
O O11 0.254155 0.259278 0.154772
O O12 0.287384 0.885608 0.986159
O O13 0.000000 0.500000 0.000000
O O14 0.025486 0.551886 0.138992
O O15 0.799547 0.173531 0.231001
O O16 0.573557 0.155118 0.775676
O O17 0.463580 0.805887 0.310709
O O18 0.500000 0.000000 0.500000
#
# Coordination Sequence:
#
# PCOD9056740 Si02
#       8
#     2   2   2   2   2   2   2   2
#     4  11  22  41  70  98 135 177 240 292 333 417
#     4  12  26  46  68 104 150 182 237 294 360 429
#     4  12  24  42  72 100 140 186 230 285 358 419
#     4  12  24  45  74 102 139 185 243 294 344 419
#     4  11  27  43  67 105 137 187 232 288 359 414
#     4  12  25  45  70 105 143 186 238 294 349 424
#     4  11  24  45  72 101 144 185 233 299 357 419
#     4  11  22  40  68 103 132 178 239 290 352 406
#
# _framework density 21.431954000000001
#
# number of rings (size 3 to 8) (size 9 to 14) (size 15 to 20)
#    0.000    0.500    5.000    3.750    5.250    0.500 
#    0.000    0.625    0.000    0.000    0.000    0.000 
#    0.000    0.000    0.000    0.000    0.000    0.000 
#
# Total GULP energy -89235.905640 kJ/mol
# GULP energy per Si atom -5577.244103 kJ/mol
# Density = 2.138317 g / cm^3
# Si number density = 21.431954 Si / 1000 Ang^3
#
#
#
# Elastic Constant Matrix: (Units=GPa)
#
#
# Indices 1 2 3 4 5 6 
#
# 1 95.5417 32.1603 24.7316 -8.5963 -32.6256 12.1536
# 2 32.1603 79.3431 11.8026 -14.5878 7.2546 8.1529
# 3 24.7316 11.8026 108.8376 -6.4827 -16.2914 4.4114
# 4 -8.5963 -14.5878 -6.4827 31.5308 4.3497 -5.1189
# 5 -32.6256 7.2546 -16.2914 4.3497 49.0958 -9.9137
# 6 12.1536 8.1529 4.4114 -5.1189 -9.9137 21.4561
#
#
#
# Elastic Compliance Matrix: (Units=1/GPa)
#
#
# Indices 1 2 3 4 5 6 
#
# 1 0.017954 -0.008322 -0.001314 -0.001156 0.012585 -0.001198
# 2 -0.008322 0.018894 -0.001087 0.006802 -0.010379 -0.005415
# 3 -0.001314 -0.001087 0.010033 0.000924 0.002643 0.000536
# 4 -0.001156 0.006802 0.000924 0.036020 -0.003695 0.004766
# 5 0.012585 -0.010379 0.002643 -0.003695 0.033681 0.010952
# 6 -0.001198 -0.005415 0.000536 0.004766 0.010952 0.055431
#
#
# Mechanical properties :
#
#
# Convention : Reuss Voigt Hill
#
# Bulk Modulus (GPa) = 39.31375 46.79015 43.05195
# Shear Modulus (GPa) = 24.76011 34.75174 29.75592
#
# Velocity S-wave (km/s) = 3.40264 4.03114 3.73015
# Velocity P-wave (km/s) = 5.81555 6.59895 6.21960
#
# Compressibility (1/GPa) = 0.02543639
#
# Stress axis : x y z
#
# Youngs Moduli (GPa) = 55.69793 52.92609 99.66736
#
# Poissons Ratio (x) = 0.44045 0.13094
# Poissons Ratio (y) = 0.46352 0.10832
# Poissons Ratio (z) = 0.07317 0.05752
#
# Static dielectric constant tensor:
#      x y z
#    x 2.277500 0.046240 -0.015570 
#    y 0.046240 1.925000 0.013150 
#    z -0.015570 0.013150 1.813770 
# 
# From -- ./inp_files/601447.got.cif
#   From: 2010.05.17/outbox.cif.g08.bks.cpg/sg2_301_cif.got.tgz:601447.got - 2010.06.03 11:33:40.
