data_PCOD9056093
_publ_section_title
;
Structure prediction by ZEFSAII (Michael W. Deem and Ramdas Pophale) SiO2 
 PCOD9056093
Probable space group: P -1
;
_chemical_formula_sum "Si O2"
_cell_formula_units_Z 16
_cell_length_a 15.057656
_cell_length_b 9.054937
_cell_length_c 15.296343
_cell_angle_alpha 38.383237
_cell_angle_beta 43.503952
_cell_angle_gamma 35.845865
_cell_volume 734.797383
_symmetry_space_group_name_H-M "P -1"
_symmetry_group_IT_number 2
_symmetry_cell_setting 'triclinic'
loop_
_space_group_symop_operation_xyz
x,y,z
-x,-y,-z
loop_
_atom_site_type_symbol
_atom_site_label
_atom_site_fract_x
_atom_site_fract_y
_atom_site_fract_z
Si Si1 0.139018 0.525475 0.987689
Si Si2 0.361528 0.463318 0.194766
Si Si3 0.822835 0.539965 0.203178
Si Si4 0.707322 0.109698 0.089347
Si Si5 0.816957 0.198949 0.513686
Si Si6 0.759138 0.709216 0.790750
Si Si7 0.320145 0.277440 0.493366
Si Si8 0.085648 0.112729 0.792079
O O1 0.219930 0.406710 0.892013
O O2 0.079929 0.860448 0.869646
O O3 0.246440 0.371027 0.067458
O O4 0.994189 0.488742 0.114216
O O5 0.540287 0.352965 0.134799
O O6 0.357513 0.283579 0.199573
O O7 0.294830 0.421902 0.349255
O O8 0.275180 0.779178 0.067507
O O9 0.814952 0.299207 0.369527
O O10 0.709340 0.828784 0.203936
O O11 0.844884 0.017263 0.101110
O O12 0.729054 0.474533 0.513845
O O13 0.753751 0.998252 0.658541
O O14 0.000000 0.000000 0.500000
O O15 0.927034 0.428445 0.768406
O O16 0.210275 0.161974 0.637291
O O17 0.500000 0.000000 0.500000
#
# Coordination Sequence:
#
# PCOD9056093 Si02
#       8
#     2   2   2   2   2   2   2   2
#     4  11  23  38  67  96 126 173 222 270 327 391
#     4  11  26  40  69  98 131 172 225 271 332 392
#     4  11  23  42  64  94 135 175 218 268 344 387
#     4  11  21  46  66  92 131 177 218 273 329 399
#     4  12  23  43  66  97 138 172 217 283 330 387
#     4  12  24  43  64 104 133 169 223 285 323 387
#     4  12  25  46  69  95 134 182 220 264 343 404
#     4  12  22  44  69  93 136 173 223 274 330 389
#
# _framework density 21.774709999999999
#
# number of rings (size 3 to 8) (size 9 to 14) (size 15 to 20)
#    0.000    0.500    7.500    1.125    3.500    1.500 
#    2.250    1.875    0.000    0.000    0.000    0.000 
#    0.000    0.000    0.000    0.000    0.000    0.000 
#
# Total GULP energy -89399.821981 kJ/mol
# GULP energy per Si atom -5587.488874 kJ/mol
# Density = 2.172515 g / cm^3
# Si number density = 21.774710 Si / 1000 Ang^3
#
#
#
# Elastic Constant Matrix: (Units=GPa)
#
#
# Indices 1 2 3 4 5 6 
#
# 1 60.0348 14.9609 19.9311 3.6702 1.0393 7.8042
# 2 14.9609 65.4715 13.1807 -7.4575 -5.7907 2.9211
# 3 19.9311 13.1807 161.1375 -8.7242 7.2044 16.2599
# 4 3.6702 -7.4575 -8.7242 32.6199 10.9690 -2.1294
# 5 1.0393 -5.7907 7.2044 10.9690 36.5675 -3.1412
# 6 7.8042 2.9211 16.2599 -2.1294 -3.1412 38.1543
#
#
#
# Elastic Compliance Matrix: (Units=1/GPa)
#
#
# Indices 1 2 3 4 5 6 
#
# 1 0.018967 -0.004249 -0.001911 -0.003829 0.000060 -0.002949
# 2 -0.004249 0.016962 -0.000784 0.003514 0.001929 0.000260
# 3 -0.001911 -0.000784 0.007017 0.002565 -0.002445 -0.002597
# 4 -0.003829 0.003514 0.002565 0.036194 -0.010648 0.000564
# 5 0.000060 0.001929 -0.002445 -0.010648 0.031574 0.002887
# 6 -0.002949 0.000260 -0.002597 0.000564 0.002887 0.028169
#
#
# Mechanical properties :
#
#
# Convention : Reuss Voigt Hill
#
# Bulk Modulus (GPa) = 34.41419 42.53213 38.47316
# Shear Modulus (GPa) = 30.77771 37.37310 34.07540
#
# Velocity S-wave (km/s) = 3.76368 4.14738 3.96018
# Velocity P-wave (km/s) = 5.89288 6.51994 6.21432
#
# Compressibility (1/GPa) = 0.02905778
#
# Stress axis : x y z
#
# Youngs Moduli (GPa) = 52.72446 58.95570 142.51821
#
# Poissons Ratio (x) = 0.25048 0.27234
# Poissons Ratio (y) = 0.22401 0.11175
# Poissons Ratio (z) = 0.10075 0.04623
#
# Static dielectric constant tensor:
#      x y z
#    x 1.819290 -0.009170 0.006250 
#    y -0.009170 1.795050 -0.004500 
#    z 0.006250 -0.004500 1.817890 
# 
# From -- ./inp_files/528070.got.cif
#   From: 2010.05.17/outbox.cif.g08.bks.cpg/sg2_265_cif.got.tgz:528070.got - 2010.06.03 11:33:40.
