data_PCOD9056866
_publ_section_title
;
Structure prediction by ZEFSAII (Michael W. Deem and Ramdas Pophale) SiO2 
 PCOD9056866
Probable space group: P -1
;
_chemical_formula_sum "Si O2"
_cell_formula_units_Z 16
_cell_length_a 15.653861
_cell_length_b 11.937766
_cell_length_c 15.171583
_cell_angle_alpha 28.939023
_cell_angle_beta 140.121412
_cell_angle_gamma 118.783019
_cell_volume 695.149270
_symmetry_space_group_name_H-M "P -1"
_symmetry_group_IT_number 2
_symmetry_cell_setting 'triclinic'
loop_
_space_group_symop_operation_xyz
x,y,z
-x,-y,-z
loop_
_atom_site_type_symbol
_atom_site_label
_atom_site_fract_x
_atom_site_fract_y
_atom_site_fract_z
Si Si1 0.116350 0.589090 0.677878
Si Si2 0.821915 0.350325 0.698584
Si Si3 0.758853 0.649333 0.749275
Si Si4 0.786730 0.905019 0.304761
Si Si5 0.500588 0.535262 0.580124
Si Si6 0.118587 0.051336 0.461041
Si Si7 0.320701 0.067566 0.321007
Si Si8 0.827484 0.245867 0.574269
O O1 0.162546 0.594214 0.610560
O O2 0.918772 0.781762 0.413243
O O3 0.173922 0.751514 0.668830
O O4 0.207641 0.268292 0.010792
O O5 0.768605 0.654266 0.485284
O O6 0.687813 0.295463 0.652054
O O7 0.827386 0.365402 0.586818
O O8 0.000812 0.087947 0.060477
O O9 0.595178 0.669513 0.588556
O O10 0.769063 0.860696 0.549463
O O11 0.761819 0.739851 0.788722
O O12 0.927472 0.317422 0.097127
O O13 0.864992 0.952016 0.418733
O O14 0.612653 0.211419 0.933618
O O15 0.500000 0.500000 0.500000
O O16 0.500000 0.000000 0.500000
O O17 0.319740 0.790865 0.520276
#
# Coordination Sequence:
#
# PCOD9056866 Si02
#       8
#     2   2   2   2   2   2   2   2
#     4  12  23  43  73 100 133 176 227 278 345 405
#     4  11  25  46  66  96 143 183 228 276 328 410
#     4  11  22  41  69 102 138 172 220 286 353 395
#     4  12  23  43  71 101 134 179 229 281 346 404
#     4  12  25  42  65 104 140 179 227 283 340 401
#     4  11  22  40  75 103 131 172 224 292 345 407
#     4  12  25  46  68 100 137 176 229 287 340 400
#     4  11  25  48  69  96 138 187 230 273 331 413
#
# _framework density 23.016639999999999
#
# number of rings (size 3 to 8) (size 9 to 14) (size 15 to 20)
#    0.000    0.500    5.000    3.750    1.750    1.000 
#    6.750    0.000    0.000    0.000    0.000    0.000 
#    0.000    0.000    0.000    0.000    0.000    0.000 
#
# Total GULP energy -89645.897140 kJ/mol
# GULP energy per Si atom -5602.868571 kJ/mol
# Density = 2.296425 g / cm^3
# Si number density = 23.016640 Si / 1000 Ang^3
#
#
#
# Elastic Constant Matrix: (Units=GPa)
#
#
# Indices 1 2 3 4 5 6 
#
# 1 112.9503 11.2134 4.3543 9.6588 -15.5854 5.2632
# 2 11.2134 82.0344 1.4524 6.9172 -4.9764 14.3951
# 3 4.3543 1.4524 21.8848 6.4174 -1.0449 4.6152
# 4 9.6588 6.9172 6.4174 28.0486 3.5155 0.6923
# 5 -15.5854 -4.9764 -1.0449 3.5155 34.4238 12.2006
# 6 5.2632 14.3951 4.6152 0.6923 12.2006 44.9587
#
#
#
# Elastic Compliance Matrix: (Units=1/GPa)
#
#
# Indices 1 2 3 4 5 6 
#
# 1 0.010172 -0.000211 0.000054 -0.004143 0.005949 -0.002680
# 2 -0.000211 0.013805 0.001754 -0.004144 0.004399 -0.005705
# 3 0.000054 0.001754 0.051058 -0.012665 0.005655 -0.007149
# 4 -0.004143 -0.004144 -0.012665 0.041991 -0.008875 0.004874
# 5 0.005949 0.004399 0.005655 -0.008875 0.038017 -0.012866
# 6 -0.002680 -0.005705 -0.007149 0.004874 -0.012866 0.028533
#
#
# Mechanical properties :
#
#
# Convention : Reuss Voigt Hill
#
# Bulk Modulus (GPa) = 12.78284 27.87886 20.33085
# Shear Modulus (GPa) = 24.21788 34.80953 29.51370
#
# Velocity S-wave (km/s) = 3.24727 3.89313 3.58477
# Velocity P-wave (km/s) = 4.43006 5.68748 5.09769
#
# Compressibility (1/GPa) = 0.07822989
#
# Stress axis : x y z
#
# Youngs Moduli (GPa) = 98.30544 72.43640 19.58552
#
# Poissons Ratio (x) = 0.01528 -0.00106
# Poissons Ratio (y) = 0.02074 -0.03435
# Poissons Ratio (z) = -0.00531 -0.12706
#
# Static dielectric constant tensor:
#      x y z
#    x 1.863690 0.023540 0.010000 
#    y 0.023540 1.842110 -0.004170 
#    z 0.010000 -0.004170 1.815180 
# 
# From -- ./inp_files/433476.got.cif
#   From: 2010.05.17/outbox.cif.g08.bks.cpg/sg2_217_cif.got.tgz:433476.got - 2010.06.03 11:33:40.
