data_PCOD9056491
_publ_section_title
;
Structure prediction by ZEFSAII (Michael W. Deem and Ramdas Pophale) SiO2 
 PCOD9056491
Probable space group: P -1
;
_chemical_formula_sum "Si O2"
_cell_formula_units_Z 14
_cell_length_a 10.162439
_cell_length_b 7.732957
_cell_length_c 10.781534
_cell_angle_alpha 104.700375
_cell_angle_beta 38.211891
_cell_angle_gamma 111.641103
_cell_volume 486.201005
_symmetry_space_group_name_H-M "P -1"
_symmetry_group_IT_number 2
_symmetry_cell_setting 'triclinic'
loop_
_space_group_symop_operation_xyz
x,y,z
-x,-y,-z
loop_
_atom_site_type_symbol
_atom_site_label
_atom_site_fract_x
_atom_site_fract_y
_atom_site_fract_z
Si Si1 0.212880 0.203148 0.098453
Si Si2 0.342562 0.886162 0.822100
Si Si3 0.161501 0.438415 0.674060
Si Si4 0.180133 0.803981 0.289604
Si Si5 0.271310 0.800157 0.501884
Si Si6 0.419845 0.234663 0.182331
Si Si7 0.140324 0.351643 0.933988
O O1 0.289903 0.317957 0.188947
O O2 0.947561 0.142887 0.285108
O O3 0.280882 0.308024 0.936460
O O4 0.303590 0.023403 0.985180
O O5 0.467958 0.740530 0.758974
O O6 0.096805 0.805676 0.937169
O O7 0.514531 0.023454 0.629470
O O8 0.282481 0.627644 0.547835
O O9 0.954739 0.487733 0.906817
O O10 0.054641 0.288118 0.620416
O O11 0.256420 0.374451 0.717514
O O12 0.211659 0.736734 0.392099
O O13 0.248414 0.027774 0.286550
O O14 0.364720 0.755753 0.059169
#
# Coordination Sequence:
#
# PCOD9056491 Si02
#       7
#     2   2   2   2   2   2   2
#     4  11  20  37  60  98 114 149 206 246 289 354
#     4  11  20  41  63  87 121 158 192 251 295 346
#     4  10  20  38  59  86 122 163 194 236 302 357
#     4  10  17  36  62  85 116 159 188 245 298 345
#     4  10  23  35  64  93 116 154 201 247 297 344
#     4  10  18  36  65  86 115 153 198 243 298 340
#     4  10  22  37  63  86 120 165 197 234 300 357
#
# _framework density 28.794678000000001
#
# number of rings (size 3 to 8) (size 9 to 14) (size 15 to 20)
#    0.000    1.714    5.714    0.857    0.000    4.571 
#    0.000    3.571    0.000    5.143    0.000    0.000 
#    0.000    0.000    0.000    0.000    0.000    0.000 
#
# Total GULP energy -78238.802376 kJ/mol
# GULP energy per Si atom -5588.485884 kJ/mol
# Density = 2.872914 g / cm^3
# Si number density = 28.794678 Si / 1000 Ang^3
#
#
#
# Elastic Constant Matrix: (Units=GPa)
#
#
# Indices 1 2 3 4 5 6 
#
# 1 208.6432 45.7258 69.5676 -17.6512 47.9562 -0.7214
# 2 45.7258 62.0369 32.5357 -8.7276 6.4343 22.3400
# 3 69.5676 32.5357 148.7185 -33.1576 22.2581 -4.2420
# 4 -17.6512 -8.7276 -33.1576 40.3558 -7.9659 9.0892
# 5 47.9562 6.4343 22.2581 -7.9659 68.2611 0.7243
# 6 -0.7214 22.3400 -4.2420 9.0892 0.7243 44.2373
#
#
#
# Elastic Compliance Matrix: (Units=1/GPa)
#
#
# Indices 1 2 3 4 5 6 
#
# 1 0.007474 -0.005259 -0.001810 -0.000844 -0.004294 0.002848
# 2 -0.005259 0.027745 -0.003377 0.004993 0.002927 -0.015495
# 3 -0.001810 -0.003377 0.009841 0.006068 -0.000925 0.001388
# 4 -0.000844 0.004993 0.006068 0.032852 0.002070 -0.008738
# 5 -0.004294 0.002927 -0.000925 0.002070 0.017959 -0.002356
# 6 0.002848 -0.015495 0.001388 -0.008738 -0.002356 0.032444
#
#
# Mechanical properties :
#
#
# Convention : Reuss Voigt Hill
#
# Bulk Modulus (GPa) = 41.37592 79.45076 60.41334
# Shear Modulus (GPa) = 31.79403 48.67547 40.23475
#
# Velocity S-wave (km/s) = 3.32650 4.11595 3.74210
# Velocity P-wave (km/s) = 5.39950 7.08803 6.30058
#
# Compressibility (1/GPa) = 0.02416865
#
# Stress axis : x y z
#
# Youngs Moduli (GPa) = 133.79263 36.04245 101.61918
#
# Poissons Ratio (x) = 0.18953 0.18396
# Poissons Ratio (y) = 0.70356 0.34315
# Poissons Ratio (z) = 0.24220 0.12171
#
# Static dielectric constant tensor:
#      x y z
#    x 2.489010 -0.038180 0.055920 
#    y -0.038180 2.345330 0.004730 
#    z 0.055920 0.004730 2.241490 
# 
# From -- ./inp_files/421423.got.cif
#   From: 2010.05.17/outbox.cif.g08.bks.cpg/sg2_211_cif.got.tgz:421423.got - 2010.06.03 11:33:40.
