data_PCOD9056262
_publ_section_title
;
Structure prediction by ZEFSAII (Michael W. Deem and Ramdas Pophale) SiO2 
 PCOD9056262
Probable space group: P -1
;
_chemical_formula_sum "Si O2"
_cell_formula_units_Z 16
_cell_length_a 9.507779
_cell_length_b 25.483744
_cell_length_c 21.541034
_cell_angle_alpha 14.814874
_cell_angle_beta 30.600582
_cell_angle_gamma 36.104289
_cell_volume 667.528935
_symmetry_space_group_name_H-M "P -1"
_symmetry_group_IT_number 2
_symmetry_cell_setting 'triclinic'
loop_
_space_group_symop_operation_xyz
x,y,z
-x,-y,-z
loop_
_atom_site_type_symbol
_atom_site_label
_atom_site_fract_x
_atom_site_fract_y
_atom_site_fract_z
Si Si1 0.714996 0.368431 0.734720
Si Si2 0.178850 0.061904 0.799132
Si Si3 0.110720 0.302482 0.061880
Si Si4 0.221051 0.689638 0.942396
Si Si5 0.793678 0.536474 0.382829
Si Si6 0.140812 0.168702 0.450415
Si Si7 0.193199 0.820966 0.555856
Si Si8 0.170791 0.994295 0.124167
O O1 0.709353 0.148246 0.021041
O O2 0.751507 0.369656 0.645087
O O3 0.000000 0.500000 0.500000
O O4 0.422963 0.438321 0.781045
O O5 0.972874 0.090367 0.788805
O O6 0.480711 0.208707 0.530195
O O7 0.000000 0.000000 0.000000
O O8 0.907063 0.361934 0.018177
O O9 0.979118 0.294588 0.188897
O O10 0.156321 0.064946 0.299877
O O11 0.549880 0.693388 0.820195
O O12 0.181941 0.929971 0.693711
O O13 0.040055 0.551112 0.222203
O O14 0.500000 0.500000 0.500000
O O15 0.852881 0.763723 0.133226
O O16 0.950984 0.234285 0.392706
O O17 0.986209 0.145237 0.601585
O O18 0.500000 0.000000 0.000000
#
# Coordination Sequence:
#
# PCOD9056262 Si02
#       8
#     2   2   2   2   2   2   2   2
#     4  11  22  37  57  86 117 149 188 230 285 335
#     4  11  23  38  59  83 115 150 188 234 281 334
#     4   9  17  30  51  78 111 143 183 232 274 327
#     4   9  17  30  51  79 110 143 184 230 277 323
#     4  11  22  37  59  86 117 151 185 232 282 336
#     4   9  18  31  52  79 108 142 188 233 274 326
#     4   9  18  31  52  79 108 144 186 231 279 321
#     4  11  23  38  59  84 114 149 190 233 280 335
#
# _framework density 23.969000000000001
#
# number of rings (size 3 to 8) (size 9 to 14) (size 15 to 20)
#    0.000    2.000    2.500    1.500    5.250    3.000 
#    0.000    0.000    0.000    3.000    0.000    0.000 
#    0.000    0.000    0.000    0.000    0.000    0.000 
#
# Total GULP energy -89475.557581 kJ/mol
# GULP energy per Si atom -5592.222349 kJ/mol
# Density = 2.391445 g / cm^3
# Si number density = 23.969000 Si / 1000 Ang^3
#
#
#
# Elastic Constant Matrix: (Units=GPa)
#
#
# Indices 1 2 3 4 5 6 
#
# 1 256.7071 63.8147 85.2910 63.4526 -11.0201 -10.2770
# 2 63.8147 77.9711 48.7858 25.7359 0.0990 -5.3595
# 3 85.2910 48.7858 131.8087 55.4753 -10.4535 -12.8198
# 4 63.4526 25.7359 55.4753 72.3795 -5.2591 0.7064
# 5 -11.0201 0.0990 -10.4535 -5.2591 36.3515 10.1667
# 6 -10.2770 -5.3595 -12.8198 0.7064 10.1667 28.2304
#
#
#
# Elastic Compliance Matrix: (Units=1/GPa)
#
#
# Indices 1 2 3 4 5 6 
#
# 1 0.005877 -0.002937 -0.001282 -0.003078 0.000750 0.000807
# 2 -0.002937 0.018512 -0.004829 -0.000519 -0.002756 0.001258
# 3 -0.001282 -0.004829 0.014100 -0.007926 0.001193 0.004788
# 4 -0.003078 -0.000519 -0.007926 0.022964 0.001801 -0.006041
# 5 0.000750 -0.002756 0.001193 0.001801 0.031446 -0.011078
# 6 0.000807 0.001258 0.004788 -0.006041 -0.011078 0.042270
#
#
# Mechanical properties :
#
#
# Convention : Reuss Voigt Hill
#
# Bulk Modulus (GPa) = 49.03936 95.80778 72.42357
# Shear Modulus (GPa) = 31.23766 45.29863 38.26814
#
# Velocity S-wave (km/s) = 3.61398 4.35200 4.00004
# Velocity P-wave (km/s) = 6.15779 8.08155 7.18435
#
# Compressibility (1/GPa) = 0.02039178
#
# Stress axis : x y z
#
# Youngs Moduli (GPa) = 170.15253 54.01955 70.92235
#
# Poissons Ratio (x) = 0.15866 0.09094
# Poissons Ratio (y) = 0.49976 0.34249
# Poissons Ratio (z) = 0.21818 0.26087
#
# Static dielectric constant tensor:
#      x y z
#    x 1.849650 -0.005190 -0.012540 
#    y -0.005190 2.015770 -0.115030 
#    z -0.012540 -0.115030 1.969580 
# 
# From -- ./inp_files/182396.got.cif
#   From: 2010.05.17/outbox.cif.g08.bks.cpg/sg2_92_cif.got.tgz:182396.got - 2010.06.03 11:33:40.
