data_PCOD9056994
_publ_section_title
;
Structure prediction by ZEFSAII (Michael W. Deem and Ramdas Pophale) SiO2 
 PCOD9056994
Probable space group: P -1
;
_chemical_formula_sum "Si O2"
_cell_formula_units_Z 16
_cell_length_a 15.151931
_cell_length_b 12.233003
_cell_length_c 9.339569
_cell_angle_alpha 107.453389
_cell_angle_beta 84.515154
_cell_angle_gamma 151.156632
_cell_volume 742.276632
_symmetry_space_group_name_H-M "P -1"
_symmetry_group_IT_number 2
_symmetry_cell_setting 'triclinic'
loop_
_space_group_symop_operation_xyz
x,y,z
-x,-y,-z
loop_
_atom_site_type_symbol
_atom_site_label
_atom_site_fract_x
_atom_site_fract_y
_atom_site_fract_z
Si Si1 0.297337 0.327496 0.917686
Si Si2 0.574760 0.937984 0.073686
Si Si3 0.722977 0.467331 0.816529
Si Si4 0.158181 0.912672 0.442497
Si Si5 0.555885 0.302851 0.471808
Si Si6 0.235687 0.261112 0.573750
Si Si7 0.274298 0.642252 0.763476
Si Si8 0.881746 0.119019 0.222236
O O1 0.305675 0.366658 0.764733
O O2 0.140907 0.044704 0.844434
O O3 0.500000 0.500000 0.000000
O O4 0.244804 0.379858 0.035477
O O5 0.416182 0.771497 0.159102
O O6 0.712249 0.207587 0.150612
O O7 0.704968 0.979165 0.113312
O O8 0.441002 0.777343 0.890261
O O9 0.606447 0.371882 0.656895
O O10 0.916432 0.627147 0.792726
O O11 0.127212 0.859944 0.598545
O O12 0.945954 0.658356 0.302255
O O13 0.321557 0.020133 0.390091
O O14 0.259494 0.153637 0.500551
O O15 0.654886 0.525548 0.463876
O O16 0.662260 0.317010 0.390595
O O17 0.000000 0.000000 0.500000
#
# Coordination Sequence:
#
# PCOD9056994 Si02
#       8
#     2   2   2   2   2   2   2   2
#     4  11  22  41  67  97 141 175 215 269 334 396
#     4  11  26  48  69  95 133 175 227 285 332 390
#     4  12  23  43  69 102 135 175 223 271 335 400
#     4  11  23  43  67 100 135 175 222 271 332 403
#     4  12  23  43  69 102 135 175 223 271 335 400
#     4  11  22  41  67  97 141 175 215 269 334 396
#     4  11  26  48  69  95 133 175 227 285 332 390
#     4  11  23  43  67 100 135 175 222 271 332 403
#
# _framework density 21.555305000000001
#
# number of rings (size 3 to 8) (size 9 to 14) (size 15 to 20)
#    0.000    0.750    5.000    3.000    0.000    3.000 
#    0.000    2.500    0.000    0.000    0.000    0.000 
#    0.000    0.000    0.000    0.000    0.000    0.000 
#
# Total GULP energy -89399.232757 kJ/mol
# GULP energy per Si atom -5587.452047 kJ/mol
# Density = 2.150624 g / cm^3
# Si number density = 21.555305 Si / 1000 Ang^3
#
#
#
# Elastic Constant Matrix: (Units=GPa)
#
#
# Indices 1 2 3 4 5 6 
#
# 1 39.2849 9.5247 -1.2956 14.6500 1.2873 1.7694
# 2 9.5247 74.6398 17.7820 11.3408 -8.2932 19.9463
# 3 -1.2956 17.7820 83.3759 12.3975 9.7758 -11.2587
# 4 14.6500 11.3408 12.3975 21.0227 -3.3394 1.1610
# 5 1.2873 -8.2932 9.7758 -3.3394 24.1460 3.2128
# 6 1.7694 19.9463 -11.2587 1.1610 3.2128 45.7516
#
#
#
# Elastic Compliance Matrix: (Units=1/GPa)
#
#
# Indices 1 2 3 4 5 6 
#
# 1 0.038788 -0.004535 0.008207 -0.031535 -0.011859 0.004129
# 2 -0.004535 0.020005 -0.006978 -0.001121 0.011250 -0.011025
# 3 0.008207 -0.006978 0.018723 -0.015658 -0.013737 0.008694
# 4 -0.031535 -0.001121 -0.015658 0.082846 0.019844 -0.005641
# 5 -0.011859 0.011250 -0.013737 0.019844 0.055847 -0.012252
# 6 0.004129 -0.011025 0.008694 -0.005641 -0.012252 0.029647
#
#
# Mechanical properties :
#
#
# Convention : Reuss Voigt Hill
#
# Bulk Modulus (GPa) = 14.10352 27.70252 20.90302
# Shear Modulus (GPa) = 18.10924 29.60336 23.85630
#
# Velocity S-wave (km/s) = 2.90164 3.70992 3.33039
# Velocity P-wave (km/s) = 4.21701 5.58848 4.95047
#
# Compressibility (1/GPa) = 0.07090427
#
# Stress axis : x y z
#
# Youngs Moduli (GPa) = 25.78124 49.98643 53.41145
#
# Poissons Ratio (x) = 0.22667 -0.43835
# Poissons Ratio (y) = 0.11691 0.37272
# Poissons Ratio (z) = -0.21159 0.34882
#
# Static dielectric constant tensor:
#      x y z
#    x 1.828740 0.001860 0.009220 
#    y 0.001860 1.775750 0.024710 
#    z 0.009220 0.024710 1.774020 
# 
# From -- ./inp_files/307775.got.cif
#   From: 2010.05.17/outbox.cif.g08.bks.cpg/sg2_154_cif.got.tgz:307775.got - 2010.06.03 11:33:40.
