data_PCOD9056008
_publ_section_title
;
Structure prediction by ZEFSAII (Michael W. Deem and Ramdas Pophale) SiO2 
 PCOD9056008
Probable space group: P -1
;
_chemical_formula_sum "Si O2"
_cell_formula_units_Z 14
_cell_length_a 8.213850
_cell_length_b 9.511280
_cell_length_c 14.072180
_cell_angle_alpha 150.416598
_cell_angle_beta 114.613046
_cell_angle_gamma 68.379294
_cell_volume 493.390135
_symmetry_space_group_name_H-M "P -1"
_symmetry_group_IT_number 2
_symmetry_cell_setting 'triclinic'
loop_
_space_group_symop_operation_xyz
x,y,z
-x,-y,-z
loop_
_atom_site_type_symbol
_atom_site_label
_atom_site_fract_x
_atom_site_fract_y
_atom_site_fract_z
Si Si1 0.726637 0.702070 0.119210
Si Si2 0.827678 0.201079 0.548136
Si Si3 0.792073 0.259777 0.042251
Si Si4 0.722821 0.285120 0.249314
Si Si5 0.991809 0.025634 0.790785
Si Si6 0.649903 0.193835 0.694911
Si Si7 0.344914 0.253534 0.201169
O O1 0.695389 0.003135 0.338735
O O2 0.892704 0.766018 0.126397
O O3 0.774061 0.506313 0.105894
O O4 0.594221 0.489236 0.906865
O O5 0.756849 0.286362 0.683438
O O6 0.809522 0.511876 0.678707
O O7 0.000000 0.000000 0.500000
O O8 0.959488 0.098431 0.937054
O O9 0.656463 0.994854 0.865683
O O10 0.781169 0.395682 0.224923
O O11 0.538291 0.394442 0.314147
O O12 0.886443 0.257291 0.344658
O O13 0.683432 0.947346 0.017154
O O14 0.793342 0.026456 0.697741
O O15 0.500000 0.000000 0.500000
#
# Coordination Sequence:
#
# PCOD9056008 Si02
#       7
#     2   2   2   2   2   2   2
#     4  11  25  47  86 119 160 215 276 339 413 478
#     4  12  26  47  81 118 164 217 267 340 420 490
#     4   9  20  41  78 119 157 219 268 333 406 492
#     4   9  20  42  79 114 168 217 263 337 412 491
#     4  11  21  44  79 120 155 213 274 338 401 490
#     4  11  26  49  75 117 165 209 281 345 399 479
#     4   9  22  44  74 118 169 212 264 334 417 486
#
# _framework density 28.375109999999999
#
# number of rings (size 3 to 8) (size 9 to 14) (size 15 to 20)
#    0.857    0.857    1.429    3.000    4.000    1.714 
#    7.714    1.429    6.286    0.000    0.000    1.000 
#    0.000    0.000    0.000    0.000    0.000    0.000 
#
# Total GULP energy -78097.539180 kJ/mol
# GULP energy per Si atom -5578.395656 kJ/mol
# Density = 2.831053 g / cm^3
# Si number density = 28.375110 Si / 1000 Ang^3
#
#
#
# Elastic Constant Matrix: (Units=GPa)
#
#
# Indices 1 2 3 4 5 6 
#
# 1 141.5483 64.9446 24.4808 -11.4153 4.1462 10.3611
# 2 64.9446 159.7006 47.9895 -0.0487 7.2828 10.6966
# 3 24.4808 47.9895 170.2608 4.3877 2.5354 -23.1384
# 4 -11.4153 -0.0487 4.3877 32.2500 -3.3570 -7.0421
# 5 4.1462 7.2828 2.5354 -3.3570 46.1526 -5.2736
# 6 10.3611 10.6966 -23.1384 -7.0421 -5.2736 57.5918
#
#
#
# Elastic Compliance Matrix: (Units=1/GPa)
#
#
# Indices 1 2 3 4 5 6 
#
# 1 0.009056 -0.003467 -0.000515 0.003079 -0.000109 -0.000826
# 2 -0.003467 0.008510 -0.002130 -0.001518 -0.001266 -0.002114
# 3 -0.000515 -0.002130 0.006999 -0.000385 0.000345 0.003285
# 4 0.003079 -0.001518 -0.000385 0.033297 0.002852 0.003906
# 5 -0.000109 -0.001266 0.000345 0.002852 0.022384 0.002792
# 6 -0.000826 -0.002114 0.003285 0.003906 0.002792 0.019958
#
#
# Mechanical properties :
#
#
# Convention : Reuss Voigt Hill
#
# Bulk Modulus (GPa) = 81.01973 82.92663 81.97318
# Shear Modulus (GPa) = 42.90284 49.47186 46.18735
#
# Velocity S-wave (km/s) = 3.89265 4.18005 4.03890
# Velocity P-wave (km/s) = 6.98704 7.25160 7.12055
#
# Compressibility (1/GPa) = 0.01234267
#
# Stress axis : x y z
#
# Youngs Moduli (GPa) = 110.41906 117.50274 142.88242
#
# Poissons Ratio (x) = 0.40738 0.07357
# Poissons Ratio (y) = 0.38282 0.30428
# Poissons Ratio (z) = 0.05686 0.25023
#
# Static dielectric constant tensor:
#      x y z
#    x 2.257450 -0.098270 0.090880 
#    y -0.098270 2.260990 -0.023010 
#    z 0.090880 -0.023010 2.334530 
# 
# From -- ./inp_files/499538.got.cif
#   From: 2010.05.17/outbox.cif.g08.bks.cpg/sg2_250_cif.got.tgz:499538.got - 2010.06.03 11:33:40.
