data_PCOD9056976
_publ_section_title
;
Structure prediction by ZEFSAII (Michael W. Deem and Ramdas Pophale) SiO2 
 PCOD9056976
Probable space group: P -1
;
_chemical_formula_sum "Si O2"
_cell_formula_units_Z 16
_cell_length_a 8.478083
_cell_length_b 8.411123
_cell_length_c 11.823978
_cell_angle_alpha 80.905346
_cell_angle_beta 83.376655
_cell_angle_gamma 50.344134
_cell_volume 640.872629
_symmetry_space_group_name_H-M "P -1"
_symmetry_group_IT_number 2
_symmetry_cell_setting 'triclinic'
loop_
_space_group_symop_operation_xyz
x,y,z
-x,-y,-z
loop_
_atom_site_type_symbol
_atom_site_label
_atom_site_fract_x
_atom_site_fract_y
_atom_site_fract_z
Si Si1 0.186565 0.460974 0.924463
Si Si2 0.187394 0.659901 0.548437
Si Si3 0.617963 0.811110 0.422626
Si Si4 0.402438 0.854217 0.932395
Si Si5 0.372303 0.620967 0.779103
Si Si6 0.147866 0.240628 0.788659
Si Si7 0.796504 0.036230 0.643137
Si Si8 0.809524 0.187735 0.847407
O O1 0.222279 0.624830 0.878236
O O2 0.136527 0.432975 0.803187
O O3 0.383044 0.296766 0.005887
O O4 0.000000 0.500000 0.000000
O O5 0.276739 0.429058 0.527655
O O6 0.304876 0.648977 0.652447
O O7 0.209806 0.787532 0.440468
O O8 0.948707 0.819748 0.587567
O O9 0.785865 0.805789 0.340924
O O10 0.433115 0.883326 0.344412
O O11 0.500000 0.000000 0.500000
O O12 0.401828 0.774112 0.817212
O O13 0.323616 0.079812 0.882605
O O14 0.239132 0.873116 0.026200
O O15 0.589651 0.393960 0.801241
O O16 0.961767 0.241745 0.831131
O O17 0.878181 0.021766 0.762523
#
# Coordination Sequence:
#
# PCOD9056976 Si02
#       8
#     2   2   2   2   2   2   2   2
#     4  11  22  41  67 104 146 183 233 297 375 426
#     4  11  25  49  76 105 139 198 249 301 363 445
#     4  12  28  49  71 108 149 187 246 314 371 428
#     4  11  24  41  70 104 145 194 243 291 358 447
#     4  11  22  44  71  99 145 192 246 297 355 444
#     4  12  25  44  66 106 146 184 239 304 367 426
#     4  11  26  48  80 101 143 196 248 297 367 441
#     4  11  23  44  72 104 142 193 251 289 361 445
#
# _framework density 24.965957
#
# number of rings (size 3 to 8) (size 9 to 14) (size 15 to 20)
#    0.000    0.750    2.500    5.625    5.250    2.500 
#    2.250    0.000    0.000    0.000    0.000    0.000 
#    0.000    0.000    0.000    0.000    0.000    0.000 
#
# Total GULP energy -89452.689655 kJ/mol
# GULP energy per Si atom -5590.793103 kJ/mol
# Density = 2.490913 g / cm^3
# Si number density = 24.965957 Si / 1000 Ang^3
#
#
#
# Elastic Constant Matrix: (Units=GPa)
#
#
# Indices 1 2 3 4 5 6 
#
# 1 101.1732 33.3436 17.8533 -0.1931 -8.8401 -8.7502
# 2 33.3436 106.1315 45.1809 0.3518 -1.6325 -0.2783
# 3 17.8533 45.1809 102.2198 12.2406 -3.0797 0.9206
# 4 -0.1931 0.3518 12.2406 38.6935 -2.1155 14.8347
# 5 -8.8401 -1.6325 -3.0797 -2.1155 36.6112 13.4687
# 6 -8.7502 -0.2783 0.9206 14.8347 13.4687 36.7203
#
#
#
# Elastic Compliance Matrix: (Units=1/GPa)
#
#
# Indices 1 2 3 4 5 6 
#
# 1 0.011416 -0.003383 -0.000399 -0.000585 0.001684 0.002324
# 2 -0.003383 0.012715 -0.005266 0.002062 -0.000063 -0.001387
# 3 -0.000399 -0.005266 0.012706 -0.004503 -0.000029 0.001376
# 4 -0.000585 0.002062 -0.004503 0.034007 0.007624 -0.016546
# 5 0.001684 -0.000063 -0.000029 0.007624 0.033687 -0.015035
# 6 0.002324 -0.001387 0.001376 -0.016546 -0.015035 0.039940
#
#
# Mechanical properties :
#
#
# Convention : Reuss Voigt Hill
#
# Bulk Modulus (GPa) = 53.35428 55.80889 54.58158
# Shear Modulus (GPa) = 29.61839 36.61479 33.11659
#
# Velocity S-wave (km/s) = 3.44808 3.83376 3.64602
# Velocity P-wave (km/s) = 6.10488 6.48070 6.29560
#
# Compressibility (1/GPa) = 0.01874264
#
# Stress axis : x y z
#
# Youngs Moduli (GPa) = 87.59422 78.64584 78.70436
#
# Poissons Ratio (x) = 0.26606 0.03139
# Poissons Ratio (y) = 0.29633 0.41442
# Poissons Ratio (z) = 0.03493 0.41411
#
# Static dielectric constant tensor:
#      x y z
#    x 1.916460 -0.017880 0.013450 
#    y -0.017880 2.123620 0.054740 
#    z 0.013450 0.054740 2.001130 
# 
# From -- ./inp_files/381954.got.cif
#   From: 2010.05.17/outbox.cif.g08.bks.cpg/sg2_191_cif.got.tgz:381954.got - 2010.06.03 11:33:40.
