data_PCOD9056102
_publ_section_title
;
Structure prediction by ZEFSAII (Michael W. Deem and Ramdas Pophale) SiO2 
 PCOD9056102
Probable space group: P -1
;
_chemical_formula_sum "Si O2"
_cell_formula_units_Z 16
_cell_length_a 28.007237
_cell_length_b 9.832052
_cell_length_c 14.992412
_cell_angle_alpha 137.614881
_cell_angle_beta 27.471382
_cell_angle_gamma 154.355866
_cell_volume 784.513940
_symmetry_space_group_name_H-M "P -1"
_symmetry_group_IT_number 2
_symmetry_cell_setting 'triclinic'
loop_
_space_group_symop_operation_xyz
x,y,z
-x,-y,-z
loop_
_atom_site_type_symbol
_atom_site_label
_atom_site_fract_x
_atom_site_fract_y
_atom_site_fract_z
Si Si1 0.306769 0.270005 0.708872
Si Si2 0.817413 0.638133 0.165319
Si Si3 0.172103 0.814588 0.040240
Si Si4 0.116511 0.050061 0.103142
Si Si5 0.502064 0.538483 0.911117
Si Si6 0.651442 0.321830 0.848904
Si Si7 0.169409 0.083510 0.557221
Si Si8 0.882910 0.314864 0.402938
O O1 0.500000 0.500000 0.500000
O O2 0.299930 0.485514 0.783050
O O3 0.203812 0.961389 0.663071
O O4 0.214808 0.138459 0.892914
O O5 0.827964 0.427544 0.079347
O O6 0.752170 0.666893 0.370513
O O7 0.000000 0.000000 0.000000
O O8 0.361773 0.184264 0.922152
O O9 0.054747 0.672349 0.252032
O O10 0.090429 0.807848 0.088716
O O11 0.233016 0.367463 0.126733
O O12 0.959854 0.955867 0.292000
O O13 0.685329 0.777992 0.680256
O O14 0.500000 0.500000 0.000000
O O15 0.434699 0.660497 0.068767
O O16 0.757409 0.302954 0.624614
O O17 0.500000 0.000000 0.000000
O O18 0.086288 0.769976 0.599526
#
# Coordination Sequence:
#
# PCOD9056102 Si02
#       8
#     2   2   2   2   2   2   2   2
#     4  11  23  42  70 100 134 173 227 271 328 409
#     4  11  21  46  68  97 134 174 223 270 333 412
#     4  11  25  44  68  98 138 172 217 284 338 390
#     4  11  25  41  68 102 135 172 225 278 338 395
#     4  11  28  45  64  99 139 172 231 280 334 395
#     4  11  24  44  67  96 134 176 227 275 328 399
#     4  11  23  45  69  96 133 178 223 275 331 407
#     4  11  23  43  72  93 133 183 221 270 337 403
#
# _framework density 20.394793
#
# number of rings (size 3 to 8) (size 9 to 14) (size 15 to 20)
#    0.000    1.000    5.000    0.750    8.750    7.000 
#    0.000    0.000    0.000    0.000    0.000    0.000 
#    0.000    0.000    0.000    0.000    0.000    0.000 
#
# Total GULP energy -89292.141998 kJ/mol
# GULP energy per Si atom -5580.758875 kJ/mol
# Density = 2.034837 g / cm^3
# Si number density = 20.394793 Si / 1000 Ang^3
#
#
#
# Elastic Constant Matrix: (Units=GPa)
#
#
# Indices 1 2 3 4 5 6 
#
# 1 163.7966 39.6309 64.4963 2.8725 -7.4333 -47.5704
# 2 39.6309 55.0557 24.0338 15.1354 -7.0577 -34.7484
# 3 64.4963 24.0338 138.8336 12.2418 -3.2627 -21.2160
# 4 2.8725 15.1354 12.2418 36.8384 1.1774 -4.2047
# 5 -7.4333 -7.0577 -3.2627 1.1774 39.2502 5.6667
# 6 -47.5704 -34.7484 -21.2160 -4.2047 5.6667 41.0108
#
#
#
# Elastic Compliance Matrix: (Units=1/GPa)
#
#
# Indices 1 2 3 4 5 6 
#
# 1 0.010485 0.000483 -0.003400 0.001356 0.000172 0.010927
# 2 0.000483 0.046178 -0.001189 -0.014486 0.003371 0.037121
# 3 -0.003400 -0.001189 0.009122 -0.002333 0.000039 -0.000477
# 4 0.001356 -0.014486 -0.002333 0.032905 -0.002344 -0.008211
# 5 0.000172 0.003371 0.000039 -0.002344 0.026305 -0.000799
# 6 0.010927 0.037121 -0.000477 -0.008211 -0.000799 0.067533
#
#
# Mechanical properties :
#
#
# Convention : Reuss Voigt Hill
#
# Bulk Modulus (GPa) = 17.36933 68.22311 42.79622
# Shear Modulus (GPa) = 22.73443 38.72156 30.72799
#
# Velocity S-wave (km/s) = 3.34236 4.36202 3.88578
# Velocity P-wave (km/s) = 4.84048 7.67421 6.41575
#
# Compressibility (1/GPa) = 0.05757273
#
# Stress axis : x y z
#
# Youngs Moduli (GPa) = 95.37853 21.65524 109.62528
#
# Poissons Ratio (x) = -0.01046 0.37272
# Poissons Ratio (y) = -0.04609 0.13037
# Poissons Ratio (z) = 0.32428 0.02575
#
# Static dielectric constant tensor:
#      x y z
#    x 1.735400 -0.003400 -0.021050 
#    y -0.003400 1.755110 -0.003660 
#    z -0.021050 -0.003660 1.715880 
# 
# From -- ./inp_files/266330.got.cif
#   From: 2010.05.17/outbox.cif.g08.bks.cpg/sg2_134_cif.got.tgz:266330.got - 2010.06.03 11:33:40.
