data_PCOD9056175
_publ_section_title
;
Structure prediction by ZEFSAII (Michael W. Deem and Ramdas Pophale) SiO2 
 PCOD9056175
Probable space group: P -1
;
_chemical_formula_sum "Si O2"
_cell_formula_units_Z 16
_cell_length_a 21.521968
_cell_length_b 9.952210
_cell_length_c 6.772439
_cell_angle_alpha 47.117802
_cell_angle_beta 82.764837
_cell_angle_gamma 54.389220
_cell_volume 770.084435
_symmetry_space_group_name_H-M "P -1"
_symmetry_group_IT_number 2
_symmetry_cell_setting 'triclinic'
loop_
_space_group_symop_operation_xyz
x,y,z
-x,-y,-z
loop_
_atom_site_type_symbol
_atom_site_label
_atom_site_fract_x
_atom_site_fract_y
_atom_site_fract_z
Si Si1 0.424739 0.150523 0.219492
Si Si2 0.634240 0.019295 0.890134
Si Si3 0.833714 0.043286 0.658804
Si Si4 0.677725 0.644550 0.568101
Si Si5 0.875652 0.248697 0.752751
Si Si6 0.166286 0.378143 0.919765
Si Si7 0.913506 0.172987 0.235920
Si Si8 0.634239 0.443745 0.465683
O O1 0.342802 0.314398 0.234279
O O2 0.500000 0.000000 0.500000
O O3 0.421821 0.981650 0.244245
O O4 0.421821 0.331070 0.894827
O O5 0.610197 0.279606 0.661599
O O6 0.638305 0.899141 0.213845
O O7 0.731956 0.815747 0.970046
O O8 0.878690 0.064456 0.797130
O O9 0.859824 0.102291 0.394804
O O10 0.731956 0.256428 0.529363
O O11 0.859427 0.781145 0.901315
O O12 0.778506 0.442988 0.685908
O O13 0.638305 0.547638 0.565345
O O14 0.878691 0.420783 0.440805
O O15 0.932835 0.134330 0.037199
O O16 0.140176 0.541590 0.961314
O O17 0.000000 0.000000 0.500000
#
# Coordination Sequence:
#
# PCOD9056175 Si02
#       8
#     2   2   2   2   2   2   2   2
#     4  11  22  34  51  79 113 143 169 205 260 320
#     4   9  19  36  56  77 101 133 178 225 260 298
#     4   9  19  36  56  77 101 133 178 225 260 298
#     4   9  18  35  56  75  98 133 176 218 260 305
#     4   9  18  35  56  75  98 133 176 218 260 305
#     4   9  19  36  56  77 101 133 178 225 260 298
#     4  11  22  34  51  79 113 143 169 205 260 320
#     4   9  19  36  56  77 101 133 178 225 260 298
#
# _framework density 20.776944
#
# number of rings (size 3 to 8) (size 9 to 14) (size 15 to 20)
#    0.000    2.500    0.000    3.750    0.000    7.000 
#    0.000    7.500    0.000    0.000    0.000    0.000 
#    0.000    0.000    0.000    0.000    0.000    0.000 
#
# Total GULP energy -89391.247681 kJ/mol
# GULP energy per Si atom -5586.952980 kJ/mol
# Density = 2.072966 g / cm^3
# Si number density = 20.776944 Si / 1000 Ang^3
#
#
#
# Elastic Constant Matrix: (Units=GPa)
#
#
# Indices 1 2 3 4 5 6 
#
# 1 60.9886 26.3644 50.2726 -17.9177 -10.7841 23.5071
# 2 26.3644 69.4184 45.0688 4.6989 -26.8611 14.3900
# 3 50.2726 45.0688 101.2948 0.3266 -6.9299 45.6621
# 4 -17.9177 4.6989 0.3266 35.0716 10.1202 -6.6247
# 5 -10.7841 -26.8611 -6.9299 10.1202 38.7003 -8.7731
# 6 23.5071 14.3900 45.6621 -6.6247 -8.7731 38.2366
#
#
#
# Elastic Compliance Matrix: (Units=1/GPa)
#
#
# Indices 1 2 3 4 5 6 
#
# 1 0.039008 -0.004956 -0.019358 0.021849 -0.000701 0.004626
# 2 -0.004956 0.037335 -0.019883 -0.012216 0.028033 0.017056
# 3 -0.019358 -0.019883 0.045577 -0.010289 -0.017607 -0.040866
# 4 0.021849 -0.012216 -0.010289 0.047212 -0.014707 0.008258
# 5 -0.000701 0.028033 -0.017607 -0.014707 0.050306 0.019901
# 6 0.004626 0.017056 -0.040866 0.008258 0.019901 0.071689
#
#
# Mechanical properties :
#
#
# Convention : Reuss Voigt Hill
#
# Bulk Modulus (GPa) = 29.82869 52.79040 41.30955
# Shear Modulus (GPa) = 12.79768 29.73474 21.26621
#
# Velocity S-wave (km/s) = 2.48454 3.78715 3.20277
# Velocity P-wave (km/s) = 4.75588 6.67732 5.79677
#
# Compressibility (1/GPa) = 0.03352477
#
# Stress axis : x y z
#
# Youngs Moduli (GPa) = 25.63586 26.78456 21.94112
#
# Poissons Ratio (x) = 0.13274 0.42475
# Poissons Ratio (y) = 0.12705 0.43625
# Poissons Ratio (z) = 0.49627 0.53255
#
# Static dielectric constant tensor:
#      x y z
#    x 1.786160 -0.058230 0.040760 
#    y -0.058230 1.744940 -0.016640 
#    z 0.040760 -0.016640 1.723040 
# 
# From -- ./inp_files/47661.got.cif
#   From: 2010.05.17/outbox.cif.g08.bks.cpg/sg2_24_cif.got.tgz:47661.got - 2010.06.03 11:33:40.
