data_PCOD9056456
_publ_section_title
;
Structure prediction by ZEFSAII (Michael W. Deem and Ramdas Pophale) SiO2 
 PCOD9056456
Probable space group: P -1
;
_chemical_formula_sum "Si O2"
_cell_formula_units_Z 12
_cell_length_a 6.960826
_cell_length_b 6.114108
_cell_length_c 16.877867
_cell_angle_alpha 88.867311
_cell_angle_beta 37.617373
_cell_angle_gamma 93.368629
_cell_volume 435.088306
_symmetry_space_group_name_H-M "P -1"
_symmetry_group_IT_number 2
_symmetry_cell_setting 'triclinic'
loop_
_space_group_symop_operation_xyz
x,y,z
-x,-y,-z
loop_
_atom_site_type_symbol
_atom_site_label
_atom_site_fract_x
_atom_site_fract_y
_atom_site_fract_z
Si Si1 0.203279 0.848885 0.768990
Si Si2 0.753588 0.511040 0.490707
Si Si3 0.859439 0.128766 0.975051
Si Si4 0.547360 0.510858 0.232409
Si Si5 0.328485 0.401955 0.137621
Si Si6 0.242624 0.982219 0.514819
O O1 0.038692 0.669884 0.761784
O O2 0.323811 0.724261 0.804666
O O3 0.918016 0.983923 0.880828
O O4 0.519744 0.994146 0.637258
O O5 0.500000 0.500000 0.500000
O O6 0.622268 0.482054 0.625440
O O7 0.913114 0.275521 0.431359
O O8 0.897387 0.778060 0.439703
O O9 0.121256 0.336140 0.876592
O O10 0.513164 0.193139 0.095224
O O11 0.000000 0.000000 0.000000
O O12 0.612811 0.455153 0.801627
O O13 0.500000 0.500000 0.000000
O O14 0.500000 0.000000 0.500000
#
# Coordination Sequence:
#
# PCOD9056456 Si02
#       6
#     2   2   2   2   2   2
#     4  11  22  39  61  89 123 167 213 263 324 379
#     4   9  18  35  63  90 117 162 214 260 323 386
#     4  12  22  39  61  85 126 171 215 260 318 384
#     4  11  22  40  60  87 128 163 214 264 322 380
#     4  12  24  39  59  91 130 169 214 267 315 384
#     4   9  18  35  62  91 119 160 213 260 323 389
#
# _framework density 27.580608999999999
#
# number of rings (size 3 to 8) (size 9 to 14) (size 15 to 20)
#    0.000    1.333    5.000    2.000    0.000    0.000 
#    0.000    0.000    0.000   18.000    0.000    0.000 
#    0.000    0.000    0.000    0.000    0.000    0.000 
#
# Total GULP energy -66858.469598 kJ/mol
# GULP energy per Si atom -5571.539133 kJ/mol
# Density = 2.751783 g / cm^3
# Si number density = 27.580609 Si / 1000 Ang^3
#
#
#
# Elastic Constant Matrix: (Units=GPa)
#
#
# Indices 1 2 3 4 5 6 
#
# 1 181.0063 45.0614 29.8694 -6.1961 23.0221 11.3076
# 2 45.0614 177.6229 46.4036 10.2402 8.8364 -17.4520
# 3 29.8694 46.4036 78.3961 9.6841 12.4154 -1.0096
# 4 -6.1961 10.2402 9.6841 54.9379 -9.2978 2.4722
# 5 23.0221 8.8364 12.4154 -9.2978 40.0952 0.3212
# 6 11.3076 -17.4520 -1.0096 2.4722 0.3212 42.7534
#
#
#
# Elastic Compliance Matrix: (Units=1/GPa)
#
#
# Indices 1 2 3 4 5 6 
#
# 1 0.006663 -0.001486 -0.001348 0.000893 -0.002854 -0.002431
# 2 -0.001486 0.007338 -0.003621 -0.001033 0.000091 0.003362
# 3 -0.001348 -0.003621 0.016455 -0.003070 -0.004231 -0.000524
# 4 0.000893 -0.001033 -0.003070 0.020025 0.005325 -0.001928
# 5 -0.002854 0.000091 -0.004231 0.005325 0.029103 0.000165
# 6 -0.002431 0.003362 -0.000524 -0.001928 0.000165 0.025503
#
#
# Mechanical properties :
#
#
# Convention : Reuss Voigt Hill
#
# Bulk Modulus (GPa) = 56.99530 75.52158 66.25844
# Shear Modulus (GPa) = 40.37261 48.60336 44.48799
#
# Velocity S-wave (km/s) = 3.83012 4.20245 4.02060
# Velocity P-wave (km/s) = 6.34583 7.14066 6.75495
#
# Compressibility (1/GPa) = 0.01754531
#
# Stress axis : x y z
#
# Youngs Moduli (GPa) = 150.09156 136.27175 60.77100
#
# Poissons Ratio (x) = 0.20254 0.08194
# Poissons Ratio (y) = 0.22308 0.22004
# Poissons Ratio (z) = 0.20237 0.49341
#
# Static dielectric constant tensor:
#      x y z
#    x 2.099000 0.082840 -0.078780 
#    y 0.082840 2.349160 0.396660 
#    z -0.078780 0.396660 1.854990 
# 
# From -- ./inp_files/353247.got.cif
#   From: 2010.05.17/outbox.cif.g08.bks.cpg/sg2_177_cif.got.tgz:353247.got - 2010.06.03 11:33:40.
