data_PCOD9056908
_publ_section_title
;
Structure prediction by ZEFSAII (Michael W. Deem and Ramdas Pophale) SiO2 
 PCOD9056908
Probable space group: P -1
;
_chemical_formula_sum "Si O2"
_cell_formula_units_Z 14
_cell_length_a 8.328322
_cell_length_b 15.795981
_cell_length_c 8.093498
_cell_angle_alpha 134.696491
_cell_angle_beta 104.879587
_cell_angle_gamma 102.353929
_cell_volume 598.809559
_symmetry_space_group_name_H-M "P -1"
_symmetry_group_IT_number 2
_symmetry_cell_setting 'triclinic'
loop_
_space_group_symop_operation_xyz
x,y,z
-x,-y,-z
loop_
_atom_site_type_symbol
_atom_site_label
_atom_site_fract_x
_atom_site_fract_y
_atom_site_fract_z
Si Si1 0.672734 0.108276 0.566290
Si Si2 0.239299 0.909578 0.783286
Si Si3 0.737886 0.330399 0.361515
Si Si4 0.967332 0.959671 0.627725
Si Si5 0.027333 0.350218 0.174497
Si Si6 0.589934 0.826037 0.548201
Si Si7 0.675790 0.723607 0.730895
O O1 0.657701 0.026635 0.281843
O O2 0.623141 0.221154 0.645560
O O3 0.500000 0.000000 0.500000
O O4 0.896874 0.205080 0.831686
O O5 0.263781 0.784790 0.677533
O O6 0.015440 0.854882 0.591652
O O7 0.323691 0.031377 0.114361
O O8 0.857441 0.328168 0.229375
O O9 0.513299 0.298746 0.244648
O O10 0.880845 0.498386 0.686434
O O11 0.126089 0.111829 0.969206
O O12 0.000000 0.000000 0.500000
O O13 0.738302 0.886944 0.516248
O O14 0.223884 0.362538 0.319730
O O15 0.597665 0.713435 0.509745
#
# Coordination Sequence:
#
# PCOD9056908 Si02
#       7
#     2   2   2   2   2   2   2
#     4  12  24  39  65  98 132 164 216 286 327 384
#     4  11  22  41  64  97 129 173 218 263 340 394
#     4  11  24  44  70  90 132 186 222 265 330 410
#     4  11  23  37  64 104 135 165 219 282 331 388
#     4  11  26  44  66  98 132 173 232 273 324 395
#     4  11  23  39  66  98 133 171 213 275 336 400
#     4  11  22  43  65  94 131 178 223 269 332 397
#
# _framework density 23.379721
#
# number of rings (size 3 to 8) (size 9 to 14) (size 15 to 20)
#    0.000    0.857    1.429    7.714    8.000    0.571 
#    0.000    0.000    0.000    2.571    0.000    0.000 
#    0.000    0.000    0.000    0.000    0.000    0.000 
#
# Total GULP energy -78042.485176 kJ/mol
# GULP energy per Si atom -5574.463227 kJ/mol
# Density = 2.332651 g / cm^3
# Si number density = 23.379721 Si / 1000 Ang^3
#
#
#
# Elastic Constant Matrix: (Units=GPa)
#
#
# Indices 1 2 3 4 5 6 
#
# 1 134.3628 33.4092 7.1991 -5.5816 16.5481 -9.3986
# 2 33.4092 105.6642 24.6271 -0.7812 1.4853 -13.5317
# 3 7.1991 24.6271 36.0708 6.1333 3.9856 -6.8091
# 4 -5.5816 -0.7812 6.1333 31.0596 -3.7287 1.2022
# 5 16.5481 1.4853 3.9856 -3.7287 28.2820 -14.0618
# 6 -9.3986 -13.5317 -6.8091 1.2022 -14.0618 48.1324
#
#
#
# Elastic Compliance Matrix: (Units=1/GPa)
#
#
# Indices 1 2 3 4 5 6 
#
# 1 0.008771 -0.002899 0.000566 0.000784 -0.005241 -0.000573
# 2 -0.002899 0.012628 -0.008224 0.001773 0.003871 0.002908
# 3 0.000566 -0.008224 0.035399 -0.007774 -0.005173 0.001490
# 4 0.000784 0.001773 -0.007774 0.034533 0.005200 0.000208
# 5 -0.005241 0.003871 -0.005173 0.005200 0.045908 0.012615
# 6 -0.000573 0.002908 0.001490 0.000208 0.012615 0.025373
#
#
# Mechanical properties :
#
#
# Convention : Reuss Voigt Hill
#
# Bulk Modulus (GPa) = 28.02219 45.17429 36.59824
# Shear Modulus (GPa) = 25.55965 35.55229 30.55597
#
# Velocity S-wave (km/s) = 3.31001 3.90378 3.61909
# Velocity P-wave (km/s) = 5.15945 6.29946 5.75774
#
# Compressibility (1/GPa) = 0.03568600
#
# Stress axis : x y z
#
# Youngs Moduli (GPa) = 114.01121 79.18712 28.24910
#
# Poissons Ratio (x) = 0.22958 -0.01600
# Poissons Ratio (y) = 0.33054 0.23231
# Poissons Ratio (z) = -0.06458 0.65120
#
# Static dielectric constant tensor:
#      x y z
#    x 2.105990 -0.064600 -0.042780 
#    y -0.064600 1.925950 -0.010960 
#    z -0.042780 -0.010960 1.842760 
# 
# From -- ./inp_files/209120.got.cif
#   From: 2010.05.17/outbox.cif.g08.bks.cpg/sg2_105_cif.got.tgz:209120.got - 2010.06.03 11:33:40.
