data_PCOD9056802
_publ_section_title
;
Structure prediction by ZEFSAII (Michael W. Deem and Ramdas Pophale) SiO2 
 PCOD9056802
Probable space group: P -1
;
_chemical_formula_sum "Si O2"
_cell_formula_units_Z 15
_cell_length_a 8.966219
_cell_length_b 17.258787
_cell_length_c 8.804071
_cell_angle_alpha 95.432051
_cell_angle_beta 81.296002
_cell_angle_gamma 153.211075
_cell_volume 604.463134
_symmetry_space_group_name_H-M "P -1"
_symmetry_group_IT_number 2
_symmetry_cell_setting 'triclinic'
loop_
_space_group_symop_operation_xyz
x,y,z
-x,-y,-z
loop_
_atom_site_type_symbol
_atom_site_label
_atom_site_fract_x
_atom_site_fract_y
_atom_site_fract_z
Si Si1 0.860414 0.340475 0.556846
Si Si2 0.500000 0.000000 0.000000
Si Si3 0.258510 0.290956 0.362902
Si Si4 0.271197 0.586026 0.172651
Si Si5 0.520262 0.576079 0.336428
Si Si6 0.423099 0.785112 0.947173
Si Si7 0.530449 0.976264 0.323055
Si Si8 0.321809 0.146929 0.370200
O O1 0.846797 0.414931 0.666264
O O2 0.720257 0.211078 0.666735
O O3 0.595179 0.228939 0.442410
O O4 0.189814 0.454793 0.453852
O O5 0.488981 0.011453 0.190514
O O6 0.546998 0.114212 0.979750
O O7 0.464795 0.459014 0.295331
O O8 0.202608 0.284590 0.550288
O O9 0.425026 0.283293 0.340118
O O10 0.917416 0.126604 0.293151
O O11 0.518042 0.631240 0.202318
O O12 0.943050 0.397114 0.109801
O O13 0.440119 0.724102 0.056686
O O14 0.708116 0.904456 0.798435
O O15 0.500000 0.000000 0.500000
O O16 0.000000 0.000000 0.500000
#
# Coordination Sequence:
#
# PCOD9056802 Si02
#       8
#     2   1   2   2   2   2   2   2
#     4  12  21  42  74 101 136 196 253 289 367 451
#     4  12  26  48  74 112 144 194 254 306 370 448
#     4  11  24  39  66 106 143 181 252 303 365 426
#     4  11  22  43  70 105 141 191 249 302 372 437
#     4  11  22  40  70 101 142 192 246 308 359 451
#     4  11  25  43  71 107 148 190 245 312 369 443
#     4  12  24  45  72 105 146 194 250 303 368 451
#     4  12  24  43  72 107 146 196 242 305 370 450
#
# _framework density 24.81541
#
# number of rings (size 3 to 8) (size 9 to 14) (size 15 to 20)
#    0.000    0.533    6.667    2.800    0.000    0.000 
#    0.000    4.667    0.000    0.000    0.000    0.000 
#    0.000    0.000    0.000    0.000    0.000    0.000 
#
# Total GULP energy -83689.151889 kJ/mol
# GULP energy per Si atom -5579.276793 kJ/mol
# Density = 2.475893 g / cm^3
# Si number density = 24.815410 Si / 1000 Ang^3
#
#
#
# Elastic Constant Matrix: (Units=GPa)
#
#
# Indices 1 2 3 4 5 6 
#
# 1 127.9686 31.3548 41.5120 -7.7303 27.4070 -39.2110
# 2 31.3548 59.3065 16.4775 -7.5938 5.8016 -9.1624
# 3 41.5120 16.4775 135.4554 -26.2126 28.9151 -6.4262
# 4 -7.7303 -7.5938 -26.2126 25.8266 -12.6491 2.4345
# 5 27.4070 5.8016 28.9151 -12.6491 55.1486 0.7093
# 6 -39.2110 -9.1624 -6.4262 2.4345 0.7093 39.2214
#
#
#
# Elastic Compliance Matrix: (Units=1/GPa)
#
#
# Indices 1 2 3 4 5 6 
#
# 1 0.015611 -0.005138 -0.002870 -0.004496 -0.006928 0.014340
# 2 -0.005138 0.019996 -0.000314 0.004968 0.001765 -0.000857
# 3 -0.002870 -0.000314 0.010320 0.008747 -0.001923 -0.001760
# 4 -0.004496 0.004968 0.008747 0.052770 0.009298 -0.005345
# 5 -0.006928 0.001765 -0.001923 0.009298 0.024632 -0.007852
# 6 0.014340 -0.000857 -0.001760 -0.005345 -0.007852 0.039818
#
#
# Mechanical properties :
#
#
# Convention : Reuss Voigt Hill
#
# Bulk Modulus (GPa) = 34.14940 55.71323 44.93131
# Shear Modulus (GPa) = 26.37798 39.59840 32.98819
#
# Velocity S-wave (km/s) = 3.26386 3.99898 3.64997
# Velocity P-wave (km/s) = 5.29102 6.61984 5.99238
#
# Compressibility (1/GPa) = 0.02928309
#
# Stress axis : x y z
#
# Youngs Moduli (GPa) = 64.05876 50.00907 96.90125
#
# Poissons Ratio (x) = 0.25696 0.27809
# Poissons Ratio (y) = 0.32915 0.03040
# Poissons Ratio (z) = 0.18384 0.01569
#
# Static dielectric constant tensor:
#      x y z
#    x 1.949540 0.013690 -0.001740 
#    y 0.013690 2.042150 0.017520 
#    z -0.001740 0.017520 2.025110 
# 
# From -- ./inp_files/217691.got.cif
#   From: 2010.05.17/outbox.cif.g08.bks.cpg/sg2_109_cif.got.tgz:217691.got - 2010.06.03 11:33:40.
