data_PCOD9056621
_publ_section_title
;
Structure prediction by ZEFSAII (Michael W. Deem and Ramdas Pophale) SiO2 
 PCOD9056621
Probable space group: P -1
;
_chemical_formula_sum "Si O2"
_cell_formula_units_Z 12
_cell_length_a 12.474334
_cell_length_b 5.470443
_cell_length_c 13.623305
_cell_angle_alpha 77.059886
_cell_angle_beta 142.413818
_cell_angle_gamma 87.451812
_cell_volume 512.697244
_symmetry_space_group_name_H-M "P -1"
_symmetry_group_IT_number 2
_symmetry_cell_setting 'triclinic'
loop_
_space_group_symop_operation_xyz
x,y,z
-x,-y,-z
loop_
_atom_site_type_symbol
_atom_site_label
_atom_site_fract_x
_atom_site_fract_y
_atom_site_fract_z
Si Si1 0.588938 0.723534 0.956377
Si Si2 0.923284 0.015774 0.693285
Si Si3 0.486023 0.573592 0.597816
Si Si4 0.741287 0.089312 0.174074
Si Si5 0.827588 0.746641 0.807313
Si Si6 0.252613 0.972560 0.091808
O O1 0.652557 0.400025 0.039761
O O2 0.681706 0.863890 0.093542
O O3 0.364329 0.866404 0.801926
O O4 0.660437 0.811403 0.901141
O O5 0.727884 0.266748 0.538177
O O6 0.865560 0.775475 0.717762
O O7 0.035661 0.987829 0.675890
O O8 0.082501 0.007805 0.890351
O O9 0.500000 0.500000 0.500000
O O10 0.624804 0.736450 0.680744
O O11 0.583042 0.319911 0.762170
O O12 0.815381 0.991020 0.848559
O O13 0.000000 0.500000 0.000000
#
# Coordination Sequence:
#
# PCOD9056621 Si02
#       6
#     2   2   2   2   2   2
#     4   9  19  37  65  90 125 159 211 256 313 369
#     4  11  22  40  62  90 123 163 211 256 314 373
#     4  12  25  40  57  91 127 165 208 258 313 375
#     4   9  19  38  62  95 119 164 208 259 309 373
#     4  12  22  38  61  87 121 165 206 256 314 373
#     4  11  23  40  61  89 121 165 205 259 312 375
#
# _framework density 23.405628
#
# number of rings (size 3 to 8) (size 9 to 14) (size 15 to 20)
#    0.000    1.333    3.333    3.000    2.333    1.333 
#    0.000    0.833    0.000    1.000    0.000    0.000 
#    0.000    0.000    0.000    0.000    0.000    0.000 
#
# Total GULP energy -66897.860640 kJ/mol
# GULP energy per Si atom -5574.821720 kJ/mol
# Density = 2.335236 g / cm^3
# Si number density = 23.405628 Si / 1000 Ang^3
#
#
#
# Elastic Constant Matrix: (Units=GPa)
#
#
# Indices 1 2 3 4 5 6 
#
# 1 99.9375 -6.6412 21.0080 3.8753 42.5880 0.7481
# 2 -6.6412 65.6375 28.0347 -5.2107 0.0840 -0.1560
# 3 21.0080 28.0347 126.1069 -20.3268 42.5308 -6.5071
# 4 3.8753 -5.2107 -20.3268 29.4810 -9.9481 -1.0257
# 5 42.5880 0.0840 42.5308 -9.9481 41.0113 -12.0254
# 6 0.7481 -0.1560 -6.5071 -1.0257 -12.0254 31.1971
#
#
#
# Elastic Compliance Matrix: (Units=1/GPa)
#
#
# Indices 1 2 3 4 5 6 
#
# 1 0.029401 -0.001792 0.008358 -0.015313 -0.048204 -0.018055
# 2 -0.001792 0.018038 -0.006561 0.002365 0.009991 0.002694
# 3 0.008358 -0.006561 0.017313 -0.000380 -0.029004 -0.007815
# 4 -0.015313 0.002365 -0.000380 0.047357 0.031932 0.014165
# 5 -0.048204 0.009991 -0.029004 0.031932 0.125294 0.044503
# 6 -0.018055 0.002694 -0.007815 0.014165 0.044503 0.048491
#
#
# Mechanical properties :
#
#
# Convention : Reuss Voigt Hill
#
# Bulk Modulus (GPa) = 15.44102 41.83166 28.63634
# Shear Modulus (GPa) = 16.26168 36.95656 26.60912
#
# Velocity S-wave (km/s) = 2.63872 3.97792 3.37541
# Velocity P-wave (km/s) = 3.98689 6.24578 5.23952
#
# Compressibility (1/GPa) = 0.06476255
#
# Stress axis : x y z
#
# Youngs Moduli (GPa) = 34.01221 55.44002 57.75847
#
# Poissons Ratio (x) = 0.09934 -0.48273
# Poissons Ratio (y) = 0.06094 0.37894
# Poissons Ratio (z) = -0.28427 0.36373
#
# Static dielectric constant tensor:
#      x y z
#    x 1.876620 0.007360 0.014620 
#    y 0.007360 2.049510 0.051530 
#    z 0.014620 0.051530 1.876050 
# 
# From -- ./inp_files/29519.got.cif
#   From: 2010.05.17/outbox.cif.g08.bks.cpg/sg2_15_cif.got.tgz:29519.got - 2010.06.03 11:33:40.
