data_PCOD9056665
_publ_section_title
;
Structure prediction by ZEFSAII (Michael W. Deem and Ramdas Pophale) SiO2 
 PCOD9056665
Probable space group: P -1
;
_chemical_formula_sum "Si O2"
_cell_formula_units_Z 12
_cell_length_a 4.982534
_cell_length_b 4.908384
_cell_length_c 22.887830
_cell_angle_alpha 107.948896
_cell_angle_beta 109.402084
_cell_angle_gamma 54.817084
_cell_volume 426.533370
_symmetry_space_group_name_H-M "P -1"
_symmetry_group_IT_number 2
_symmetry_cell_setting 'triclinic'
loop_
_space_group_symop_operation_xyz
x,y,z
-x,-y,-z
loop_
_atom_site_type_symbol
_atom_site_label
_atom_site_fract_x
_atom_site_fract_y
_atom_site_fract_z
Si Si1 0.719632 0.733238 0.950131
Si Si2 0.499042 0.816573 0.545535
Si Si3 0.017807 0.657123 0.369851
Si Si4 0.399436 0.767058 0.701313
Si Si5 0.079895 0.813876 0.219803
Si Si6 0.117612 0.676634 0.863058
O O1 0.477712 0.627364 0.896553
O O2 0.902029 0.797002 0.914677
O O3 0.000000 0.500000 0.000000
O O4 0.500000 0.000000 0.000000
O O5 0.500000 0.500000 0.500000
O O6 0.844254 0.667538 0.598345
O O7 0.500000 0.000000 0.500000
O O8 0.171337 0.048246 0.576380
O O9 0.375048 0.506651 0.351061
O O10 0.723191 0.858855 0.311875
O O11 0.622440 0.543744 0.757929
O O12 0.045475 0.911908 0.718612
O O13 0.836154 0.680980 0.174962
O O14 0.075005 0.034128 0.180435
#
# Coordination Sequence:
#
# PCOD9056665 Si02
#       6
#     2   2   2   2   2   2
#     4  12  28  50  76 110 150 194 242 300 369 442
#     4  11  22  40  65  96 134 182 234 291 352 424
#     4   9  20  42  65  97 138 181 234 293 358 426
#     4   9  21  44  68  99 138 185 234 297 362 430
#     4  11  25  46  72 103 140 186 242 298 364 436
#     4  12  28  50  78 111 148 194 246 307 367 444
#
# _framework density 28.133792
#
# number of rings (size 3 to 8) (size 9 to 14) (size 15 to 20)
#    0.000    1.333    0.000    4.000    0.000   10.667 
#    0.000   33.333    0.000    0.000    0.000    0.000 
#    0.000    0.000    0.000    0.000    0.000    0.000 
#
# Total GULP energy -66804.017290 kJ/mol
# GULP energy per Si atom -5567.001441 kJ/mol
# Density = 2.806976 g / cm^3
# Si number density = 28.133792 Si / 1000 Ang^3
#
#
#
# Elastic Constant Matrix: (Units=GPa)
#
#
# Indices 1 2 3 4 5 6 
#
# 1 126.0049 92.0051 65.8671 -21.8498 -26.9783 5.2199
# 2 92.0051 253.0725 107.3491 -42.1602 -20.9924 -21.7112
# 3 65.8671 107.3491 152.6846 -26.1262 -45.1029 15.8063
# 4 -21.8498 -42.1602 -26.1262 76.9654 3.4340 -12.8943
# 5 -26.9783 -20.9924 -45.1029 3.4340 56.7133 2.0624
# 6 5.2199 -21.7112 15.8063 -12.8943 2.0624 67.8285
#
#
#
# Elastic Compliance Matrix: (Units=1/GPa)
#
#
# Indices 1 2 3 4 5 6 
#
# 1 0.012217 -0.003591 -0.001487 0.000557 0.003329 -0.001739
# 2 -0.003591 0.007915 -0.004948 0.002532 -0.003032 0.004536
# 3 -0.001487 -0.004948 0.013761 0.000341 0.008562 -0.004872
# 4 0.000557 0.002532 0.000341 0.015233 0.000421 0.003571
# 5 0.003329 -0.003032 0.008562 0.000421 0.025020 -0.003903
# 6 -0.001739 0.004536 -0.004872 0.003571 -0.003903 0.018262
#
#
# Mechanical properties :
#
#
# Convention : Reuss Voigt Hill
#
# Bulk Modulus (GPa) = 72.24215 118.02272 95.13243
# Shear Modulus (GPa) = 42.70821 58.07082 50.38951
#
# Velocity S-wave (km/s) = 3.90043 4.54816 4.23669
# Velocity P-wave (km/s) = 6.78368 8.34402 7.60398
#
# Compressibility (1/GPa) = 0.01384234
#
# Stress axis : x y z
#
# Youngs Moduli (GPa) = 81.85420 126.33770 72.66737
#
# Poissons Ratio (x) = 0.45369 0.10804
# Poissons Ratio (y) = 0.29394 0.35954
# Poissons Ratio (z) = 0.12169 0.62509
#
# Static dielectric constant tensor:
#      x y z
#    x 2.285040 0.082510 0.146450 
#    y 0.082510 2.187240 0.074040 
#    z 0.146450 0.074040 2.290060 
# 
# From -- ./inp_files/603379.got.cif
#   From: 2010.05.17/outbox.cif.g08.bks.cpg/sg2_302_cif.got.tgz:603379.got - 2010.06.03 11:33:40.
