data_PCOD9056682
_publ_section_title
;
Structure prediction by ZEFSAII (Michael W. Deem and Ramdas Pophale) SiO2 
 PCOD9056682
Probable space group: P -1
;
_chemical_formula_sum "Si O2"
_cell_formula_units_Z 14
_cell_length_a 12.035450
_cell_length_b 9.922862
_cell_length_c 20.305289
_cell_angle_alpha 27.926135
_cell_angle_beta 144.714408
_cell_angle_gamma 132.689380
_cell_volume 647.618850
_symmetry_space_group_name_H-M "P -1"
_symmetry_group_IT_number 2
_symmetry_cell_setting 'triclinic'
loop_
_space_group_symop_operation_xyz
x,y,z
-x,-y,-z
loop_
_atom_site_type_symbol
_atom_site_label
_atom_site_fract_x
_atom_site_fract_y
_atom_site_fract_z
Si Si1 0.411476 0.805207 0.356550
Si Si2 0.892269 0.338987 0.461180
Si Si3 0.604354 0.764834 0.958238
Si Si4 0.830097 0.323518 0.977673
Si Si5 0.345628 0.146946 0.416494
Si Si6 0.489548 0.744103 0.054959
Si Si7 0.991858 0.721497 0.241623
O O1 0.500000 0.500000 0.500000
O O2 0.544869 0.873166 0.452371
O O3 0.194837 0.790957 0.283730
O O4 0.411477 0.027383 0.201124
O O5 0.676824 0.504786 0.264937
O O6 0.014722 0.412625 0.424878
O O7 0.000000 0.500000 0.500000
O O8 0.840906 0.025944 0.593425
O O9 0.500000 0.500000 0.000000
O O10 0.497754 0.858066 0.935837
O O11 0.831272 0.702506 0.116009
O O12 0.711692 0.517092 0.779043
O O13 0.705932 0.354412 0.971741
O O14 0.000000 0.500000 0.000000
O O15 0.902826 0.995002 0.128544
O O16 0.500000 0.000000 0.500000
O O17 0.500000 0.000000 0.000000
#
# Coordination Sequence:
#
# PCOD9056682 Si02
#       7
#     2   2   2   2   2   2   2
#     4  12  27  49  70 101 143 182 229 292 350 408
#     4  11  22  40  66 105 140 173 224 290 343 392
#     4  11  25  46  72 100 142 186 225 281 345 418
#     4  12  24  42  72 109 135 180 234 286 339 410
#     4  12  25  42  72 105 142 178 229 287 345 400
#     4  11  23  43  71 100 136 183 235 275 339 409
#     4  11  25  46  70  99 139 189 232 277 345 421
#
# _framework density 21.617652
#
# number of rings (size 3 to 8) (size 9 to 14) (size 15 to 20)
#    0.000    0.571    4.286    5.571    2.000    0.000 
#    0.000    1.429    0.000    0.000    0.000    0.000 
#    0.000    0.000    0.000    0.000    0.000    0.000 
#
# Total GULP energy -78194.813370 kJ/mol
# GULP energy per Si atom -5585.343812 kJ/mol
# Density = 2.156845 g / cm^3
# Si number density = 21.617652 Si / 1000 Ang^3
#
#
#
# Elastic Constant Matrix: (Units=GPa)
#
#
# Indices 1 2 3 4 5 6 
#
# 1 165.2477 53.9126 52.0060 5.3136 -30.9945 21.4705
# 2 53.9126 137.5865 19.5443 19.0561 -13.3051 12.6725
# 3 52.0060 19.5443 73.8400 6.3737 -27.7469 2.6968
# 4 5.3136 19.0561 6.3737 42.7556 -4.0634 -8.5854
# 5 -30.9945 -13.3051 -27.7469 -4.0634 41.8330 0.2666
# 6 21.4705 12.6725 2.6968 -8.5854 0.2666 49.5561
#
#
#
# Elastic Compliance Matrix: (Units=1/GPa)
#
#
# Indices 1 2 3 4 5 6 
#
# 1 0.009278 -0.002432 -0.004651 0.000291 0.003064 -0.003111
# 2 -0.002432 0.009029 0.000004 -0.004051 0.000691 -0.001961
# 3 -0.004651 0.000004 0.020741 -0.001432 0.010170 0.000582
# 4 0.000291 -0.004051 -0.001432 0.026542 0.000520 0.005583
# 5 0.003064 0.000691 0.010170 0.000520 0.033204 -0.002146
# 6 -0.003111 -0.001961 0.000582 0.005583 -0.002146 0.022975
#
#
# Mechanical properties :
#
#
# Convention : Reuss Voigt Hill
#
# Bulk Modulus (GPa) = 40.17607 69.73333 54.95470
# Shear Modulus (GPa) = 34.66783 43.57636 39.12209
#
# Velocity S-wave (km/s) = 4.00894 4.49461 4.25871
# Velocity P-wave (km/s) = 6.32883 7.69825 7.04688
#
# Compressibility (1/GPa) = 0.02489044
#
# Stress axis : x y z
#
# Youngs Moduli (GPa) = 107.77662 110.75203 48.21286
#
# Poissons Ratio (x) = 0.26940 0.22425
# Poissons Ratio (y) = 0.26216 -0.00021
# Poissons Ratio (z) = 0.50129 -0.00049
#
# Static dielectric constant tensor:
#      x y z
#    x 1.702680 0.007000 0.006980 
#    y 0.007000 1.790210 -0.010070 
#    z 0.006980 -0.010070 1.808250 
# 
# From -- ./inp_files/157255.got.cif
#   From: 2010.05.17/outbox.cif.g08.bks.cpg/sg2_79_cif.got.tgz:157255.got - 2010.06.03 11:33:40.
