data_PCOD9056509
_publ_section_title
;
Structure prediction by ZEFSAII (Michael W. Deem and Ramdas Pophale) SiO2 
 PCOD9056509
Probable space group: P -1
;
_chemical_formula_sum "Si O2"
_cell_formula_units_Z 16
_cell_length_a 7.725489
_cell_length_b 11.672391
_cell_length_c 8.366668
_cell_angle_alpha 81.897348
_cell_angle_beta 126.405864
_cell_angle_gamma 84.180399
_cell_volume 584.718988
_symmetry_space_group_name_H-M "P -1"
_symmetry_group_IT_number 2
_symmetry_cell_setting 'triclinic'
loop_
_space_group_symop_operation_xyz
x,y,z
-x,-y,-z
loop_
_atom_site_type_symbol
_atom_site_label
_atom_site_fract_x
_atom_site_fract_y
_atom_site_fract_z
Si Si1 0.815235 0.949469 0.221791
Si Si2 0.692507 0.186361 0.559159
Si Si3 0.061549 0.379156 0.876601
Si Si4 0.908936 0.864623 0.640831
Si Si5 0.264412 0.564183 0.561219
Si Si6 0.800327 0.387238 0.124246
Si Si7 0.408731 0.672579 0.255650
Si Si8 0.657468 0.876022 0.828879
O O1 0.793056 0.897441 0.397605
O O2 0.048226 0.865054 0.300875
O O3 0.660109 0.945490 0.983179
O O4 0.880273 0.075376 0.257929
O O5 0.631429 0.325975 0.454074
O O6 0.601537 0.202681 0.687173
O O7 0.574926 0.118716 0.383944
O O8 0.141813 0.496070 0.943690
O O9 0.987331 0.399573 0.646167
O O10 0.828279 0.359324 0.823289
O O11 0.237820 0.260613 0.039156
O O12 0.795237 0.904972 0.743689
O O13 0.986647 0.721985 0.720618
O O14 0.283630 0.567631 0.758217
O O15 0.387350 0.438277 0.579983
O O16 0.620275 0.329270 0.949513
#
# Coordination Sequence:
#
# PCOD9056509 Si02
#       8
#     2   2   2   2   2   2   2   2
#     4  11  24  52  70 100 138 181 232 291 336 399
#     4  11  23  44  67  98 139 173 229 285 337 405
#     4  11  22  39  65  95 138 174 224 270 341 416
#     4  11  25  44  77  98 136 184 234 282 341 403
#     4  11  23  40  61  98 143 180 218 283 339 406
#     4  12  22  40  64  99 135 183 223 276 346 406
#     4  11  23  38  61  98 139 177 219 276 340 410
#     4  12  24  45  74 103 136 185 223 284 350 406
#
# _framework density 27.363571
#
# number of rings (size 3 to 8) (size 9 to 14) (size 15 to 20)
#    0.000    0.750    5.000    3.750    3.500    0.500 
#    2.250    2.500    0.000    0.000    0.000    0.000 
#    0.000    0.000    0.000    0.000    0.000    0.000 
#
# Total GULP energy -89493.384623 kJ/mol
# GULP energy per Si atom -5593.336539 kJ/mol
# Density = 2.730129 g / cm^3
# Si number density = 27.363571 Si / 1000 Ang^3
#
#
#
# Elastic Constant Matrix: (Units=GPa)
#
#
# Indices 1 2 3 4 5 6 
#
# 1 59.7971 43.2299 13.6978 15.5901 -28.4812 -12.5179
# 2 43.2299 123.7988 49.2371 -0.1972 -12.8890 -16.3898
# 3 13.6978 49.2371 179.2523 29.1450 -21.8424 -8.3484
# 4 15.5901 -0.1972 29.1450 59.5661 -6.0029 -5.0015
# 5 -28.4812 -12.8890 -21.8424 -6.0029 37.8553 8.8678
# 6 -12.5179 -16.3898 -8.3484 -5.0015 8.8678 39.3332
#
#
#
# Elastic Compliance Matrix: (Units=1/GPa)
#
#
# Indices 1 2 3 4 5 6 
#
# 1 0.042010 -0.013954 0.005904 -0.010994 0.028277 0.001035
# 2 -0.013954 0.014349 -0.004599 0.005389 -0.008134 0.003081
# 3 0.005904 -0.004599 0.007984 -0.004820 0.006835 -0.000497
# 4 -0.010994 0.005389 -0.004820 0.021570 -0.006236 0.001872
# 5 0.028277 -0.008134 0.006835 -0.006236 0.048996 -0.004779
# 6 0.001035 0.003081 -0.000497 0.001872 -0.004779 0.028247
#
#
# Mechanical properties :
#
#
# Convention : Reuss Voigt Hill
#
# Bulk Modulus (GPa) = 25.61150 63.90864 44.76007
# Shear Modulus (GPa) = 24.81752 44.46314 34.64033
#
# Velocity S-wave (km/s) = 3.01484 4.03538 3.56185
# Velocity P-wave (km/s) = 4.63670 6.71703 5.77137
#
# Compressibility (1/GPa) = 0.03904497
#
# Stress axis : x y z
#
# Youngs Moduli (GPa) = 23.80381 69.69068 125.24682
#
# Poissons Ratio (x) = 0.97249 -0.73946
# Poissons Ratio (y) = 0.33217 0.57600
# Poissons Ratio (z) = -0.14054 0.32050
#
# Static dielectric constant tensor:
#      x y z
#    x 2.341180 -0.025200 -0.186060 
#    y -0.025200 2.108360 0.043280 
#    z -0.186060 0.043280 2.376660 
# 
# From -- ./inp_files/187978.got.cif
#   From: 2010.05.17/outbox.cif.g08.bks.cpg/sg2_94_cif.got.tgz:187978.got - 2010.06.03 11:33:40.
