data_PCOD9056820
_publ_section_title
;
Structure prediction by ZEFSAII (Michael W. Deem and Ramdas Pophale) SiO2 
 PCOD9056820
Probable space group: P -1
;
_chemical_formula_sum "Si O2"
_cell_formula_units_Z 16
_cell_length_a 11.705277
_cell_length_b 9.693038
_cell_length_c 8.949350
_cell_angle_alpha 127.144450
_cell_angle_beta 107.458598
_cell_angle_gamma 74.769436
_cell_volume 767.645979
_symmetry_space_group_name_H-M "P -1"
_symmetry_group_IT_number 2
_symmetry_cell_setting 'triclinic'
loop_
_space_group_symop_operation_xyz
x,y,z
-x,-y,-z
loop_
_atom_site_type_symbol
_atom_site_label
_atom_site_fract_x
_atom_site_fract_y
_atom_site_fract_z
Si Si1 0.028599 0.294112 0.876999
Si Si2 0.581927 0.660107 0.635992
Si Si3 0.303117 0.149860 0.933444
Si Si4 0.677269 0.154335 0.020314
Si Si5 0.794529 0.480990 0.402538
Si Si6 0.473174 0.020079 0.678752
Si Si7 0.029394 0.295691 0.538360
Si Si8 0.907461 0.038029 0.854602
O O1 0.164290 0.227237 0.935028
O O2 0.014247 0.242429 0.666822
O O3 0.937967 0.208857 0.893137
O O4 0.000000 0.500000 0.000000
O O5 0.500000 0.500000 0.500000
O O6 0.702544 0.603985 0.549517
O O7 0.511039 0.830147 0.642244
O O8 0.621666 0.719201 0.855592
O O9 0.344175 0.099251 0.746909
O O10 0.324718 0.970112 0.917948
O O11 0.718875 0.336862 0.205922
O O12 0.556863 0.151450 0.876741
O O13 0.777159 0.061255 0.888696
O O14 0.866056 0.579232 0.369475
O O15 0.902949 0.387936 0.485788
O O16 0.500000 0.000000 0.500000
O O17 0.069454 0.124399 0.349629
O O18 0.000000 0.000000 0.000000
#
# Coordination Sequence:
#
# PCOD9056820 Si02
#       8
#     2   2   2   2   2   2   2   2
#     4  12  26  42  66 104 138 169 221 277 329 389
#     4  11  23  43  68  94 127 172 223 269 327 391
#     4  11  23  44  71  91 135 179 220 265 331 399
#     4  11  22  44  71  94 133 180 221 266 330 400
#     4  11  22  40  70  99 130 173 222 269 327 396
#     4  11  26  46  67  98 130 173 224 278 329 385
#     4  11  24  40  66  98 137 173 220 266 329 393
#     4  12  23  43  67  98 134 180 217 267 332 404
#
# _framework density 20.842942000000001
#
# number of rings (size 3 to 8) (size 9 to 14) (size 15 to 20)
#    0.000    0.750    2.500    6.375    5.250    0.000 
#    6.750    1.250    0.000    0.000    0.000    0.000 
#    0.000    0.000    0.000    0.000    0.000    0.000 
#
# Total GULP energy -89474.783489 kJ/mol
# GULP energy per Si atom -5592.173968 kJ/mol
# Density = 2.079550 g / cm^3
# Si number density = 20.842942 Si / 1000 Ang^3
#
#
#
# Elastic Constant Matrix: (Units=GPa)
#
#
# Indices 1 2 3 4 5 6 
#
# 1 72.4853 -1.8413 5.2165 4.7394 -18.7501 5.9436
# 2 -1.8413 56.7591 18.4961 -2.5379 5.4428 17.7585
# 3 5.2165 18.4961 101.8885 6.1415 -11.4458 11.2148
# 4 4.7394 -2.5379 6.1415 39.3474 7.2822 -5.0248
# 5 -18.7501 5.4428 -11.4458 7.2822 46.6872 6.9923
# 6 5.9436 17.7585 11.2148 -5.0248 6.9923 32.0114
#
#
#
# Elastic Compliance Matrix: (Units=1/GPa)
#
#
# Indices 1 2 3 4 5 6 
#
# 1 0.016822 0.001356 0.000865 -0.004513 0.008525 -0.006749
# 2 0.001356 0.022304 -0.003054 0.000545 -0.001211 -0.011205
# 3 0.000865 -0.003054 0.011508 -0.003482 0.004677 -0.004066
# 4 -0.004513 0.000545 -0.003482 0.029157 -0.008504 0.008190
# 5 0.008525 -0.001211 0.004677 -0.008504 0.028987 -0.010216
# 6 -0.006749 -0.011205 -0.004066 0.008190 -0.010216 0.043650
#
#
# Mechanical properties :
#
#
# Convention : Reuss Voigt Hill
#
# Bulk Modulus (GPa) = 20.42153 30.54172 25.48162
# Shear Modulus (GPa) = 29.34031 37.55998 33.45015
#
# Velocity S-wave (km/s) = 3.75598 4.24966 4.01042
# Velocity P-wave (km/s) = 5.35060 6.22612 5.80489
#
# Compressibility (1/GPa) = 0.04896793
#
# Stress axis : x y z
#
# Youngs Moduli (GPa) = 59.44699 44.83557 86.89941
#
# Poissons Ratio (x) = -0.06081 -0.07518
# Poissons Ratio (y) = -0.08062 0.26538
# Poissons Ratio (z) = -0.05143 0.13692
#
# Static dielectric constant tensor:
#      x y z
#    x 1.776690 0.035710 -0.030270 
#    y 0.035710 1.704720 0.017970 
#    z -0.030270 0.017970 1.720620 
# 
# From -- ./inp_files/222885.got.cif
#   From: 2010.05.17/outbox.cif.g08.bks.cpg/sg2_112_cif.got.tgz:222885.got - 2010.06.03 11:33:40.
