data_PCOD9056220
_publ_section_title
;
Structure prediction by ZEFSAII (Michael W. Deem and Ramdas Pophale) SiO2 
 PCOD9056220
Probable space group: P -1
;
_chemical_formula_sum "Si O2"
_cell_formula_units_Z 14
_cell_length_a 12.168013
_cell_length_b 15.989427
_cell_length_c 8.757160
_cell_angle_alpha 120.191133
_cell_angle_beta 56.412654
_cell_angle_gamma 156.106261
_cell_volume 574.866572
_symmetry_space_group_name_H-M "P -1"
_symmetry_group_IT_number 2
_symmetry_cell_setting 'triclinic'
loop_
_space_group_symop_operation_xyz
x,y,z
-x,-y,-z
loop_
_atom_site_type_symbol
_atom_site_label
_atom_site_fract_x
_atom_site_fract_y
_atom_site_fract_z
Si Si1 0.790032 0.246241 0.018412
Si Si2 0.106991 0.704150 0.654770
Si Si3 0.375409 0.069380 0.696760
Si Si4 0.535261 0.291542 0.544577
Si Si5 0.057204 0.923642 0.372529
Si Si6 0.705807 0.521656 0.336893
Si Si7 0.465235 0.197430 0.073382
O O1 0.899263 0.310942 0.169383
O O2 0.705524 0.298871 0.079471
O O3 0.996176 0.331473 0.814282
O O4 0.500000 0.000000 0.000000
O O5 0.391982 0.837663 0.496929
O O6 0.839559 0.486144 0.572713
O O7 0.135209 0.835281 0.702751
O O8 0.328399 0.141262 0.711828
O O9 0.501405 0.181646 0.863827
O O10 0.346068 0.096570 0.404700
O O11 0.601631 0.419170 0.488614
O O12 0.159096 0.969333 0.164218
O O13 0.000000 0.000000 0.500000
O O14 0.795104 0.690964 0.413761
O O15 0.503110 0.336149 0.200712
#
# Coordination Sequence:
#
# PCOD9056220 Si02
#       7
#     2   2   2   2   2   2   2
#     4  12  21  39  67  98 136 174 208 256 321 390
#     4  11  22  36  60  92 140 175 208 257 317 385
#     4  11  22  38  60  96 137 173 208 256 323 392
#     4  11  24  38  62  93 125 168 214 263 323 379
#     4  11  25  47  70  92 120 168 230 280 322 375
#     4  11  23  41  66  93 133 164 217 266 325 386
#     4  11  23  40  67  98 130 176 217 262 319 388
#
# _framework density 24.353477000000002
#
# number of rings (size 3 to 8) (size 9 to 14) (size 15 to 20)
#    0.000    0.857    2.857    5.143    2.000    3.429 
#    0.000    0.714    0.000    6.857    0.000    0.000 
#    0.000    0.000    0.000    0.000    0.000    0.000 
#
# Total GULP energy -77983.266795 kJ/mol
# GULP energy per Si atom -5570.233342 kJ/mol
# Density = 2.429805 g / cm^3
# Si number density = 24.353477 Si / 1000 Ang^3
#
#
#
# Elastic Constant Matrix: (Units=GPa)
#
#
# Indices 1 2 3 4 5 6 
#
# 1 77.9230 45.0129 60.7054 0.8352 20.2609 -25.2891
# 2 45.0129 169.0512 23.4389 19.8626 11.3376 -41.9746
# 3 60.7054 23.4389 74.6556 1.3385 16.2535 -10.7014
# 4 0.8352 19.8626 1.3385 41.0332 -6.0846 4.6144
# 5 20.2609 11.3376 16.2535 -6.0846 33.1759 3.4894
# 6 -25.2891 -41.9746 -10.7014 4.6144 3.4894 48.8814
#
#
#
# Elastic Compliance Matrix: (Units=1/GPa)
#
#
# Indices 1 2 3 4 5 6 
#
# 1 0.052179 -0.003149 -0.035368 -0.002753 -0.015855 0.017940
# 2 -0.003149 0.009397 0.001692 -0.005998 -0.004023 0.007664
# 3 -0.035368 0.001692 0.039942 -0.000134 0.002296 -0.008251
# 4 -0.002753 -0.005998 -0.000134 0.030017 0.010372 -0.010178
# 5 -0.015855 -0.004023 0.002296 0.010372 0.043581 -0.015245
# 6 0.017940 0.007664 -0.008251 -0.010178 -0.015245 0.036563
#
#
# Mechanical properties :
#
#
# Convention : Reuss Voigt Hill
#
# Bulk Modulus (GPa) = 35.88122 64.43825 50.15973
# Shear Modulus (GPa) = 16.97121 37.44960 27.21040
#
# Velocity S-wave (km/s) = 2.64269 3.92567 3.34625
# Velocity P-wave (km/s) = 4.90686 6.86038 5.96415
#
# Compressibility (1/GPa) = 0.02786973
#
# Stress axis : x y z
#
# Youngs Moduli (GPa) = 19.16471 106.42127 25.03628
#
# Poissons Ratio (x) = 0.33510 0.88547
# Poissons Ratio (y) = 0.06035 -0.04237
# Poissons Ratio (z) = 0.67781 -0.18010
#
# Static dielectric constant tensor:
#      x y z
#    x 2.180720 -0.095500 -0.096330 
#    y -0.095500 2.003330 -0.027730 
#    z -0.096330 -0.027730 2.141110 
# 
# From -- ./inp_files/270838.got.cif
#   From: 2010.05.17/outbox.cif.g08.bks.cpg/sg2_136_cif.got.tgz:270838.got - 2010.06.03 11:33:40.
