data_PCOD9056693
_publ_section_title
;
Structure prediction by ZEFSAII (Michael W. Deem and Ramdas Pophale) SiO2 
 PCOD9056693
Probable space group: P -1
;
_chemical_formula_sum "Si O2"
_cell_formula_units_Z 16
_cell_length_a 8.227379
_cell_length_b 8.074032
_cell_length_c 10.584903
_cell_angle_alpha 59.487125
_cell_angle_beta 75.052719
_cell_angle_gamma 89.277321
_cell_volume 579.318874
_symmetry_space_group_name_H-M "P -1"
_symmetry_group_IT_number 2
_symmetry_cell_setting 'triclinic'
loop_
_space_group_symop_operation_xyz
x,y,z
-x,-y,-z
loop_
_atom_site_type_symbol
_atom_site_label
_atom_site_fract_x
_atom_site_fract_y
_atom_site_fract_z
Si Si1 0.820725 0.328429 0.223320
Si Si2 0.376469 0.125180 0.844535
Si Si3 0.745749 0.170435 0.649438
Si Si4 0.822667 0.649218 0.715333
Si Si5 0.237069 0.443121 0.647022
Si Si6 0.656637 0.620162 0.996812
Si Si7 0.304294 0.035554 0.524170
Si Si8 0.872650 0.225091 0.854796
O O1 0.685908 0.408385 0.315051
O O2 0.796465 0.474122 0.058542
O O3 0.986797 0.334554 0.274594
O O4 0.771542 0.102897 0.292564
O O5 0.565615 0.092013 0.782784
O O6 0.348148 0.272645 0.678152
O O7 0.378898 0.252507 0.925008
O O8 0.234098 0.938940 0.973557
O O9 0.777610 0.405404 0.520104
O O10 0.877213 0.144399 0.743148
O O11 0.765065 0.072878 0.549738
O O12 0.765905 0.761488 0.561403
O O13 0.777566 0.416612 0.798039
O O14 0.735704 0.740356 0.815807
O O15 0.070190 0.315561 0.797525
O O16 0.500000 0.500000 0.000000
O O17 0.500000 0.000000 0.500000
#
# Coordination Sequence:
#
# PCOD9056693 Si02
#       8
#     2   2   2   2   2   2   2   2
#     4   9  21  40  63  93 127 165 218 267 319 381
#     4  11  23  41  65  97 131 168 214 266 319 383
#     4  11  23  42  64  92 126 167 215 269 321 382
#     4  11  23  41  64  91 128 172 212 267 326 383
#     4   9  21  41  65  91 127 168 213 264 321 384
#     4  11  22  40  66  96 130 171 212 265 320 379
#     4  11  24  43  65  93 125 167 219 270 322 384
#     4  11  23  40  64  97 129 166 212 264 325 388
#
# _framework density 27.618639999999999
#
# number of rings (size 3 to 8) (size 9 to 14) (size 15 to 20)
#    0.000    1.500    0.000    4.500    0.000    5.000 
#    0.000    5.000    0.000    0.000    0.000    0.000 
#    0.000    0.000    0.000    0.000    0.000    0.000 
#
# Total GULP energy -89151.046442 kJ/mol
# GULP energy per Si atom -5571.940403 kJ/mol
# Density = 2.755578 g / cm^3
# Si number density = 27.618640 Si / 1000 Ang^3
#
#
#
# Elastic Constant Matrix: (Units=GPa)
#
#
# Indices 1 2 3 4 5 6 
#
# 1 94.5589 7.3325 28.1506 -19.3377 3.1274 1.5633
# 2 7.3325 107.9545 27.3116 -6.7820 1.8961 4.4648
# 3 28.1506 27.3116 172.9536 -23.8570 11.9373 5.5408
# 4 -19.3377 -6.7820 -23.8570 61.9062 -2.6845 7.5966
# 5 3.1274 1.8961 11.9373 -2.6845 43.2975 -0.5716
# 6 1.5633 4.4648 5.5408 7.5966 -0.5716 36.4405
#
#
#
# Elastic Compliance Matrix: (Units=1/GPa)
#
#
# Indices 1 2 3 4 5 6 
#
# 1 0.011680 -0.000200 -0.001380 0.003198 -0.000269 -0.000938
# 2 -0.000200 0.009710 -0.001382 0.000603 -0.000007 -0.001097
# 3 -0.001380 -0.001382 0.006658 0.002067 -0.001564 -0.001239
# 4 0.003198 0.000603 0.002067 0.018566 0.000266 -0.004392
# 5 -0.000269 -0.000007 -0.001564 0.000266 0.023571 0.000564
# 6 -0.000938 -0.001097 -0.001239 -0.004392 0.000564 0.028729
#
#
# Mechanical properties :
#
#
# Convention : Reuss Voigt Hill
#
# Bulk Modulus (GPa) = 45.19940 55.67294 50.43617
# Shear Modulus (GPa) = 44.55880 49.17365 46.86622
#
# Velocity S-wave (km/s) = 4.02102 4.22412 4.12382
# Velocity P-wave (km/s) = 6.16111 6.63268 6.40124
#
# Compressibility (1/GPa) = 0.02212419
#
# Stress axis : x y z
#
# Youngs Moduli (GPa) = 85.61537 102.98948 150.20621
#
# Poissons Ratio (x) = 0.02058 0.20725
# Poissons Ratio (y) = 0.01711 0.20758
# Poissons Ratio (z) = 0.11813 0.14233
#
# Static dielectric constant tensor:
#      x y z
#    x 2.886200 -0.233170 -0.351750 
#    y -0.233170 2.313740 0.004760 
#    z -0.351750 0.004760 2.353430 
# 
# From -- ./inp_files/381016.got.cif
#   From: 2010.05.17/outbox.cif.g08.bks.cpg/sg2_191_cif.got.tgz:381016.got - 2010.06.03 11:33:40.
