data_PCOD9056770
_publ_section_title
;
Structure prediction by ZEFSAII (Michael W. Deem and Ramdas Pophale) SiO2 
 PCOD9056770
Probable space group: P -1
;
_chemical_formula_sum "Si O2"
_cell_formula_units_Z 12
_cell_length_a 11.407859
_cell_length_b 8.582771
_cell_length_c 9.136883
_cell_angle_alpha 80.129521
_cell_angle_beta 91.608381
_cell_angle_gamma 37.074952
_cell_volume 510.463035
_symmetry_space_group_name_H-M "P -1"
_symmetry_group_IT_number 2
_symmetry_cell_setting 'triclinic'
loop_
_space_group_symop_operation_xyz
x,y,z
-x,-y,-z
loop_
_atom_site_type_symbol
_atom_site_label
_atom_site_fract_x
_atom_site_fract_y
_atom_site_fract_z
Si Si1 0.874301 0.203401 0.322824
Si Si2 0.474063 0.641233 0.768056
Si Si3 0.189050 0.425495 0.601672
Si Si4 0.782032 0.018645 0.819831
Si Si5 0.364471 0.013039 0.919822
Si Si6 0.286686 0.071881 0.462195
O O1 0.736280 0.222468 0.243313
O O2 0.736852 0.491048 0.344049
O O3 0.000000 0.000000 0.500000
O O4 0.013820 0.134023 0.217928
O O5 0.642429 0.325208 0.794741
O O6 0.500956 0.728329 0.892108
O O7 0.433336 0.795911 0.601179
O O8 0.292269 0.247509 0.487191
O O9 0.947422 0.709833 0.533237
O O10 0.236255 0.239382 0.752699
O O11 0.704218 0.983490 0.697073
O O12 0.780405 0.916456 0.982260
O O13 0.500000 0.000000 0.000000
#
# Coordination Sequence:
#
# PCOD9056770 Si02
#       6
#     2   2   2   2   2   2
#     4  11  22  40  69 102 129 169 213 276 331 378
#     4  11  22  44  68  95 140 163 220 280 318 391
#     4   9  19  39  62  90 134 163 216 266 315 382
#     4  11  23  41  68 101 132 173 222 256 338 396
#     4  11  25  45  63  94 136 181 214 270 327 390
#     4   9  19  37  64  97 121 175 211 268 322 371
#
# _framework density 23.508067
#
# number of rings (size 3 to 8) (size 9 to 14) (size 15 to 20)
#    0.000    1.667    3.333    2.000    0.000    3.333 
#    3.000    4.167    0.000    0.000    0.000    0.000 
#    0.000    0.000    0.000    0.000    0.000    0.000 
#
# Total GULP energy -67090.809573 kJ/mol
# GULP energy per Si atom -5590.900798 kJ/mol
# Density = 2.345456 g / cm^3
# Si number density = 23.508067 Si / 1000 Ang^3
#
#
#
# Elastic Constant Matrix: (Units=GPa)
#
#
# Indices 1 2 3 4 5 6 
#
# 1 114.3205 53.3417 36.3548 12.3206 0.2190 17.3561
# 2 53.3417 121.5820 21.1351 14.0589 7.1254 30.4029
# 3 36.3548 21.1351 46.2749 8.9925 8.4618 18.1132
# 4 12.3206 14.0589 8.9925 34.7215 11.7611 5.4700
# 5 0.2190 7.1254 8.4618 11.7611 30.3437 10.0505
# 6 17.3561 30.4029 18.1132 5.4700 10.0505 52.9768
#
#
#
# Elastic Compliance Matrix: (Units=1/GPa)
#
#
# Indices 1 2 3 4 5 6 
#
# 1 0.014105 -0.004714 -0.009590 -0.002181 0.004267 0.000779
# 2 -0.004714 0.011728 0.000900 -0.002380 -0.000331 -0.005185
# 3 -0.009590 0.000900 0.033162 -0.002345 -0.006055 -0.007322
# 4 -0.002181 -0.002380 -0.002345 0.035284 -0.013013 0.001708
# 5 0.004267 -0.000331 -0.006055 -0.013013 0.041620 -0.005690
# 6 0.000779 -0.005185 -0.007322 0.001708 -0.005690 0.025003
#
#
# Mechanical properties :
#
#
# Convention : Reuss Voigt Hill
#
# Bulk Modulus (GPa) = 31.06836 55.98228 43.52532
# Shear Modulus (GPa) = 25.19666 35.03146 30.11406
#
# Velocity S-wave (km/s) = 3.27743 3.86448 3.58300
# Velocity P-wave (km/s) = 5.25041 6.61650 5.97264
#
# Compressibility (1/GPa) = 0.03218708
#
# Stress axis : x y z
#
# Youngs Moduli (GPa) = 70.89679 85.26686 30.15504
#
# Poissons Ratio (x) = 0.40194 0.28917
# Poissons Ratio (y) = 0.33420 -0.02713
# Poissons Ratio (z) = 0.67987 -0.07670
#
# Static dielectric constant tensor:
#      x y z
#    x 1.969610 0.014160 0.033360 
#    y 0.014160 1.900290 0.016270 
#    z 0.033360 0.016270 1.878240 
# 
# From -- ./inp_files/160603.got.cif
#   From: 2010.05.17/outbox.cif.g08.bks.cpg/sg2_81_cif.got.tgz:160603.got - 2010.06.03 11:33:40.
