data_PCOD9056310
_publ_section_title
;
Structure prediction by ZEFSAII (Michael W. Deem and Ramdas Pophale) SiO2 
 PCOD9056310
Probable space group: P -1
;
_chemical_formula_sum "Si O2"
_cell_formula_units_Z 15
_cell_length_a 16.696284
_cell_length_b 19.951682
_cell_length_c 9.425453
_cell_angle_alpha 141.324287
_cell_angle_beta 142.905530
_cell_angle_gamma 20.502823
_cell_volume 654.844761
_symmetry_space_group_name_H-M "P -1"
_symmetry_group_IT_number 2
_symmetry_cell_setting 'triclinic'
loop_
_space_group_symop_operation_xyz
x,y,z
-x,-y,-z
loop_
_atom_site_type_symbol
_atom_site_label
_atom_site_fract_x
_atom_site_fract_y
_atom_site_fract_z
Si Si1 0.958477 0.915916 0.881996
Si Si2 0.445320 0.709258 0.510220
Si Si3 0.632046 0.035385 0.381385
Si Si4 0.736221 0.048224 0.091050
Si Si5 0.987704 0.385040 0.750585
Si Si6 0.500000 0.500000 0.000000
Si Si7 0.220173 0.313685 0.691026
Si Si8 0.837489 0.748126 0.798531
O O1 0.213128 0.683772 0.852473
O O2 0.747877 0.002420 0.635975
O O3 0.862363 0.996861 0.038789
O O4 0.000000 0.000000 0.000000
O O5 0.403944 0.841570 0.571005
O O6 0.293661 0.836280 0.646975
O O7 0.723439 0.524035 0.639230
O O8 0.413829 0.628194 0.231125
O O9 0.382592 0.146277 0.244653
O O10 0.822441 0.819205 0.243259
O O11 0.472146 0.177796 0.891829
O O12 0.868887 0.854414 0.021736
O O13 0.067786 0.341528 0.627736
O O14 0.000000 0.500000 0.000000
O O15 0.236417 0.237529 0.442183
O O16 0.071876 0.521960 0.794427
#
# Coordination Sequence:
#
# PCOD9056310 Si02
#       8
#     2   2   2   2   2   1   2   2
#     4  12  27  50  77  97 133 192 252 303 356 420
#     4  12  27  44  73 108 143 195 240 303 353 427
#     4  12  23  42  73 101 144 191 234 285 369 435
#     4  12  26  44  72 109 147 183 239 302 358 429
#     4  12  23  38  68 106 151 185 223 285 361 433
#     4  12  28  52  74  98 136 194 256 302 362 412
#     4  11  22  37  65 109 150 190 227 277 355 441
#     4  11  23  38  69 110 149 186 229 285 365 445
#
# _framework density 22.906192000000001
#
# number of rings (size 3 to 8) (size 9 to 14) (size 15 to 20)
#    0.000    0.267    8.000    1.200    1.867    2.667 
#    0.000    0.667    0.000    0.000    0.000    0.000 
#    0.000    0.000    0.000    0.000    0.000    0.000 
#
# Total GULP energy -83719.328070 kJ/mol
# GULP energy per Si atom -5581.288538 kJ/mol
# Density = 2.285406 g / cm^3
# Si number density = 22.906192 Si / 1000 Ang^3
#
#
#
# Elastic Constant Matrix: (Units=GPa)
#
#
# Indices 1 2 3 4 5 6 
#
# 1 103.2224 22.5217 32.1756 9.6562 -28.3471 -11.0637
# 2 22.5217 92.1675 29.6665 23.2578 -20.0815 -13.6538
# 3 32.1756 29.6665 125.5449 24.7697 -18.3374 -7.4993
# 4 9.6562 23.2578 24.7697 28.3619 -2.4460 -1.6012
# 5 -28.3471 -20.0815 -18.3374 -2.4460 29.8963 0.6223
# 6 -11.0637 -13.6538 -7.4993 -1.6012 0.6223 25.2171
#
#
#
# Elastic Compliance Matrix: (Units=1/GPa)
#
#
# Indices 1 2 3 4 5 6 
#
# 1 0.014462 0.001738 -0.000924 -0.003985 0.013853 0.006416
# 2 0.001738 0.018004 0.000517 -0.014178 0.012702 0.009451
# 3 -0.000924 0.000517 0.010752 -0.008910 0.005288 0.002376
# 4 -0.003985 -0.014178 -0.008910 0.054336 -0.014149 -0.008275
# 5 0.013853 0.012702 0.005288 -0.014149 0.056947 0.012224
# 6 0.006416 0.009451 0.002376 -0.008275 0.012224 0.047467
#
#
# Mechanical properties :
#
#
# Convention : Reuss Voigt Hill
#
# Bulk Modulus (GPa) = 21.79592 54.40693 38.10142
# Shear Modulus (GPa) = 23.29930 32.46647 27.88289
#
# Velocity S-wave (km/s) = 3.19276 3.76888 3.49272
# Velocity P-wave (km/s) = 4.80911 6.53780 5.73892
#
# Compressibility (1/GPa) = 0.04588015
#
# Stress axis : x y z
#
# Youngs Moduli (GPa) = 69.14904 55.54328 93.00607
#
# Poissons Ratio (x) = -0.09654 0.08595
# Poissons Ratio (y) = -0.12019 -0.04812
# Poissons Ratio (z) = 0.06390 -0.02874
#
# Static dielectric constant tensor:
#      x y z
#    x 1.852740 0.002740 -0.049850 
#    y 0.002740 1.843010 0.015600 
#    z -0.049850 0.015600 1.929350 
# 
# From -- ./inp_files/338202.got.cif
#   From: 2010.05.17/outbox.cif.g08.bks.cpg/sg2_170_cif.got.tgz:338202.got - 2010.06.03 11:33:40.
