data_PCOD9056832
_publ_section_title
;
Structure prediction by ZEFSAII (Michael W. Deem and Ramdas Pophale) SiO2 
 PCOD9056832
Probable space group: P -1
;
_chemical_formula_sum "Si O2"
_cell_formula_units_Z 16
_cell_length_a 21.355781
_cell_length_b 7.452538
_cell_length_c 9.314764
_cell_angle_alpha 81.515761
_cell_angle_beta 30.194719
_cell_angle_gamma 69.811337
_cell_volume 663.148843
_symmetry_space_group_name_H-M "P -1"
_symmetry_group_IT_number 2
_symmetry_cell_setting 'triclinic'
loop_
_space_group_symop_operation_xyz
x,y,z
-x,-y,-z
loop_
_atom_site_type_symbol
_atom_site_label
_atom_site_fract_x
_atom_site_fract_y
_atom_site_fract_z
Si Si1 0.254582 0.477809 0.663769
Si Si2 0.072928 0.366114 0.232646
Si Si3 0.324014 0.386118 0.208220
Si Si4 0.339761 0.838092 0.444874
Si Si5 0.254553 0.931221 0.915487
Si Si6 0.137024 0.804070 0.402699
Si Si7 0.511170 0.174906 0.365651
Si Si8 0.248502 0.060072 0.303532
O O1 0.282211 0.391261 0.457737
O O2 0.275230 0.678778 0.584803
O O3 0.374179 0.340972 0.552759
O O4 0.119070 0.485313 0.009670
O O5 0.000000 0.500000 0.500000
O O6 0.984081 0.264880 0.342604
O O7 0.202807 0.158594 0.052133
O O8 0.268337 0.612391 0.231267
O O9 0.244367 0.280251 0.289213
O O10 0.491692 0.268620 0.877778
O O11 0.280036 0.951563 0.697711
O O12 0.281776 0.983465 0.408760
O O13 0.400344 0.762966 0.706552
O O14 0.153341 0.848742 0.197256
O O15 0.132989 0.996618 0.475627
O O16 0.500000 0.000000 0.500000
O O17 0.613540 0.074872 0.042757
#
# Coordination Sequence:
#
# PCOD9056832 Si02
#       8
#     2   2   2   2   2   2   2   2
#     4  12  25  45  72 111 152 188 246 301 369 439
#     4  12  28  49  74 101 148 200 250 303 358 428
#     4  12  25  45  78 110 153 186 239 305 375 438
#     4  12  23  45  74 114 151 189 233 309 379 436
#     4  11  25  45  73 107 146 185 251 302 366 434
#     4  11  27  48  72 108 145 200 254 292 353 437
#     4  11  22  40  71 108 143 180 238 300 370 433
#     4  11  24  43  73 108 148 195 233 304 367 430
#
# _framework density 24.127312
#
# number of rings (size 3 to 8) (size 9 to 14) (size 15 to 20)
#    0.000    0.500    3.750    4.875    3.500    4.500 
#    0.000    1.250    0.000    0.000    0.000    0.000 
#    0.000    0.000    0.000    0.000    0.000    0.000 
#
# Total GULP energy -89422.219710 kJ/mol
# GULP energy per Si atom -5588.888732 kJ/mol
# Density = 2.407240 g / cm^3
# Si number density = 24.127312 Si / 1000 Ang^3
#
#
#
# Elastic Constant Matrix: (Units=GPa)
#
#
# Indices 1 2 3 4 5 6 
#
# 1 101.0216 18.4316 52.8239 -5.5371 9.7748 17.1165
# 2 18.4316 92.2615 28.4630 -25.0475 8.1026 14.2607
# 3 52.8239 28.4630 148.6672 -27.4431 17.4968 9.8794
# 4 -5.5371 -25.0475 -27.4431 40.7756 -2.7449 1.8700
# 5 9.7748 8.1026 17.4968 -2.7449 45.4044 -12.4756
# 6 17.1165 14.2607 9.8794 1.8700 -12.4756 48.3948
#
#
#
# Elastic Compliance Matrix: (Units=1/GPa)
#
#
# Indices 1 2 3 4 5 6 
#
# 1 0.013092 -0.000933 -0.004246 -0.001619 -0.002212 -0.003996
# 2 -0.000933 0.014495 -0.000120 0.008713 -0.003209 -0.005081
# 3 -0.004246 -0.000120 0.009758 0.005789 -0.002864 -0.001417
# 4 -0.001619 0.008713 0.005789 0.033601 -0.002837 -0.005207
# 5 -0.002212 -0.003209 -0.002864 -0.002837 0.026551 0.009267
# 6 -0.003996 -0.005081 -0.001417 -0.005207 0.009267 0.026453
#
#
# Mechanical properties :
#
#
# Convention : Reuss Voigt Hill
#
# Bulk Modulus (GPa) = 37.38777 60.15417 48.77097
# Shear Modulus (GPa) = 34.85197 43.06373 38.95785
#
# Velocity S-wave (km/s) = 3.80478 4.22934 4.02267
# Velocity P-wave (km/s) = 5.90182 6.98826 6.46790
#
# Compressibility (1/GPa) = 0.02674672
#
# Stress axis : x y z
#
# Youngs Moduli (GPa) = 76.38425 68.99030 102.48011
#
# Poissons Ratio (x) = 0.06437 0.43513
# Poissons Ratio (y) = 0.07127 0.01228
# Poissons Ratio (z) = 0.32433 0.00827
#
# Static dielectric constant tensor:
#      x y z
#    x 2.085050 0.002960 -0.076240 
#    y 0.002960 1.930880 0.010610 
#    z -0.076240 0.010610 1.997680 
# 
# From -- ./inp_files/352099.got.cif
#   From: 2010.05.17/outbox.cif.g08.bks.cpg/sg2_177_cif.got.tgz:352099.got - 2010.06.03 11:33:40.
