data_PCOD9056631
_publ_section_title
;
Structure prediction by ZEFSAII (Michael W. Deem and Ramdas Pophale) SiO2 
 PCOD9056631
Probable space group: P -1
;
_chemical_formula_sum "Si O2"
_cell_formula_units_Z 14
_cell_length_a 7.880111
_cell_length_b 19.373235
_cell_length_c 17.265751
_cell_angle_alpha 159.113485
_cell_angle_beta 51.735923
_cell_angle_gamma 137.850882
_cell_volume 600.207760
_symmetry_space_group_name_H-M "P -1"
_symmetry_group_IT_number 2
_symmetry_cell_setting 'triclinic'
loop_
_space_group_symop_operation_xyz
x,y,z
-x,-y,-z
loop_
_atom_site_type_symbol
_atom_site_label
_atom_site_fract_x
_atom_site_fract_y
_atom_site_fract_z
Si Si1 0.462283 0.245664 0.239983
Si Si2 0.233324 0.787970 0.746131
Si Si3 0.951239 0.508932 0.271787
Si Si4 0.074008 0.148356 0.463624
Si Si5 0.454305 0.836409 0.573675
Si Si6 0.809686 0.671807 0.085885
Si Si7 0.114391 0.774667 0.249478
O O1 0.500000 0.500000 0.500000
O O2 0.545945 0.207905 0.260331
O O3 0.697147 0.308131 0.179659
O O4 0.213067 0.987477 0.006095
O O5 0.332868 0.882058 0.729840
O O6 0.000000 0.500000 0.500000
O O7 0.206586 0.622178 0.372927
O O8 0.027964 0.432510 0.093279
O O9 0.896827 0.697563 0.455269
O O10 0.343946 0.216248 0.500689
O O11 0.891200 0.150635 0.583947
O O12 0.907539 0.870486 0.201202
O O13 0.612824 0.050552 0.691210
O O14 0.500000 0.500000 0.000000
O O15 0.907908 0.777011 0.253931
O O16 0.000000 0.500000 0.000000
#
# Coordination Sequence:
#
# PCOD9056631 Si02
#       7
#     2   2   2   2   2   2   2
#     4  11  25  46  76 105 141 186 245 301 363 433
#     4  11  24  49  72 101 146 183 234 311 360 420
#     4  12  24  44  70 101 138 185 236 296 356 427
#     4  11  24  42  64  97 139 181 232 288 355 426
#     4  11  24  45  68  98 141 186 235 293 362 424
#     4  11  23  40  65  96 135 182 234 286 351 427
#     4  11  22  40  63  94 137 181 227 289 353 419
#
# _framework density 23.325254999999999
#
# number of rings (size 3 to 8) (size 9 to 14) (size 15 to 20)
#    0.000    0.857    2.857    6.000    2.000    2.857 
#    0.000    0.000    0.000    0.000    0.000    0.000 
#    0.000    0.000    0.000    0.000    0.000    0.000 
#
# Total GULP energy -78086.044720 kJ/mol
# GULP energy per Si atom -5577.574623 kJ/mol
# Density = 2.327217 g / cm^3
# Si number density = 23.325255 Si / 1000 Ang^3
#
#
#
# Elastic Constant Matrix: (Units=GPa)
#
#
# Indices 1 2 3 4 5 6 
#
# 1 42.6929 25.4996 23.1564 14.2369 -1.3614 -7.0500
# 2 25.4996 95.8759 20.3091 11.2743 8.0688 -11.3705
# 3 23.1564 20.3091 129.2162 12.4940 2.7376 3.4416
# 4 14.2369 11.2743 12.4940 40.7047 -7.5045 2.2835
# 5 -1.3614 8.0688 2.7376 -7.5045 46.9151 6.6960
# 6 -7.0500 -11.3705 3.4416 2.2835 6.6960 35.0780
#
#
#
# Elastic Compliance Matrix: (Units=1/GPa)
#
#
# Indices 1 2 3 4 5 6 
#
# 1 0.033410 -0.006256 -0.004292 -0.008944 0.000055 0.005680
# 2 -0.006256 0.013242 -0.000794 -0.002061 -0.003295 0.003876
# 3 -0.004292 -0.000794 0.008781 -0.000942 -0.000388 -0.001846
# 4 -0.008944 -0.002061 -0.000942 0.029911 0.005706 -0.005410
# 5 0.000055 -0.003295 -0.000388 0.005706 0.023662 -0.005907
# 6 0.005680 0.003876 -0.001846 -0.005410 -0.005907 0.032567
#
#
# Mechanical properties :
#
#
# Convention : Reuss Voigt Hill
#
# Bulk Modulus (GPa) = 30.53534 45.07946 37.80740
# Shear Modulus (GPa) = 28.54335 37.79423 33.16879
#
# Velocity S-wave (km/s) = 3.50195 4.02968 3.77505
# Velocity P-wave (km/s) = 5.42873 6.40465 5.93677
#
# Compressibility (1/GPa) = 0.03274894
#
# Stress axis : x y z
#
# Youngs Moduli (GPa) = 29.93158 75.51951 113.87740
#
# Poissons Ratio (x) = 0.47245 0.48871
# Poissons Ratio (y) = 0.18725 0.09045
# Poissons Ratio (z) = 0.12845 0.05998
#
# Static dielectric constant tensor:
#      x y z
#    x 2.009320 -0.043400 -0.162950 
#    y -0.043400 1.941510 0.011160 
#    z -0.162950 0.011160 2.183070 
# 
# From -- ./inp_files/562738.got.cif
#   From: 2010.05.17/outbox.cif.g08.bks.cpg/sg2_282_cif.got.tgz:562738.got - 2010.06.03 11:33:40.
