data_PCOD9056227
_publ_section_title
;
Structure prediction by ZEFSAII (Michael W. Deem and Ramdas Pophale) SiO2 
 PCOD9056227
Probable space group: P -1
;
_chemical_formula_sum "Si O2"
_cell_formula_units_Z 12
_cell_length_a 9.938046
_cell_length_b 14.924353
_cell_length_c 13.779408
_cell_angle_alpha 28.278077
_cell_angle_beta 36.295382
_cell_angle_gamma 26.865934
_cell_volume 435.561288
_symmetry_space_group_name_H-M "P -1"
_symmetry_group_IT_number 2
_symmetry_cell_setting 'triclinic'
loop_
_space_group_symop_operation_xyz
x,y,z
-x,-y,-z
loop_
_atom_site_type_symbol
_atom_site_label
_atom_site_fract_x
_atom_site_fract_y
_atom_site_fract_z
Si Si1 0.277627 0.858222 0.856201
Si Si2 0.089945 0.616432 0.094098
Si Si3 0.217385 0.678060 0.562892
Si Si4 0.397556 0.534687 0.805725
Si Si5 0.473440 0.924461 0.194949
Si Si6 0.450192 0.956021 0.392940
O O1 0.585949 0.644266 0.820336
O O2 0.325381 0.725317 0.058273
O O3 0.049188 0.853054 0.934287
O O4 0.302005 0.064908 0.669764
O O5 0.129928 0.614053 0.957585
O O6 0.810854 0.654684 0.259884
O O7 0.500000 0.500000 0.500000
O O8 0.306257 0.537578 0.747336
O O9 0.224896 0.898098 0.368315
O O10 0.882985 0.815368 0.591921
O O11 0.470796 0.718596 0.598528
O O12 0.445852 0.038403 0.206301
O O13 0.500000 0.000000 0.000000
#
# Coordination Sequence:
#
# PCOD9056227 Si02
#       6
#     2   2   2   2   2   2
#     4   9  21  38  64  83 120 155 194 238 291 345
#     4   9  19  41  60  87 120 151 197 239 290 348
#     4  11  23  37  58  88 118 153 199 240 293 347
#     4   9  20  40  57  86 119 151 192 244 287 341
#     4  11  22  36  62  88 118 155 192 245 294 343
#     4  11  22  38  59  87 119 153 196 241 293 347
#
# _framework density 27.550656
#
# number of rings (size 3 to 8) (size 9 to 14) (size 15 to 20)
#    1.000    1.000    0.000    5.000    2.333    2.000 
#    0.000    3.333    0.000    0.000    0.000    0.000 
#    0.000    0.000    0.000    0.000    0.000    0.000 
#
# Total GULP energy -67014.219433 kJ/mol
# GULP energy per Si atom -5584.518286 kJ/mol
# Density = 2.748795 g / cm^3
# Si number density = 27.550656 Si / 1000 Ang^3
#
#
#
# Elastic Constant Matrix: (Units=GPa)
#
#
# Indices 1 2 3 4 5 6 
#
# 1 85.3248 2.5759 27.0050 12.0679 -7.0409 20.6440
# 2 2.5759 72.5248 12.5878 23.1147 -5.8724 3.2329
# 3 27.0050 12.5878 111.9102 3.6986 -11.2193 5.8297
# 4 12.0679 23.1147 3.6986 51.7364 6.4527 0.1343
# 5 -7.0409 -5.8724 -11.2193 6.4527 58.7242 1.0439
# 6 20.6440 3.2329 5.8297 0.1343 1.0439 36.1438
#
#
#
# Elastic Compliance Matrix: (Units=1/GPa)
#
#
# Indices 1 2 3 4 5 6 
#
# 1 0.015559 0.001997 -0.003170 -0.004536 0.002111 -0.008598
# 2 0.001997 0.016956 -0.001735 -0.008229 0.002551 -0.002421
# 3 -0.003170 -0.001735 0.009986 0.000641 0.001278 0.000316
# 4 -0.004536 -0.008229 0.000641 0.024508 -0.003995 0.003248
# 5 0.002111 0.002551 0.001278 -0.003995 0.018258 -0.002153
# 6 -0.008598 -0.002421 0.000316 0.003248 -0.002153 0.032794
#
#
# Mechanical properties :
#
#
# Convention : Reuss Voigt Hill
#
# Bulk Modulus (GPa) = 27.25860 39.34412 33.30136
# Shear Modulus (GPa) = 36.73636 44.49362 40.61499
#
# Velocity S-wave (km/s) = 3.65555 4.02303 3.84369
# Velocity P-wave (km/s) = 5.26620 5.99094 5.64023
#
# Compressibility (1/GPa) = 0.03668567
#
# Stress axis : x y z
#
# Youngs Moduli (GPa) = 64.27197 58.97662 100.13646
#
# Poissons Ratio (x) = -0.11780 0.31741
# Poissons Ratio (y) = -0.12838 0.17378
# Poissons Ratio (z) = 0.20373 0.10235
#
# Static dielectric constant tensor:
#      x y z
#    x 2.291820 0.013560 -0.029070 
#    y 0.013560 2.292540 -0.136000 
#    z -0.029070 -0.136000 2.208980 
# 
# From -- ./inp_files/178156.got.cif
#   From: 2010.05.17/outbox.cif.g08.bks.cpg/sg2_90_cif.got.tgz:178156.got - 2010.06.03 11:33:40.
