data_PCOD9056625
_publ_section_title
;
Structure prediction by ZEFSAII (Michael W. Deem and Ramdas Pophale) SiO2 
 PCOD9056625
Probable space group: P -1
;
_chemical_formula_sum "Si O2"
_cell_formula_units_Z 14
_cell_length_a 12.091245
_cell_length_b 15.022848
_cell_length_c 15.159737
_cell_angle_alpha 141.247885
_cell_angle_beta 27.633699
_cell_angle_gamma 150.088081
_cell_volume 636.053484
_symmetry_space_group_name_H-M "P -1"
_symmetry_group_IT_number 2
_symmetry_cell_setting 'triclinic'
loop_
_space_group_symop_operation_xyz
x,y,z
-x,-y,-z
loop_
_atom_site_type_symbol
_atom_site_label
_atom_site_fract_x
_atom_site_fract_y
_atom_site_fract_z
Si Si1 0.274686 0.711600 0.470181
Si Si2 0.584237 0.916489 0.074863
Si Si3 0.747436 0.467417 0.035166
Si Si4 0.611630 0.423190 0.291622
Si Si5 0.141735 0.187897 0.788557
Si Si6 0.779587 0.995661 0.720188
Si Si7 0.712088 0.982502 0.223765
O O1 0.524848 0.750814 0.394261
O O2 0.470830 0.804498 0.313475
O O3 0.000000 0.500000 0.500000
O O4 0.187416 0.840451 0.658024
O O5 0.558813 0.975079 0.234152
O O6 0.401733 0.944589 0.154120
O O7 0.460066 0.712959 0.010452
O O8 0.920069 0.027120 0.886564
O O9 0.592343 0.458803 0.230145
O O10 0.844333 0.645929 0.058322
O O11 0.042565 0.483794 0.861304
O O12 0.500000 0.500000 0.500000
O O13 0.442039 0.211045 0.254126
O O14 0.977782 0.123223 0.760033
O O15 0.000000 0.000000 0.500000
O O16 0.000000 0.000000 0.000000
#
# Coordination Sequence:
#
# PCOD9056625 Si02
#       7
#     2   2   2   2   2   2   2
#     4  11  28  51  78 108 143 187 253 312 363 438
#     4  12  24  45  72 102 147 190 233 295 365 434
#     4  11  24  40  65  99 140 182 233 292 347 415
#     4  11  22  40  62  98 142 188 239 278 344 429
#     4  12  24  45  72 101 143 188 237 297 363 433
#     4  12  23  42  67 100 148 190 229 291 359 428
#     4  11  26  50  78 107 145 192 246 305 373 433
#
# _framework density 22.010729000000001
#
# number of rings (size 3 to 8) (size 9 to 14) (size 15 to 20)
#    0.000    0.571    4.286    4.714    2.000    1.714 
#    7.714    0.000    0.000    0.000    0.000    0.000 
#    0.000    0.000    0.000    0.000    0.000    0.000 
#
# Total GULP energy -78281.166518 kJ/mol
# GULP energy per Si atom -5591.511894 kJ/mol
# Density = 2.196063 g / cm^3
# Si number density = 22.010729 Si / 1000 Ang^3
#
#
#
# Elastic Constant Matrix: (Units=GPa)
#
#
# Indices 1 2 3 4 5 6 
#
# 1 93.2435 33.5732 28.0655 -5.7735 -1.4285 7.0766
# 2 33.5732 188.5507 41.6861 -2.9002 3.2709 13.5864
# 3 28.0655 41.6861 126.1130 1.5640 5.3268 10.9293
# 4 -5.7735 -2.9002 1.5640 34.5917 -1.7832 -2.0943
# 5 -1.4285 3.2709 5.3268 -1.7832 31.9156 0.3766
# 6 7.0766 13.5864 10.9293 -2.0943 0.3766 18.5529
#
#
#
# Elastic Compliance Matrix: (Units=1/GPa)
#
#
# Indices 1 2 3 4 5 6 
#
# 1 0.012211 -0.001551 -0.002098 0.001938 0.001189 -0.002092
# 2 -0.001551 0.006117 -0.001397 0.000111 -0.000421 -0.003044
# 3 -0.002098 -0.001397 0.009261 -0.001190 -0.001519 -0.003736
# 4 0.001938 0.000111 -0.001190 0.029585 0.001889 0.003182
# 5 0.001189 -0.000421 -0.001519 0.001889 0.031784 0.000318
# 6 -0.002092 -0.003044 -0.003736 0.003182 0.000318 0.059480
#
#
# Mechanical properties :
#
#
# Convention : Reuss Voigt Hill
#
# Bulk Modulus (GPa) = 57.14789 68.28408 62.71598
# Shear Modulus (GPa) = 30.42069 37.31755 33.86912
#
# Velocity S-wave (km/s) = 3.72167 4.12202 3.92695
# Velocity P-wave (km/s) = 6.66992 7.33111 7.00832
#
# Compressibility (1/GPa) = 0.01749846
#
# Stress axis : x y z
#
# Youngs Moduli (GPa) = 81.89129 163.48281 107.98438
#
# Poissons Ratio (x) = 0.25350 0.22655
# Poissons Ratio (y) = 0.12698 0.15081
# Poissons Ratio (z) = 0.17180 0.22832
#
# Static dielectric constant tensor:
#      x y z
#    x 1.887230 -0.004500 -0.019840 
#    y -0.004500 1.840350 -0.024780 
#    z -0.019840 -0.024780 1.796530 
# 
# From -- ./inp_files/520996.got.cif
#   From: 2010.05.17/outbox.cif.g08.bks.cpg/sg2_261_cif.got.tgz:520996.got - 2010.06.03 11:33:40.
