data_PCOD9056645
_publ_section_title
;
Structure prediction by ZEFSAII (Michael W. Deem and Ramdas Pophale) SiO2 
 PCOD9056645
Probable space group: P -1
;
_chemical_formula_sum "Si O2"
_cell_formula_units_Z 16
_cell_length_a 9.491859
_cell_length_b 8.602280
_cell_length_c 18.583586
_cell_angle_alpha 87.534969
_cell_angle_beta 29.820178
_cell_angle_gamma 94.399279
_cell_volume 733.741766
_symmetry_space_group_name_H-M "P -1"
_symmetry_group_IT_number 2
_symmetry_cell_setting 'triclinic'
loop_
_space_group_symop_operation_xyz
x,y,z
-x,-y,-z
loop_
_atom_site_type_symbol
_atom_site_label
_atom_site_fract_x
_atom_site_fract_y
_atom_site_fract_z
Si Si1 0.208159 0.356988 0.618022
Si Si2 0.142266 0.474974 0.860096
Si Si3 0.992326 0.217070 0.351154
Si Si4 0.948153 0.128869 0.612199
Si Si5 0.361348 0.202547 0.685260
Si Si6 0.321848 0.994703 0.834159
Si Si7 0.842247 0.564840 0.850989
Si Si8 0.379316 0.280698 0.298771
O O1 0.500000 0.500000 0.500000
O O2 0.223555 0.212680 0.668433
O O3 0.107815 0.275277 0.588698
O O4 0.962300 0.439849 0.752445
O O5 0.199130 0.308621 0.806657
O O6 0.472408 0.573065 0.721546
O O7 0.975214 0.552250 0.871302
O O8 0.000000 0.500000 0.000000
O O9 0.037278 0.266817 0.246988
O O10 0.259351 0.323993 0.275537
O O11 0.703861 0.256245 0.512932
O O12 0.008569 0.035097 0.366230
O O13 0.602185 0.107208 0.748624
O O14 0.119811 0.167190 0.460204
O O15 0.338832 0.040130 0.741623
O O16 0.382440 0.821089 0.820332
O O17 0.000000 0.000000 0.000000
O O18 0.500000 0.500000 0.000000
#
# Coordination Sequence:
#
# PCOD9056645 Si02
#       8
#     2   2   2   2   2   2   2   2
#     4  11  24  43  65  98 134 170 220 280 330 401
#     4  11  25  42  64  98 133 173 223 276 338 397
#     4  11  22  42  67  98 132 173 224 278 333 396
#     4  11  23  42  67  99 132 176 226 273 334 400
#     4  11  22  42  65  97 130 172 224 275 331 395
#     4  11  23  42  65  95 134 176 223 277 331 395
#     4  11  25  44  66  94 137 175 220 279 339 397
#     4  11  22  40  64  95 133 169 223 278 324 395
#
# _framework density 21.806038000000001
#
# number of rings (size 3 to 8) (size 9 to 14) (size 15 to 20)
#    0.000    1.000    3.750    3.750    0.000    8.000 
#    0.000    1.250    0.000    0.000    0.000    0.000 
#    0.000    0.000    0.000    0.000    0.000    0.000 
#
# Total GULP energy -89207.417218 kJ/mol
# GULP energy per Si atom -5575.463576 kJ/mol
# Density = 2.175641 g / cm^3
# Si number density = 21.806038 Si / 1000 Ang^3
#
#
#
# Elastic Constant Matrix: (Units=GPa)
#
#
# Indices 1 2 3 4 5 6 
#
# 1 99.6806 36.6098 40.3419 1.3240 11.5939 -5.5270
# 2 36.6098 21.5044 18.4463 -7.9429 -1.5704 -0.1035
# 3 40.3419 18.4463 138.5916 8.4350 -5.0910 -10.1109
# 4 1.3240 -7.9429 8.4350 28.1124 -6.5129 -0.8497
# 5 11.5939 -1.5704 -5.0910 -6.5129 36.4713 -0.6106
# 6 -5.5270 -0.1035 -10.1109 -0.8497 -0.6106 44.4705
#
#
#
# Elastic Compliance Matrix: (Units=1/GPa)
#
#
# Indices 1 2 3 4 5 6 
#
# 1 0.054791 -0.110978 0.000628 -0.040744 -0.029292 0.005513
# 2 -0.110978 0.288082 -0.010954 0.104489 0.064601 -0.012729
# 3 0.000628 -0.010954 0.008975 -0.005858 -0.000432 0.001975
# 4 -0.040744 0.104489 -0.005858 0.075605 0.030063 -0.004295
# 5 -0.029292 0.064601 -0.000432 0.030063 0.044780 -0.002399
# 6 0.005513 -0.012729 0.001975 -0.004295 -0.002399 0.023477
#
#
# Mechanical properties :
#
#
# Convention : Reuss Voigt Hill
#
# Bulk Modulus (GPa) = 9.15419 50.06362 29.60891
# Shear Modulus (GPa) = 6.45385 32.76942 19.61163
#
# Velocity S-wave (km/s) = 1.72223 3.88076 3.00220
# Velocity P-wave (km/s) = 2.85690 6.56421 5.06215
#
# Compressibility (1/GPa) = 0.10923957
#
# Stress axis : x y z
#
# Youngs Moduli (GPa) = 18.25125 3.47124 111.41652
#
# Poissons Ratio (x) = 0.38523 -0.07000
# Poissons Ratio (y) = 2.02549 1.22047
# Poissons Ratio (z) = -0.01147 0.03802
#
# Static dielectric constant tensor:
#      x y z
#    x 1.760110 -0.043830 0.007180 
#    y -0.043830 1.796380 -0.016360 
#    z 0.007180 -0.016360 1.763390 
# 
# From -- ./inp_files/186812.got.cif
#   From: 2010.05.17/outbox.cif.g08.bks.cpg/sg2_94_cif.got.tgz:186812.got - 2010.06.03 11:33:40.
