data_PCOD9056508
_publ_section_title
;
Structure prediction by ZEFSAII (Michael W. Deem and Ramdas Pophale) SiO2 
 PCOD9056508
Probable space group: P -1
;
_chemical_formula_sum "Si O2"
_cell_formula_units_Z 16
_cell_length_a 13.534028
_cell_length_b 11.714580
_cell_length_c 11.590669
_cell_angle_alpha 81.765118
_cell_angle_beta 101.308575
_cell_angle_gamma 157.948104
_cell_volume 672.830480
_symmetry_space_group_name_H-M "P -1"
_symmetry_group_IT_number 2
_symmetry_cell_setting 'triclinic'
loop_
_space_group_symop_operation_xyz
x,y,z
-x,-y,-z
loop_
_atom_site_type_symbol
_atom_site_label
_atom_site_fract_x
_atom_site_fract_y
_atom_site_fract_z
Si Si1 0.741140 0.369025 0.852436
Si Si2 0.176846 0.012818 0.241816
Si Si3 0.223139 0.978588 0.751170
Si Si4 0.496095 0.458170 0.872156
Si Si5 0.782221 0.031413 0.509706
Si Si6 0.593346 0.958638 0.819954
Si Si7 0.786883 0.575352 0.023293
Si Si8 0.341485 0.724710 0.557489
O O1 0.454414 0.128883 0.809467
O O2 0.701653 0.191045 0.863391
O O3 0.878808 0.561076 0.974079
O O4 0.938436 0.618553 0.760674
O O5 0.121537 0.956567 0.372203
O O6 0.208598 0.912767 0.225635
O O7 0.958579 0.817708 0.126645
O O8 0.433382 0.360609 0.218789
O O9 0.257681 0.127095 0.818624
O O10 0.257551 0.052963 0.616282
O O11 0.500000 0.500000 0.000000
O O12 0.728523 0.608021 0.908272
O O13 0.027799 0.382984 0.509170
O O14 0.506847 0.792724 0.530539
O O15 0.468524 0.744770 0.920165
O O16 0.380383 0.765708 0.698984
O O17 0.500000 0.000000 0.500000
#
# Coordination Sequence:
#
# PCOD9056508 Si02
#       8
#     2   2   2   2   2   2   2   2
#     4  11  26  42  68  98 137 175 218 269 334 397
#     4  11  24  41  68  98 132 175 224 276 332 390
#     4  11  25  46  67  99 132 178 220 270 330 393
#     4  11  23  45  70  94 130 176 227 275 331 393
#     4  11  23  41  64  96 133 167 223 271 326 391
#     4  11  23  40  64 102 134 170 217 274 332 392
#     4  11  23  43  66  96 132 175 221 273 332 395
#     4  11  22  39  65  94 134 179 215 263 323 398
#
# _framework density 23.780135000000001
#
# number of rings (size 3 to 8) (size 9 to 14) (size 15 to 20)
#    0.000    1.000    2.500    4.125    3.500    3.000 
#    0.000    0.000    0.000    6.750    0.000    0.000 
#    0.000    0.000    0.000    0.000    0.000    0.000 
#
# Total GULP energy -89396.498651 kJ/mol
# GULP energy per Si atom -5587.281166 kJ/mol
# Density = 2.372601 g / cm^3
# Si number density = 23.780135 Si / 1000 Ang^3
#
#
#
# Elastic Constant Matrix: (Units=GPa)
#
#
# Indices 1 2 3 4 5 6 
#
# 1 63.8353 30.2182 9.4769 -0.5748 -14.5244 -13.6678
# 2 30.2182 83.9266 -1.4444 -14.0723 -9.9706 -9.4859
# 3 9.4769 -1.4444 101.0058 -7.7072 -8.7035 -5.4491
# 4 -0.5748 -14.0723 -7.7072 31.6952 4.9454 -3.5791
# 5 -14.5244 -9.9706 -8.7035 4.9454 20.5954 -0.1363
# 6 -13.6678 -9.4859 -5.4491 -3.5791 -0.1363 37.8485
#
#
#
# Elastic Compliance Matrix: (Units=1/GPa)
#
#
# Indices 1 2 3 4 5 6 
#
# 1 0.023544 -0.006867 -0.001104 -0.004352 0.013899 0.006261
# 2 -0.006867 0.016191 0.001752 0.007472 0.001959 0.002544
# 3 -0.001104 0.001752 0.010691 0.002962 0.003889 0.001874
# 4 -0.004352 0.007472 0.002962 0.037089 -0.007078 0.004209
# 5 0.013899 0.001959 0.003889 -0.007078 0.062685 0.005626
# 6 0.006261 0.002544 0.001874 0.004209 0.005626 0.030008
#
#
# Mechanical properties :
#
#
# Convention : Reuss Voigt Hill
#
# Bulk Modulus (GPa) = 26.32397 36.14101 31.23249
# Shear Modulus (GPa) = 24.35375 32.06230 28.20802
#
# Velocity S-wave (km/s) = 3.20366 3.67588 3.44786
# Velocity P-wave (km/s) = 4.97779 5.76603 5.38635
#
# Compressibility (1/GPa) = 0.03798819
#
# Stress axis : x y z
#
# Youngs Moduli (GPa) = 42.47453 61.76345 93.53415
#
# Poissons Ratio (x) = 0.42412 0.10325
# Poissons Ratio (y) = 0.29167 -0.16387
# Poissons Ratio (z) = 0.04688 -0.10821
#
# Static dielectric constant tensor:
#      x y z
#    x 1.992670 0.062060 0.058680 
#    y 0.062060 1.915780 0.055580 
#    z 0.058680 0.055580 1.968240 
# 
# From -- ./inp_files/66471.got.cif
#   From: 2010.05.17/outbox.cif.g08.bks.cpg/sg2_34_cif.got.tgz:66471.got - 2010.06.03 11:33:40.
