data_PCOD9056903
_publ_section_title
;
Structure prediction by ZEFSAII (Michael W. Deem and Ramdas Pophale) SiO2 
 PCOD9056903
Probable space group: P -1
;
_chemical_formula_sum "Si O2"
_cell_formula_units_Z 16
_cell_length_a 15.931121
_cell_length_b 9.399531
_cell_length_c 9.792527
_cell_angle_alpha 106.728001
_cell_angle_beta 142.798261
_cell_angle_gamma 82.920201
_cell_volume 834.738986
_symmetry_space_group_name_H-M "P -1"
_symmetry_group_IT_number 2
_symmetry_cell_setting 'triclinic'
loop_
_space_group_symop_operation_xyz
x,y,z
-x,-y,-z
loop_
_atom_site_type_symbol
_atom_site_label
_atom_site_fract_x
_atom_site_fract_y
_atom_site_fract_z
Si Si1 0.087789 0.079634 0.512665
Si Si2 0.622141 0.950153 0.236087
Si Si3 0.351428 0.394124 0.760358
Si Si4 0.828735 0.394425 0.916798
Si Si5 0.093581 0.052515 0.004187
Si Si6 0.143883 0.382497 0.233788
Si Si7 0.633746 0.063517 0.592594
Si Si8 0.863620 0.563548 0.289594
O O1 0.225015 0.008608 0.629597
O O2 0.117021 0.255381 0.636069
O O3 0.000000 0.000000 0.500000
O O4 0.984416 0.050477 0.242761
O O5 0.621067 0.771701 0.207489
O O6 0.610887 0.019935 0.391271
O O7 0.500000 0.000000 0.000000
O O8 0.267511 0.377102 0.502536
O O9 0.254216 0.471529 0.757033
O O10 0.500000 0.500000 0.000000
O O11 0.812171 0.477796 0.774137
O O12 0.713686 0.240152 0.744049
O O13 0.818077 0.495800 0.064064
O O14 0.994914 0.379335 0.118773
O O15 0.108078 0.231236 0.054061
O O16 0.247576 0.022808 0.221447
O O17 0.000000 0.000000 0.000000
O O18 0.500000 0.000000 0.500000
O O19 0.000000 0.500000 0.500000
#
# Coordination Sequence:
#
# PCOD9056903 Si02
#       8
#     2   2   2   2   2   2   2   2
#     4  11  24  41  68 102 129 172 223 281 336 397
#     4  11  26  47  66  96 135 177 231 279 336 408
#     4  11  25  44  67  95 137 182 215 272 348 404
#     4  11  24  41  69 103 136 172 227 285 331 410
#     4  12  20  44  71  94 135 178 228 281 332 408
#     4  11  22  43  70 101 132 178 227 277 344 398
#     4  12  27  44  69 101 134 182 230 279 348 405
#     4  11  22  41  64 100 134 169 221 267 336 406
#
# _framework density 19.167669
#
# number of rings (size 3 to 8) (size 9 to 14) (size 15 to 20)
#    0.000    0.750    5.000    2.250    5.250    2.000 
#    0.000    1.250    0.000    0.000    0.000    0.000 
#    0.000    0.000    0.000    0.000    0.000    0.000 
#
# Total GULP energy -89226.671807 kJ/mol
# GULP energy per Si atom -5576.666988 kJ/mol
# Density = 1.912404 g / cm^3
# Si number density = 19.167669 Si / 1000 Ang^3
#
#
#
# Elastic Constant Matrix: (Units=GPa)
#
#
# Indices 1 2 3 4 5 6 
#
# 1 157.1635 49.2230 70.9457 8.8786 6.9376 -1.5979
# 2 49.2230 72.8574 44.5447 3.1856 0.1569 -4.2090
# 3 70.9457 44.5447 126.5907 -3.4227 -4.1248 -11.2416
# 4 8.8786 3.1856 -3.4227 42.1656 -6.3322 1.8711
# 5 6.9376 0.1569 -4.1248 -6.3322 41.4294 6.5767
# 6 -1.5979 -4.2090 -11.2416 1.8711 6.5767 32.9340
#
#
#
# Elastic Compliance Matrix: (Units=1/GPa)
#
#
# Indices 1 2 3 4 5 6 
#
# 1 0.009760 -0.003895 -0.004319 -0.002413 -0.002274 -0.000907
# 2 -0.003895 0.019230 -0.004546 -0.001062 -0.000164 0.000810
# 3 -0.004319 -0.004546 0.012303 0.002404 0.001873 0.002898
# 4 -0.002413 -0.001062 0.002404 0.025302 0.004805 -0.001829
# 5 -0.002274 -0.000164 0.001873 0.004805 0.026234 -0.005004
# 6 -0.000907 0.000810 0.002898 -0.001829 -0.005004 0.032516
#
#
# Mechanical properties :
#
#
# Convention : Reuss Voigt Hill
#
# Bulk Modulus (GPa) = 63.40031 76.22651 69.81341
# Shear Modulus (GPa) = 32.02611 36.09901 34.06256
#
# Velocity S-wave (km/s) = 4.09203 4.34444 4.22012
# Velocity P-wave (km/s) = 7.44814 8.06351 7.76192
#
# Compressibility (1/GPa) = 0.01577279
#
# Stress axis : x y z
#
# Youngs Moduli (GPa) = 102.45978 52.00219 81.28126
#
# Poissons Ratio (x) = 0.20256 0.35106
# Poissons Ratio (y) = 0.39911 0.36948
# Poissons Ratio (z) = 0.44253 0.23639
#
# Static dielectric constant tensor:
#      x y z
#    x 1.404000 0.044030 0.075600 
#    y 0.044030 1.660090 -0.068570 
#    z 0.075600 -0.068570 1.392110 
# 
# From -- ./inp_files/226666.got.cif
#   From: 2010.05.17/outbox.cif.g08.bks.cpg/sg2_114_cif.got.tgz:226666.got - 2010.06.03 11:33:40.
