data_PCOD9056938
_publ_section_title
;
Structure prediction by ZEFSAII (Michael W. Deem and Ramdas Pophale) SiO2 
 PCOD9056938
Probable space group: P -1
;
_chemical_formula_sum "Si O2"
_cell_formula_units_Z 16
_cell_length_a 11.980193
_cell_length_b 5.294648
_cell_length_c 17.282958
_cell_angle_alpha 119.951233
_cell_angle_beta 130.630354
_cell_angle_gamma 85.686940
_cell_volume 666.792459
_symmetry_space_group_name_H-M "P -1"
_symmetry_group_IT_number 2
_symmetry_cell_setting 'triclinic'
loop_
_space_group_symop_operation_xyz
x,y,z
-x,-y,-z
loop_
_atom_site_type_symbol
_atom_site_label
_atom_site_fract_x
_atom_site_fract_y
_atom_site_fract_z
Si Si1 0.881552 0.686773 0.354676
Si Si2 0.163579 0.700403 0.191380
Si Si3 0.372416 0.379163 0.163133
Si Si4 0.670090 0.084264 0.553516
Si Si5 0.545563 0.385345 0.083541
Si Si6 0.027321 0.941344 0.901235
Si Si7 0.691951 0.539120 0.393732
Si Si8 0.890540 0.611571 0.648584
O O1 0.729900 0.615956 0.219179
O O2 0.785301 0.484841 0.354148
O O3 0.004449 0.599422 0.346823
O O4 0.000000 0.000000 0.500000
O O5 0.311806 0.640668 0.211171
O O6 0.224836 0.939201 0.329100
O O7 0.073634 0.834260 0.109559
O O8 0.056496 0.374341 0.135460
O O9 0.452563 0.448687 0.125399
O O10 0.505497 0.322061 0.268375
O O11 0.206398 0.091285 0.033086
O O12 0.746098 0.442886 0.616413
O O13 0.500000 0.000000 0.500000
O O14 0.673756 0.876549 0.449177
O O15 0.500000 0.500000 0.000000
O O16 0.500000 0.000000 0.000000
O O17 0.020651 0.891890 0.797753
O O18 0.805416 0.568634 0.521484
#
# Coordination Sequence:
#
# PCOD9056938 Si02
#       8
#     2   2   2   2   2   2   2   2
#     4  11  24  45  73 108 138 184 248 298 353 423
#     4  11  24  44  70 102 140 185 237 284 345 426
#     4  11  25  45  70 103 141 183 235 294 349 420
#     4  11  22  41  65  98 139 178 229 279 355 410
#     4  11  28  51  75 106 145 192 238 297 368 429
#     4  11  25  44  69 102 139 189 232 284 352 421
#     4  11  23  44  66 101 136 182 228 291 350 410
#     4  11  24  42  70  98 139 186 231 293 348 418
#
# _framework density 23.995471999999999
#
# number of rings (size 3 to 8) (size 9 to 14) (size 15 to 20)
#    0.000    1.000    3.750    1.875    0.000    9.500 
#    2.250    0.000    0.000    0.000    0.000    0.000 
#    0.000    0.000    0.000    0.000    0.000    0.000 
#
# Total GULP energy -89109.171235 kJ/mol
# GULP energy per Si atom -5569.323202 kJ/mol
# Density = 2.394086 g / cm^3
# Si number density = 23.995472 Si / 1000 Ang^3
#
#
#
# Elastic Constant Matrix: (Units=GPa)
#
#
# Indices 1 2 3 4 5 6 
#
# 1 68.4063 -13.2078 18.5540 -1.4686 13.1220 7.7128
# 2 -13.2078 64.9317 31.0010 -8.8732 11.5565 12.0250
# 3 18.5540 31.0010 175.4551 -29.9425 15.1712 6.0894
# 4 -1.4686 -8.8732 -29.9425 25.6701 3.7450 -11.1167
# 5 13.1220 11.5565 15.1712 3.7450 55.2815 -2.8067
# 6 7.7128 12.0250 6.0894 -11.1167 -2.8067 12.8508
#
#
#
# Elastic Compliance Matrix: (Units=1/GPa)
#
#
# Indices 1 2 3 4 5 6 
#
# 1 0.025730 0.015627 -0.006397 -0.018952 -0.008635 -0.045314
# 2 0.015627 0.031309 -0.007774 -0.019214 -0.009545 -0.053698
# 3 -0.006397 -0.007774 0.010075 0.018277 0.000268 0.022209
# 4 -0.018952 -0.019214 0.018277 0.098174 0.002236 0.106107
# 5 -0.008635 -0.009545 0.000268 0.002236 0.022972 0.020939
# 6 -0.045314 -0.053698 0.022209 0.106107 0.020939 0.241097
#
#
# Mechanical properties :
#
#
# Convention : Reuss Voigt Hill
#
# Bulk Modulus (GPa) = 14.28075 42.38749 28.33412
# Shear Modulus (GPa) = 11.11637 36.92355 24.01996
#
# Velocity S-wave (km/s) = 2.15470 3.92697 3.16732
# Velocity P-wave (km/s) = 3.48636 6.18584 5.02092
#
# Compressibility (1/GPa) = 0.07002432
#
# Stress axis : x y z
#
# Youngs Moduli (GPa) = 38.86584 31.93971 99.25912
#
# Poissons Ratio (x) = -0.49911 0.63494
# Poissons Ratio (y) = -0.60735 0.77168
# Poissons Ratio (z) = 0.24862 0.24831
#
# Static dielectric constant tensor:
#      x y z
#    x 1.936030 -0.065960 -0.062060 
#    y -0.065960 2.082590 0.008210 
#    z -0.062060 0.008210 2.059550 
# 
# From -- ./inp_files/370374.got.cif
#   From: 2010.05.17/outbox.cif.g08.bks.cpg/sg2_186_cif.got.tgz:370374.got - 2010.06.03 11:33:40.
