data_PCOD9056139
_publ_section_title
;
Structure prediction by ZEFSAII (Michael W. Deem and Ramdas Pophale) SiO2 
 PCOD9056139
Probable space group: P -1
;
_chemical_formula_sum "Si O2"
_cell_formula_units_Z 14
_cell_length_a 5.708098
_cell_length_b 13.780342
_cell_length_c 15.596869
_cell_angle_alpha 31.610884
_cell_angle_beta 120.622350
_cell_angle_gamma 126.756664
_cell_volume 515.198780
_symmetry_space_group_name_H-M "P -1"
_symmetry_group_IT_number 2
_symmetry_cell_setting 'triclinic'
loop_
_space_group_symop_operation_xyz
x,y,z
-x,-y,-z
loop_
_atom_site_type_symbol
_atom_site_label
_atom_site_fract_x
_atom_site_fract_y
_atom_site_fract_z
Si Si1 0.601283 0.957104 0.333698
Si Si2 0.636922 0.182431 0.326593
Si Si3 0.330315 0.660168 0.039228
Si Si4 0.805787 0.590820 0.639948
Si Si5 0.176867 0.011704 0.932491
Si Si6 0.041319 0.343565 0.560854
Si Si7 0.769315 0.681101 0.972692
O O1 0.740855 0.793274 0.466916
O O2 0.271997 0.820201 0.401473
O O3 0.775031 0.104672 0.330572
O O4 0.576879 0.103427 0.143152
O O5 0.382336 0.230099 0.194572
O O6 0.871281 0.341827 0.309916
O O7 0.500000 0.000000 0.500000
O O8 0.492075 0.576613 0.061829
O O9 0.389835 0.574416 0.205712
O O10 0.980599 0.598649 0.020429
O O11 0.192607 0.211317 0.736320
O O12 0.806728 0.530131 0.588400
O O13 0.982650 0.832680 0.967771
O O14 0.500000 0.000000 0.000000
O O15 0.000000 0.000000 0.000000
O O16 0.000000 0.500000 0.500000
#
# Coordination Sequence:
#
# PCOD9056139 Si02
#       7
#     2   2   2   2   2   2   2
#     4  11  25  50  80 117 167 209 277 333 417 494
#     4  11  21  46  84 120 164 216 266 337 422 488
#     4  11  26  47  81 114 166 212 266 334 411 486
#     4  12  28  48  85 121 163 218 273 338 419 504
#     4  12  27  49  83 111 155 222 278 337 415 488
#     4  12  29  54  78 122 164 214 286 350 406 510
#     4  11  25  48  75 118 159 209 273 331 405 500
#
# _framework density 27.173977000000001
#
# number of rings (size 3 to 8) (size 9 to 14) (size 15 to 20)
#    0.000    0.571    4.286    3.000    6.000    5.714 
#    0.000    0.714    0.000    0.000    0.000    0.000 
#    0.000    0.000    0.000    0.000    0.000    0.000 
#
# Total GULP energy -78323.630946 kJ/mol
# GULP energy per Si atom -5594.545068 kJ/mol
# Density = 2.711213 g / cm^3
# Si number density = 27.173977 Si / 1000 Ang^3
#
#
#
# Elastic Constant Matrix: (Units=GPa)
#
#
# Indices 1 2 3 4 5 6 
#
# 1 192.3643 58.6041 67.8056 19.2858 5.5088 -6.6773
# 2 58.6041 156.3712 44.6013 26.4200 -3.8175 -4.7515
# 3 67.8056 44.6013 191.2273 20.8292 -36.0348 -16.7677
# 4 19.2858 26.4200 20.8292 40.3980 -5.5280 4.6918
# 5 5.5088 -3.8175 -36.0348 -5.5280 59.6555 3.8973
# 6 -6.6773 -4.7515 -16.7677 4.6918 3.8973 52.4719
#
#
#
# Elastic Compliance Matrix: (Units=1/GPa)
#
#
# Indices 1 2 3 4 5 6 
#
# 1 0.006706 -0.001708 -0.002236 -0.001265 -0.002213 0.000262
# 2 -0.001708 0.007967 -0.000795 -0.004090 -0.000233 0.000633
# 3 -0.002236 -0.000795 0.007385 -0.001843 0.004325 0.001847
# 4 -0.001265 -0.004090 -0.001843 0.029675 0.001747 -0.003903
# 5 -0.002213 -0.000233 0.004325 0.001747 0.019763 -0.000545
# 6 0.000262 0.000633 0.001847 -0.003903 -0.000545 0.020128
#
#
# Mechanical properties :
#
#
# Convention : Reuss Voigt Hill
#
# Bulk Modulus (GPa) = 79.49352 97.99831 88.74591
# Shear Modulus (GPa) = 47.48526 55.10188 51.29357
#
# Velocity S-wave (km/s) = 4.18479 4.50793 4.34936
# Velocity P-wave (km/s) = 7.25720 7.95216 7.61262
#
# Compressibility (1/GPa) = 0.01257964
#
# Stress axis : x y z
#
# Youngs Moduli (GPa) = 149.11528 125.52410 135.40073
#
# Poissons Ratio (x) = 0.21439 0.30274
# Poissons Ratio (y) = 0.25468 0.10771
# Poissons Ratio (z) = 0.33341 0.09985
#
# Static dielectric constant tensor:
#      x y z
#    x 2.146550 0.006930 0.009880 
#    y 0.006930 2.197530 -0.044530 
#    z 0.009880 -0.044530 2.207530 
# 
# From -- ./inp_files/482678.got.cif
#   From: 2010.05.17/outbox.cif.g08.bks.cpg/sg2_242_cif.got.tgz:482678.got - 2010.06.03 11:33:40.
