data_PCOD9056128
_publ_section_title
;
Structure prediction by ZEFSAII (Michael W. Deem and Ramdas Pophale) SiO2 
 PCOD9056128
Probable space group: P -1
;
_chemical_formula_sum "Si O2"
_cell_formula_units_Z 15
_cell_length_a 7.662332
_cell_length_b 23.146684
_cell_length_c 13.634836
_cell_angle_alpha 159.158588
_cell_angle_beta 133.035898
_cell_angle_gamma 46.315442
_cell_volume 615.724315
_symmetry_space_group_name_H-M "P -1"
_symmetry_group_IT_number 2
_symmetry_cell_setting 'triclinic'
loop_
_space_group_symop_operation_xyz
x,y,z
-x,-y,-z
loop_
_atom_site_type_symbol
_atom_site_label
_atom_site_fract_x
_atom_site_fract_y
_atom_site_fract_z
Si Si1 0.652882 0.863112 0.412779
Si Si2 0.000000 0.500000 0.500000
Si Si3 0.198708 0.727955 0.342164
Si Si4 0.521933 0.139866 0.944036
Si Si5 0.909575 0.586762 0.851768
Si Si6 0.030355 0.722671 0.735187
Si Si7 0.426474 0.049644 0.160191
Si Si8 0.571254 0.504560 0.759167
O O1 0.937803 0.831186 0.443431
O O2 0.500000 0.000000 0.500000
O O3 0.597848 0.951620 0.635751
O O4 0.573700 0.689258 0.093694
O O5 0.033867 0.289015 0.195531
O O6 0.697075 0.514283 0.400407
O O7 0.377238 0.845054 0.563056
O O8 0.316362 0.618608 0.305904
O O9 0.132940 0.617692 0.051661
O O10 0.569143 0.113901 0.034997
O O11 0.258644 0.239804 0.969662
O O12 0.710540 0.237305 0.121816
O O13 0.976457 0.473775 0.601009
O O14 0.748279 0.493709 0.713994
O O15 0.839264 0.833477 0.767008
O O16 0.500000 0.000000 0.000000
#
# Coordination Sequence:
#
# PCOD9056128 Si02
#       8
#     2   1   2   2   2   2   2   2
#     4  11  21  46  73 106 142 185 233 291 366 426
#     4  12  24  46  74 106 134 192 238 294 346 422
#     4  11  25  47  70 107 144 185 236 295 356 425
#     4  12  26  47  72 104 144 191 236 296 356 426
#     4  11  25  45  73 104 138 190 239 288 358 434
#     4  12  27  46  73 102 142 187 239 290 358 432
#     4  12  30  47  69 103 146 188 238 305 358 416
#     4  11  24  44  77 103 146 184 240 293 352 432
#
# _framework density 24.361550000000001
#
# number of rings (size 3 to 8) (size 9 to 14) (size 15 to 20)
#    0.000    0.533    5.333    3.200    7.467    2.133 
#    0.000    0.000    0.000    0.000    0.000    0.000 
#    0.000    0.000    0.000    0.000    0.000    0.000 
#
# Total GULP energy -83830.333407 kJ/mol
# GULP energy per Si atom -5588.688894 kJ/mol
# Density = 2.430610 g / cm^3
# Si number density = 24.361550 Si / 1000 Ang^3
#
#
#
# Elastic Constant Matrix: (Units=GPa)
#
#
# Indices 1 2 3 4 5 6 
#
# 1 57.6717 16.7820 25.0902 -3.7014 19.2785 14.2486
# 2 16.7820 153.5343 8.6050 4.6398 21.0451 -2.9372
# 3 25.0902 8.6050 61.6344 -0.9405 5.4026 -2.9745
# 4 -3.7014 4.6398 -0.9405 43.6395 1.8719 13.1393
# 5 19.2785 21.0451 5.4026 1.8719 52.3822 9.8601
# 6 14.2486 -2.9372 -2.9745 13.1393 9.8601 39.9708
#
#
#
# Elastic Compliance Matrix: (Units=1/GPa)
#
#
# Indices 1 2 3 4 5 6 
#
# 1 0.028079 -0.001962 -0.011044 0.006052 -0.006484 -0.011366
# 2 -0.001962 0.007164 0.000114 -0.001529 -0.002559 0.002368
# 3 -0.011044 0.000114 0.020892 -0.002363 0.000805 0.006078
# 4 0.006052 -0.001529 -0.002363 0.026935 -0.000215 -0.011247
# 5 -0.006484 -0.002559 0.000805 -0.000215 0.023077 -0.003439
# 6 -0.011366 0.002368 0.006078 -0.011247 -0.003439 0.034242
#
#
# Mechanical properties :
#
#
# Convention : Reuss Voigt Hill
#
# Bulk Modulus (GPa) = 32.94975 41.53276 37.24125
# Shear Modulus (GPa) = 28.36244 42.02272 35.19258
#
# Velocity S-wave (km/s) = 3.41578 4.15777 3.80491
# Velocity P-wave (km/s) = 5.39550 6.33521 5.88415
#
# Compressibility (1/GPa) = 0.03034924
#
# Stress axis : x y z
#
# Youngs Moduli (GPa) = 35.61357 139.59651 47.86618
#
# Poissons Ratio (x) = 0.27386 0.52866
# Poissons Ratio (y) = 0.06987 -0.00544
# Poissons Ratio (z) = 0.39333 -0.01588
#
# Static dielectric constant tensor:
#      x y z
#    x 1.387330 -0.506850 -0.031910 
#    y -0.506850 1.427430 0.061260 
#    z -0.031910 0.061260 1.987660 
# 
# From -- ./inp_files/257350.got.cif
#   From: 2010.05.17/outbox.cif.g08.bks.cpg/sg2_129_cif.got.tgz:257350.got - 2010.06.03 11:33:40.
