data_PCOD9056671
_publ_section_title
;
Structure prediction by ZEFSAII (Michael W. Deem and Ramdas Pophale) SiO2 
 PCOD9056671
Probable space group: P -1
;
_chemical_formula_sum "Si O2"
_cell_formula_units_Z 16
_cell_length_a 8.250412
_cell_length_b 12.516656
_cell_length_c 11.813771
_cell_angle_alpha 121.789568
_cell_angle_beta 55.381854
_cell_angle_gamma 134.431006
_cell_volume 699.429481
_symmetry_space_group_name_H-M "P -1"
_symmetry_group_IT_number 2
_symmetry_cell_setting 'triclinic'
loop_
_space_group_symop_operation_xyz
x,y,z
-x,-y,-z
loop_
_atom_site_type_symbol
_atom_site_label
_atom_site_fract_x
_atom_site_fract_y
_atom_site_fract_z
Si Si1 0.050984 0.131150 0.371194
Si Si2 0.759946 0.682143 0.068147
Si Si3 0.742553 0.825666 0.924302
Si Si4 0.409283 0.709064 0.656991
Si Si5 0.324762 0.228549 0.630002
Si Si6 0.273265 0.901919 0.953488
Si Si7 0.767521 0.403576 0.960670
Si Si8 0.060704 0.348760 0.656193
O O1 0.083434 0.144617 0.230819
O O2 0.319742 0.198636 0.348217
O O3 0.990266 0.241717 0.514744
O O4 0.861380 0.955298 0.385542
O O5 0.604426 0.695068 0.231633
O O6 0.761245 0.748317 0.984035
O O7 0.718373 0.519499 0.987137
O O8 0.036293 0.797808 0.065001
O O9 0.462888 0.708534 0.933928
O O10 0.761992 0.979493 0.030635
O O11 0.456639 0.729001 0.514790
O O12 0.295856 0.793137 0.800451
O O13 0.246450 0.529160 0.653464
O O14 0.195144 0.299127 0.658123
O O15 0.500000 0.000000 0.000000
O O16 0.832831 0.323908 0.797299
O O17 0.000000 0.500000 0.000000
#
# Coordination Sequence:
#
# PCOD9056671 Si02
#       8
#     2   2   2   2   2   2   2   2
#     4  11  23  39  63  98 134 170 218 267 338 386
#     4  12  25  46  64 100 139 172 218 271 341 395
#     4  12  27  42  69  96 140 178 209 278 341 390
#     4  11  22  40  65  99 127 171 222 279 320 383
#     4  11  23  38  67  94 135 169 216 274 332 389
#     4  12  23  42  71  99 127 174 233 271 319 385
#     4  12  24  43  71  99 128 173 233 272 314 394
#     4  11  23  40  65  97 130 169 222 281 318 383
#
# _framework density 22.875788
#
# number of rings (size 3 to 8) (size 9 to 14) (size 15 to 20)
#    0.000    0.500    5.000    5.250    5.250    0.000 
#    0.000    2.500    0.000    0.000    0.000    0.000 
#    0.000    0.000    0.000    0.000    0.000    0.000 
#
# Total GULP energy -89556.735847 kJ/mol
# GULP energy per Si atom -5597.295990 kJ/mol
# Density = 2.282372 g / cm^3
# Si number density = 22.875788 Si / 1000 Ang^3
#
#
#
# Elastic Constant Matrix: (Units=GPa)
#
#
# Indices 1 2 3 4 5 6 
#
# 1 38.5470 24.6029 27.7895 4.4097 5.8105 -14.2024
# 2 24.6029 160.4064 64.1974 4.5367 -5.5699 -25.7478
# 3 27.7895 64.1974 198.8195 4.1013 -2.1972 -33.6460
# 4 4.4097 4.5367 4.1013 46.2030 -8.1221 -7.5632
# 5 5.8105 -5.5699 -2.1972 -8.1221 24.9069 -1.3553
# 6 -14.2024 -25.7478 -33.6460 -7.5632 -1.3553 42.3610
#
#
#
# Elastic Compliance Matrix: (Units=1/GPa)
#
#
# Indices 1 2 3 4 5 6 
#
# 1 0.034229 -0.003410 -0.002639 -0.003361 -0.009729 0.006396
# 2 -0.003410 0.007896 -0.001621 0.000598 0.002753 0.002563
# 3 -0.002639 -0.001621 0.006506 0.000611 0.001214 0.003445
# 4 -0.003361 0.000598 0.000611 0.024156 0.009084 0.004325
# 5 -0.009729 0.002753 0.001214 0.009084 0.046239 0.002477
# 6 0.006396 0.002563 0.003445 0.004325 0.002477 0.030897
#
#
# Mechanical properties :
#
#
# Convention : Reuss Voigt Hill
#
# Bulk Modulus (GPa) = 30.03844 70.10583 50.07214
# Shear Modulus (GPa) = 28.35114 41.43973 34.89544
#
# Velocity S-wave (km/s) = 3.52426 4.26080 3.90991
# Velocity P-wave (km/s) = 5.45162 7.41072 6.50534
#
# Compressibility (1/GPa) = 0.03329068
#
# Stress axis : x y z
#
# Youngs Moduli (GPa) = 29.21516 126.64476 153.70848
#
# Poissons Ratio (x) = 0.43185 0.40564
# Poissons Ratio (y) = 0.09962 0.24918
# Poissons Ratio (z) = 0.07710 0.20530
#
# Static dielectric constant tensor:
#      x y z
#    x 1.941440 0.058040 0.025690 
#    y 0.058040 1.880480 0.008600 
#    z 0.025690 0.008600 1.865640 
# 
# From -- ./inp_files/390942.got.cif
#   From: 2010.05.17/outbox.cif.g08.bks.cpg/sg2_196_cif.got.tgz:390942.got - 2010.06.03 11:33:40.
