data_PCOD9056919
_publ_section_title
;
Structure prediction by ZEFSAII (Michael W. Deem and Ramdas Pophale) SiO2 
 PCOD9056919
Probable space group: P -1
;
_chemical_formula_sum "Si O2"
_cell_formula_units_Z 12
_cell_length_a 10.872736
_cell_length_b 8.487317
_cell_length_c 9.208541
_cell_angle_alpha 118.740407
_cell_angle_beta 63.275626
_cell_angle_gamma 138.577236
_cell_volume 487.099122
_symmetry_space_group_name_H-M "P -1"
_symmetry_group_IT_number 2
_symmetry_cell_setting 'triclinic'
loop_
_space_group_symop_operation_xyz
x,y,z
-x,-y,-z
loop_
_atom_site_type_symbol
_atom_site_label
_atom_site_fract_x
_atom_site_fract_y
_atom_site_fract_z
Si Si1 0.893135 0.609056 0.736352
Si Si2 0.725578 0.999043 0.842788
Si Si3 0.530247 0.894728 0.305884
Si Si4 0.977921 0.675690 0.394400
Si Si5 0.717421 0.759573 0.021336
Si Si6 0.323026 0.702284 0.832639
O O1 0.675368 0.365388 0.721854
O O2 0.951553 0.722009 0.592752
O O3 0.867015 0.731272 0.932822
O O4 0.999507 0.521192 0.682899
O O5 0.774263 0.917027 0.915172
O O6 0.503848 0.767419 0.832765
O O7 0.842124 0.077727 0.669231
O O8 0.764579 0.243280 0.975300
O O9 0.500000 0.000000 0.500000
O O10 0.584800 0.067242 0.219347
O O11 0.689108 0.880219 0.218338
O O12 0.811131 0.537633 0.302047
O O13 0.500000 0.500000 0.000000
#
# Coordination Sequence:
#
# PCOD9056919 Si02
#       6
#     2   2   2   2   2   2
#     4  10  21  37  60  92 125 156 199 250 298 352
#     4  10  21  38  60  87 119 163 198 252 299 352
#     4  10  17  36  64  85 115 162 203 241 295 362
#     4  11  21  36  64  89 119 163 205 240 293 370
#     4   9  21  39  62  86 123 158 196 256 305 347
#     4  10  20  35  61  88 116 154 212 242 289 358
#
# _framework density 24.635643999999999
#
# number of rings (size 3 to 8) (size 9 to 14) (size 15 to 20)
#    0.000    2.000    3.333    0.500    2.333    0.667 
#    0.000    4.167    3.667    0.000    0.000    0.000 
#    0.000    0.000    0.000    0.000    0.000    0.000 
#
# Total GULP energy -67020.212764 kJ/mol
# GULP energy per Si atom -5585.017730 kJ/mol
# Density = 2.457957 g / cm^3
# Si number density = 24.635644 Si / 1000 Ang^3
#
#
#
# Elastic Constant Matrix: (Units=GPa)
#
#
# Indices 1 2 3 4 5 6 
#
# 1 83.1761 2.9509 29.6826 15.1198 -5.3920 15.3527
# 2 2.9509 52.8852 19.7877 -12.5563 1.5167 3.6781
# 3 29.6826 19.7877 132.9496 2.2493 -25.5292 4.6210
# 4 15.1198 -12.5563 2.2493 34.0105 3.3980 7.2553
# 5 -5.3920 1.5167 -25.5292 3.3980 30.6933 5.0517
# 6 15.3527 3.6781 4.6210 7.2553 5.0517 22.8423
#
#
#
# Elastic Compliance Matrix: (Units=1/GPa)
#
#
# Indices 1 2 3 4 5 6 
#
# 1 0.015742 -0.000727 -0.002466 -0.005499 0.002814 -0.008841
# 2 -0.000727 0.023672 -0.004421 0.010897 -0.005408 -0.004694
# 3 -0.002466 -0.004421 0.010515 -0.001881 0.008927 -0.001135
# 4 -0.005499 0.010897 -0.001881 0.038414 -0.005911 -0.008572
# 5 0.002814 -0.005408 0.008927 -0.005911 0.043148 -0.010492
# 6 -0.008841 -0.004694 -0.001135 -0.008572 -0.010492 0.055749
#
#
# Mechanical properties :
#
#
# Convention : Reuss Voigt Hill
#
# Bulk Modulus (GPa) = 28.81616 41.53925 35.17771
# Shear Modulus (GPa) = 23.36065 31.94854 27.65459
#
# Velocity S-wave (km/s) = 3.08270 3.60508 3.35407
# Velocity P-wave (km/s) = 4.93893 5.85037 5.41387
#
# Compressibility (1/GPa) = 0.03470275
#
# Stress axis : x y z
#
# Youngs Moduli (GPa) = 63.52323 42.24364 95.09824
#
# Poissons Ratio (x) = 0.03073 0.23448
# Poissons Ratio (y) = 0.04620 0.42039
# Poissons Ratio (z) = 0.15663 0.18674
#
# Static dielectric constant tensor:
#      x y z
#    x 1.975400 0.026320 -0.056850 
#    y 0.026320 1.963050 0.182190 
#    z -0.056850 0.182190 2.120280 
# 
# From -- ./inp_files/147964.got.cif
#   From: 2010.05.17/outbox.cif.g08.bks.cpg/sg2_74_cif.got.tgz:147964.got - 2010.06.03 11:33:40.
