data_PCOD9056418
_publ_section_title
;
Structure prediction by ZEFSAII (Michael W. Deem and Ramdas Pophale) SiO2 
 PCOD9056418
Probable space group: P -1
;
_chemical_formula_sum "Si O2"
_cell_formula_units_Z 16
_cell_length_a 7.975565
_cell_length_b 15.550727
_cell_length_c 12.665581
_cell_angle_alpha 57.035792
_cell_angle_beta 120.963275
_cell_angle_gamma 146.123033
_cell_volume 728.008427
_symmetry_space_group_name_H-M "P -1"
_symmetry_group_IT_number 2
_symmetry_cell_setting 'triclinic'
loop_
_space_group_symop_operation_xyz
x,y,z
-x,-y,-z
loop_
_atom_site_type_symbol
_atom_site_label
_atom_site_fract_x
_atom_site_fract_y
_atom_site_fract_z
Si Si1 0.930996 0.076735 0.057776
Si Si2 0.295971 0.749752 0.315968
Si Si3 0.721923 0.011500 0.623894
Si Si4 0.654868 0.760348 0.273562
Si Si5 0.531875 0.059641 0.179299
Si Si6 0.158011 0.306289 0.171714
Si Si7 0.692847 0.832362 0.568347
Si Si8 0.300328 0.344890 0.844643
O O1 0.032539 0.196071 0.102098
O O2 0.846425 0.933536 0.173212
O O3 0.186912 0.199841 0.969835
O O4 0.635731 0.983935 0.954586
O O5 0.375122 0.698441 0.286124
O O6 0.393980 0.735169 0.466477
O O7 0.980644 0.686502 0.243333
O O8 0.545431 0.941238 0.262001
O O9 0.077133 0.181583 0.607194
O O10 0.500000 0.000000 0.500000
O O11 0.644117 0.985360 0.740237
O O12 0.661366 0.879601 0.636679
O O13 0.584095 0.651892 0.231644
O O14 0.859967 0.241136 0.164528
O O15 0.266584 0.268774 0.319981
O O16 0.433860 0.491923 0.116823
O O17 0.000000 0.000000 0.500000
#
# Coordination Sequence:
#
# PCOD9056418 Si02
#       8
#     2   2   2   2   2   2   2   2
#     4  11  22  42  71  92 127 178 228 267 317 395
#     4  11  22  42  69  96 128 176 219 265 327 400
#     4  12  20  36  68 103 127 159 225 279 311 380
#     4  12  22  42  71  96 128 177 221 267 321 398
#     4  11  22  38  68  98 127 170 225 267 321 387
#     4  12  24  43  64  97 136 171 214 282 331 381
#     4  12  20  38  70  98 123 170 227 268 318 394
#     4  11  27  43  63  99 139 170 214 274 344 381
#
# _framework density 21.977765999999999
#
# number of rings (size 3 to 8) (size 9 to 14) (size 15 to 20)
#    0.000    0.500    8.750    1.125    1.750    0.500 
#    2.250    1.250    0.000    0.000    0.000    0.000 
#    0.000    0.000    0.000    0.000    0.000    0.000 
#
# Total GULP energy -89277.917047 kJ/mol
# GULP energy per Si atom -5579.869815 kJ/mol
# Density = 2.192774 g / cm^3
# Si number density = 21.977766 Si / 1000 Ang^3
#
#
#
# Elastic Constant Matrix: (Units=GPa)
#
#
# Indices 1 2 3 4 5 6 
#
# 1 117.6741 16.7195 17.2300 20.7353 -25.4804 -4.5568
# 2 16.7195 81.3845 9.8099 17.3123 0.3299 -0.6487
# 3 17.2300 9.8099 73.8235 22.0841 0.0064 -3.9372
# 4 20.7353 17.3123 22.0841 22.4998 -5.3277 -1.9074
# 5 -25.4804 0.3299 0.0064 -5.3277 30.5581 5.1743
# 6 -4.5568 -0.6487 -3.9372 -1.9074 5.1743 16.9515
#
#
#
# Elastic Compliance Matrix: (Units=1/GPa)
#
#
# Indices 1 2 3 4 5 6 
#
# 1 0.011925 -0.000716 -0.000265 -0.008179 0.008598 -0.000428
# 2 -0.000716 0.015161 0.002389 -0.014097 -0.003280 0.000357
# 3 -0.000265 0.002389 0.020109 -0.022142 -0.004728 0.003642
# 4 -0.008179 -0.014097 -0.022142 0.086522 0.008549 -0.000755
# 5 0.008598 -0.003280 -0.004728 0.008549 0.043312 -0.011171
# 6 -0.000428 0.000357 0.003642 -0.000755 -0.011171 0.063061
#
#
# Mechanical properties :
#
#
# Convention : Reuss Voigt Hill
#
# Bulk Modulus (GPa) = 19.99592 40.04455 30.02024
# Shear Modulus (GPa) = 19.68929 29.27673 24.48301
#
# Velocity S-wave (km/s) = 2.99636 3.65376 3.34127
# Velocity P-wave (km/s) = 4.59227 6.00500 5.34551
#
# Compressibility (1/GPa) = 0.05001019
#
# Stress axis : x y z
#
# Youngs Moduli (GPa) = 83.85774 65.95707 49.73021
#
# Poissons Ratio (x) = 0.04724 0.01317
# Poissons Ratio (y) = 0.06007 -0.11880
# Poissons Ratio (z) = 0.02221 -0.15756
#
# Static dielectric constant tensor:
#      x y z
#    x 1.876270 0.038920 0.019820 
#    y 0.038920 1.788960 0.011100 
#    z 0.019820 0.011100 1.891070 
# 
# From -- ./inp_files/402043.got.cif
#   From: 2010.05.17/outbox.cif.g08.bks.cpg/sg2_202_cif.got.tgz:402043.got - 2010.06.03 11:33:40.
