data_PCOD9056537
_publ_section_title
;
Structure prediction by ZEFSAII (Michael W. Deem and Ramdas Pophale) SiO2 
 PCOD9056537
Probable space group: P -1
;
_chemical_formula_sum "Si O2"
_cell_formula_units_Z 14
_cell_length_a 23.853068
_cell_length_b 5.613718
_cell_length_c 11.894090
_cell_angle_alpha 56.560801
_cell_angle_beta 28.013930
_cell_angle_gamma 49.819275
_cell_volume 570.759918
_symmetry_space_group_name_H-M "P -1"
_symmetry_group_IT_number 2
_symmetry_cell_setting 'triclinic'
loop_
_space_group_symop_operation_xyz
x,y,z
-x,-y,-z
loop_
_atom_site_type_symbol
_atom_site_label
_atom_site_fract_x
_atom_site_fract_y
_atom_site_fract_z
Si Si1 0.463921 0.646066 0.903953
Si Si2 0.218368 0.216995 0.207227
Si Si3 0.345991 0.105254 0.608063
Si Si4 0.372740 0.620047 0.843014
Si Si5 0.086340 0.160367 0.250956
Si Si6 0.073723 0.235393 0.690012
Si Si7 0.192968 0.807975 0.796578
O O1 0.561378 0.809881 0.661630
O O2 0.462185 0.482419 0.830029
O O3 0.500000 0.500000 0.000000
O O4 0.309014 0.853455 0.131625
O O5 0.116202 0.340735 0.255744
O O6 0.152654 0.254757 0.434730
O O7 0.323410 0.361353 0.961696
O O8 0.266988 0.436180 0.729229
O O9 0.432908 0.807641 0.609693
O O10 0.262672 0.954748 0.722038
O O11 0.228292 0.906845 0.036469
O O12 0.004881 0.396761 0.237362
O O13 0.000000 0.000000 0.500000
O O14 0.168744 0.009889 0.672320
O O15 0.952937 0.132301 0.917544
#
# Coordination Sequence:
#
# PCOD9056537 Si02
#       7
#     2   2   2   2   2   2   2
#     4  11  28  48  74 101 141 188 244 304 363 426
#     4  11  25  42  71 104 140 190 241 294 365 429
#     4  12  27  51  74 106 148 189 249 294 362 428
#     4  11  25  44  71 104 139 188 243 294 365 426
#     4  11  22  39  67 104 142 188 234 295 356 431
#     4  11  23  44  68 106 149 187 242 294 361 432
#     4  11  28  44  75 107 145 198 235 299 361 431
#
# _framework density 24.528701999999999
#
# number of rings (size 3 to 8) (size 9 to 14) (size 15 to 20)
#    0.000    0.857    2.857    2.571    8.000    4.571 
#    0.000    0.000    0.000    0.000    0.000    0.000 
#    0.000    0.000    0.000    0.000    0.000    0.000 
#
# Total GULP energy -78088.270470 kJ/mol
# GULP energy per Si atom -5577.733605 kJ/mol
# Density = 2.447287 g / cm^3
# Si number density = 24.528702 Si / 1000 Ang^3
#
#
#
# Elastic Constant Matrix: (Units=GPa)
#
#
# Indices 1 2 3 4 5 6 
#
# 1 146.5517 48.3517 34.5975 -27.3362 -6.5114 -5.9722
# 2 48.3517 73.5879 5.2734 -1.7469 4.5627 -2.7334
# 3 34.5975 5.2734 118.8733 -20.3349 8.4847 5.3925
# 4 -27.3362 -1.7469 -20.3349 46.3564 -1.4040 7.1091
# 5 -6.5114 4.5627 8.4847 -1.4040 40.3163 -16.4021
# 6 -5.9722 -2.7334 5.3925 7.1091 -16.4021 37.6181
#
#
#
# Elastic Compliance Matrix: (Units=1/GPa)
#
#
# Indices 1 2 3 4 5 6 
#
# 1 0.010931 -0.007062 -0.002459 0.004843 0.004278 0.002525
# 2 -0.007062 0.018288 0.001076 -0.002951 -0.004001 -0.001133
# 3 -0.002459 0.001076 0.010199 0.003598 -0.004302 -0.004330
# 4 0.004843 -0.002951 0.003598 0.026696 -0.000910 -0.005403
# 5 0.004278 -0.004001 -0.004302 -0.000910 0.033187 0.015647
# 6 0.002525 -0.001133 -0.004330 -0.005403 0.015647 0.035366
#
#
# Mechanical properties :
#
#
# Convention : Reuss Voigt Hill
#
# Bulk Modulus (GPa) = 44.38998 57.27310 50.83154
# Shear Modulus (GPa) = 31.43337 41.57751 36.50544
#
# Velocity S-wave (km/s) = 3.58368 4.12157 3.86200
# Velocity P-wave (km/s) = 5.93802 6.78601 6.37613
#
# Compressibility (1/GPa) = 0.02252761
#
# Stress axis : x y z
#
# Youngs Moduli (GPa) = 91.48692 54.67973 98.04568
#
# Poissons Ratio (x) = 0.38616 0.24113
# Poissons Ratio (y) = 0.64611 -0.10553
# Poissons Ratio (z) = 0.22500 -0.05886
#
# Static dielectric constant tensor:
#      x y z
#    x 2.097050 0.081220 0.173540 
#    y 0.081220 2.110890 0.059440 
#    z 0.173540 0.059440 2.140900 
# 
# From -- ./inp_files/118572.got.cif
#   From: 2010.05.17/outbox.cif.g08.bks.cpg/sg2_60_cif.got.tgz:118572.got - 2010.06.03 11:33:40.
