data_PCOD9056317
_publ_section_title
;
Structure prediction by ZEFSAII (Michael W. Deem and Ramdas Pophale) SiO2 
 PCOD9056317
Probable space group: P -1
;
_chemical_formula_sum "Si O2"
_cell_formula_units_Z 16
_cell_length_a 12.383019
_cell_length_b 14.030533
_cell_length_c 6.534645
_cell_angle_alpha 107.492261
_cell_angle_beta 84.289218
_cell_angle_gamma 50.399587
_cell_volume 766.079636
_symmetry_space_group_name_H-M "P -1"
_symmetry_group_IT_number 2
_symmetry_cell_setting 'triclinic'
loop_
_space_group_symop_operation_xyz
x,y,z
-x,-y,-z
loop_
_atom_site_type_symbol
_atom_site_label
_atom_site_fract_x
_atom_site_fract_y
_atom_site_fract_z
Si Si1 0.416900 0.132283 0.747194
Si Si2 0.430144 0.806697 0.962392
Si Si3 0.397907 0.316951 0.544123
Si Si4 0.921930 0.448712 0.421982
Si Si5 0.606513 0.526026 0.005119
Si Si6 0.084555 0.031204 0.133119
Si Si7 0.946108 0.259751 0.623903
Si Si8 0.122795 0.198065 0.940873
O O1 0.367185 0.251699 0.676211
O O2 0.277117 0.162628 0.893115
O O3 0.500000 0.000000 0.500000
O O4 0.522456 0.120692 0.886246
O O5 0.460846 0.794561 0.705218
O O6 0.539371 0.650603 0.937480
O O7 0.253737 0.892493 0.088763
O O8 0.254558 0.416702 0.487403
O O9 0.408709 0.411459 0.731273
O O10 0.954250 0.346832 0.523011
O O11 0.000000 0.500000 0.500000
O O12 0.990519 0.359179 0.143477
O O13 0.779142 0.378867 0.832509
O O14 0.500000 0.500000 0.000000
O O15 0.978511 0.139545 0.408017
O O16 0.117740 0.106245 0.031797
O O17 0.000000 0.000000 0.000000
O O18 0.078403 0.187726 0.719232
#
# Coordination Sequence:
#
# PCOD9056317 Si02
#       8
#     2   2   2   2   2   2   2   2
#     4  11  24  42  67  98 133 177 219 272 331 395
#     4  11  25  46  68 100 136 172 225 273 330 397
#     4  11  23  41  66  99 132 170 220 270 333 389
#     4  11  22  37  65  99 132 171 206 266 334 389
#     4  11  26  43  70  98 130 177 223 276 328 388
#     4  11  28  46  68  97 133 181 221 272 331 393
#     4  11  24  45  66 100 134 171 223 271 330 393
#     4  11  24  42  67  97 135 172 219 271 329 392
#
# _framework density 20.885558
#
# number of rings (size 3 to 8) (size 9 to 14) (size 15 to 20)
#    0.000    1.000    2.500    3.000    5.250    7.000 
#    0.000    0.000    0.000    0.000    0.000    0.000 
#    0.000    0.000    0.000    0.000    0.000    0.000 
#
# Total GULP energy -89437.535049 kJ/mol
# GULP energy per Si atom -5589.845941 kJ/mol
# Density = 2.083802 g / cm^3
# Si number density = 20.885558 Si / 1000 Ang^3
#
#
#
# Elastic Constant Matrix: (Units=GPa)
#
#
# Indices 1 2 3 4 5 6 
#
# 1 139.7851 16.1880 53.3609 15.3574 21.9284 -5.5075
# 2 16.1880 43.2305 12.9571 8.0909 6.8924 -12.7157
# 3 53.3609 12.9571 120.8353 16.9993 20.2369 -1.3278
# 4 15.3574 8.0909 16.9993 37.8009 -1.8382 -0.8466
# 5 21.9284 6.8924 20.2369 -1.8382 34.9758 1.7112
# 6 -5.5075 -12.7157 -1.3278 -0.8466 1.7112 30.1799
#
#
#
# Elastic Compliance Matrix: (Units=1/GPa)
#
#
# Indices 1 2 3 4 5 6 
#
# 1 0.009384 -0.001142 -0.002979 -0.002400 -0.004122 0.001267
# 2 -0.001142 0.029299 -0.000824 -0.005428 -0.005466 0.012258
# 3 -0.002979 -0.000824 0.010960 -0.003766 -0.004496 -0.000259
# 4 -0.002400 -0.005428 -0.003766 0.030546 0.006477 -0.002401
# 5 -0.004122 -0.005466 -0.004496 0.006477 0.035443 -0.005081
# 6 0.001267 0.012258 -0.000259 -0.002401 -0.005081 0.038740
#
#
# Mechanical properties :
#
#
# Convention : Reuss Voigt Hill
#
# Bulk Modulus (GPa) = 25.15543 52.09586 38.62565
# Shear Modulus (GPa) = 28.16698 35.34766 31.75732
#
# Velocity S-wave (km/s) = 3.67636 4.11840 3.90364
# Velocity P-wave (km/s) = 5.48556 6.90019 6.23314
#
# Compressibility (1/GPa) = 0.03975284
#
# Stress axis : x y z
#
# Youngs Moduli (GPa) = 106.56761 34.13069 91.24260
#
# Poissons Ratio (x) = 0.03897 0.27185
# Poissons Ratio (y) = 0.12167 0.07516
# Poissons Ratio (z) = 0.31751 0.02811
#
# Static dielectric constant tensor:
#      x y z
#    x 1.712190 -0.001500 -0.032510 
#    y -0.001500 1.767610 0.022060 
#    z -0.032510 0.022060 1.850890 
# 
# From -- ./inp_files/68590.got.cif
#   From: 2010.05.17/outbox.cif.g08.bks.cpg/sg2_35_cif.got.tgz:68590.got - 2010.06.03 11:33:40.
