data_PCOD9056744
_publ_section_title
;
Structure prediction by ZEFSAII (Michael W. Deem and Ramdas Pophale) SiO2 
 PCOD9056744
Probable space group: P -1
;
_chemical_formula_sum "Si O2"
_cell_formula_units_Z 16
_cell_length_a 13.233824
_cell_length_b 9.730612
_cell_length_c 8.409628
_cell_angle_alpha 78.668332
_cell_angle_beta 124.991034
_cell_angle_gamma 132.713685
_cell_volume 617.628733
_symmetry_space_group_name_H-M "P -1"
_symmetry_group_IT_number 2
_symmetry_cell_setting 'triclinic'
loop_
_space_group_symop_operation_xyz
x,y,z
-x,-y,-z
loop_
_atom_site_type_symbol
_atom_site_label
_atom_site_fract_x
_atom_site_fract_y
_atom_site_fract_z
Si Si1 0.294302 0.992258 0.597849
Si Si2 0.756657 0.672597 0.819170
Si Si3 0.283481 0.510973 0.503711
Si Si4 0.367113 0.687008 0.050332
Si Si5 0.792454 0.823261 0.329009
Si Si6 0.590331 0.855297 0.902389
Si Si7 0.062492 0.619745 0.693103
Si Si8 0.837065 0.062911 0.837451
O O1 0.277525 0.142124 0.594450
O O2 0.203150 0.890615 0.373031
O O3 0.194680 0.842511 0.690745
O O4 0.500181 0.134893 0.746828
O O5 0.692963 0.556718 0.621169
O O6 0.754284 0.838484 0.796463
O O7 0.656720 0.497744 0.898364
O O8 0.960294 0.797785 0.987345
O O9 0.254776 0.375177 0.649510
O O10 0.452052 0.727142 0.663852
O O11 0.105519 0.455944 0.352289
O O12 0.464611 0.797143 0.947012
O O13 0.179186 0.604595 0.897611
O O14 0.701493 0.816509 0.093736
O O15 0.000000 0.000000 0.500000
O O16 0.747028 0.060917 0.909200
O O17 0.000000 0.500000 0.500000
#
# Coordination Sequence:
#
# PCOD9056744 Si02
#       8
#     2   2   2   2   2   2   2   2
#     4  11  24  44  72 101 140 180 235 296 348 413
#     4  11  26  44  71 104 146 184 229 291 360 424
#     4  12  24  43  70 104 142 181 232 288 354 413
#     4  11  26  47  69 103 137 192 241 284 344 415
#     4  11  22  40  68 106 136 177 227 290 360 408
#     4  11  26  40  70 105 142 183 230 293 342 423
#     4  12  25  46  73  99 144 192 237 283 343 422
#     4  11  25  43  69 108 143 181 230 293 365 413
#
# _framework density 25.905532999999998
#
# number of rings (size 3 to 8) (size 9 to 14) (size 15 to 20)
#    0.000    0.750    3.750    3.000    8.750    1.500 
#    0.000    0.625    0.000    0.000    0.000    0.000 
#    0.000    0.000    0.000    0.000    0.000    0.000 
#
# Total GULP energy -89543.653718 kJ/mol
# GULP energy per Si atom -5596.478357 kJ/mol
# Density = 2.584657 g / cm^3
# Si number density = 25.905533 Si / 1000 Ang^3
#
#
#
# Elastic Constant Matrix: (Units=GPa)
#
#
# Indices 1 2 3 4 5 6 
#
# 1 86.7740 15.0745 26.5827 2.2030 9.2945 14.7448
# 2 15.0745 79.0376 -1.5379 6.3526 6.3054 6.9835
# 3 26.5827 -1.5379 120.0104 11.5870 5.8241 10.1995
# 4 2.2030 6.3526 11.5870 38.6935 12.7430 0.9990
# 5 9.2945 6.3054 5.8241 12.7430 53.4707 5.2132
# 6 14.7448 6.9835 10.1995 0.9990 5.2132 36.4487
#
#
#
# Elastic Compliance Matrix: (Units=1/GPa)
#
#
# Indices 1 2 3 4 5 6 
#
# 1 0.013591 -0.002235 -0.002712 0.001056 -0.001655 -0.004103
# 2 -0.002235 0.013483 0.001061 -0.002151 -0.000626 -0.001828
# 3 -0.002712 0.001061 0.009354 -0.002832 0.000165 -0.001670
# 4 0.001056 -0.002151 -0.002832 0.029155 -0.006660 0.000931
# 5 -0.001655 -0.000626 0.000165 -0.006660 0.020833 -0.002054
# 6 -0.004103 -0.001828 -0.001670 0.000931 -0.002054 0.030181
#
#
# Mechanical properties :
#
#
# Convention : Reuss Voigt Hill
#
# Bulk Modulus (GPa) = 34.89579 40.67341 37.78460
# Shear Modulus (GPa) = 37.33515 42.10274 39.71894
#
# Velocity S-wave (km/s) = 3.80044 4.03580 3.91989
# Velocity P-wave (km/s) = 5.72341 6.11978 5.92491
#
# Compressibility (1/GPa) = 0.02865675
#
# Stress axis : x y z
#
# Youngs Moduli (GPa) = 73.57812 74.16481 106.90274
#
# Poissons Ratio (x) = 0.16578 0.28992
# Poissons Ratio (y) = 0.16447 -0.11345
# Poissons Ratio (z) = 0.19955 -0.07871
#
# Static dielectric constant tensor:
#      x y z
#    x 2.045550 -0.059800 -0.007490 
#    y -0.059800 2.072810 -0.007120 
#    z -0.007490 -0.007120 2.086070 
# 
# From -- ./inp_files/307179.got.cif
#   From: 2010.05.17/outbox.cif.g08.bks.cpg/sg2_154_cif.got.tgz:307179.got - 2010.06.03 11:33:40.
