data_PCOD9056431
_publ_section_title
;
Structure prediction by ZEFSAII (Michael W. Deem and Ramdas Pophale) SiO2 
 PCOD9056431
Probable space group: P -1
;
_chemical_formula_sum "Si O2"
_cell_formula_units_Z 16
_cell_length_a 13.592741
_cell_length_b 10.977759
_cell_length_c 7.891374
_cell_angle_alpha 122.467306
_cell_angle_beta 132.631570
_cell_angle_gamma 73.857208
_cell_volume 723.954718
_symmetry_space_group_name_H-M "P -1"
_symmetry_group_IT_number 2
_symmetry_cell_setting 'triclinic'
loop_
_space_group_symop_operation_xyz
x,y,z
-x,-y,-z
loop_
_atom_site_type_symbol
_atom_site_label
_atom_site_fract_x
_atom_site_fract_y
_atom_site_fract_z
Si Si1 0.440559 0.804630 0.430755
Si Si2 0.874336 0.389586 0.321785
Si Si3 0.609860 0.505515 0.984018
Si Si4 0.956352 0.115951 0.161449
Si Si5 0.019021 0.661891 0.223002
Si Si6 0.212039 0.225575 0.768620
Si Si7 0.326292 0.949958 0.074362
Si Si8 0.736432 0.106299 0.400118
O O1 0.435964 0.630965 0.295147
O O2 0.589261 0.891006 0.696533
O O3 0.350400 0.857557 0.514576
O O4 0.387929 0.859160 0.228474
O O5 0.885705 0.250662 0.111605
O O6 0.900386 0.349391 0.514851
O O7 0.000000 0.500000 0.500000
O O8 0.742705 0.460768 0.193916
O O9 0.500000 0.500000 0.000000
O O10 0.664402 0.657266 0.066420
O O11 0.092692 0.190922 0.464201
O O12 0.833339 0.042403 0.080422
O O13 0.000000 0.000000 0.000000
O O14 0.117736 0.792145 0.344560
O O15 0.872406 0.708882 0.130249
O O16 0.000000 0.500000 0.000000
O O17 0.251220 0.065513 0.722862
O O18 0.338284 0.872801 0.850077
#
# Coordination Sequence:
#
# PCOD9056431 Si02
#       8
#     2   2   2   2   2   2   2   2
#     4  11  26  45  75  97 137 193 243 283 368 426
#     4  11  22  45  70  98 140 183 234 292 350 419
#     4  12  26  46  70 105 147 191 240 299 357 432
#     4  11  22  38  71 104 136 174 242 289 358 418
#     4  11  23  43  71 101 142 184 232 292 369 419
#     4  11  25  43  65 106 141 183 233 294 364 421
#     4  11  24  45  71 105 136 187 237 292 359 424
#     4  12  24  46  72 104 147 179 235 306 352 431
#
# _framework density 22.100829000000001
#
# number of rings (size 3 to 8) (size 9 to 14) (size 15 to 20)
#    0.000    0.750    6.250    2.250    5.250    0.000 
#    4.500    0.625    0.000    0.000    0.000    0.000 
#    0.000    0.000    0.000    0.000    0.000    0.000 
#
# Total GULP energy -89326.681568 kJ/mol
# GULP energy per Si atom -5582.917598 kJ/mol
# Density = 2.205053 g / cm^3
# Si number density = 22.100829 Si / 1000 Ang^3
#
#
#
# Elastic Constant Matrix: (Units=GPa)
#
#
# Indices 1 2 3 4 5 6 
#
# 1 134.6320 66.7978 55.7526 36.9539 7.7648 -3.4206
# 2 66.7978 88.6338 43.2636 44.1680 -0.4963 -0.7831
# 3 55.7526 43.2636 126.2715 43.0321 11.0417 7.7513
# 4 36.9539 44.1680 43.0321 52.1723 9.2706 -1.3902
# 5 7.7648 -0.4963 11.0417 9.2706 55.5015 11.7233
# 6 -3.4206 -0.7831 7.7513 -1.3902 11.7233 36.1578
#
#
#
# Elastic Compliance Matrix: (Units=1/GPa)
#
#
# Indices 1 2 3 4 5 6 
#
# 1 0.012928 -0.008892 -0.003089 0.001339 -0.002003 0.002393
# 2 -0.008892 0.026411 0.000564 -0.017456 0.004839 -0.002630
# 3 -0.003089 0.000564 0.012147 -0.008415 0.000111 -0.003244
# 4 0.001339 -0.017456 -0.008415 0.041266 -0.006683 0.005306
# 5 -0.002003 0.004839 0.000111 -0.006683 0.020947 -0.007157
# 6 0.002393 -0.002630 -0.003244 0.005306 -0.007157 0.031046
#
#
# Mechanical properties :
#
#
# Convention : Reuss Voigt Hill
#
# Bulk Modulus (GPa) = 34.90230 75.68503 55.29367
# Shear Modulus (GPa) = 28.22790 41.01453 34.62122
#
# Velocity S-wave (km/s) = 3.57772 4.31256 3.96221
# Velocity P-wave (km/s) = 5.73527 7.68878 6.78272
#
# Compressibility (1/GPa) = 0.02865141
#
# Stress axis : x y z
#
# Youngs Moduli (GPa) = 77.35381 37.86313 82.32318
#
# Poissons Ratio (x) = 0.33668 0.25433
# Poissons Ratio (y) = 0.68783 -0.04645
# Poissons Ratio (z) = 0.23898 -0.02136
#
# Static dielectric constant tensor:
#      x y z
#    x 1.842680 0.024200 0.008100 
#    y 0.024200 1.986090 -0.054010 
#    z 0.008100 -0.054010 1.880420 
# 
# From -- ./inp_files/263649.got.cif
#   From: 2010.05.17/outbox.cif.g08.bks.cpg/sg2_132_cif.got.tgz:263649.got - 2010.06.03 11:33:40.
