data_PCOD9056444
_publ_section_title
;
Structure prediction by ZEFSAII (Michael W. Deem and Ramdas Pophale) SiO2 
 PCOD9056444
Probable space group: P -1
;
_chemical_formula_sum "Si O2"
_cell_formula_units_Z 14
_cell_length_a 7.394537
_cell_length_b 5.391400
_cell_length_c 16.326024
_cell_angle_alpha 87.694882
_cell_angle_beta 94.683556
_cell_angle_gamma 110.326666
_cell_volume 608.249851
_symmetry_space_group_name_H-M "P -1"
_symmetry_group_IT_number 2
_symmetry_cell_setting 'triclinic'
loop_
_space_group_symop_operation_xyz
x,y,z
-x,-y,-z
loop_
_atom_site_type_symbol
_atom_site_label
_atom_site_fract_x
_atom_site_fract_y
_atom_site_fract_z
Si Si1 0.310888 0.750746 0.980695
Si Si2 0.421907 0.728404 0.679639
Si Si3 0.996146 0.048345 0.096622
Si Si4 0.685241 0.575814 0.159239
Si Si5 0.369547 0.687828 0.502713
Si Si6 0.676583 0.348249 0.674082
Si Si7 0.271190 0.551445 0.155199
O O1 0.365121 0.538319 0.932868
O O2 0.156882 0.798825 0.913135
O O3 0.218566 0.664412 0.067690
O O4 0.500000 0.000000 0.000000
O O5 0.323772 0.622462 0.764148
O O6 0.573666 0.570899 0.674960
O O7 0.291638 0.651711 0.593327
O O8 0.529378 0.044529 0.679832
O O9 0.890578 0.799636 0.151856
O O10 0.197263 0.237723 0.137854
O O11 0.000000 0.000000 0.000000
O O12 0.503663 0.672089 0.168204
O O13 0.500000 0.500000 0.500000
O O14 0.242443 0.631551 0.415819
O O15 0.500000 0.000000 0.500000
O O16 0.804328 0.399350 0.760254
#
# Coordination Sequence:
#
# PCOD9056444 Si02
#       7
#     2   2   2   2   2   2   2
#     4  12  22  38  59  79 114 151 194 245 291 344
#     4   9  18  32  56  84 115 150 190 237 289 344
#     4  12  25  40  56  82 114 155 201 240 296 344
#     4  11  23  39  57  82 115 150 197 240 291 349
#     4   8  14  28  51  81 114 143 185 235 283 343
#     4   9  18  33  54  86 114 149 191 237 290 344
#     4  11  22  39  58  84 114 152 196 245 289 350
#
# _framework density 23.016856000000001
#
# number of rings (size 3 to 8) (size 9 to 14) (size 15 to 20)
#    0.000    1.714    2.857    2.571    2.000    1.143 
#    0.000    0.000    0.000    0.857    0.000    1.000 
#    0.000    0.000    0.000    0.000    0.000    0.000 
#
# Total GULP energy -78005.363499 kJ/mol
# GULP energy per Si atom -5571.811678 kJ/mol
# Density = 2.296447 g / cm^3
# Si number density = 23.016856 Si / 1000 Ang^3
#
#
#
# Elastic Constant Matrix: (Units=GPa)
#
#
# Indices 1 2 3 4 5 6 
#
# 1 41.9811 14.5107 9.6247 -1.5645 2.8336 1.4148
# 2 14.5107 106.1613 25.5944 5.5501 -2.7752 5.7176
# 3 9.6247 25.5944 214.7847 12.2189 -0.2987 3.7751
# 4 -1.5645 5.5501 12.2189 35.5924 -7.5874 -5.8405
# 5 2.8336 -2.7752 -0.2987 -7.5874 6.9978 -3.7466
# 6 1.4148 5.7176 3.7751 -5.8405 -3.7466 32.1782
#
#
#
# Elastic Compliance Matrix: (Units=1/GPa)
#
#
# Indices 1 2 3 4 5 6 
#
# 1 0.026270 -0.003613 -0.000623 -0.001764 -0.015375 -0.002550
# 2 -0.003613 0.010368 -0.001002 -0.000776 0.004028 -0.001238
# 3 -0.000623 -0.001002 0.004960 -0.002463 -0.003248 -0.001202
# 4 -0.001764 -0.000776 -0.002463 0.043110 0.054928 0.014725
# 5 -0.015375 0.004028 -0.003248 0.054928 0.230002 0.037091
# 6 -0.002550 -0.001238 -0.001202 0.014725 0.037091 0.038541
#
#
# Mechanical properties :
#
#
# Convention : Reuss Voigt Hill
#
# Bulk Modulus (GPa) = 32.13187 51.37629 41.75408
# Shear Modulus (GPa) = 13.36540 35.83351 24.59945
#
# Velocity S-wave (km/s) = 2.41234 3.94996 3.27273
# Velocity P-wave (km/s) = 4.66365 6.57058 5.69746
#
# Compressibility (1/GPa) = 0.03112174
#
# Stress axis : x y z
#
# Youngs Moduli (GPa) = 38.06649 96.45482 201.61745
#
# Poissons Ratio (x) = 0.34848 0.12558
# Poissons Ratio (y) = 0.13753 0.20203
# Poissons Ratio (z) = 0.02371 0.09665
#
# Static dielectric constant tensor:
#      x y z
#    x 1.947200 -0.133670 0.002950 
#    y -0.133670 2.022510 -0.009560 
#    z 0.002950 -0.009560 1.931490 
# 
# From -- ./inp_files/51802.got.cif
#   From: 2010.05.17/outbox.cif.g08.bks.cpg/sg2_26_cif.got.tgz:51802.got - 2010.06.03 11:33:40.
