data_PCOD9056094
_publ_section_title
;
Structure prediction by ZEFSAII (Michael W. Deem and Ramdas Pophale) SiO2 
 PCOD9056094
Probable space group: P -1
;
_chemical_formula_sum "Si O2"
_cell_formula_units_Z 16
_cell_length_a 12.244092
_cell_length_b 18.629937
_cell_length_c 8.898185
_cell_angle_alpha 77.963066
_cell_angle_beta 134.093937
_cell_angle_gamma 139.661964
_cell_volume 680.891619
_symmetry_space_group_name_H-M "P -1"
_symmetry_group_IT_number 2
_symmetry_cell_setting 'triclinic'
loop_
_space_group_symop_operation_xyz
x,y,z
-x,-y,-z
loop_
_atom_site_type_symbol
_atom_site_label
_atom_site_fract_x
_atom_site_fract_y
_atom_site_fract_z
Si Si1 0.325474 0.147404 0.157909
Si Si2 0.717028 0.181788 0.378922
Si Si3 0.259519 0.304272 0.506193
Si Si4 0.775424 0.844375 0.275836
Si Si5 0.263103 0.723421 0.955979
Si Si6 0.451692 0.626683 0.551640
Si Si7 0.801568 0.639863 0.009020
Si Si8 0.310056 0.864153 0.141872
O O1 0.495564 0.143723 0.278667
O O2 0.545225 0.292455 0.406866
O O3 0.246575 0.153811 0.922540
O O4 0.000000 0.000000 0.000000
O O5 0.714471 0.215011 0.196016
O O6 0.074008 0.330032 0.721773
O O7 0.566152 0.037136 0.308679
O O8 0.140013 0.200029 0.567017
O O9 0.372366 0.304722 0.469784
O O10 0.972003 0.230775 0.200421
O O11 0.549715 0.476921 0.766610
O O12 0.431965 0.720024 0.070738
O O13 0.000000 0.000000 0.500000
O O14 0.427109 0.836230 0.201350
O O15 0.902850 0.553176 0.727615
O O16 0.642570 0.652003 0.833077
O O17 0.124690 0.778125 0.158360
#
# Coordination Sequence:
#
# PCOD9056094 Si02
#       8
#     2   2   2   2   2   2   2   2
#     4  11  25  46  67  92 134 174 212 269 331 385
#     4  11  26  40  67  97 131 169 220 272 321 382
#     4  11  22  43  69  94 134 169 217 267 320 388
#     4  11  26  43  65  98 129 170 221 268 322 387
#     4  11  24  42  65  96 131 171 216 266 329 382
#     4  11  23  43  67  95 134 173 214 265 327 386
#     4  11  23  41  66 100 128 169 220 269 321 383
#     4  11  21  46  66  93 132 176 214 266 323 385
#
# _framework density 23.498598000000001
#
# number of rings (size 3 to 8) (size 9 to 14) (size 15 to 20)
#    0.000    1.000    2.500    5.250    3.500    6.000 
#    0.000    0.000    0.000    0.000    0.000    0.000 
#    0.000    0.000    0.000    0.000    0.000    0.000 
#
# Total GULP energy -89655.861805 kJ/mol
# GULP energy per Si atom -5603.491363 kJ/mol
# Density = 2.344511 g / cm^3
# Si number density = 23.498598 Si / 1000 Ang^3
#
#
#
# Elastic Constant Matrix: (Units=GPa)
#
#
# Indices 1 2 3 4 5 6 
#
# 1 110.2520 13.0875 0.6796 16.3719 -7.8729 -1.9693
# 2 13.0875 68.6304 8.3768 2.2208 -2.3481 -12.6392
# 3 0.6796 8.3768 70.9205 7.0043 -13.0148 0.8131
# 4 16.3719 2.2208 7.0043 25.4140 -12.0132 -5.3268
# 5 -7.8729 -2.3481 -13.0148 -12.0132 22.1268 23.8266
# 6 -1.9693 -12.6392 0.8131 -5.3268 23.8266 9.7820
#
#
#
# Elastic Compliance Matrix: (Units=1/GPa)
#
#
# Indices 1 2 3 4 5 6 
#
# 1 0.010182 -0.001469 0.000333 -0.007233 -0.002369 0.001955
# 2 -0.001469 0.013703 0.000173 0.003309 0.010994 -0.007582
# 3 0.000333 0.000173 0.013363 -0.004372 -0.005589 0.010412
# 4 -0.007233 0.003309 -0.004372 0.051190 0.006437 0.015380
# 5 -0.002369 0.010994 -0.005589 0.006437 -0.016432 0.057723
# 6 0.001955 -0.007582 0.010412 0.015380 0.057723 -0.040264
#
#
# Mechanical properties :
#
#
# Convention : Reuss Voigt Hill
#
# Bulk Modulus (GPa) = 28.31056 32.67673 30.49365
# Shear Modulus (GPa) = 110.03018 26.64182 68.33600
#
# Velocity S-wave (km/s) = 6.85024 3.37079 5.39852
# Velocity P-wave (km/s) = 8.63954 5.39311 7.20164
#
# Compressibility (1/GPa) = 0.03532251
#
# Stress axis : x y z
#
# Youngs Moduli (GPa) = 98.20934 72.97842 74.83087
#
# Poissons Ratio (x) = 0.10724 -0.02494
# Poissons Ratio (y) = 0.14431 -0.01296
# Poissons Ratio (z) = -0.03273 -0.01264
#
# Static dielectric constant tensor:
#      x y z
#    x 1.939990 -0.004350 0.016120 
#    y -0.004350 1.844400 -0.012340 
#    z 0.016120 -0.012340 1.882490 
# 
# From -- ./inp_files/190180.got.cif
#   From: 2010.05.17/outbox.cif.g08.bks.cpg/sg2_96_cif.got.tgz:190180.got - 2010.06.03 11:33:40.
