data_PCOD9056364
_publ_section_title
;
Structure prediction by ZEFSAII (Michael W. Deem and Ramdas Pophale) SiO2 
 PCOD9056364
Probable space group: P -1
;
_chemical_formula_sum "Si O2"
_cell_formula_units_Z 16
_cell_length_a 15.526221
_cell_length_b 20.717830
_cell_length_c 7.612412
_cell_angle_alpha 62.955672
_cell_angle_beta 135.342029
_cell_angle_gamma 154.297513
_cell_volume 590.902359
_symmetry_space_group_name_H-M "P -1"
_symmetry_group_IT_number 2
_symmetry_cell_setting 'triclinic'
loop_
_space_group_symop_operation_xyz
x,y,z
-x,-y,-z
loop_
_atom_site_type_symbol
_atom_site_label
_atom_site_fract_x
_atom_site_fract_y
_atom_site_fract_z
Si Si1 0.395967 0.552101 0.401283
Si Si2 0.404484 0.711821 0.240705
Si Si3 0.024901 0.215051 0.170744
Si Si4 0.375323 0.766833 0.507361
Si Si5 0.809400 0.121778 0.582772
Si Si6 0.307783 0.782054 0.748155
Si Si7 0.880388 0.927777 0.117643
Si Si8 0.355458 0.339981 0.989816
O O1 0.253194 0.552792 0.159470
O O2 0.152150 0.353523 0.287491
O O3 0.691698 0.688905 0.539403
O O4 0.535156 0.631840 0.700369
O O5 0.344111 0.699940 0.371469
O O6 0.274357 0.706480 0.945093
O O7 0.780949 0.902214 0.509154
O O8 0.987182 0.219456 0.907469
O O9 0.682980 0.004716 0.999730
O O10 0.175990 0.677114 0.503881
O O11 0.476631 0.902363 0.416573
O O12 0.679425 0.891495 0.890521
O O13 0.830746 0.213601 0.425387
O O14 0.983231 0.157626 0.672084
O O15 0.640808 0.728823 0.041636
O O16 0.000000 0.000000 0.000000
O O17 0.500000 0.500000 0.000000
#
# Coordination Sequence:
#
# PCOD9056364 Si02
#       8
#     2   2   2   2   2   2   2   2
#     4  10  20  38  59  93 130 157 205 264 326 352
#     4  11  21  37  62  94 128 162 206 264 301 367
#     4   9  20  37  61  89 124 165 203 266 308 364
#     4  10  19  38  64  90 122 160 205 264 301 351
#     4  10  20  42  62  87 125 169 208 256 302 372
#     4  11  24  38  66  92 121 173 219 237 304 383
#     4  10  17  36  61  89 122 159 202 263 313 350
#     4  11  21  36  64  93 121 157 207 261 317 365
#
# _framework density 27.07723
#
# number of rings (size 3 to 8) (size 9 to 14) (size 15 to 20)
#    0.000    1.750    5.000    3.000    1.750    2.500 
#    4.500    1.875    2.750    3.750    0.000    0.000 
#    0.000    0.000    0.000    0.000    0.000    0.000 
#
# Total GULP energy -89466.017625 kJ/mol
# GULP energy per Si atom -5591.626102 kJ/mol
# Density = 2.701560 g / cm^3
# Si number density = 27.077230 Si / 1000 Ang^3
#
#
#
# Elastic Constant Matrix: (Units=GPa)
#
#
# Indices 1 2 3 4 5 6 
#
# 1 88.9750 34.7088 41.8861 -5.0277 10.1635 -39.8793
# 2 34.7088 131.9285 38.4527 -11.7135 -1.8740 -37.7923
# 3 41.8861 38.4527 74.9062 -28.4218 -0.3687 -10.2872
# 4 -5.0277 -11.7135 -28.4218 49.5358 -13.8677 9.0929
# 5 10.1635 -1.8740 -0.3687 -13.8677 44.4971 1.3205
# 6 -39.8793 -37.7923 -10.2872 9.0929 1.3205 46.3886
#
#
#
# Elastic Compliance Matrix: (Units=1/GPa)
#
#
# Indices 1 2 3 4 5 6 
#
# 1 0.041315 0.006972 -0.030404 -0.023930 -0.018030 0.039660
# 2 0.006972 0.012610 -0.010654 -0.006208 -0.003536 0.015222
# 3 -0.030404 -0.010654 0.042748 0.029474 0.016973 -0.031598
# 4 -0.023930 -0.006208 0.029474 0.043993 0.019999 -0.028286
# 5 -0.018030 -0.003536 0.016973 0.019999 0.033394 -0.019487
# 6 0.039660 0.015222 -0.031598 -0.028286 -0.019487 0.067145
#
#
# Mechanical properties :
#
#
# Convention : Reuss Voigt Hill
#
# Bulk Modulus (GPa) = 35.08585 58.43388 46.75987
# Shear Modulus (GPa) = 15.67999 40.13512 27.90756
#
# Velocity S-wave (km/s) = 2.40903 3.85417 3.21388
# Velocity P-wave (km/s) = 4.55233 6.43688 5.57482
#
# Compressibility (1/GPa) = 0.02850152
#
# Stress axis : x y z
#
# Youngs Moduli (GPa) = 24.20401 79.30205 23.39289
#
# Poissons Ratio (x) = -0.55292 0.71124
# Poissons Ratio (y) = -0.16876 0.24924
# Poissons Ratio (z) = 0.73590 0.84491
#
# Static dielectric constant tensor:
#      x y z
#    x 2.070260 0.047100 0.019710 
#    y 0.047100 2.178280 0.089790 
#    z 0.019710 0.089790 2.177270 
# 
# From -- ./inp_files/337198.got.cif
#   From: 2010.05.17/outbox.cif.g08.bks.cpg/sg2_169_cif.got.tgz:337198.got - 2010.06.03 11:33:40.
