data_PCOD9056275
_publ_section_title
;
Structure prediction by ZEFSAII (Michael W. Deem and Ramdas Pophale) SiO2 
 PCOD9056275
Probable space group: P -1
;
_chemical_formula_sum "Si O2"
_cell_formula_units_Z 14
_cell_length_a 25.804782
_cell_length_b 16.423353
_cell_length_c 5.268534
_cell_angle_alpha 86.304630
_cell_angle_beta 92.301389
_cell_angle_gamma 162.232101
_cell_volume 678.298735
_symmetry_space_group_name_H-M "P -1"
_symmetry_group_IT_number 2
_symmetry_cell_setting 'triclinic'
loop_
_space_group_symop_operation_xyz
x,y,z
-x,-y,-z
loop_
_atom_site_type_symbol
_atom_site_label
_atom_site_fract_x
_atom_site_fract_y
_atom_site_fract_z
Si Si1 0.779854 0.399485 0.370651
Si Si2 0.556197 0.167898 0.736159
Si Si3 0.287281 0.960783 0.980194
Si Si4 0.142879 0.333765 0.962599
Si Si5 0.494919 0.730979 0.528129
Si Si6 0.873333 0.853473 0.309555
Si Si7 0.028295 0.469407 0.717397
O O1 0.667472 0.264242 0.606358
O O2 0.881494 0.630535 0.248421
O O3 0.899305 0.501279 0.414660
O O4 0.632336 0.148488 0.196001
O O5 0.536516 0.220172 0.550447
O O6 0.673042 0.373402 0.943378
O O7 0.168039 0.708442 0.903288
O O8 0.394489 0.139537 0.710416
O O9 0.144172 0.805598 0.104181
O O10 0.410036 0.128857 0.210189
O O11 0.156045 0.261965 0.877798
O O12 0.982185 0.090378 0.168807
O O13 0.313907 0.413597 0.564575
O O14 0.000000 0.000000 0.500000
O O15 0.000000 0.500000 0.500000
#
# Coordination Sequence:
#
# PCOD9056275 Si02
#       7
#     2   2   2   2   2   2   2
#     4  11  23  37  63  94 138 168 211 273 337 403
#     4  11  22  37  60 101 136 169 204 262 356 399
#     4  11  24  40  65  96 128 174 228 266 329 381
#     4  11  22  39  58  96 134 175 215 263 331 404
#     4  12  22  41  66  96 134 170 216 275 319 403
#     4  11  23  38  63  92 134 176 221 263 325 403
#     4  11  23  43  64  93 131 176 226 270 327 393
#
# _framework density 20.639873999999999
#
# number of rings (size 3 to 8) (size 9 to 14) (size 15 to 20)
#    0.000    0.857    5.714    1.286    2.000    4.571 
#    0.000    0.000    0.000    1.714    0.000    0.000 
#    0.000    0.000    0.000    0.000    0.000    0.000 
#
# Total GULP energy -78095.464560 kJ/mol
# GULP energy per Si atom -5578.247469 kJ/mol
# Density = 2.059290 g / cm^3
# Si number density = 20.639874 Si / 1000 Ang^3
#
#
#
# Elastic Constant Matrix: (Units=GPa)
#
#
# Indices 1 2 3 4 5 6 
#
# 1 77.7800 0.9586 11.9198 -18.3843 -5.0610 17.3864
# 2 0.9586 71.0673 25.4392 -24.3151 2.5318 22.4033
# 3 11.9198 25.4392 89.3279 -5.7282 -1.0762 12.4617
# 4 -18.3843 -24.3151 -5.7282 49.5688 1.3298 -5.9877
# 5 -5.0610 2.5318 -1.0762 1.3298 25.2064 -8.8994
# 6 17.3864 22.4033 12.4617 -5.9877 -8.8994 28.6402
#
#
#
# Elastic Compliance Matrix: (Units=1/GPa)
#
#
# Indices 1 2 3 4 5 6 
#
# 1 0.018785 0.009127 -0.002216 0.009259 -0.003652 -0.016778
# 2 0.009127 0.029678 -0.005098 0.014386 -0.011718 -0.027171
# 3 -0.002216 -0.005098 0.012898 -0.001908 0.000538 -0.000511
# 4 0.009259 0.014386 -0.001908 0.029187 -0.005299 -0.011589
# 5 -0.003652 -0.011718 0.000538 -0.005299 0.049381 0.025386
# 6 -0.016778 -0.027171 -0.000511 -0.011589 0.025386 0.072043
#
#
# Mechanical properties :
#
#
# Convention : Reuss Voigt Hill
#
# Bulk Modulus (GPa) = 15.38750 34.97894 25.18322
# Shear Modulus (GPa) = 21.73845 34.00691 27.87268
#
# Velocity S-wave (km/s) = 3.24886 4.06351 3.67880
# Velocity P-wave (km/s) = 4.64165 6.24501 5.50205
#
# Compressibility (1/GPa) = 0.06498780
#
# Stress axis : x y z
#
# Youngs Moduli (GPa) = 53.23320 33.69523 77.53417
#
# Poissons Ratio (x) = -0.30754 0.17178
# Poissons Ratio (y) = -0.48586 0.39526
# Poissons Ratio (z) = 0.11794 0.17177
#
# Static dielectric constant tensor:
#      x y z
#    x 1.769740 -0.026120 -0.033400 
#    y -0.026120 1.948140 0.014690 
#    z -0.033400 0.014690 1.858360 
# 
# From -- ./inp_files/124197.got.cif
#   From: 2010.05.17/outbox.cif.g08.bks.cpg/sg2_63_cif.got.tgz:124197.got - 2010.06.03 11:33:40.
