data_PCOD9056198
_publ_section_title
;
Structure prediction by ZEFSAII (Michael W. Deem and Ramdas Pophale) SiO2 
 PCOD9056198
Probable space group: P -1
;
_chemical_formula_sum "Si O2"
_cell_formula_units_Z 16
_cell_length_a 11.653026
_cell_length_b 14.772259
_cell_length_c 8.441394
_cell_angle_alpha 56.906725
_cell_angle_beta 139.150957
_cell_angle_gamma 120.456551
_cell_volume 784.489056
_symmetry_space_group_name_H-M "P -1"
_symmetry_group_IT_number 2
_symmetry_cell_setting 'triclinic'
loop_
_space_group_symop_operation_xyz
x,y,z
-x,-y,-z
loop_
_atom_site_type_symbol
_atom_site_label
_atom_site_fract_x
_atom_site_fract_y
_atom_site_fract_z
Si Si1 0.137776 0.338482 0.526907
Si Si2 0.804312 0.397680 0.305392
Si Si3 0.369824 0.553686 0.423841
Si Si4 0.449845 0.233870 0.068917
Si Si5 0.938784 0.642606 0.130534
Si Si6 0.392012 0.241923 0.354875
Si Si7 0.122214 0.707388 0.936619
Si Si8 0.476846 0.870028 0.098340
O O1 0.251784 0.453496 0.485867
O O2 0.261665 0.273878 0.816089
O O3 0.955481 0.364776 0.381760
O O4 0.048798 0.265603 0.360191
O O5 0.827196 0.528565 0.189854
O O6 0.878026 0.349390 0.587591
O O7 0.606993 0.338558 0.125145
O O8 0.500000 0.500000 0.500000
O O9 0.479216 0.643136 0.571599
O O10 0.248811 0.615896 0.124707
O O11 0.480001 0.167691 0.001057
O O12 0.451816 0.194613 0.293658
O O13 0.804890 0.729586 0.906065
O O14 0.017939 0.647860 0.034465
O O15 0.407559 0.170544 0.598062
O O16 0.274383 0.814625 0.988250
O O17 0.500000 0.000000 0.000000
#
# Coordination Sequence:
#
# PCOD9056198 Si02
#       8
#     2   2   2   2   2   2   2   2
#     4  12  22  37  61  97 136 177 215 253 315 393
#     4  11  23  37  61  98 143 182 214 252 309 392
#     4  11  22  35  60  96 139 185 221 258 314 391
#     4  12  25  45  68  98 139 174 220 279 329 394
#     4  11  22  39  61  98 142 180 222 255 310 400
#     4  11  25  42  66  99 136 180 224 273 329 387
#     4  11  22  40  63  92 130 173 225 276 326 392
#     4  11  26  49  73  95 123 168 226 294 357 395
#
# _framework density 20.395441000000002
#
# number of rings (size 3 to 8) (size 9 to 14) (size 15 to 20)
#    0.000    0.750    3.750    5.625    3.500    1.500 
#    0.000    2.500    0.000    2.250    0.000    0.000 
#    0.000    0.000    0.000    0.000    0.000    0.000 
#
# Total GULP energy -89072.012540 kJ/mol
# GULP energy per Si atom -5567.000784 kJ/mol
# Density = 2.034902 g / cm^3
# Si number density = 20.395441 Si / 1000 Ang^3
#
#
#
# Elastic Constant Matrix: (Units=GPa)
#
#
# Indices 1 2 3 4 5 6 
#
# 1 69.7210 3.5211 46.6867 1.2218 -6.8925 -9.4530
# 2 3.5211 65.9040 49.0367 -8.6138 -10.1140 -3.6829
# 3 46.6867 49.0367 131.9137 11.5293 2.0822 -4.4267
# 4 1.2218 -8.6138 11.5293 14.9162 -2.5928 -4.5668
# 5 -6.8925 -10.1140 2.0822 -2.5928 16.9458 8.2572
# 6 -9.4530 -3.6829 -4.4267 -4.5668 8.2572 15.3732
#
#
#
# Elastic Compliance Matrix: (Units=1/GPa)
#
#
# Indices 1 2 3 4 5 6 
#
# 1 0.040906 0.038389 -0.033909 0.058263 0.043639 0.018454
# 2 0.038389 0.076629 -0.051339 0.098798 0.074808 0.016348
# 3 -0.033909 -0.051339 0.045736 -0.075747 -0.055457 -0.012695
# 4 0.058263 0.098798 -0.075747 0.209411 0.102046 0.045080
# 5 0.043639 0.074808 -0.055457 0.102046 0.155821 -0.024594
# 6 0.018454 0.016348 -0.012695 0.045080 -0.024594 0.103258
#
#
# Mechanical properties :
#
#
# Convention : Reuss Voigt Hill
#
# Bulk Modulus (GPa) = 14.37792 51.78083 33.07937
# Shear Modulus (GPa) = 6.67856 20.66666 13.67261
#
# Velocity S-wave (km/s) = 1.81153 3.18669 2.59197
# Velocity P-wave (km/s) = 3.38237 6.24368 5.02115
#
# Compressibility (1/GPa) = 0.06955110
#
# Stress axis : x y z
#
# Youngs Moduli (GPa) = 24.44649 13.04981 21.86461
#
# Poissons Ratio (x) = -0.50096 0.74141
# Poissons Ratio (y) = -0.93847 1.12251
# Poissons Ratio (z) = 0.82896 0.66997
#
# Static dielectric constant tensor:
#      x y z
#    x 2.810520 -0.446430 -1.148000 
#    y -0.446430 1.837410 0.455190 
#    z -1.148000 0.455190 2.924950 
# 
# From -- ./inp_files/272283.got.cif
#   From: 2010.05.17/outbox.cif.g08.bks.cpg/sg2_137_cif.got.tgz:272283.got - 2010.06.03 11:33:40.
