data_PCOD9056968
_publ_section_title
;
Structure prediction by ZEFSAII (Michael W. Deem and Ramdas Pophale) SiO2 
 PCOD9056968
Probable space group: P -1
;
_chemical_formula_sum "Si O2"
_cell_formula_units_Z 16
_cell_length_a 13.183268
_cell_length_b 6.588726
_cell_length_c 29.465461
_cell_angle_alpha 116.888213
_cell_angle_beta 154.585080
_cell_angle_gamma 51.560397
_cell_volume 813.625414
_symmetry_space_group_name_H-M "P -1"
_symmetry_group_IT_number 2
_symmetry_cell_setting 'triclinic'
loop_
_space_group_symop_operation_xyz
x,y,z
-x,-y,-z
loop_
_atom_site_type_symbol
_atom_site_label
_atom_site_fract_x
_atom_site_fract_y
_atom_site_fract_z
Si Si1 0.088417 0.610565 0.825715
Si Si2 0.923550 0.460897 0.915193
Si Si3 0.851666 0.692095 0.567742
Si Si4 0.643317 0.062520 0.023326
Si Si5 0.292754 0.207092 0.223346
Si Si6 0.632303 0.682191 0.576307
Si Si7 0.762153 0.317893 0.428124
Si Si8 0.619572 0.568339 0.299432
O O1 0.385345 0.316247 0.916763
O O2 0.959244 0.680241 0.831236
O O3 0.853490 0.617416 0.699574
O O4 0.162159 0.835211 0.868050
O O5 0.821834 0.717706 0.866597
O O6 0.660451 0.432659 0.813123
O O7 0.000000 0.500000 0.000000
O O8 0.168332 0.196708 0.959563
O O9 0.795760 0.661273 0.594038
O O10 0.790216 0.500560 0.494277
O O11 0.171796 0.589516 0.674109
O O12 0.633650 0.003832 0.495875
O O13 0.500000 0.000000 0.000000
O O14 0.460072 0.352848 0.313756
O O15 0.513439 0.884437 0.287422
O O16 0.500000 0.500000 0.500000
O O17 0.780913 0.415398 0.395491
O O18 0.000000 0.000000 0.500000
#
# Coordination Sequence:
#
# PCOD9056968 Si02
#       8
#     2   2   2   2   2   2   2   2
#     4  11  24  43  72  95 131 180 239 280 339 420
#     4  11  26  44  66 102 138 176 227 293 353 407
#     4  11  25  42  63 104 137 178 226 274 345 412
#     4  11  24  45  71  99 131 181 237 287 344 409
#     4  11  22  41  67 100 132 178 223 283 336 411
#     4  11  27  44  68  99 142 185 226 285 343 411
#     4  11  23  38  69  99 133 179 220 274 336 414
#     4  11  24  41  65  99 138 174 228 274 343 414
#
# _framework density 19.665068000000002
#
# number of rings (size 3 to 8) (size 9 to 14) (size 15 to 20)
#    0.000    1.000    3.750    1.875    5.250    5.500 
#    0.000    0.000    0.000    0.000    0.000    0.000 
#    0.000    0.000    0.000    0.000    0.000    0.000 
#
# Total GULP energy -89418.863583 kJ/mol
# GULP energy per Si atom -5588.678974 kJ/mol
# Density = 1.962031 g / cm^3
# Si number density = 19.665068 Si / 1000 Ang^3
#
#
#
# Elastic Constant Matrix: (Units=GPa)
#
#
# Indices 1 2 3 4 5 6 
#
# 1 109.5883 59.0245 61.3373 -2.2855 15.1625 -4.4157
# 2 59.0245 129.0339 42.3936 -8.5500 -7.1532 0.8888
# 3 61.3373 42.3936 93.1845 9.3319 -2.6730 2.2281
# 4 -2.2855 -8.5500 9.3319 34.9619 -0.9992 7.0685
# 5 15.1625 -7.1532 -2.6730 -0.9992 42.0160 -4.0636
# 6 -4.4157 0.8888 2.2281 7.0685 -4.0636 35.3495
#
#
#
# Elastic Compliance Matrix: (Units=1/GPa)
#
#
# Indices 1 2 3 4 5 6 
#
# 1 0.019518 -0.005744 -0.010734 0.002118 -0.008474 0.001862
# 2 -0.005744 0.011314 -0.001543 0.003134 0.003870 -0.001086
# 3 -0.010734 -0.001543 0.019244 -0.005922 0.004617 -0.000800
# 4 0.002118 0.003134 -0.005922 0.032278 -0.000415 -0.005943
# 5 -0.008474 0.003870 0.004617 -0.000415 0.027980 0.001853
# 6 0.001862 -0.001086 -0.000800 -0.005943 0.001853 0.030001
#
#
# Mechanical properties :
#
#
# Convention : Reuss Voigt Hill
#
# Bulk Modulus (GPa) = 71.25821 73.03528 72.14675
# Shear Modulus (GPa) = 27.61583 33.73556 30.67569
#
# Velocity S-wave (km/s) = 3.75148 4.14636 3.95385
# Velocity P-wave (km/s) = 7.42155 7.75521 7.59021
#
# Compressibility (1/GPa) = 0.01403347
#
# Stress axis : x y z
#
# Youngs Moduli (GPa) = 51.23353 88.38550 51.96496
#
# Poissons Ratio (x) = 0.50768 0.55781
# Poissons Ratio (y) = 0.29428 0.08019
# Poissons Ratio (z) = 0.54995 0.13639
#
# Static dielectric constant tensor:
#      x y z
#    x 1.689320 0.030040 0.017260 
#    y 0.030040 1.705330 0.017220 
#    z 0.017260 0.017220 1.732980 
# 
# From -- ./inp_files/367777.got.cif
#   From: 2010.05.17/outbox.cif.g08.bks.cpg/sg2_184_cif.got.tgz:367777.got - 2010.06.03 11:33:40.
