data_PCOD9056654
_publ_section_title
;
Structure prediction by ZEFSAII (Michael W. Deem and Ramdas Pophale) SiO2 
 PCOD9056654
Probable space group: P -1
;
_chemical_formula_sum "Si O2"
_cell_formula_units_Z 12
_cell_length_a 9.324379
_cell_length_b 14.921317
_cell_length_c 14.863192
_cell_angle_alpha 18.806573
_cell_angle_beta 96.879242
_cell_angle_gamma 106.749009
_cell_volume 554.426127
_symmetry_space_group_name_H-M "P -1"
_symmetry_group_IT_number 2
_symmetry_cell_setting 'triclinic'
loop_
_space_group_symop_operation_xyz
x,y,z
-x,-y,-z
loop_
_atom_site_type_symbol
_atom_site_label
_atom_site_fract_x
_atom_site_fract_y
_atom_site_fract_z
Si Si1 0.820583 0.091866 0.314385
Si Si2 0.639045 0.848643 0.358722
Si Si3 0.988039 0.550032 0.251874
Si Si4 0.052093 0.817489 0.576698
Si Si5 0.469395 0.118922 0.979046
Si Si6 0.900444 0.006558 0.899536
O O1 0.805445 0.039595 0.469943
O O2 0.662764 0.860753 0.456472
O O3 0.974427 0.041517 0.344778
O O4 0.892478 0.472749 0.934959
O O5 0.600604 0.508465 0.637710
O O6 0.820944 0.153714 0.044510
O O7 0.497406 0.917717 0.249012
O O8 0.906569 0.288204 0.412895
O O9 0.997730 0.353778 0.523825
O O10 0.886586 0.722611 0.104547
O O11 0.500000 0.000000 0.000000
O O12 0.282344 0.059133 0.025002
O O13 0.000000 0.000000 0.000000
#
# Coordination Sequence:
#
# PCOD9056654 Si02
#       6
#     2   2   2   2   2   2
#     4   9  17  31  56  91 123 152 193 245 294 345
#     4  11  22  40  65  92 121 157 202 251 299 353
#     4  11  22  40  65  92 121 157 202 251 299 353
#     4   9  17  31  56  91 123 152 193 245 294 345
#     4  12  26  43  61  86 121 161 204 250 306 363
#     4  12  26  43  61  86 121 161 204 250 306 363
#
# _framework density 21.644003000000001
#
# number of rings (size 3 to 8) (size 9 to 14) (size 15 to 20)
#    0.000    1.333    0.000    8.000    0.000    2.667 
#    0.000    0.000    0.000    6.000    0.000    0.000 
#    0.000    0.000    0.000    0.000    0.000    0.000 
#
# Total GULP energy -67122.664947 kJ/mol
# GULP energy per Si atom -5593.555412 kJ/mol
# Density = 2.159474 g / cm^3
# Si number density = 21.644003 Si / 1000 Ang^3
#
#
#
# Elastic Constant Matrix: (Units=GPa)
#
#
# Indices 1 2 3 4 5 6 
#
# 1 103.9689 44.8511 4.8302 -6.0016 18.6187 -1.1258
# 2 44.8511 147.1545 21.4226 -18.4606 9.5340 12.9251
# 3 4.8302 21.4226 81.8721 -11.9108 19.8456 1.7704
# 4 -6.0016 -18.4606 -11.9108 32.0907 -2.5901 11.9968
# 5 18.6187 9.5340 19.8456 -2.5901 33.2851 0.0399
# 6 -1.1258 12.9251 1.7704 11.9968 0.0399 37.1638
#
#
#
# Elastic Compliance Matrix: (Units=1/GPa)
#
#
# Indices 1 2 3 4 5 6 
#
# 1 0.012425 -0.003807 0.001866 -0.000392 -0.007005 0.001746
# 2 -0.003807 0.009352 -0.001393 0.006195 0.000770 -0.005302
# 3 0.001866 -0.001393 0.015585 0.005271 -0.009525 -0.001893
# 4 -0.000392 0.006195 0.005271 0.042534 -0.001369 -0.016146
# 5 -0.007005 0.000770 -0.009525 -0.001369 0.039313 0.000373
# 6 0.001746 -0.005302 -0.001893 -0.016146 0.000373 0.034107
#
#
# Mechanical properties :
#
#
# Convention : Reuss Voigt Hill
#
# Bulk Modulus (GPa) = 32.58010 52.80039 42.69024
# Shear Modulus (GPa) = 29.37466 37.96736 33.67101
#
# Velocity S-wave (km/s) = 3.68798 4.19283 3.94848
# Velocity P-wave (km/s) = 5.76371 6.92009 6.36820
#
# Compressibility (1/GPa) = 0.03069358
#
# Stress axis : x y z
#
# Youngs Moduli (GPa) = 80.48505 106.93198 64.16373
#
# Poissons Ratio (x) = 0.40712 -0.11975
# Poissons Ratio (y) = 0.30643 0.08939
# Poissons Ratio (z) = -0.15022 0.14897
#
# Static dielectric constant tensor:
#      x y z
#    x 1.760860 0.011580 -0.019570 
#    y 0.011580 1.851570 0.000600 
#    z -0.019570 0.000600 1.803410 
# 
# From -- ./inp_files/311310.got.cif
#   From: 2010.05.17/outbox.cif.g08.bks.cpg/sg2_156_cif.got.tgz:311310.got - 2010.06.03 11:33:40.
