data_PCOD9056191
_publ_section_title
;
Structure prediction by ZEFSAII (Michael W. Deem and Ramdas Pophale) SiO2 
 PCOD9056191
Probable space group: P -1
;
_chemical_formula_sum "Si O2"
_cell_formula_units_Z 16
_cell_length_a 15.617482
_cell_length_b 22.946413
_cell_length_c 25.226501
_cell_angle_alpha 15.866704
_cell_angle_beta 13.784174
_cell_angle_gamma 19.888170
_cell_volume 586.261687
_symmetry_space_group_name_H-M "P -1"
_symmetry_group_IT_number 2
_symmetry_cell_setting 'triclinic'
loop_
_space_group_symop_operation_xyz
x,y,z
-x,-y,-z
loop_
_atom_site_type_symbol
_atom_site_label
_atom_site_fract_x
_atom_site_fract_y
_atom_site_fract_z
Si Si1 0.023170 0.632463 0.817439
Si Si2 0.881981 0.842228 0.544684
Si Si3 0.012329 0.318529 0.009721
Si Si4 0.024194 0.801063 0.972864
Si Si5 0.056003 0.901565 0.977273
Si Si6 0.098810 0.281152 0.472458
Si Si7 0.831484 0.623058 0.543497
Si Si8 0.334638 0.049020 0.309933
O O1 0.652871 0.754559 0.910069
O O2 0.204958 0.841570 0.541760
O O3 0.000000 0.500000 0.000000
O O4 0.171975 0.465916 0.828624
O O5 0.990812 0.076992 0.255726
O O6 0.003008 0.694467 0.549980
O O7 0.935526 0.860183 0.560311
O O8 0.454725 0.804769 0.836836
O O9 0.155801 0.315024 0.866292
O O10 0.593426 0.403382 0.178719
O O11 0.460369 0.741658 0.768332
O O12 0.901558 0.783389 0.122275
O O13 0.980807 0.048197 0.763181
O O14 0.148604 0.127453 0.698926
O O15 0.738850 0.954572 0.163618
O O16 0.994377 0.428326 0.458038
O O17 0.000000 0.500000 0.500000
#
# Coordination Sequence:
#
# PCOD9056191 Si02
#       8
#     2   2   2   2   2   2   2   2
#     4  11  23  39  55  77 107 148 198 234 260 324
#     4   9  16  31  56  81 111 143 176 226 284 334
#     4   9  16  31  54  77 103 145 187 221 267 326
#     4   7  12  25  48  76 104 140 176 214 271 331
#     4   9  17  30  52  85 115 137 172 228 286 338
#     4   7  12  23  44  77 108 142 180 207 267 344
#     4   9  15  25  48  83 116 142 176 225 274 330
#     4  11  22  35  57  83 108 147 186 230 281 324
#
# _framework density 27.291568000000002
#
# number of rings (size 3 to 8) (size 9 to 14) (size 15 to 20)
#    0.000    3.000    1.250    4.125    0.000    0.000 
#    0.000    0.625    0.000   15.750    9.750    0.000 
#    0.000    0.000    0.000    0.000    0.000    0.000 
#
# Total GULP energy -89250.584599 kJ/mol
# GULP energy per Si atom -5578.161537 kJ/mol
# Density = 2.722945 g / cm^3
# Si number density = 27.291568 Si / 1000 Ang^3
#
#
#
# Elastic Constant Matrix: (Units=GPa)
#
#
# Indices 1 2 3 4 5 6 
#
# 1 144.8900 50.7368 42.3899 -30.7175 -1.4749 54.3109
# 2 50.7368 86.9539 27.5233 -7.3243 1.2249 39.8710
# 3 42.3899 27.5233 71.3383 -29.7067 -10.1318 6.5812
# 4 -30.7175 -7.3243 -29.7067 35.4370 7.1026 -3.5030
# 5 -1.4749 1.2249 -10.1318 7.1026 44.1519 -17.3876
# 6 54.3109 39.8710 6.5812 -3.5030 -17.3876 58.7352
#
#
#
# Elastic Compliance Matrix: (Units=1/GPa)
#
#
# Indices 1 2 3 4 5 6 
#
# 1 0.017189 0.001377 -0.006227 0.010102 -0.009773 -0.018421
# 2 0.001377 0.022167 -0.010141 -0.002591 -0.009644 -0.018194
# 3 -0.006227 -0.010141 0.028234 0.015627 0.009212 0.013137
# 4 0.010102 -0.002591 0.015627 0.050188 -0.007442 -0.008543
# 5 -0.009773 -0.009644 0.009212 -0.007442 0.035608 0.024648
# 6 -0.018421 -0.018194 0.013137 -0.008543 0.024648 0.051725
#
#
# Mechanical properties :
#
#
# Convention : Reuss Voigt Hill
#
# Bulk Modulus (GPa) = 26.58991 60.49801 43.54396
# Shear Modulus (GPa) = 20.19157 39.83362 30.01260
#
# Velocity S-wave (km/s) = 2.72296 3.82456 3.31977
# Velocity P-wave (km/s) = 4.43284 6.45898 5.53934
#
# Compressibility (1/GPa) = 0.03760826
#
# Stress axis : x y z
#
# Youngs Moduli (GPa) = 58.17765 45.11241 35.41818
#
# Poissons Ratio (x) = -0.06211 0.22054
# Poissons Ratio (y) = -0.08010 0.35917
# Poissons Ratio (z) = 0.36226 0.45748
#
# Static dielectric constant tensor:
#      x y z
#    x 2.331700 -0.099370 -0.069090 
#    y -0.099370 2.351370 -0.009540 
#    z -0.069090 -0.009540 2.085750 
# 
# From -- ./inp_files/612236.got.cif
#   From: 2010.05.17/outbox.cif.g08.bks.cpg/sg2_307_cif.got.tgz:612236.got - 2010.06.03 11:33:40.
