data_PCOD9056851
_publ_section_title
;
Structure prediction by ZEFSAII (Michael W. Deem and Ramdas Pophale) SiO2 
 PCOD9056851
Probable space group: P -1
;
_chemical_formula_sum "Si O2"
_cell_formula_units_Z 14
_cell_length_a 12.545604
_cell_length_b 9.460812
_cell_length_c 8.696454
_cell_angle_alpha 114.076801
_cell_angle_beta 107.625601
_cell_angle_gamma 119.467804
_cell_volume 634.903015
_symmetry_space_group_name_H-M "P -1"
_symmetry_group_IT_number 2
_symmetry_cell_setting 'triclinic'
loop_
_space_group_symop_operation_xyz
x,y,z
-x,-y,-z
loop_
_atom_site_type_symbol
_atom_site_label
_atom_site_fract_x
_atom_site_fract_y
_atom_site_fract_z
Si Si1 0.512891 0.341589 0.871383
Si Si2 0.146376 0.042107 0.025374
Si Si3 0.179603 0.898284 0.652682
Si Si4 0.582190 0.449191 0.612251
Si Si5 0.158741 0.451029 0.752549
Si Si6 0.781621 0.427542 0.507716
Si Si7 0.932924 0.330356 0.038880
O O1 0.497555 0.316313 0.670766
O O2 0.356179 0.110083 0.769358
O O3 0.500000 0.500000 0.000000
O O4 0.690978 0.464351 0.050530
O O5 0.143429 0.945564 0.819904
O O6 0.171156 0.930350 0.117675
O O7 0.268668 0.300428 0.161792
O O8 0.000000 0.000000 0.000000
O O9 0.191191 0.724129 0.591029
O O10 0.027104 0.784929 0.424031
O O11 0.500000 0.500000 0.500000
O O12 0.625534 0.342821 0.480940
O O13 0.197212 0.464374 0.595689
O O14 0.152799 0.624914 0.875688
O O15 0.913335 0.579488 0.763086
O O16 0.000000 0.500000 0.000000
#
# Coordination Sequence:
#
# PCOD9056851 Si02
#       7
#     2   2   2   2   2   2   2
#     4  12  27  45  70 108 146 187 247 302 358 432
#     4  12  23  45  74 103 142 192 237 294 373 423
#     4  11  24  46  74 103 141 191 242 291 368 431
#     4  12  27  46  67 103 151 185 238 306 363 427
#     4  11  23  44  74 101 142 190 240 304 355 431
#     4  11  22  45  71 102 143 193 239 299 363 430
#     4  11  22  40  72 110 142 185 247 297 354 438
#
# _framework density 22.050611
#
# number of rings (size 3 to 8) (size 9 to 14) (size 15 to 20)
#    0.000    0.571    5.714    2.571    0.000    5.143 
#    0.000    0.000    0.000    0.000    0.000    0.000 
#    0.000    0.000    0.000    0.000    0.000    0.000 
#
# Total GULP energy -77940.946043 kJ/mol
# GULP energy per Si atom -5567.210432 kJ/mol
# Density = 2.200042 g / cm^3
# Si number density = 22.050611 Si / 1000 Ang^3
#
#
#
# Elastic Constant Matrix: (Units=GPa)
#
#
# Indices 1 2 3 4 5 6 
#
# 1 160.8316 19.2541 39.9836 -16.0537 -7.5100 -5.3564
# 2 19.2541 88.1408 24.8112 -12.1544 -2.2168 10.9613
# 3 39.9836 24.8112 70.8846 -10.3997 9.9914 0.4994
# 4 -16.0537 -12.1544 -10.3997 41.0472 -3.6492 -7.2418
# 5 -7.5100 -2.2168 9.9914 -3.6492 44.1128 -4.1204
# 6 -5.3564 10.9613 0.4994 -7.2418 -4.1204 34.1099
#
#
#
# Elastic Compliance Matrix: (Units=1/GPa)
#
#
# Indices 1 2 3 4 5 6 
#
# 1 0.007776 -0.000361 -0.004291 0.002484 0.002694 0.002253
# 2 -0.000361 0.013449 -0.004356 0.002218 0.001442 -0.003670
# 3 -0.004291 -0.004356 0.018980 0.001408 -0.005120 0.000129
# 4 0.002484 0.002218 0.001408 0.027660 0.003054 0.005898
# 5 0.002694 0.001442 -0.005120 0.003054 0.024958 0.003698
# 6 0.002253 -0.003670 0.000129 0.005898 0.003698 0.032547
#
#
# Mechanical properties :
#
#
# Convention : Reuss Voigt Hill
#
# Bulk Modulus (GPa) = 45.06575 54.21720 49.64147
# Shear Modulus (GPa) = 33.16041 39.57452 36.36746
#
# Velocity S-wave (km/s) = 3.88213 4.24100 4.06553
# Velocity P-wave (km/s) = 6.36996 6.97298 6.67828
#
# Compressibility (1/GPa) = 0.02218980
#
# Stress axis : x y z
#
# Youngs Moduli (GPa) = 128.59306 74.35514 52.68696
#
# Poissons Ratio (x) = 0.02681 0.22610
# Poissons Ratio (y) = 0.04637 0.22950
# Poissons Ratio (z) = 0.55183 0.32389
#
# Static dielectric constant tensor:
#      x y z
#    x 1.794090 -0.003800 -0.069320 
#    y -0.003800 2.358060 0.945630 
#    z -0.069320 0.945630 3.545290 
# 
# From -- ./inp_files/189111.got.cif
#   From: 2010.05.17/outbox.cif.g08.bks.cpg/sg2_95_cif.got.tgz:189111.got - 2010.06.03 11:33:40.
