data_PCOD9056239
_publ_section_title
;
Structure prediction by ZEFSAII (Michael W. Deem and Ramdas Pophale) SiO2 
 PCOD9056239
Probable space group: P -1
;
_chemical_formula_sum "Si O2"
_cell_formula_units_Z 16
_cell_length_a 24.441755
_cell_length_b 12.509186
_cell_length_c 8.710815
_cell_angle_alpha 126.252971
_cell_angle_beta 125.920338
_cell_angle_gamma 25.081758
_cell_volume 900.226098
_symmetry_space_group_name_H-M "P -1"
_symmetry_group_IT_number 2
_symmetry_cell_setting 'triclinic'
loop_
_space_group_symop_operation_xyz
x,y,z
-x,-y,-z
loop_
_atom_site_type_symbol
_atom_site_label
_atom_site_fract_x
_atom_site_fract_y
_atom_site_fract_z
Si Si1 0.825902 0.576570 0.901386
Si Si2 0.562627 0.264317 0.971209
Si Si3 0.297166 0.016142 0.733802
Si Si4 0.800744 0.762818 0.730526
Si Si5 0.685050 0.778357 0.278208
Si Si6 0.939270 0.243268 0.070593
Si Si7 0.520339 0.042595 0.728918
Si Si8 0.896425 0.775239 0.634709
O O1 0.877829 0.546427 0.800213
O O2 0.675067 0.784222 0.803261
O O3 0.812221 0.722056 0.122514
O O4 0.904481 0.331086 0.909562
O O5 0.481771 0.262353 0.835846
O O6 0.685787 0.021109 0.860286
O O7 0.500000 0.500000 0.000000
O O8 0.609514 0.203845 0.172719
O O9 0.359478 0.031360 0.750890
O O10 0.231109 0.028433 0.515083
O O11 0.742664 0.759839 0.505170
O O12 0.869303 0.764013 0.750012
O O13 0.804925 0.498731 0.158930
O O14 0.568041 0.881509 0.226404
O O15 0.043666 0.180680 0.233351
O O16 0.000000 0.000000 0.000000
O O17 0.500000 0.000000 0.500000
O O18 0.000000 0.500000 0.500000
#
# Coordination Sequence:
#
# PCOD9056239 Si02
#       8
#     2   2   2   2   2   2   2   2
#     4   9  18  35  56  86 110 136 194 225 268 328
#     4  10  21  37  54  86 122 134 175 236 277 319
#     4   8  18  34  56  83 104 143 188 218 261 333
#     4   9  18  34  61  83 101 145 192 222 256 336
#     4  10  17  36  61  82 106 146 195 220 267 336
#     4  11  24  38  52  84 119 141 179 241 276 318
#     4  10  18  34  63  81 105 149 184 225 272 326
#     4  11  18  37  61  76 104 148 188 223 267 321
#
# _framework density 17.773313999999999
#
# number of rings (size 3 to 8) (size 9 to 14) (size 15 to 20)
#    0.000    2.500    6.250    0.000    0.000    6.000 
#    2.250    3.125    0.000    0.000    0.000    0.000 
#    0.000    0.000    0.000    0.000    0.000    0.000 
#
# Total GULP energy -89125.645360 kJ/mol
# GULP energy per Si atom -5570.352835 kJ/mol
# Density = 1.773286 g / cm^3
# Si number density = 17.773314 Si / 1000 Ang^3
#
#
#
# Elastic Constant Matrix: (Units=GPa)
#
#
# Indices 1 2 3 4 5 6 
#
# 1 150.3601 55.7226 53.2157 -3.7778 2.5178 20.3891
# 2 55.7226 88.2319 38.2730 -5.3810 6.3766 39.2944
# 3 53.2157 38.2730 77.9801 -15.4917 4.9699 18.2046
# 4 -3.7778 -5.3810 -15.4917 19.2494 3.9826 -2.3502
# 5 2.5178 6.3766 4.9699 3.9826 39.9620 -2.1815
# 6 20.3891 39.2944 18.2046 -2.3502 -2.1815 42.0227
#
#
#
# Elastic Compliance Matrix: (Units=1/GPa)
#
#
# Indices 1 2 3 4 5 6 
#
# 1 0.010260 -0.005392 -0.005860 -0.004221 0.001497 0.002444
# 2 -0.005392 0.025600 -0.003611 0.001704 -0.004552 -0.019899
# 3 -0.005860 -0.003611 0.022815 0.016611 -0.003707 -0.002927
# 4 -0.004221 0.001704 0.016611 0.066377 -0.008878 -0.003491
# 5 0.001497 -0.004552 -0.003707 -0.008878 0.027332 0.006059
# 6 0.002444 -0.019899 -0.002927 -0.003491 0.006059 0.042605
#
#
# Mechanical properties :
#
#
# Convention : Reuss Voigt Hill
#
# Bulk Modulus (GPa) = 34.54284 67.88832 51.21558
# Shear Modulus (GPa) = 21.33416 31.53755 26.43586
#
# Velocity S-wave (km/s) = 3.46836 4.21697 3.86085
# Velocity P-wave (km/s) = 5.95960 7.87338 6.98237
#
# Compressibility (1/GPa) = 0.02894956
#
# Stress axis : x y z
#
# Youngs Moduli (GPa) = 97.46189 39.06182 43.83126
#
# Poissons Ratio (x) = 0.21062 0.25685
# Poissons Ratio (y) = 0.52551 0.15827
# Poissons Ratio (z) = 0.57113 0.14105
#
# Static dielectric constant tensor:
#      x y z
#    x 1.647910 -0.003490 -0.010770 
#    y -0.003490 1.619300 -0.040380 
#    z -0.010770 -0.040380 1.628510 
# 
# From -- ./inp_files/269927.got.cif
#   From: 2010.05.17/outbox.cif.g08.bks.cpg/sg2_135_cif.got.tgz:269927.got - 2010.06.03 11:33:40.
