data_PCOD9056429
_publ_section_title
;
Structure prediction by ZEFSAII (Michael W. Deem and Ramdas Pophale) SiO2 
 PCOD9056429
Probable space group: P -1
;
_chemical_formula_sum "Si O2"
_cell_formula_units_Z 14
_cell_length_a 10.434826
_cell_length_b 10.454464
_cell_length_c 7.840489
_cell_angle_alpha 136.915121
_cell_angle_beta 84.352252
_cell_angle_gamma 80.430649
_cell_volume 544.580523
_symmetry_space_group_name_H-M "P -1"
_symmetry_group_IT_number 2
_symmetry_cell_setting 'triclinic'
loop_
_space_group_symop_operation_xyz
x,y,z
-x,-y,-z
loop_
_atom_site_type_symbol
_atom_site_label
_atom_site_fract_x
_atom_site_fract_y
_atom_site_fract_z
Si Si1 0.387894 0.198764 0.480365
Si Si2 0.520586 0.781316 0.134771
Si Si3 0.839620 0.422286 0.263877
Si Si4 0.662595 0.028323 0.167192
Si Si5 0.960016 0.427271 0.756784
Si Si6 0.297866 0.591274 0.366870
Si Si7 0.896612 0.987316 0.846900
O O1 0.455832 0.235407 0.683623
O O2 0.255950 0.384672 0.637164
O O3 0.502919 0.164400 0.282419
O O4 0.386566 0.974295 0.297284
O O5 0.639973 0.854200 0.108858
O O6 0.549635 0.568221 0.837065
O O7 0.989435 0.442007 0.258889
O O8 0.767825 0.431627 0.465288
O O9 0.853095 0.205416 0.979662
O O10 0.713709 0.180202 0.415496
O O11 0.766740 0.958712 0.931325
O O12 0.800943 0.454623 0.801391
O O13 0.034253 0.197127 0.465955
O O14 0.000000 0.500000 0.000000
O O15 0.000000 0.000000 0.000000
#
# Coordination Sequence:
#
# PCOD9056429 Si02
#       7
#     2   2   2   2   2   2   2
#     4   9  21  43  62 101 136 178 216 282 337 399
#     4   9  20  41  64  94 138 174 219 273 349 390
#     4  11  24  42  67 101 138 171 238 273 333 411
#     4   9  20  40  69  96 131 177 230 271 331 408
#     4  12  26  44  66 101 139 177 228 285 342 398
#     4  11  22  38  70  96 124 189 221 280 337 395
#     4  11  23  44  70 103 129 186 228 275 345 398
#
# _framework density 25.707858999999999
#
# number of rings (size 3 to 8) (size 9 to 14) (size 15 to 20)
#    0.857    0.857    2.857    2.143    2.000    4.000 
#    2.571    2.857    0.000    0.000    0.000    0.000 
#    0.000    0.000    0.000    0.000    0.000    0.000 
#
# Total GULP energy -78257.132343 kJ/mol
# GULP energy per Si atom -5589.795167 kJ/mol
# Density = 2.564935 g / cm^3
# Si number density = 25.707859 Si / 1000 Ang^3
#
#
#
# Elastic Constant Matrix: (Units=GPa)
#
#
# Indices 1 2 3 4 5 6 
#
# 1 67.1500 31.2024 16.4920 4.3714 -6.3522 4.4629
# 2 31.2024 91.9251 50.8818 18.2523 8.9725 -2.3808
# 3 16.4920 50.8818 184.3802 19.4258 -3.5666 -5.5140
# 4 4.3714 18.2523 19.4258 48.9037 -3.8727 -1.6050
# 5 -6.3522 8.9725 -3.5666 -3.8727 44.5516 0.0001
# 6 4.4629 -2.3808 -5.5140 -1.6050 0.0001 30.5652
#
#
#
# Elastic Compliance Matrix: (Units=1/GPa)
#
#
# Indices 1 2 3 4 5 6 
#
# 1 0.018722 -0.007176 0.000169 0.001168 0.004230 -0.003201
# 2 -0.007176 0.016711 -0.003545 -0.004540 -0.005067 0.001471
# 3 0.000169 -0.003545 0.006558 -0.001178 0.001161 0.000820
# 4 0.001168 -0.004540 -0.001178 0.022756 0.002965 0.000458
# 5 0.004230 -0.005067 0.001161 0.002965 0.024420 -0.000647
# 6 -0.003201 0.001471 0.000820 0.000458 -0.000647 0.033471
#
#
# Mechanical properties :
#
#
# Convention : Reuss Voigt Hill
#
# Bulk Modulus (GPa) = 47.87966 60.06752 53.97359
# Shear Modulus (GPa) = 33.17760 41.12940 37.15350
#
# Velocity S-wave (km/s) = 3.59634 4.00418 3.80573
# Velocity P-wave (km/s) = 5.99248 6.69284 6.35232
#
# Compressibility (1/GPa) = 0.02088569
#
# Stress axis : x y z
#
# Youngs Moduli (GPa) = 53.41386 59.84214 152.48665
#
# Poissons Ratio (x) = 0.42941 -0.02573
# Poissons Ratio (y) = 0.38328 0.54061
# Poissons Ratio (z) = -0.00901 0.21216
#
# Static dielectric constant tensor:
#      x y z
#    x 2.116360 -0.028930 0.008510 
#    y -0.028930 2.010700 -0.006300 
#    z 0.008510 -0.006300 2.050890 
# 
# From -- ./inp_files/251014.got.cif
#   From: 2010.05.17/outbox.cif.g08.bks.cpg/sg2_126_cif.got.tgz:251014.got - 2010.06.03 11:33:40.
