data_PCOD9056109
_publ_section_title
;
Structure prediction by ZEFSAII (Michael W. Deem and Ramdas Pophale) SiO2 
 PCOD9056109
Probable space group: P -1
;
_chemical_formula_sum "Si O2"
_cell_formula_units_Z 16
_cell_length_a 15.916292
_cell_length_b 9.274010
_cell_length_c 11.728697
_cell_angle_alpha 98.317879
_cell_angle_beta 25.478046
_cell_angle_gamma 89.232783
_cell_volume 693.445200
_symmetry_space_group_name_H-M "P -1"
_symmetry_group_IT_number 2
_symmetry_cell_setting 'triclinic'
loop_
_space_group_symop_operation_xyz
x,y,z
-x,-y,-z
loop_
_atom_site_type_symbol
_atom_site_label
_atom_site_fract_x
_atom_site_fract_y
_atom_site_fract_z
Si Si1 0.281977 0.804225 0.592963
Si Si2 0.940712 0.713822 0.730484
Si Si3 0.173094 0.036217 0.938660
Si Si4 0.019215 0.447697 0.777915
Si Si5 0.672505 0.291989 0.864179
Si Si6 0.768748 0.240813 0.993839
Si Si7 0.313642 0.469773 0.610661
Si Si8 0.385085 0.344044 0.024949
O O1 0.288797 0.648000 0.633833
O O2 0.445771 0.749575 0.285364
O O3 0.052314 0.876557 0.829822
O O4 0.308813 0.936487 0.658211
O O5 0.785626 0.831808 0.021730
O O6 0.038040 0.558681 0.666779
O O7 0.124628 0.771435 0.470827
O O8 0.823934 0.681571 0.760182
O O9 0.173582 0.907636 0.015236
O O10 0.217025 0.408081 0.613416
O O11 0.951336 0.312624 0.791585
O O12 0.827585 0.535021 0.108462
O O13 0.475464 0.288858 0.032783
O O14 0.721719 0.213839 0.917400
O O15 0.640222 0.475258 0.939595
O O16 0.552831 0.367420 0.316150
#
# Coordination Sequence:
#
# PCOD9056109 Si02
#       8
#     2   2   2   2   2   2   2   2
#     4  11  21  46  69  96 143 175 218 274 343 399
#     4  12  24  44  66 105 131 178 225 272 337 402
#     4  11  26  42  68 100 143 174 212 280 347 398
#     4  11  23  39  69  98 133 173 227 284 321 387
#     4  11  24  42  71  96 134 175 232 278 317 389
#     4  12  25  43  68 100 132 182 220 276 331 395
#     4  11  22  41  68 100 134 170 233 276 323 397
#     4  11  23  41  71  98 124 184 227 279 318 392
#
# _framework density 23.073201000000001
#
# number of rings (size 3 to 8) (size 9 to 14) (size 15 to 20)
#    0.000    0.750    6.250    0.750    3.500    1.000 
#    2.250    0.625    0.000    0.000    0.000    0.000 
#    0.000    0.000    0.000    0.000    0.000    0.000 
#
# Total GULP energy -89548.826306 kJ/mol
# GULP energy per Si atom -5596.801644 kJ/mol
# Density = 2.302069 g / cm^3
# Si number density = 23.073201 Si / 1000 Ang^3
#
#
#
# Elastic Constant Matrix: (Units=GPa)
#
#
# Indices 1 2 3 4 5 6 
#
# 1 145.4179 27.7678 24.2824 -3.3265 -1.5240 9.4377
# 2 27.7678 36.6721 5.1950 23.9169 -14.0020 -13.7908
# 3 24.2824 5.1950 71.7291 20.7416 -7.7574 -3.8027
# 4 -3.3265 23.9169 20.7416 22.9081 8.6672 6.0597
# 5 -1.5240 -14.0020 -7.7574 8.6672 38.0818 -2.1694
# 6 9.4377 -13.7908 -3.8027 6.0597 -2.1694 44.9142
#
#
#
# Elastic Compliance Matrix: (Units=1/GPa)
#
#
# Indices 1 2 3 4 5 6 
#
# 1 0.004817 0.006957 0.001974 -0.011419 0.005930 0.003118
# 2 0.006957 -0.014226 -0.015729 0.040546 -0.018154 -0.013509
# 3 0.001974 -0.015729 0.009859 0.012036 -0.006798 -0.006362
# 4 -0.011419 0.040546 0.012036 -0.025706 0.023921 0.020492
# 5 0.005930 -0.018154 -0.006798 0.023921 0.012422 -0.010023
# 6 0.003118 -0.013509 -0.006362 0.020492 -0.010023 0.013674
#
#
# Mechanical properties :
#
#
# Convention : Reuss Voigt Hill
#
# Bulk Modulus (GPa) = -76.07261 40.92331 -17.57465
# Shear Modulus (GPa) = 497.30803 34.28573 265.79688
#
# Velocity S-wave (km/s) = 14.69703 3.85899 10.74464
# Velocity P-wave (km/s) = 15.96753 6.13437 12.09530
#
# Compressibility (1/GPa) = -0.01314534
#
# Stress axis : x y z
#
# Youngs Moduli (GPa) = 207.58991 -70.29291 101.42601
#
# Poissons Ratio (x) = 0.48903 -0.20022
# Poissons Ratio (y) = -1.44420 1.59532
# Poissons Ratio (z) = -0.40980 -1.10563
#
# Static dielectric constant tensor:
#      x y z
#    x 1.891600 0.054690 0.025500 
#    y 0.054690 1.820680 0.024730 
#    z 0.025500 0.024730 1.869570 
# 
# From -- ./inp_files/382379.got.cif
#   From: 2010.05.17/outbox.cif.g08.bks.cpg/sg2_192_cif.got.tgz:382379.got - 2010.06.03 11:33:40.
