data_PCOD9056322
_publ_section_title
;
Structure prediction by ZEFSAII (Michael W. Deem and Ramdas Pophale) SiO2 
 PCOD9056322
Probable space group: P -1
;
_chemical_formula_sum "Si O2"
_cell_formula_units_Z 14
_cell_length_a 11.412140
_cell_length_b 25.151862
_cell_length_c 10.610710
_cell_angle_alpha 33.157497
_cell_angle_beta 141.807487
_cell_angle_gamma 156.347541
_cell_volume 665.764507
_symmetry_space_group_name_H-M "P -1"
_symmetry_group_IT_number 2
_symmetry_cell_setting 'triclinic'
loop_
_space_group_symop_operation_xyz
x,y,z
-x,-y,-z
loop_
_atom_site_type_symbol
_atom_site_label
_atom_site_fract_x
_atom_site_fract_y
_atom_site_fract_z
Si Si1 0.731138 0.105181 0.308645
Si Si2 0.269592 0.034767 0.638693
Si Si3 0.876562 0.294900 0.513157
Si Si4 0.830221 0.063832 0.979263
Si Si5 0.238300 0.082071 0.147384
Si Si6 0.892395 0.652759 0.656770
Si Si7 0.605884 0.395021 0.761841
O O1 0.959118 0.268129 0.242027
O O2 0.822553 0.088230 0.289298
O O3 0.418416 0.029007 0.156432
O O4 0.722424 0.012082 0.585596
O O5 0.561389 0.194015 0.505040
O O6 0.000000 0.000000 0.500000
O O7 0.333073 0.025046 0.853214
O O8 0.960931 0.223839 0.785765
O O9 0.873072 0.264386 0.422854
O O10 0.126179 0.474796 0.364426
O O11 0.517637 0.251075 0.998061
O O12 0.084355 0.086983 0.116860
O O13 0.000000 0.000000 0.000000
O O14 0.702833 0.481938 0.804807
O O15 0.673712 0.655229 0.427837
#
# Coordination Sequence:
#
# PCOD9056322 Si02
#       7
#     2   2   2   2   2   2   2
#     4  11  22  37  66  96 127 160 220 258 311 373
#     4  11  23  40  62  93 124 173 217 259 309 374
#     4   9  18  36  65  87 125 172 198 256 317 381
#     4  11  22  40  60  91 129 164 214 261 311 373
#     4  12  21  37  67  99 124 166 209 268 311 379
#     4   9  17  35  63  95 128 165 199 262 324 368
#     4   9  18  37  60  96 134 161 201 259 330 374
#
# _framework density 21.028457
#
# number of rings (size 3 to 8) (size 9 to 14) (size 15 to 20)
#    0.857    0.857    4.286    1.714    0.000    5.143 
#    0.000    2.857    3.143   11.143    0.000    1.000 
#    0.000    0.000    0.000    0.000    0.000    0.000 
#
# Total GULP energy -78033.311817 kJ/mol
# GULP energy per Si atom -5573.807987 kJ/mol
# Density = 2.098059 g / cm^3
# Si number density = 21.028457 Si / 1000 Ang^3
#
#
#
# Elastic Constant Matrix: (Units=GPa)
#
#
# Indices 1 2 3 4 5 6 
#
# 1 113.0252 32.4374 31.3729 -7.8018 -5.2696 25.9177
# 2 32.4374 121.2676 45.8701 -0.3972 -14.1141 2.3539
# 3 31.3729 45.8701 97.0281 16.4310 -3.8619 6.0157
# 4 -7.8018 -0.3972 16.4310 17.5193 -4.5147 -3.7428
# 5 -5.2696 -14.1141 -3.8619 -4.5147 34.5846 1.6217
# 6 25.9177 2.3539 6.0157 -3.7428 1.6217 32.7806
#
#
#
# Elastic Compliance Matrix: (Units=1/GPa)
#
#
# Indices 1 2 3 4 5 6 
#
# 1 0.013185 -0.001335 -0.004500 0.008872 0.002524 -0.008615
# 2 -0.001335 0.011426 -0.006086 0.006968 0.004600 0.001920
# 3 -0.004500 -0.006086 0.018020 -0.020316 -0.003742 -0.001446
# 4 0.008872 0.006968 -0.020316 0.084644 0.012730 0.005248
# 5 0.002524 0.004600 -0.003742 0.012730 0.032504 -0.001794
# 6 -0.008615 0.001920 -0.001446 0.005248 -0.001794 0.038133
#
#
# Mechanical properties :
#
#
# Convention : Reuss Voigt Hill
#
# Bulk Modulus (GPa) = 53.22214 61.18687 57.20450
# Shear Modulus (GPa) = 21.92809 31.75293 26.84051
#
# Velocity S-wave (km/s) = 3.23272 3.89009 3.57654
# Velocity P-wave (km/s) = 6.26885 7.02406 6.65717
#
# Compressibility (1/GPa) = 0.01878917
#
# Stress axis : x y z
#
# Youngs Moduli (GPa) = 75.84155 87.51747 55.49486
#
# Poissons Ratio (x) = 0.11680 0.24974
# Poissons Ratio (y) = 0.10122 0.33775
# Poissons Ratio (z) = 0.34131 0.53265
#
# Static dielectric constant tensor:
#      x y z
#    x 1.782740 0.009260 0.025260 
#    y 0.009260 1.795370 0.019870 
#    z 0.025260 0.019870 1.820690 
# 
# From -- ./inp_files/283592.got.cif
#   From: 2010.05.17/outbox.cif.g08.bks.cpg/sg2_142_cif.got.tgz:283592.got - 2010.06.03 11:33:40.
