data_PCOD9056297
_publ_section_title
;
Structure prediction by ZEFSAII (Michael W. Deem and Ramdas Pophale) SiO2 
 PCOD9056297
Probable space group: P -1
;
_chemical_formula_sum "Si O2"
_cell_formula_units_Z 14
_cell_length_a 7.247921
_cell_length_b 13.408528
_cell_length_c 9.870756
_cell_angle_alpha 115.584198
_cell_angle_beta 74.203109
_cell_angle_gamma 141.767432
_cell_volume 531.578479
_symmetry_space_group_name_H-M "P -1"
_symmetry_group_IT_number 2
_symmetry_cell_setting 'triclinic'
loop_
_space_group_symop_operation_xyz
x,y,z
-x,-y,-z
loop_
_atom_site_type_symbol
_atom_site_label
_atom_site_fract_x
_atom_site_fract_y
_atom_site_fract_z
Si Si1 0.171343 0.794269 0.154371
Si Si2 0.430811 0.126888 0.436359
Si Si3 0.606610 0.773662 0.062484
Si Si4 0.028853 0.932721 0.657169
Si Si5 0.163915 0.450758 0.153496
Si Si6 0.725703 0.468484 0.243206
Si Si7 0.107269 0.376513 0.422939
O O1 0.409124 0.799053 0.108750
O O2 0.914778 0.642356 0.222430
O O3 0.325075 0.973312 0.280868
O O4 0.010462 0.721733 0.997118
O O5 0.320100 0.062497 0.575057
O O6 0.785946 0.297036 0.453137
O O7 0.244245 0.145884 0.425475
O O8 0.913411 0.952449 0.168898
O O9 0.445596 0.619612 0.110779
O O10 0.562600 0.695629 0.881635
O O11 0.985222 0.791166 0.635410
O O12 0.934414 0.452252 0.198741
O O13 0.236507 0.453147 0.293503
O O14 0.693451 0.496986 0.416902
#
# Coordination Sequence:
#
# PCOD9056297 Si02
#       7
#     2   2   2   2   2   2   2
#     4   9  16  36  60  87 118 158 205 245 291 368
#     4  11  22  37  63  93 122 160 210 246 307 358
#     4   9  18  39  64  90 119 161 209 248 297 371
#     4  11  23  38  65  92 122 157 215 254 288 371
#     4   9  20  33  63  94 121 157 204 247 313 366
#     4   9  18  34  64  89 117 162 208 240 301 368
#     4  12  21  38  68  91 123 161 196 261 311 353
#
# _framework density 26.336658
#
# number of rings (size 3 to 8) (size 9 to 14) (size 15 to 20)
#    0.000    2.000    2.857    4.286    0.000    0.571 
#    0.000    3.571   12.571    3.429    0.000    0.000 
#    0.000    0.000    0.000    0.000    0.000    0.000 
#
# Total GULP energy -78600.892723 kJ/mol
# GULP energy per Si atom -5614.349480 kJ/mol
# Density = 2.627671 g / cm^3
# Si number density = 26.336658 Si / 1000 Ang^3
#
#
#
# Elastic Constant Matrix: (Units=GPa)
#
#
# Indices 1 2 3 4 5 6 
#
# 1 80.0913 10.6575 26.3549 -17.9698 -4.4320 4.4424
# 2 10.6575 96.2011 60.2335 3.9401 10.6851 1.7121
# 3 26.3549 60.2335 219.3487 14.8049 31.2847 -7.4267
# 4 -17.9698 3.9401 14.8049 35.8715 -7.5862 -1.0049
# 5 -4.4320 10.6851 31.2847 -7.5862 42.6861 -6.2205
# 6 4.4424 1.7121 -7.4267 -1.0049 -6.2205 33.2325
#
#
#
# Elastic Compliance Matrix: (Units=1/GPa)
#
#
# Indices 1 2 3 4 5 6 
#
# 1 0.016664 -0.000794 -0.003477 0.011150 0.006246 -0.001457
# 2 -0.000794 0.012691 -0.003208 -0.000779 -0.001269 -0.001526
# 3 -0.003477 -0.003208 0.007050 -0.005444 -0.005546 0.001003
# 4 0.011150 -0.000779 -0.005444 0.038416 0.012286 0.000794
# 5 0.006246 -0.001269 -0.005546 0.012286 0.031255 0.004213
# 6 -0.001457 -0.001526 0.001003 0.000794 0.004213 0.031401
#
#
# Mechanical properties :
#
#
# Convention : Reuss Voigt Hill
#
# Bulk Modulus (GPa) = 46.62389 65.57030 56.09709
# Shear Modulus (GPa) = 31.33161 42.25105 36.79133
#
# Velocity S-wave (km/s) = 3.45288 4.00968 3.74165
# Velocity P-wave (km/s) = 5.79983 6.81085 6.32557
#
# Compressibility (1/GPa) = 0.02144823
#
# Stress axis : x y z
#
# Youngs Moduli (GPa) = 60.01078 78.79428 141.84312
#
# Poissons Ratio (x) = 0.06253 0.49319
# Poissons Ratio (y) = 0.04762 0.45501
# Poissons Ratio (z) = 0.20866 0.25276
#
# Static dielectric constant tensor:
#      x y z
#    x 2.069090 0.012770 0.001560 
#    y 0.012770 1.995790 -0.011600 
#    z 0.001560 -0.011600 2.027310 
# 
# From -- ./inp_files/203067.got.cif
#   From: 2010.05.17/outbox.cif.g08.bks.cpg/sg2_102_cif.got.tgz:203067.got - 2010.06.03 11:33:40.
