data_PCOD9056470
_publ_section_title
;
Structure prediction by ZEFSAII (Michael W. Deem and Ramdas Pophale) SiO2 
 PCOD9056470
Probable space group: P -1
;
_chemical_formula_sum "Si O2"
_cell_formula_units_Z 15
_cell_length_a 8.786526
_cell_length_b 15.980267
_cell_length_c 15.780352
_cell_angle_alpha 37.699161
_cell_angle_beta 132.889067
_cell_angle_gamma 103.197204
_cell_volume 716.336927
_symmetry_space_group_name_H-M "P -1"
_symmetry_group_IT_number 2
_symmetry_cell_setting 'triclinic'
loop_
_space_group_symop_operation_xyz
x,y,z
-x,-y,-z
loop_
_atom_site_type_symbol
_atom_site_label
_atom_site_fract_x
_atom_site_fract_y
_atom_site_fract_z
Si Si1 0.913415 0.995797 0.276753
Si Si2 0.981414 0.564563 0.536150
Si Si3 0.159784 0.351067 0.940278
Si Si4 0.592535 0.408410 0.886255
Si Si5 0.500000 0.000000 0.000000
Si Si6 0.632063 0.017001 0.619085
Si Si7 0.199752 0.398332 0.239857
Si Si8 0.299769 0.707474 0.798780
O O1 0.735786 0.971712 0.173297
O O2 0.195050 0.929905 0.390654
O O3 0.032995 0.872052 0.507623
O O4 0.713783 0.219147 0.037980
O O5 0.255926 0.539896 0.671867
O O6 0.000000 0.500000 0.500000
O O7 0.680762 0.776106 0.261233
O O8 0.026483 0.433201 0.731784
O O9 0.487452 0.258756 0.137587
O O10 0.167932 0.189664 0.098761
O O11 0.984156 0.517134 0.811474
O O12 0.637125 0.529559 0.757769
O O13 0.766411 0.321977 0.110151
O O14 0.407825 0.176972 0.474928
O O15 0.500000 0.000000 0.500000
O O16 0.000000 0.500000 0.000000
O O17 0.500000 0.500000 0.000000
#
# Coordination Sequence:
#
# PCOD9056470 Si02
#       8
#     2   2   2   2   1   2   2   2
#     4  12  22  42  68 100 139 184 233 282 348 418
#     4  11  25  49  69  97 135 180 236 290 335 412
#     4  11  24  42  69 104 136 180 226 286 354 407
#     4  11  23  42  69  98 134 179 229 294 350 401
#     4  12  26  44  72  96 136 188 230 282 344 410
#     4  12  22  41  68 103 144 181 226 287 354 415
#     4  12  22  39  66 100 143 177 216 282 354 416
#     4  11  22  39  63 102 139 172 230 293 349 410
#
# _framework density 20.939867
#
# number of rings (size 3 to 8) (size 9 to 14) (size 15 to 20)
#    0.000    0.533    5.333    4.400    0.000    1.067 
#    4.800    2.667    0.000    3.200    0.000    0.000 
#    0.000    0.000    0.000    0.000    0.000    0.000 
#
# Total GULP energy -83596.652525 kJ/mol
# GULP energy per Si atom -5573.110168 kJ/mol
# Density = 2.089221 g / cm^3
# Si number density = 20.939867 Si / 1000 Ang^3
#
#
#
# Elastic Constant Matrix: (Units=GPa)
#
#
# Indices 1 2 3 4 5 6 
#
# 1 65.6071 22.0675 19.0378 13.5955 -12.9409 -9.7659
# 2 22.0675 121.9200 39.9622 2.8597 -13.7896 -8.5446
# 3 19.0378 39.9622 129.7488 9.6382 -13.5665 -7.9264
# 4 13.5955 2.8597 9.6382 47.5608 -4.7332 4.0178
# 5 -12.9409 -13.7896 -13.5665 -4.7332 28.1821 -0.0548
# 6 -9.7659 -8.5446 -7.9264 4.0178 -0.0548 27.2115
#
#
#
# Elastic Compliance Matrix: (Units=1/GPa)
#
#
# Indices 1 2 3 4 5 6 
#
# 1 0.019577 -0.001911 -0.000754 -0.005240 0.006825 0.006994
# 2 -0.001911 0.009746 -0.002369 0.000589 0.002853 0.001603
# 3 -0.000754 -0.002369 0.009034 -0.001366 0.002618 0.001824
# 4 -0.005240 0.000589 -0.001366 0.023346 0.001134 -0.005539
# 5 0.006825 0.002853 0.002618 0.001134 0.041472 0.004024
# 6 0.006994 0.001603 0.001824 -0.005539 0.004024 0.041120
#
#
# Mechanical properties :
#
#
# Convention : Reuss Voigt Hill
#
# Bulk Modulus (GPa) = 35.34931 53.26787 44.30859
# Shear Modulus (GPa) = 30.52661 36.33810 33.43235
#
# Velocity S-wave (km/s) = 3.82229 4.17028 4.00007
# Velocity P-wave (km/s) = 6.03306 6.97725 6.52226
#
# Compressibility (1/GPa) = 0.02828909
#
# Stress axis : x y z
#
# Youngs Moduli (GPa) = 51.08026 102.60992 110.69280
#
# Poissons Ratio (x) = 0.19613 0.08343
# Poissons Ratio (y) = 0.09764 0.26220
# Poissons Ratio (z) = 0.03850 0.24305
#
# Static dielectric constant tensor:
#      x y z
#    x 1.796380 -0.019700 0.032010 
#    y -0.019700 1.797410 -0.016500 
#    z 0.032010 -0.016500 1.752180 
# 
# From -- ./inp_files/259072.got.cif
#   From: 2010.05.17/outbox.cif.g08.bks.cpg/sg2_130_cif.got.tgz:259072.got - 2010.06.03 11:33:40.
