data_PCOD9056176
_publ_section_title
;
Structure prediction by ZEFSAII (Michael W. Deem and Ramdas Pophale) SiO2 
 PCOD9056176
Probable space group: P -1
;
_chemical_formula_sum "Si O2"
_cell_formula_units_Z 16
_cell_length_a 23.549369
_cell_length_b 16.984407
_cell_length_c 8.534706
_cell_angle_alpha 137.766222
_cell_angle_beta 150.186772
_cell_angle_gamma 23.651368
_cell_volume 655.078758
_symmetry_space_group_name_H-M "P -1"
_symmetry_group_IT_number 2
_symmetry_cell_setting 'triclinic'
loop_
_space_group_symop_operation_xyz
x,y,z
-x,-y,-z
loop_
_atom_site_type_symbol
_atom_site_label
_atom_site_fract_x
_atom_site_fract_y
_atom_site_fract_z
Si Si1 0.826782 0.408039 0.251199
Si Si2 0.782431 0.199582 0.858672
Si Si3 0.080763 0.640395 0.245233
Si Si4 0.107784 0.400741 0.448312
Si Si5 0.704541 0.030941 0.292937
Si Si6 0.639311 0.137545 0.944125
Si Si7 0.788851 0.233123 0.296257
Si Si8 0.503344 0.966813 0.649187
O O1 0.822267 0.445226 0.477853
O O2 0.806243 0.544661 0.309827
O O3 0.058820 0.180022 0.452800
O O4 0.711684 0.385774 0.898217
O O5 0.669502 0.170801 0.528083
O O6 0.786983 0.222461 0.088379
O O7 0.000000 0.000000 0.000000
O O8 0.203669 0.637558 0.443256
O O9 0.041215 0.543476 0.943454
O O10 0.859772 0.889220 0.093829
O O11 0.301317 0.158707 0.543746
O O12 0.000000 0.500000 0.500000
O O13 0.610444 0.155004 0.086840
O O14 0.642292 0.947155 0.031900
O O15 0.488781 0.179951 0.552385
O O16 0.639176 0.269974 0.077091
O O17 0.000000 0.000000 0.500000
O O18 0.500000 0.000000 0.500000
#
# Coordination Sequence:
#
# PCOD9056176 Si02
#       8
#     2   2   2   2   2   2   2   2
#     4   9  18  33  52  74 103 142 178 211 260 323
#     4   9  17  28  47  76 104 134 174 217 259 309
#     4   8  16  29  47  69  98 134 170 205 256 314
#     4  11  22  34  52  81 108 133 174 226 265 302
#     4   9  17  32  53  76 101 136 178 217 256 309
#     4   8  15  28  48  72  97 130 172 212 250 300
#     4   9  15  26  45  70  98 129 166 212 256 299
#     4   9  19  36  54  76 107 144 179 210 259 326
#
# _framework density 24.424544999999998
#
# number of rings (size 3 to 8) (size 9 to 14) (size 15 to 20)
#    0.000    3.000    0.000    3.375    0.000    7.000 
#    0.000    3.125    0.000    0.000    0.000    9.625 
#    0.000    0.000    0.000    0.000    0.000    0.000 
#
# Total GULP energy -89132.011527 kJ/mol
# GULP energy per Si atom -5570.750720 kJ/mol
# Density = 2.436895 g / cm^3
# Si number density = 24.424545 Si / 1000 Ang^3
#
#
#
# Elastic Constant Matrix: (Units=GPa)
#
#
# Indices 1 2 3 4 5 6 
#
# 1 55.9255 -0.6035 -1.8906 17.9274 17.1735 -3.5417
# 2 -0.6035 64.6479 8.3468 15.8055 1.0684 -11.5750
# 3 -1.8906 8.3468 137.5733 37.5138 26.3261 -2.8886
# 4 17.9274 15.8055 37.5138 45.6597 7.5146 7.9470
# 5 17.1735 1.0684 26.3261 7.5146 35.5784 11.1123
# 6 -3.5417 -11.5750 -2.8886 7.9470 11.1123 29.0697
#
#
#
# Elastic Compliance Matrix: (Units=1/GPa)
#
#
# Indices 1 2 3 4 5 6 
#
# 1 0.047149 0.015817 0.019589 -0.040312 -0.042045 0.041082
# 2 0.015817 0.025460 0.009443 -0.024381 -0.018601 0.026779
# 3 0.019589 0.009443 0.020219 -0.027662 -0.026989 0.026035
# 4 -0.040312 -0.024381 -0.027662 0.071171 0.042162 -0.052942
# 5 -0.042045 -0.018601 -0.026989 0.042162 0.077648 -0.056419
# 6 0.041082 0.026779 0.026035 -0.052942 -0.056419 0.088695
#
#
# Mechanical properties :
#
#
# Convention : Reuss Voigt Hill
#
# Bulk Modulus (GPa) = 5.47866 29.98355 17.73111
# Shear Modulus (GPa) = 16.58455 38.88117 27.73286
#
# Velocity S-wave (km/s) = 2.60861 3.99418 3.37330
# Velocity P-wave (km/s) = 3.36469 5.79430 4.73788
#
# Compressibility (1/GPa) = 0.18252638
#
# Stress axis : x y z
#
# Youngs Moduli (GPa) = 21.20932 39.27765 49.45759
#
# Poissons Ratio (x) = -0.62126 -0.96883
# Poissons Ratio (y) = -0.33547 -0.46701
# Poissons Ratio (z) = -0.41547 -0.37089
#
# Static dielectric constant tensor:
#      x y z
#    x 1.972700 -0.040170 0.104380 
#    y -0.040170 2.037080 -0.071590 
#    z 0.104380 -0.071590 2.037840 
# 
# From -- ./inp_files/284534.got.cif
#   From: 2010.05.17/outbox.cif.g08.bks.cpg/sg2_143_cif.got.tgz:284534.got - 2010.06.03 11:33:40.
