data_PCOD9056172
_publ_section_title
;
Structure prediction by ZEFSAII (Michael W. Deem and Ramdas Pophale) SiO2 
 PCOD9056172
Probable space group: P -1
;
_chemical_formula_sum "Si O2"
_cell_formula_units_Z 12
_cell_length_a 15.243849
_cell_length_b 8.186600
_cell_length_c 7.952168
_cell_angle_alpha 76.503907
_cell_angle_beta 146.570156
_cell_angle_gamma 120.286287
_cell_volume 433.886643
_symmetry_space_group_name_H-M "P -1"
_symmetry_group_IT_number 2
_symmetry_cell_setting 'triclinic'
loop_
_space_group_symop_operation_xyz
x,y,z
-x,-y,-z
loop_
_atom_site_type_symbol
_atom_site_label
_atom_site_fract_x
_atom_site_fract_y
_atom_site_fract_z
Si Si1 0.814513 0.525786 0.576085
Si Si2 0.230730 0.286519 0.876237
Si Si3 0.474105 0.852125 0.346614
Si Si4 0.934804 0.558523 0.209896
Si Si5 0.332800 0.284081 0.504099
Si Si6 0.614613 0.890417 0.037097
O O1 0.830033 0.653436 0.406034
O O2 0.821042 0.664684 0.706746
O O3 0.597760 0.318186 0.285410
O O4 0.941521 0.441544 0.746188
O O5 0.089712 0.265752 0.803568
O O6 0.451724 0.495420 0.209175
O O7 0.248021 0.104913 0.889212
O O8 0.652470 0.835245 0.599733
O O9 0.500000 0.000000 0.500000
O O10 0.411801 0.927495 0.067549
O O11 0.284028 0.630992 0.135109
O O12 0.000000 0.500000 0.500000
O O13 0.324957 0.150439 0.679932
#
# Coordination Sequence:
#
# PCOD9056172 Si02
#       6
#     2   2   2   2   2   2
#     4   8  14  29  53  74  93 126 172 208 235 286
#     4   7  13  27  50  76  98 124 165 206 242 290
#     4  11  22  34  48  75 108 133 160 206 256 293
#     4   9  17  33  53  74 101 132 163 204 249 294
#     4   8  15  30  51  72  97 132 168 198 240 301
#     4   9  16  31  54  75  95 131 174 204 236 294
#
# _framework density 27.656991999999999
#
# number of rings (size 3 to 8) (size 9 to 14) (size 15 to 20)
#    0.000    3.333    0.000    3.500    0.000    0.000 
#    0.000   18.333    0.000    0.000    0.000    0.000 
#    0.000    0.000    0.000    0.000    0.000    0.000 
#
# Total GULP energy -67072.863767 kJ/mol
# GULP energy per Si atom -5589.405314 kJ/mol
# Density = 2.759404 g / cm^3
# Si number density = 27.656992 Si / 1000 Ang^3
#
#
#
# Elastic Constant Matrix: (Units=GPa)
#
#
# Indices 1 2 3 4 5 6 
#
# 1 249.5290 54.8663 62.9946 -10.1312 14.7113 -76.5424
# 2 54.8663 101.1968 35.0165 -26.6350 14.0969 -24.4070
# 3 62.9946 35.0165 52.5705 -19.8194 9.0716 -19.9134
# 4 -10.1312 -26.6350 -19.8194 50.5808 -12.0828 9.1189
# 5 14.7113 14.0969 9.0716 -12.0828 45.8990 -21.6891
# 6 -76.5424 -24.4070 -19.9134 9.1189 -21.6891 70.7776
#
#
#
# Elastic Compliance Matrix: (Units=1/GPa)
#
#
# Indices 1 2 3 4 5 6 
#
# 1 0.008199 -0.000997 -0.007785 -0.002786 0.001924 0.007281
# 2 -0.000997 0.014059 -0.005849 0.004429 -0.001102 0.001216
# 3 -0.007785 -0.005849 0.035132 0.009215 -0.001225 -0.002115
# 4 -0.002786 0.004429 0.009215 0.026332 0.004167 -0.001009
# 5 0.001924 -0.001102 -0.001225 0.004167 0.027169 0.009145
# 6 0.007281 0.001216 -0.002115 -0.001009 0.009145 0.024760
#
#
# Mechanical properties :
#
#
# Convention : Reuss Voigt Hill
#
# Bulk Modulus (GPa) = 35.55352 78.78346 57.16849
# Shear Modulus (GPa) = 28.68786 50.14607 39.41697
#
# Velocity S-wave (km/s) = 3.22417 4.26272 3.77929
# Velocity P-wave (km/s) = 5.17140 7.26467 6.30551
#
# Compressibility (1/GPa) = 0.02812661
#
# Stress axis : x y z
#
# Youngs Moduli (GPa) = 121.96399 71.13063 28.46425
#
# Poissons Ratio (x) = 0.07089 0.22160
# Poissons Ratio (y) = 0.12156 0.16650
# Poissons Ratio (z) = 0.94953 0.41608
#
# Static dielectric constant tensor:
#      x y z
#    x 2.244110 -0.011360 -0.091520 
#    y -0.011360 2.139750 -0.091910 
#    z -0.091520 -0.091910 2.284980 
# 
# From -- ./inp_files/146251.got.cif
#   From: 2010.05.17/outbox.cif.g08.bks.cpg/sg2_74_cif.got.tgz:146251.got - 2010.06.03 11:33:40.
