data_PCOD9056442
_publ_section_title
;
Structure prediction by ZEFSAII (Michael W. Deem and Ramdas Pophale) SiO2 
 PCOD9056442
Probable space group: P -1
;
_chemical_formula_sum "Si O2"
_cell_formula_units_Z 16
_cell_length_a 9.866608
_cell_length_b 9.422187
_cell_length_c 28.967956
_cell_angle_alpha 48.950627
_cell_angle_beta 142.243296
_cell_angle_gamma 101.436002
_cell_volume 894.116563
_symmetry_space_group_name_H-M "P -1"
_symmetry_group_IT_number 2
_symmetry_cell_setting 'triclinic'
loop_
_space_group_symop_operation_xyz
x,y,z
-x,-y,-z
loop_
_atom_site_type_symbol
_atom_site_label
_atom_site_fract_x
_atom_site_fract_y
_atom_site_fract_z
Si Si1 0.814108 0.243140 0.617599
Si Si2 0.288891 0.976390 0.585065
Si Si3 0.918465 0.657575 0.154041
Si Si4 0.632367 0.942584 0.598609
Si Si5 0.769511 0.889057 0.161665
Si Si6 0.005021 0.494548 0.557162
Si Si7 0.152277 0.630448 0.127641
Si Si8 0.456337 0.837812 0.161735
O O1 0.500000 0.500000 0.500000
O O2 0.054001 0.086866 0.758666
O O3 0.909967 0.348992 0.584561
O O4 0.739594 0.088677 0.607767
O O5 0.385089 0.008192 0.554794
O O6 0.599476 0.680698 0.747826
O O7 0.000000 0.000000 0.500000
O O8 0.193810 0.212201 0.539835
O O9 0.953169 0.722985 0.200571
O O10 0.071936 0.365299 0.254185
O O11 0.089551 0.675594 0.156400
O O12 0.560384 0.850485 0.002436
O O13 0.500000 0.000000 0.500000
O O14 0.684481 0.761142 0.198298
O O15 0.348351 0.317211 0.707249
O O16 0.000000 0.500000 0.500000
O O17 0.297005 0.738404 0.126271
O O18 0.800332 0.846726 0.968017
#
# Coordination Sequence:
#
# PCOD9056442 Si02
#       8
#     2   2   2   2   2   2   2   2
#     4  11  22  39  57  81 117 154 186 241 293 337
#     4  11  22  39  59  87 115 151 192 243 284 342
#     4   9  19  35  57  86 112 148 192 232 280 349
#     4  11  24  37  59  87 114 150 198 240 288 343
#     4   9  19  36  58  82 116 150 187 231 289 344
#     4  11  24  39  58  85 117 156 190 233 296 347
#     4   9  18  34  59  83 112 145 191 237 278 331
#     4   9  18  35  57  83 111 150 187 230 285 334
#
# _framework density 17.894756999999998
#
# number of rings (size 3 to 8) (size 9 to 14) (size 15 to 20)
#    0.000    2.000    2.500    0.750    3.500    1.500 
#    0.000    0.625    0.000    0.000    0.000    0.000 
#    0.000    0.000    0.000    0.000    0.000    0.000 
#
# Total GULP energy -89093.164690 kJ/mol
# GULP energy per Si atom -5568.322793 kJ/mol
# Density = 1.785403 g / cm^3
# Si number density = 17.894757 Si / 1000 Ang^3
#
#
#
# Elastic Constant Matrix: (Units=GPa)
#
#
# Indices 1 2 3 4 5 6 
#
# 1 72.4628 52.4153 32.9262 -0.0644 -4.0222 -13.8357
# 2 52.4153 116.2897 36.3261 -5.3042 -7.1671 -9.8833
# 3 32.9262 36.3261 82.7181 -9.6309 -11.8608 -20.8019
# 4 -0.0644 -5.3042 -9.6309 30.4835 -2.3730 -0.7899
# 5 -4.0222 -7.1671 -11.8608 -2.3730 24.1432 4.9059
# 6 -13.8357 -9.8833 -20.8019 -0.7899 4.9059 31.8789
#
#
#
# Elastic Compliance Matrix: (Units=1/GPa)
#
#
# Indices 1 2 3 4 5 6 
#
# 1 0.023100 -0.008785 -0.004943 -0.003114 -0.002381 0.004366
# 2 -0.008785 0.013334 -0.002245 0.001700 0.001840 -0.001385
# 3 -0.004943 -0.002245 0.018902 0.006313 0.006664 0.008624
# 4 -0.003114 0.001700 0.006313 0.035634 0.005926 0.003266
# 5 -0.002381 0.001840 0.006664 0.005926 0.046046 -0.003054
# 6 0.004366 -0.001385 0.008624 0.003266 -0.003054 0.039012
#
#
# Mechanical properties :
#
#
# Convention : Reuss Voigt Hill
#
# Bulk Modulus (GPa) = 42.75592 57.20066 49.97829
# Shear Modulus (GPa) = 23.17280 27.28798 25.23039
#
# Velocity S-wave (km/s) = 3.60244 3.90925 3.75898
# Velocity P-wave (km/s) = 6.42249 7.23953 6.84321
#
# Compressibility (1/GPa) = 0.02338857
#
# Stress axis : x y z
#
# Youngs Moduli (GPa) = 43.29070 74.99857 52.90462
#
# Poissons Ratio (x) = 0.65890 0.26150
# Poissons Ratio (y) = 0.38033 0.11877
# Poissons Ratio (z) = 0.21398 0.16838
#
# Static dielectric constant tensor:
#      x y z
#    x 1.612210 0.007330 0.013010 
#    y 0.007330 1.633370 0.030930 
#    z 0.013010 0.030930 1.689950 
# 
# From -- ./inp_files/203107.got.cif
#   From: 2010.05.17/outbox.cif.g08.bks.cpg/sg2_102_cif.got.tgz:203107.got - 2010.06.03 11:33:40.
