data_PCOD9056945
_publ_section_title
;
Structure prediction by ZEFSAII (Michael W. Deem and Ramdas Pophale) SiO2 
 PCOD9056945
Probable space group: P -1
;
_chemical_formula_sum "Si O2"
_cell_formula_units_Z 14
_cell_length_a 10.502004
_cell_length_b 8.015417
_cell_length_c 17.315290
_cell_angle_alpha 52.962981
_cell_angle_beta 31.449756
_cell_angle_gamma 44.254070
_cell_volume 530.546782
_symmetry_space_group_name_H-M "P -1"
_symmetry_group_IT_number 2
_symmetry_cell_setting 'triclinic'
loop_
_space_group_symop_operation_xyz
x,y,z
-x,-y,-z
loop_
_atom_site_type_symbol
_atom_site_label
_atom_site_fract_x
_atom_site_fract_y
_atom_site_fract_z
Si Si1 0.064226 0.443743 0.714526
Si Si2 0.636943 0.359381 0.890021
Si Si3 0.111216 0.320313 0.900803
Si Si4 0.676528 0.637672 0.655070
Si Si5 0.260006 0.046190 0.339123
Si Si6 0.568344 0.211904 0.421075
Si Si7 0.897160 0.856762 0.895723
O O1 0.060523 0.348427 0.827746
O O2 0.374199 0.369904 0.546418
O O3 0.955792 0.302276 0.754967
O O4 0.862563 0.722583 0.719429
O O5 0.565185 0.514300 0.807841
O O6 0.630225 0.115152 0.953028
O O7 0.500000 0.500000 0.000000
O O8 0.926094 0.599003 0.941624
O O9 0.452188 0.185208 0.771551
O O10 0.038129 0.157912 0.040613
O O11 0.656581 0.863772 0.650028
O O12 0.521583 0.656101 0.650930
O O13 0.000000 0.500000 0.500000
O O14 0.000000 0.000000 0.500000
O O15 0.888312 0.142659 0.279445
O O16 0.500000 0.000000 0.500000
#
# Coordination Sequence:
#
# PCOD9056945 Si02
#       7
#     2   2   2   2   2   2   2
#     4  11  24  45  68 103 136 177 235 280 344 407
#     4  11  24  43  68  99 133 176 228 284 342 407
#     4  11  27  47  67 102 142 184 228 283 348 417
#     4  11  22  41  66 102 134 170 234 285 334 401
#     4  11  24  44  68 102 143 181 231 281 345 413
#     4  12  22  41  69 104 133 176 232 285 342 404
#     4  11  25  47  68  98 140 179 229 284 347 413
#
# _framework density 26.387869999999999
#
# number of rings (size 3 to 8) (size 9 to 14) (size 15 to 20)
#    0.000    0.857    4.286    3.429    2.000    5.143 
#    0.000    2.143    0.000    0.000    0.000    0.000 
#    0.000    0.000    0.000    0.000    0.000    0.000 
#
# Total GULP energy -78213.238156 kJ/mol
# GULP energy per Si atom -5586.659868 kJ/mol
# Density = 2.632781 g / cm^3
# Si number density = 26.387870 Si / 1000 Ang^3
#
#
#
# Elastic Constant Matrix: (Units=GPa)
#
#
# Indices 1 2 3 4 5 6 
#
# 1 57.4337 19.3006 5.3904 -3.5140 18.3639 1.3808
# 2 19.3006 132.5044 22.3515 6.8786 -5.0189 12.4636
# 3 5.3904 22.3515 123.1143 13.3392 8.5161 4.3021
# 4 -3.5140 6.8786 13.3392 51.3414 -3.7461 -0.6737
# 5 18.3639 -5.0189 8.5161 -3.7461 44.7594 -5.8631
# 6 1.3808 12.4636 4.3021 -0.6737 -5.8631 31.0291
#
#
#
# Elastic Compliance Matrix: (Units=1/GPa)
#
#
# Indices 1 2 3 4 5 6 
#
# 1 0.021674 -0.003491 0.000255 0.001181 -0.009410 -0.001350
# 2 -0.003491 0.008678 -0.001382 -0.000915 0.002233 -0.002737
# 3 0.000255 -0.001382 0.008806 -0.002266 -0.002276 -0.001156
# 4 0.001181 -0.000915 -0.002266 0.020415 0.001736 0.001401
# 5 -0.009410 0.002233 -0.002276 0.001736 0.027701 0.005109
# 6 -0.001350 -0.002737 -0.001156 0.001401 0.005109 0.034543
#
#
# Mechanical properties :
#
#
# Convention : Reuss Voigt Hill
#
# Bulk Modulus (GPa) = 33.42056 45.23749 39.32903
# Shear Modulus (GPa) = 35.45422 43.15998 39.30710
#
# Velocity S-wave (km/s) = 3.66946 4.04864 3.86371
# Velocity P-wave (km/s) = 5.53587 6.24787 5.90262
#
# Compressibility (1/GPa) = 0.02992170
#
# Stress axis : x y z
#
# Youngs Moduli (GPa) = 46.13792 115.23262 113.56214
#
# Poissons Ratio (x) = 0.40225 -0.02896
# Poissons Ratio (y) = 0.16106 0.15698
# Poissons Ratio (z) = -0.01176 0.15929
#
# Static dielectric constant tensor:
#      x y z
#    x 2.199030 -0.019110 -0.113810 
#    y -0.019110 2.110510 0.021580 
#    z -0.113810 0.021580 2.230780 
# 
# From -- ./inp_files/191141.got.cif
#   From: 2010.05.17/outbox.cif.g08.bks.cpg/sg2_96_cif.got.tgz:191141.got - 2010.06.03 11:33:40.
