data_PCOD9056072
_publ_section_title
;
Structure prediction by ZEFSAII (Michael W. Deem and Ramdas Pophale) SiO2 
 PCOD9056072
Probable space group: P -1
;
_chemical_formula_sum "Si O2"
_cell_formula_units_Z 16
_cell_length_a 8.929257
_cell_length_b 15.511266
_cell_length_c 16.060775
_cell_angle_alpha 137.507370
_cell_angle_beta 31.595946
_cell_angle_gamma 137.710117
_cell_volume 747.033063
_symmetry_space_group_name_H-M "P -1"
_symmetry_group_IT_number 2
_symmetry_cell_setting 'triclinic'
loop_
_space_group_symop_operation_xyz
x,y,z
-x,-y,-z
loop_
_atom_site_type_symbol
_atom_site_label
_atom_site_fract_x
_atom_site_fract_y
_atom_site_fract_z
Si Si1 0.882238 0.714076 0.687409
Si Si2 0.660339 0.556598 0.848373
Si Si3 0.197365 0.168426 0.936189
Si Si4 0.461037 0.245079 0.529037
Si Si5 0.147564 0.283036 0.870433
Si Si6 0.452649 0.971242 0.773538
Si Si7 0.537976 0.118981 0.001568
Si Si8 0.277969 0.498483 0.528092
O O1 0.731875 0.607974 0.756126
O O2 0.805903 0.639309 0.582606
O O3 0.232820 0.757364 0.572258
O O4 0.759879 0.839792 0.840992
O O5 0.360372 0.430219 0.899558
O O6 0.955065 0.520900 0.716038
O O7 0.635146 0.683634 0.001502
O O8 0.185253 0.182938 0.853449
O O9 0.357708 0.064506 0.818332
O O10 0.861423 0.124349 0.104493
O O11 0.246183 0.250179 0.709674
O O12 0.377273 0.120163 0.416544
O O13 0.548192 0.379793 0.528781
O O14 0.790610 0.252698 0.009896
O O15 0.617158 0.064852 0.837899
O O16 0.500000 0.000000 0.000000
O O17 0.500000 0.500000 0.500000
#
# Coordination Sequence:
#
# PCOD9056072 Si02
#       8
#     2   2   2   2   2   2   2   2
#     4  11  21  45  74  94 136 190 223 270 346 424
#     4  11  21  46  69 101 136 180 228 281 342 407
#     4  11  22  42  71  98 133 179 233 278 335 415
#     4  11  23  46  72  97 139 179 228 282 340 411
#     4  12  26  43  67 106 142 173 228 296 343 388
#     4  11  22  45  70  94 130 191 233 264 340 417
#     4  12  27  44  68 101 140 183 231 282 339 409
#     4  11  23  40  71 105 136 179 227 277 344 410
#
# _framework density 21.418061999999999
#
# number of rings (size 3 to 8) (size 9 to 14) (size 15 to 20)
#    0.000    0.750    7.500    1.875    3.500    1.500 
#    2.250    0.000    0.000    0.000    0.000    0.000 
#    0.000    0.000    0.000    0.000    0.000    0.000 
#
# Total GULP energy -89480.252643 kJ/mol
# GULP energy per Si atom -5592.515790 kJ/mol
# Density = 2.136931 g / cm^3
# Si number density = 21.418062 Si / 1000 Ang^3
#
#
#
# Elastic Constant Matrix: (Units=GPa)
#
#
# Indices 1 2 3 4 5 6 
#
# 1 103.2096 25.5594 11.1060 6.7461 -7.0666 8.9330
# 2 25.5594 86.9129 24.5019 5.2531 -7.5156 12.8918
# 3 11.1060 24.5019 44.6903 14.0829 2.0825 -4.0963
# 4 6.7461 5.2531 14.0829 28.0473 9.2480 5.5798
# 5 -7.0666 -7.5156 2.0825 9.2480 30.3150 1.1436
# 6 8.9330 12.8918 -4.0963 5.5798 1.1436 30.3928
#
#
#
# Elastic Compliance Matrix: (Units=1/GPa)
#
#
# Indices 1 2 3 4 5 6 
#
# 1 0.010870 -0.002180 -0.001166 -0.002118 0.002800 -0.002144
# 2 -0.002180 0.016467 -0.010427 0.003158 0.003647 -0.008466
# 3 -0.001166 -0.010427 0.035210 -0.017895 -0.000300 0.012808
# 4 -0.002118 0.003158 -0.017895 0.051486 -0.013733 -0.012064
# 5 0.002800 0.003647 -0.000300 -0.013733 0.038805 -0.001349
# 6 -0.002144 -0.008466 0.012808 -0.012064 -0.001349 0.041116
#
#
# Mechanical properties :
#
#
# Convention : Reuss Voigt Hill
#
# Bulk Modulus (GPa) = 28.57099 39.68304 34.12701
# Shear Modulus (GPa) = 21.44399 29.32740 25.38570
#
# Velocity S-wave (km/s) = 3.16762 3.70440 3.44648
# Velocity P-wave (km/s) = 5.17176 6.07164 5.63968
#
# Compressibility (1/GPa) = 0.03500054
#
# Stress axis : x y z
#
# Youngs Moduli (GPa) = 91.99611 60.72859 28.40106
#
# Poissons Ratio (x) = 0.13238 0.03311
# Poissons Ratio (y) = 0.20053 0.29615
# Poissons Ratio (z) = 0.10726 0.63324
#
# Static dielectric constant tensor:
#      x y z
#    x 1.770910 0.028320 0.017230 
#    y 0.028320 1.781270 -0.012340 
#    z 0.017230 -0.012340 1.756660 
# 
# From -- ./inp_files/278604.got.cif
#   From: 2010.05.17/outbox.cif.g08.bks.cpg/sg2_140_cif.got.tgz:278604.got - 2010.06.03 11:33:40.
