data_PCOD9056253
_publ_section_title
;
Structure prediction by ZEFSAII (Michael W. Deem and Ramdas Pophale) SiO2 
 PCOD9056253
Probable space group: P -1
;
_chemical_formula_sum "Si O2"
_cell_formula_units_Z 16
_cell_length_a 13.036540
_cell_length_b 5.060054
_cell_length_c 19.992324
_cell_angle_alpha 54.412652
_cell_angle_beta 32.800650
_cell_angle_gamma 61.099684
_cell_volume 580.935976
_symmetry_space_group_name_H-M "P -1"
_symmetry_group_IT_number 2
_symmetry_cell_setting 'triclinic'
loop_
_space_group_symop_operation_xyz
x,y,z
-x,-y,-z
loop_
_atom_site_type_symbol
_atom_site_label
_atom_site_fract_x
_atom_site_fract_y
_atom_site_fract_z
Si Si1 0.694348 0.116836 0.845766
Si Si2 0.243897 0.616865 0.916479
Si Si3 0.990509 0.525003 0.580743
Si Si4 0.479561 0.260988 0.673171
Si Si5 0.505377 0.946818 0.155701
Si Si6 0.868735 0.170177 0.411388
Si Si7 0.105675 0.773321 0.140144
Si Si8 0.862755 0.392337 0.169994
O O1 0.665417 0.939086 0.815049
O O2 0.824553 0.104808 0.842359
O O3 0.769394 0.463323 0.726933
O O4 0.500000 0.000000 0.000000
O O5 0.404018 0.366234 0.885530
O O6 0.183986 0.470557 0.898132
O O7 0.334482 0.956274 0.796818
O O8 0.043752 0.602337 0.066789
O O9 0.062883 0.792387 0.553773
O O10 0.000000 0.500000 0.500000
O O11 0.101840 0.184264 0.583973
O O12 0.555057 0.201224 0.717391
O O13 0.647647 0.243191 0.530831
O O14 0.341189 0.563458 0.691420
O O15 0.691055 0.193358 0.017237
O O16 0.998942 0.428914 0.261129
O O17 0.945955 0.035031 0.172014
#
# Coordination Sequence:
#
# PCOD9056253 Si02
#       8
#     2   2   2   2   2   2   2   2
#     4   9  19  40  67  93 127 171 214 268 324 393
#     4   9  19  36  61  95 125 159 219 284 325 380
#     4  11  24  45  67  94 136 177 223 270 332 390
#     4  11  22  36  66  97 125 167 231 271 324 392
#     4   9  19  39  64  93 126 166 220 276 327 387
#     4  11  26  43  64  97 137 176 217 274 332 404
#     4   9  20  43  60  91 135 174 214 266 338 394
#     4   9  19  38  63  88 129 168 218 274 331 378
#
# _framework density 27.541765000000002
#
# number of rings (size 3 to 8) (size 9 to 14) (size 15 to 20)
#    0.000    2.250    0.000    2.250    5.250    0.500 
#   18.000    3.750    0.000    0.000    0.000    0.000 
#    0.000    0.000    0.000    0.000    0.000    0.000 
#
# Total GULP energy -89168.117579 kJ/mol
# GULP energy per Si atom -5573.007349 kJ/mol
# Density = 2.747908 g / cm^3
# Si number density = 27.541765 Si / 1000 Ang^3
#
#
#
# Elastic Constant Matrix: (Units=GPa)
#
#
# Indices 1 2 3 4 5 6 
#
# 1 57.4927 5.3206 -0.8030 2.6991 -4.4971 -7.7275
# 2 5.3206 102.0862 13.1169 12.9321 -4.4435 9.5621
# 3 -0.8030 13.1169 96.0003 28.3767 5.8950 -1.6020
# 4 2.6991 12.9321 28.3767 24.9608 -7.6960 6.8564
# 5 -4.4971 -4.4435 5.8950 -7.6960 34.9335 0.9422
# 6 -7.7275 9.5621 -1.6020 6.8564 0.9422 34.0741
#
#
#
# Elastic Compliance Matrix: (Units=1/GPa)
#
#
# Indices 1 2 3 4 5 6 
#
# 1 0.018539 -0.001077 0.001734 -0.004693 0.000775 0.005511
# 2 -0.001077 0.010676 -0.000232 -0.004387 0.000356 -0.002378
# 3 0.001734 -0.000232 0.018849 -0.026130 -0.008929 0.006849
# 4 -0.004693 -0.004387 -0.026130 0.084589 0.022387 -0.018702
# 5 0.000775 0.000356 -0.008929 0.022387 0.035367 -0.005827
# 6 0.005511 -0.002378 0.006849 -0.018702 -0.005827 0.035511
#
#
# Mechanical properties :
#
#
# Convention : Reuss Voigt Hill
#
# Bulk Modulus (GPa) = 20.44456 32.31647 26.38052
# Shear Modulus (GPa) = 22.83244 34.65666 28.74455
#
# Velocity S-wave (km/s) = 2.88238 3.55114 3.23410
# Velocity P-wave (km/s) = 4.30310 5.34540 4.85232
#
# Compressibility (1/GPa) = 0.04891276
#
# Stress axis : x y z
#
# Youngs Moduli (GPa) = 53.94029 93.67102 53.05231
#
# Poissons Ratio (x) = 0.10089 -0.09198
# Poissons Ratio (y) = 0.05810 0.01233
# Poissons Ratio (z) = -0.09352 0.02176
#
# Static dielectric constant tensor:
#      x y z
#    x 2.303580 -0.011290 -0.011480 
#    y -0.011290 2.233690 0.063100 
#    z -0.011480 0.063100 2.243260 
# 
# From -- ./inp_files/611134.got.cif
#   From: 2010.05.17/outbox.cif.g08.bks.cpg/sg2_306_cif.got.tgz:611134.got - 2010.06.03 11:33:40.
