data_PCOD9056353
_publ_section_title
;
Structure prediction by ZEFSAII (Michael W. Deem and Ramdas Pophale) SiO2 
 PCOD9056353
Probable space group: P -1
;
_chemical_formula_sum "Si O2"
_cell_formula_units_Z 16
_cell_length_a 18.246194
_cell_length_b 12.030826
_cell_length_c 24.552718
_cell_angle_alpha 31.397004
_cell_angle_beta 158.826663
_cell_angle_gamma 152.048485
_cell_volume 898.164667
_symmetry_space_group_name_H-M "P -1"
_symmetry_group_IT_number 2
_symmetry_cell_setting 'triclinic'
loop_
_space_group_symop_operation_xyz
x,y,z
-x,-y,-z
loop_
_atom_site_type_symbol
_atom_site_label
_atom_site_fract_x
_atom_site_fract_y
_atom_site_fract_z
Si Si1 0.057626 0.856758 0.645987
Si Si2 0.987689 0.534886 0.041015
Si Si3 0.157801 0.634251 0.357906
Si Si4 0.637429 0.410231 0.368107
Si Si5 0.327008 0.015893 0.473614
Si Si6 0.123326 0.059340 0.200461
Si Si7 0.471813 0.183007 0.864380
Si Si8 0.754716 0.692198 0.613404
O O1 0.998142 0.596522 0.689165
O O2 0.905911 0.803090 0.618021
O O3 0.000000 0.000000 0.500000
O O4 0.315720 0.028645 0.771149
O O5 0.138399 0.445770 0.217979
O O6 0.031115 0.806988 0.968354
O O7 0.723730 0.368959 0.942630
O O8 0.000000 0.500000 0.000000
O O9 0.216800 0.556358 0.489775
O O10 0.406713 0.794298 0.435044
O O11 0.046168 0.807933 0.221543
O O12 0.375307 0.230388 0.278803
O O13 0.642621 0.662392 0.252490
O O14 0.698742 0.253519 0.433655
O O15 0.176847 0.031799 0.312221
O O16 0.257139 0.102674 0.443347
O O17 0.500000 0.000000 0.000000
O O18 0.500000 0.500000 0.500000
#
# Coordination Sequence:
#
# PCOD9056353 Si02
#       8
#     2   2   2   2   2   2   2   2
#     4  12  24  38  59  84 123 160 188 239 294 350
#     4  11  22  38  62  88 115 154 194 246 292 336
#     4   9  16  33  57  87 112 153 194 235 283 343
#     4   8  16  31  58  83 112 152 197 235 281 341
#     4   9  16  33  57  88 115 144 195 247 277 337
#     4   8  16  31  59  85 112 148 198 237 282 338
#     4  11  22  39  57  87 119 154 203 231 285 355
#     4  12  24  37  59  94 120 147 197 244 296 345
#
# _framework density 17.814105999999999
#
# number of rings (size 3 to 8) (size 9 to 14) (size 15 to 20)
#    0.000    2.000    5.000    1.500    1.750    0.000 
#    0.000    2.500    2.750    0.750    0.000    0.000 
#    0.000    0.000    0.000    0.000    0.000    0.000 
#
# Total GULP energy -89195.943670 kJ/mol
# GULP energy per Si atom -5574.746479 kJ/mol
# Density = 1.777356 g / cm^3
# Si number density = 17.814106 Si / 1000 Ang^3
#
#
#
# Elastic Constant Matrix: (Units=GPa)
#
#
# Indices 1 2 3 4 5 6 
#
# 1 97.0850 37.4947 46.4246 -26.0917 2.6366 -27.2560
# 2 37.4947 103.3551 53.7022 -21.7837 3.1090 -36.6657
# 3 46.4246 53.7022 119.7569 -22.6236 -4.0481 -18.2024
# 4 -26.0917 -21.7837 -22.6236 40.4866 -5.3988 5.8257
# 5 2.6366 3.1090 -4.0481 -5.3988 23.4832 -7.9501
# 6 -27.2560 -36.6657 -18.2024 5.8257 -7.9501 36.8690
#
#
#
# Elastic Compliance Matrix: (Units=1/GPa)
#
#
# Indices 1 2 3 4 5 6 
#
# 1 0.016930 0.001645 -0.003852 0.008385 0.003068 0.011586
# 2 0.001645 0.019321 -0.005270 0.006483 0.003806 0.017626
# 3 -0.003852 -0.005270 0.012523 0.002345 0.003298 -0.001565
# 4 0.008385 0.006483 0.002345 0.034744 0.010148 0.010502
# 5 0.003068 0.003806 0.003298 0.010148 0.050372 0.016940
# 6 0.011586 0.017626 -0.001565 0.010502 0.016940 0.054438
#
#
# Mechanical properties :
#
#
# Convention : Reuss Voigt Hill
#
# Bulk Modulus (GPa) = 29.56701 66.16001 47.86351
# Shear Modulus (GPa) = 23.30415 32.33945 27.82180
#
# Velocity S-wave (km/s) = 3.62081 4.26536 3.95623
# Velocity P-wave (km/s) = 5.84071 7.84075 6.91344
#
# Compressibility (1/GPa) = 0.03382148
#
# Stress axis : x y z
#
# Youngs Moduli (GPa) = 59.06729 51.75672 79.85204
#
# Poissons Ratio (x) = -0.08514 0.30757
# Poissons Ratio (y) = -0.09716 0.42078
# Poissons Ratio (z) = 0.22752 0.27273
#
# Static dielectric constant tensor:
#      x y z
#    x 1.587660 -0.015390 0.031200 
#    y -0.015390 1.611750 -0.025510 
#    z 0.031200 -0.025510 1.598270 
# 
# From -- ./inp_files/254490.got.cif
#   From: 2010.05.17/outbox.cif.g08.bks.cpg/sg2_128_cif.got.tgz:254490.got - 2010.06.03 11:33:40.
