data_PCOD9056926
_publ_section_title
;
Structure prediction by ZEFSAII (Michael W. Deem and Ramdas Pophale) SiO2 
 PCOD9056926
Probable space group: P -1
;
_chemical_formula_sum "Si O2"
_cell_formula_units_Z 14
_cell_length_a 9.675249
_cell_length_b 20.182690
_cell_length_c 6.821903
_cell_angle_alpha 126.443602
_cell_angle_beta 133.432725
_cell_angle_gamma 45.316055
_cell_volume 671.835727
_symmetry_space_group_name_H-M "P -1"
_symmetry_group_IT_number 2
_symmetry_cell_setting 'triclinic'
loop_
_space_group_symop_operation_xyz
x,y,z
-x,-y,-z
loop_
_atom_site_type_symbol
_atom_site_label
_atom_site_fract_x
_atom_site_fract_y
_atom_site_fract_z
Si Si1 0.185743 0.753083 0.093797
Si Si2 0.181368 0.886048 0.997344
Si Si3 0.761630 0.443762 0.186894
Si Si4 0.485950 0.765843 0.731566
Si Si5 0.749753 0.871669 0.069472
Si Si6 0.904824 0.560506 0.815595
Si Si7 0.453131 0.959178 0.574005
O O1 0.116332 0.827239 0.977659
O O2 0.392813 0.744825 0.403209
O O3 0.200038 0.656162 0.868108
O O4 0.995229 0.790869 0.136349
O O5 0.383384 0.885310 0.308002
O O6 0.287558 0.825812 0.797220
O O7 0.000000 0.000000 0.000000
O O8 0.828806 0.501052 0.501182
O O9 0.908355 0.430199 0.110438
O O10 0.500000 0.500000 0.000000
O O11 0.592069 0.832577 0.916023
O O12 0.688522 0.664490 0.824060
O O13 0.652567 0.918427 0.847010
O O14 0.739609 0.951877 0.341926
O O15 0.000000 0.500000 0.000000
O O16 0.500000 0.000000 0.500000
#
# Coordination Sequence:
#
# PCOD9056926 Si02
#       7
#     2   2   2   2   2   2   2
#     4  12  26  45  70 102 141 184 235 289 354 421
#     4  12  27  43  68 105 144 185 239 291 345 416
#     4  11  25  48  74 103 145 183 230 296 368 421
#     4  12  25  46  69 102 137 185 235 284 355 428
#     4  11  24  42  68  93 134 184 230 283 342 411
#     4  11  27  47  76 106 140 184 238 295 358 433
#     4  11  22  41  65  94 136 181 228 286 342 399
#
# _framework density 20.838426999999999
#
# number of rings (size 3 to 8) (size 9 to 14) (size 15 to 20)
#    0.000    0.571    5.714    1.714    4.000    4.000 
#    2.571    0.000    0.000    0.000    0.000    0.000 
#    0.000    0.000    0.000    0.000    0.000    0.000 
#
# Total GULP energy -78156.772312 kJ/mol
# GULP energy per Si atom -5582.626594 kJ/mol
# Density = 2.079100 g / cm^3
# Si number density = 20.838427 Si / 1000 Ang^3
#
#
#
# Elastic Constant Matrix: (Units=GPa)
#
#
# Indices 1 2 3 4 5 6 
#
# 1 109.5241 53.0151 37.3777 -5.2902 2.3422 7.9957
# 2 53.0151 142.4191 37.5436 -1.3761 -11.4778 7.5893
# 3 37.3777 37.5436 74.9801 7.7020 -10.7375 10.1188
# 4 -5.2902 -1.3761 7.7020 32.1090 8.1185 3.8049
# 5 2.3422 -11.4778 -10.7375 8.1185 26.5634 -0.5469
# 6 7.9957 7.5893 10.1188 3.8049 -0.5469 39.9260
#
#
#
# Elastic Compliance Matrix: (Units=1/GPa)
#
#
# Indices 1 2 3 4 5 6 
#
# 1 0.013664 -0.003889 -0.006318 0.005529 -0.007150 -0.001021
# 2 -0.003889 0.009332 -0.002088 -0.000638 0.003719 -0.000354
# 3 -0.006318 -0.002088 0.020198 -0.008280 0.010298 -0.002527
# 4 0.005529 -0.000638 -0.008280 0.038358 -0.015890 -0.002761
# 5 -0.007150 0.003719 0.010298 -0.015890 0.048909 0.000299
# 6 -0.001021 -0.000354 -0.002527 -0.002761 0.000299 0.026226
#
#
# Mechanical properties :
#
#
# Convention : Reuss Voigt Hill
#
# Bulk Modulus (GPa) = 53.75368 64.75511 59.25439
# Shear Modulus (GPa) = 26.66978 32.98548 29.82763
#
# Velocity S-wave (km/s) = 3.58136 3.98290 3.78746
# Velocity P-wave (km/s) = 6.55385 7.23144 6.90097
#
# Compressibility (1/GPa) = 0.01860338
#
# Stress axis : x y z
#
# Youngs Moduli (GPa) = 73.18724 107.15703 49.50945
#
# Poissons Ratio (x) = 0.41675 0.31280
# Poissons Ratio (y) = 0.28463 0.10338
# Poissons Ratio (z) = 0.46240 0.22375
#
# Static dielectric constant tensor:
#      x y z
#    x 1.794380 0.002220 0.009180 
#    y 0.002220 2.406040 0.393640 
#    z 0.009180 0.393640 1.961280 
# 
# From -- ./inp_files/49114.got.cif
#   From: 2010.05.17/outbox.cif.g08.bks.cpg/sg2_25_cif.got.tgz:49114.got - 2010.06.03 11:33:40.
