data_PCOD9056817
_publ_section_title
;
Structure prediction by ZEFSAII (Michael W. Deem and Ramdas Pophale) SiO2 
 PCOD9056817
Probable space group: P -1
;
_chemical_formula_sum "Si O2"
_cell_formula_units_Z 16
_cell_length_a 11.608033
_cell_length_b 5.563426
_cell_length_c 15.349199
_cell_angle_alpha 83.202867
_cell_angle_beta 58.489802
_cell_angle_gamma 53.565649
_cell_volume 652.715363
_symmetry_space_group_name_H-M "P -1"
_symmetry_group_IT_number 2
_symmetry_cell_setting 'triclinic'
loop_
_space_group_symop_operation_xyz
x,y,z
-x,-y,-z
loop_
_atom_site_type_symbol
_atom_site_label
_atom_site_fract_x
_atom_site_fract_y
_atom_site_fract_z
Si Si1 0.555301 0.655379 0.908787
Si Si2 0.354136 0.246758 0.877220
Si Si3 0.704856 0.138622 0.751334
Si Si4 0.008398 0.755647 0.786565
Si Si5 0.649808 0.135029 0.457271
Si Si6 0.120172 0.615330 0.093839
Si Si7 0.099021 0.131440 0.484100
Si Si8 0.367590 0.182974 0.668710
O O1 0.650161 0.466858 0.790127
O O2 0.704045 0.619496 0.907193
O O3 0.377741 0.973192 0.932997
O O4 0.500000 0.500000 0.000000
O O5 0.532425 0.179791 0.836357
O O6 0.360528 0.197435 0.774519
O O7 0.189353 0.566035 0.969627
O O8 0.874582 0.894966 0.752499
O O9 0.745602 0.047706 0.639311
O O10 0.985611 0.516736 0.851397
O O11 0.209427 0.537264 0.687717
O O12 0.962697 0.044878 0.849357
O O13 0.500000 0.500000 0.500000
O O14 0.554642 0.038075 0.560071
O O15 0.827860 0.983883 0.443044
O O16 0.677202 0.015037 0.353779
O O17 0.000000 0.500000 0.500000
O O18 0.000000 0.000000 0.500000
#
# Coordination Sequence:
#
# PCOD9056817 Si02
#       8
#     2   2   2   2   2   2   2   2
#     4  11  22  40  70 108 144 187 247 314 369 432
#     4  12  23  43  74 105 145 195 259 301 369 460
#     4  11  24  41  73 105 141 193 253 307 370 441
#     4  11  26  46  69 107 151 196 238 306 380 438
#     4  11  28  50  78 107 156 205 255 318 393 459
#     4  11  24  43  71 105 148 191 244 309 367 436
#     4  12  30  50  81 116 152 192 261 329 384 450
#     4  11  28  48  73 106 151 204 250 305 383 464
#
# _framework density 24.512979999999999
#
# number of rings (size 3 to 8) (size 9 to 14) (size 15 to 20)
#    0.000    0.750    3.750    2.625   10.500    2.000 
#    0.000    0.000    0.000    0.000    0.000    0.000 
#    0.000    0.000    0.000    0.000    0.000    0.000 
#
# Total GULP energy -89427.383999 kJ/mol
# GULP energy per Si atom -5589.211500 kJ/mol
# Density = 2.445719 g / cm^3
# Si number density = 24.512980 Si / 1000 Ang^3
#
#
#
# Elastic Constant Matrix: (Units=GPa)
#
#
# Indices 1 2 3 4 5 6 
#
# 1 121.7890 33.0917 24.5104 -1.8524 18.4402 -0.5907
# 2 33.0917 82.0698 0.4306 12.1075 19.7323 1.6341
# 3 24.5104 0.4306 85.1430 24.1186 26.8135 12.9979
# 4 -1.8524 12.1075 24.1186 33.5263 8.0736 -2.4579
# 5 18.4402 19.7323 26.8135 8.0736 59.2525 2.2463
# 6 -0.5907 1.6341 12.9979 -2.4579 2.2463 31.4007
#
#
#
# Elastic Compliance Matrix: (Units=1/GPa)
#
#
# Indices 1 2 3 4 5 6 
#
# 1 0.010930 -0.005407 -0.005496 0.006792 -0.000165 0.003305
# 2 -0.005407 0.017294 0.006828 -0.010423 -0.005586 -0.004244
# 3 -0.005496 0.006828 0.022427 -0.017778 -0.007889 -0.010569
# 4 0.006792 -0.010423 -0.017778 0.046984 0.002564 0.011524
# 5 -0.000165 -0.005586 -0.007889 0.002564 0.021926 0.002185
# 6 0.003305 -0.004244 -0.010569 0.011524 0.002185 0.037250
#
#
# Mechanical properties :
#
#
# Convention : Reuss Voigt Hill
#
# Bulk Modulus (GPa) = 23.52795 45.00746 34.26770
# Shear Modulus (GPa) = 27.91314 40.23383 34.07349
#
# Velocity S-wave (km/s) = 3.37814 4.05573 3.73234
# Velocity P-wave (km/s) = 4.98345 6.35078 5.70820
#
# Compressibility (1/GPa) = 0.04250265
#
# Stress axis : x y z
#
# Youngs Moduli (GPa) = 91.48826 57.82335 44.58989
#
# Poissons Ratio (x) = 0.31263 0.24506
# Poissons Ratio (y) = 0.49464 -0.30448
# Poissons Ratio (z) = 0.50281 -0.39484
#
# Static dielectric constant tensor:
#      x y z
#    x 2.091890 0.137750 -0.098270 
#    y 0.137750 2.119880 -0.042300 
#    z -0.098270 -0.042300 2.005370 
# 
# From -- ./inp_files/510975.got.cif
#   From: 2010.05.17/outbox.cif.g08.bks.cpg/sg2_256_cif.got.tgz:510975.got - 2010.06.03 11:33:40.
