data_PCOD9056998
_publ_section_title
;
Structure prediction by ZEFSAII (Michael W. Deem and Ramdas Pophale) SiO2 
 PCOD9056998
Probable space group: P -1
;
_chemical_formula_sum "Si O2"
_cell_formula_units_Z 16
_cell_length_a 26.335251
_cell_length_b 13.409792
_cell_length_c 18.008462
_cell_angle_alpha 18.267151
_cell_angle_beta 159.381676
_cell_angle_gamma 158.665808
_cell_volume 647.331203
_symmetry_space_group_name_H-M "P -1"
_symmetry_group_IT_number 2
_symmetry_cell_setting 'triclinic'
loop_
_space_group_symop_operation_xyz
x,y,z
-x,-y,-z
loop_
_atom_site_type_symbol
_atom_site_label
_atom_site_fract_x
_atom_site_fract_y
_atom_site_fract_z
Si Si1 0.036633 0.296651 0.008511
Si Si2 0.162008 0.253712 0.372539
Si Si3 0.155824 0.441580 0.770283
Si Si4 0.491707 0.601856 0.612607
Si Si5 0.882923 0.776280 0.403378
Si Si6 0.459851 0.592218 0.742515
Si Si7 0.737145 0.395793 0.030504
Si Si8 0.312501 0.638042 0.702205
O O1 0.112836 0.271626 0.208269
O O2 0.159750 0.353821 0.069575
O O3 0.883353 0.951201 0.029860
O O4 0.980148 0.609084 0.703239
O O5 0.317110 0.581480 0.372124
O O6 0.008743 0.150652 0.287402
O O7 0.233066 0.955481 0.690964
O O8 0.270184 0.694729 0.688221
O O9 0.000000 0.500000 0.500000
O O10 0.196659 0.481505 0.883554
O O11 0.491821 0.479607 0.783773
O O12 0.564459 0.403286 0.795645
O O13 0.605515 0.999138 0.481288
O O14 0.715909 0.661744 0.295822
O O15 0.834344 0.585590 0.391160
O O16 0.500000 0.000000 0.500000
O O17 0.572380 0.554374 0.986923
#
# Coordination Sequence:
#
# PCOD9056998 Si02
#       8
#     2   2   2   2   2   2   2   2
#     4  11  22  41  67  98 139 176 222 280 340 390
#     4  11  26  45  67  99 142 183 222 275 333 408
#     4  12  19  37  66 101 134 171 223 278 331 393
#     4  12  27  44  68 103 138 181 227 272 340 407
#     4  11  24  44  72  99 130 177 230 280 337 399
#     4  12  26  46  75 101 133 173 229 291 338 392
#     4  11  23  42  66 102 139 180 224 274 335 406
#     4  12  24  43  71 102 134 175 227 282 340 398
#
# _framework density 24.716867000000001
#
# number of rings (size 3 to 8) (size 9 to 14) (size 15 to 20)
#    0.000    0.500    5.000    4.125    0.000    3.000 
#    0.000    1.250    0.000    0.000    0.000    0.000 
#    0.000    0.000    0.000    0.000    0.000    0.000 
#
# Total GULP energy -89520.321544 kJ/mol
# GULP energy per Si atom -5595.020097 kJ/mol
# Density = 2.466061 g / cm^3
# Si number density = 24.716867 Si / 1000 Ang^3
#
#
#
# Elastic Constant Matrix: (Units=GPa)
#
#
# Indices 1 2 3 4 5 6 
#
# 1 132.2786 33.3030 20.1904 -0.3939 -21.7568 36.3333
# 2 33.3030 90.9573 20.0190 16.7113 -8.8847 28.3817
# 3 20.1904 20.0190 90.1517 -1.1982 -9.0759 21.0170
# 4 -0.3939 16.7113 -1.1982 32.2274 1.5000 1.0265
# 5 -21.7568 -8.8847 -9.0759 1.5000 37.0833 0.8150
# 6 36.3333 28.3817 21.0170 1.0265 0.8150 44.0619
#
#
#
# Elastic Compliance Matrix: (Units=1/GPa)
#
#
# Indices 1 2 3 4 5 6 
#
# 1 0.011325 -0.000838 0.000471 0.000569 0.006737 -0.009162
# 2 -0.000838 0.016295 -0.001027 -0.008378 0.003702 -0.009188
# 3 0.000471 -0.001027 0.012957 0.001058 0.003291 -0.005993
# 4 0.000569 -0.008378 0.001058 0.035440 -0.002928 0.003651
# 5 0.006737 0.003702 0.003291 -0.002928 0.032951 -0.010051
# 6 -0.009162 -0.009188 -0.005993 0.003651 -0.010051 0.039128
#
#
# Mechanical properties :
#
#
# Convention : Reuss Voigt Hill
#
# Bulk Modulus (GPa) = 26.46221 51.15693 38.80957
# Shear Modulus (GPa) = 30.58461 38.66617 34.62539
#
# Velocity S-wave (km/s) = 3.52148 3.95949 3.74689
# Velocity P-wave (km/s) = 5.22148 6.45334 5.86981
#
# Compressibility (1/GPa) = 0.03778974
#
# Stress axis : x y z
#
# Youngs Moduli (GPa) = 88.29934 61.36849 77.17560
#
# Poissons Ratio (x) = 0.05142 -0.03638
# Poissons Ratio (y) = 0.07399 0.07929
# Poissons Ratio (z) = -0.04162 0.06305
#
# Static dielectric constant tensor:
#      x y z
#    x 1.987900 0.003080 0.094210 
#    y 0.003080 2.046260 -0.019360 
#    z 0.094210 -0.019360 1.969790 
# 
# From -- ./inp_files/69032.got.cif
#   From: 2010.05.17/outbox.cif.g08.bks.cpg/sg2_35_cif.got.tgz:69032.got - 2010.06.03 11:33:40.
