data_PCOD9056503
_publ_section_title
;
Structure prediction by ZEFSAII (Michael W. Deem and Ramdas Pophale) SiO2 
 PCOD9056503
Probable space group: P -1
;
_chemical_formula_sum "Si O2"
_cell_formula_units_Z 14
_cell_length_a 9.629625
_cell_length_b 9.878147
_cell_length_c 9.471486
_cell_angle_alpha 65.335559
_cell_angle_beta 44.262165
_cell_angle_gamma 67.463518
_cell_volume 566.362144
_symmetry_space_group_name_H-M "P -1"
_symmetry_group_IT_number 2
_symmetry_cell_setting 'triclinic'
loop_
_space_group_symop_operation_xyz
x,y,z
-x,-y,-z
loop_
_atom_site_type_symbol
_atom_site_label
_atom_site_fract_x
_atom_site_fract_y
_atom_site_fract_z
Si Si1 0.222881 0.685070 0.981356
Si Si2 0.789694 0.827978 0.160772
Si Si3 0.954121 0.803165 0.545193
Si Si4 0.260783 0.024603 0.143998
Si Si5 0.742958 0.444363 0.674297
Si Si6 0.618770 0.799555 0.579749
Si Si7 0.614221 0.558182 0.255525
O O1 0.256277 0.595221 0.143695
O O2 0.004695 0.778140 0.094839
O O3 0.395858 0.791597 0.797413
O O4 0.253089 0.573786 0.871665
O O5 0.631358 0.862405 0.386834
O O6 0.729255 0.686633 0.178825
O O7 0.789678 0.957609 0.990712
O O8 0.846967 0.826818 0.762539
O O9 0.775004 0.863428 0.541835
O O10 0.053353 0.635502 0.509781
O O11 0.140219 0.897433 0.351779
O O12 0.500000 0.000000 0.000000
O O13 0.704078 0.620324 0.591704
O O14 0.556610 0.381593 0.760083
O O15 0.500000 0.500000 0.500000
#
# Coordination Sequence:
#
# PCOD9056503 Si02
#       7
#     2   2   2   2   2   2   2
#     4  11  25  41  66 107 144 185 221 275 356 413
#     4  12  25  43  71 102 138 181 235 282 347 403
#     4  11  26  47  73  99 134 187 235 284 336 418
#     4  11  29  50  71  97 134 189 239 284 346 401
#     4  11  23  44  73 103 146 183 224 275 357 415
#     4  11  24  43  70 111 142 175 224 286 347 416
#     4  11  22  39  65 106 147 180 220 281 340 411
#
# _framework density 24.719166999999999
#
# number of rings (size 3 to 8) (size 9 to 14) (size 15 to 20)
#    0.000    0.857    4.286    3.429    8.000    2.857 
#    0.000    1.429    0.000    0.000    0.000    0.000 
#    0.000    0.000    0.000    0.000    0.000    0.000 
#
# Total GULP energy -78449.053493 kJ/mol
# GULP energy per Si atom -5603.503821 kJ/mol
# Density = 2.466291 g / cm^3
# Si number density = 24.719167 Si / 1000 Ang^3
#
#
#
# Elastic Constant Matrix: (Units=GPa)
#
#
# Indices 1 2 3 4 5 6 
#
# 1 117.9193 3.0031 39.3814 -2.4767 -12.0658 7.3305
# 2 3.0031 61.1975 44.2532 16.5561 4.8799 10.0622
# 3 39.3814 44.2532 171.0857 10.6893 12.1898 2.2224
# 4 -2.4767 16.5561 10.6893 27.7025 4.7892 8.9693
# 5 -12.0658 4.8799 12.1898 4.7892 61.6822 -3.5048
# 6 7.3305 10.0622 2.2224 8.9693 -3.5048 29.9570
#
#
#
# Elastic Compliance Matrix: (Units=1/GPa)
#
#
# Indices 1 2 3 4 5 6 
#
# 1 0.009827 0.001433 -0.002849 0.001718 0.002071 -0.002946
# 2 0.001433 0.024137 -0.005860 -0.010466 0.000064 -0.004882
# 3 -0.002849 -0.005860 0.008118 -0.000246 -0.001568 0.001954
# 4 0.001718 -0.010466 -0.000246 0.046772 -0.003058 -0.011248
# 5 0.002071 0.000064 -0.001568 -0.003058 0.017303 0.002528
# 6 -0.002946 -0.004882 0.001954 -0.011248 0.002528 0.039261
#
#
# Mechanical properties :
#
#
# Convention : Reuss Voigt Hill
#
# Bulk Modulus (GPa) = 36.32599 58.16422 47.24510
# Shear Modulus (GPa) = 29.56002 41.43933 35.49967
#
# Velocity S-wave (km/s) = 3.46183 4.09883 3.79373
# Velocity P-wave (km/s) = 5.54134 6.78098 6.19226
#
# Compressibility (1/GPa) = 0.02752850
#
# Stress axis : x y z
#
# Youngs Moduli (GPa) = 101.76494 41.43015 123.17677
#
# Poissons Ratio (x) = -0.05936 0.35094
# Poissons Ratio (y) = -0.14580 0.72185
# Poissons Ratio (z) = 0.28994 0.24279
#
# Static dielectric constant tensor:
#      x y z
#    x 1.952970 0.041950 -0.014600 
#    y 0.041950 2.036150 0.005560 
#    z -0.014600 0.005560 1.903220 
# 
# From -- ./inp_files/175724.got.cif
#   From: 2010.05.17/outbox.cif.g08.bks.cpg/sg2_88_cif.got.tgz:175724.got - 2010.06.03 11:33:40.
