data_PCOD9056964
_publ_section_title
;
Structure prediction by ZEFSAII (Michael W. Deem and Ramdas Pophale) SiO2 
 PCOD9056964
Probable space group: P -1
;
_chemical_formula_sum "Si O2"
_cell_formula_units_Z 16
_cell_length_a 9.792960
_cell_length_b 15.050711
_cell_length_c 9.386265
_cell_angle_alpha 108.086205
_cell_angle_beta 99.229310
_cell_angle_gamma 34.978302
_cell_volume 742.602640
_symmetry_space_group_name_H-M "P -1"
_symmetry_group_IT_number 2
_symmetry_cell_setting 'triclinic'
loop_
_space_group_symop_operation_xyz
x,y,z
-x,-y,-z
loop_
_atom_site_type_symbol
_atom_site_label
_atom_site_fract_x
_atom_site_fract_y
_atom_site_fract_z
Si Si1 0.552539 0.282496 0.707245
Si Si2 0.055494 0.573902 0.598469
Si Si3 0.398304 0.461788 0.391290
Si Si4 0.227839 0.120443 0.851914
Si Si5 0.278309 0.887709 0.630456
Si Si6 0.672222 0.420310 0.852943
Si Si7 0.882370 0.029032 0.846108
Si Si8 0.718465 0.918984 0.821322
O O1 0.274782 0.446995 0.689110
O O2 0.684864 0.141903 0.546686
O O3 0.670789 0.319174 0.729078
O O4 0.617246 0.214179 0.844678
O O5 0.138193 0.589181 0.482557
O O6 0.000000 0.500000 0.500000
O O7 0.836427 0.754897 0.716486
O O8 0.500000 0.500000 0.500000
O O9 0.523833 0.295370 0.371775
O O10 0.422350 0.459808 0.225912
O O11 0.945532 0.297909 0.872300
O O12 0.291612 0.987776 0.721805
O O13 0.433654 0.078563 0.815421
O O14 0.262559 0.084750 0.007391
O O15 0.048609 0.976696 0.722276
O O16 0.500000 0.500000 0.000000
O O17 0.863778 0.927614 0.792547
O O18 0.000000 0.000000 0.000000
#
# Coordination Sequence:
#
# PCOD9056964 Si02
#       8
#     2   2   2   2   2   2   2   2
#     4  11  24  41  67  99 137 176 228 288 340 399
#     4  11  24  46  70 100 140 187 229 283 352 412
#     4  11  23  41  68 100 131 177 229 280 337 400
#     4  11  25  43  66  99 138 183 221 280 355 410
#     4  11  22  41  66  97 135 176 227 282 340 405
#     4  12  25  42  68 102 135 179 233 288 345 412
#     4  12  24  40  68 104 135 179 231 281 342 410
#     4  11  24  44  66  98 143 178 226 283 342 410
#
# _framework density 21.545842
#
# number of rings (size 3 to 8) (size 9 to 14) (size 15 to 20)
#    0.000    0.750    5.000    3.375    3.500    1.000 
#    0.000    1.875    0.000    5.250    0.000    0.000 
#    0.000    0.000    0.000    0.000    0.000    0.000 
#
# Total GULP energy -89252.427000 kJ/mol
# GULP energy per Si atom -5578.276687 kJ/mol
# Density = 2.149680 g / cm^3
# Si number density = 21.545842 Si / 1000 Ang^3
#
#
#
# Elastic Constant Matrix: (Units=GPa)
#
#
# Indices 1 2 3 4 5 6 
#
# 1 100.8219 6.0563 19.3428 -6.4201 13.0907 -14.2822
# 2 6.0563 76.7856 32.7171 -23.9884 1.2776 -18.5194
# 3 19.3428 32.7171 98.6307 -5.1200 -1.8794 -5.5637
# 4 -6.4201 -23.9884 -5.1200 34.4930 3.9019 -0.5209
# 5 13.0907 1.2776 -1.8794 3.9019 20.8762 1.4396
# 6 -14.2822 -18.5194 -5.5637 -0.5209 1.4396 39.7136
#
#
#
# Elastic Compliance Matrix: (Units=1/GPa)
#
#
# Indices 1 2 3 4 5 6 
#
# 1 0.012961 0.004032 -0.003397 0.005970 -0.010245 0.006515
# 2 0.004032 0.024687 -0.007512 0.018004 -0.008940 0.012470
# 3 -0.003397 -0.007512 0.012977 -0.004523 0.004820 -0.003141
# 4 0.005970 0.018004 -0.004523 0.043722 -0.014183 0.010996
# 5 -0.010245 -0.008940 0.004820 -0.014183 0.058612 -0.009489
# 6 0.006515 0.012470 -0.003141 0.010996 -0.009489 0.033387
#
#
# Mechanical properties :
#
#
# Convention : Reuss Voigt Hill
#
# Bulk Modulus (GPa) = 27.12198 43.60786 35.36492
# Shear Modulus (GPa) = 23.54157 33.55803 28.54980
#
# Velocity S-wave (km/s) = 3.30908 3.95082 3.64410
# Velocity P-wave (km/s) = 5.21683 6.41058 5.84426
#
# Compressibility (1/GPa) = 0.03687046
#
# Stress axis : x y z
#
# Youngs Moduli (GPa) = 77.15265 40.50756 77.06085
#
# Poissons Ratio (x) = -0.16332 0.26179
# Poissons Ratio (y) = -0.31108 0.57888
# Poissons Ratio (z) = 0.26210 0.30429
#
# Static dielectric constant tensor:
#      x y z
#    x 1.780890 -0.022850 0.005340 
#    y -0.022850 2.054170 0.032110 
#    z 0.005340 0.032110 1.806020 
# 
# From -- ./inp_files/208361.got.cif
#   From: 2010.05.17/outbox.cif.g08.bks.cpg/sg2_105_cif.got.tgz:208361.got - 2010.06.03 11:33:40.
