data_PCOD9056520
_publ_section_title
;
Structure prediction by ZEFSAII (Michael W. Deem and Ramdas Pophale) SiO2 
 PCOD9056520
Probable space group: P -1
;
_chemical_formula_sum "Si O2"
_cell_formula_units_Z 13
_cell_length_a 14.790685
_cell_length_b 6.167785
_cell_length_c 11.101442
_cell_angle_alpha 74.370697
_cell_angle_beta 30.981259
_cell_angle_gamma 74.999735
_cell_volume 501.246059
_symmetry_space_group_name_H-M "P -1"
_symmetry_group_IT_number 2
_symmetry_cell_setting 'triclinic'
loop_
_space_group_symop_operation_xyz
x,y,z
-x,-y,-z
loop_
_atom_site_type_symbol
_atom_site_label
_atom_site_fract_x
_atom_site_fract_y
_atom_site_fract_z
Si Si1 0.386712 0.702324 0.918769
Si Si2 0.831677 0.574247 0.607071
Si Si3 0.570710 0.381579 0.573191
Si Si4 0.070402 0.501973 0.764586
Si Si5 0.742943 0.860594 0.133538
Si Si6 0.368344 0.028158 0.256573
Si Si7 0.000000 0.000000 0.000000
O O1 0.436665 0.559555 0.765585
O O2 0.565672 0.780940 0.758976
O O3 0.280107 0.933515 0.967492
O O4 0.312670 0.546734 0.130597
O O5 0.860514 0.486199 0.452240
O O6 0.811739 0.847575 0.596519
O O7 0.000000 0.500000 0.500000
O O8 0.769397 0.466968 0.326832
O O9 0.441419 0.267230 0.641519
O O10 0.620008 0.189334 0.644513
O O11 0.916830 0.699341 0.926777
O O12 0.004510 0.252053 0.894810
O O13 0.799234 0.968060 0.179158
O O14 0.500000 0.000000 0.000000
#
# Coordination Sequence:
#
# PCOD9056520 Si02
#       7
#     2   2   2   2   2   2   1
#     4  11  23  45  69 108 155 187 233 295 357 444
#     4  12  24  40  69 110 151 192 235 291 359 438
#     4  11  24  46  75 109 147 197 239 294 370 441
#     4  12  28  48  76 106 148 194 249 302 365 431
#     4  11  27  49  77 106 145 191 244 308 369 434
#     4  11  22  39  66 104 153 196 233 284 354 436
#     4  12  28  54  74 104 146 184 254 322 360 426
#
# _framework density 25.935365999999998
#
# number of rings (size 3 to 8) (size 9 to 14) (size 15 to 20)
#    0.000    0.615    3.077    4.615    6.462    1.231 
#    0.000    3.846    0.000    0.000    0.000    0.000 
#    0.000    0.000    0.000    0.000    0.000    0.000 
#
# Total GULP energy -72456.831234 kJ/mol
# GULP energy per Si atom -5573.602403 kJ/mol
# Density = 2.587634 g / cm^3
# Si number density = 25.935366 Si / 1000 Ang^3
#
#
#
# Elastic Constant Matrix: (Units=GPa)
#
#
# Indices 1 2 3 4 5 6 
#
# 1 136.0420 34.0673 47.2264 6.9263 -21.5395 -3.3355
# 2 34.0673 114.7972 62.8316 2.3082 -18.5759 -28.5095
# 3 47.2264 62.8316 109.8977 3.0664 -6.6815 -3.3631
# 4 6.9263 2.3082 3.0664 49.7730 -0.1813 -24.6553
# 5 -21.5395 -18.5759 -6.6815 -0.1813 54.6502 -2.5968
# 6 -3.3355 -28.5095 -3.3631 -24.6553 -2.5968 44.0483
#
#
#
# Elastic Compliance Matrix: (Units=1/GPa)
#
#
# Indices 1 2 3 4 5 6 
#
# 1 0.009206 -0.000331 -0.003556 -0.001164 0.003065 -0.000259
# 2 -0.000331 0.019353 -0.010275 0.008001 0.006005 0.016549
# 3 -0.003556 -0.010275 0.016164 -0.004081 -0.003319 -0.008165
# 4 -0.001164 0.008001 -0.004081 0.031266 0.002932 0.022452
# 5 0.003065 0.006005 -0.003319 0.002932 0.021473 0.006772
# 6 -0.000259 0.016549 -0.008165 0.022452 0.006772 0.045737
#
#
# Mechanical properties :
#
#
# Convention : Reuss Voigt Hill
#
# Bulk Modulus (GPa) = 60.97251 72.10973 66.54112
# Shear Modulus (GPa) = 28.25025 44.13508 36.19267
#
# Velocity S-wave (km/s) = 3.30397 4.12968 3.73968
# Velocity P-wave (km/s) = 6.17377 7.11358 6.66027
#
# Compressibility (1/GPa) = 0.01640083
#
# Stress axis : x y z
#
# Youngs Moduli (GPa) = 108.62230 51.67071 61.86562
#
# Poissons Ratio (x) = 0.01708 0.22001
# Poissons Ratio (y) = 0.03590 0.63564
# Poissons Ratio (z) = 0.38630 0.53089
#
# Static dielectric constant tensor:
#      x y z
#    x 2.966540 -0.046900 2.221550 
#    y -0.046900 2.105790 -0.229410 
#    z 2.221550 -0.229410 8.005210 
# 
# From -- ./inp_files/34505.got.cif
#   From: 2010.05.17/outbox.cif.g08.bks.cpg/sg2_18_cif.got.tgz:34505.got - 2010.06.03 11:33:40.
