data_PCOD9056572
_publ_section_title
;
Structure prediction by ZEFSAII (Michael W. Deem and Ramdas Pophale) SiO2 
 PCOD9056572
Probable space group: P -1
;
_chemical_formula_sum "Si O2"
_cell_formula_units_Z 16
_cell_length_a 15.984613
_cell_length_b 8.539807
_cell_length_c 8.894924
_cell_angle_alpha 100.494152
_cell_angle_beta 50.735192
_cell_angle_gamma 70.052428
_cell_volume 739.782640
_symmetry_space_group_name_H-M "P -1"
_symmetry_group_IT_number 2
_symmetry_cell_setting 'triclinic'
loop_
_space_group_symop_operation_xyz
x,y,z
-x,-y,-z
loop_
_atom_site_type_symbol
_atom_site_label
_atom_site_fract_x
_atom_site_fract_y
_atom_site_fract_z
Si Si1 0.990568 0.893920 0.347406
Si Si2 0.749531 0.063434 0.445876
Si Si3 0.357635 0.130304 0.267219
Si Si4 0.124849 0.280685 0.353883
Si Si5 0.514727 0.514764 0.162086
Si Si6 0.263375 0.123234 0.867486
Si Si7 0.471566 0.274359 0.383031
Si Si8 0.722850 0.505687 0.100071
O O1 0.928121 0.792517 0.475038
O O2 0.138313 0.714875 0.088246
O O3 0.000000 0.000000 0.500000
O O4 0.880180 0.030585 0.367853
O O5 0.629181 0.290678 0.584373
O O6 0.679874 0.002415 0.632972
O O7 0.783887 0.928017 0.236263
O O8 0.247785 0.263953 0.288841
O O9 0.371231 0.249646 0.400576
O O10 0.500000 0.000000 0.000000
O O11 0.000000 0.500000 0.500000
O O12 0.176925 0.156548 0.119230
O O13 0.540646 0.331450 0.195317
O O14 0.637329 0.526873 0.056057
O O15 0.500000 0.500000 0.000000
O O16 0.255343 0.322360 0.894698
O O17 0.415883 0.932150 0.698077
O O18 0.380401 0.442408 0.638831
#
# Coordination Sequence:
#
# PCOD9056572 Si02
#       8
#     2   2   2   2   2   2   2   2
#     4  11  27  47  70  99 145 184 222 279 348 414
#     4  11  25  45  66 101 137 181 228 281 345 404
#     4  11  22  39  68  97 133 179 231 279 335 402
#     4  11  25  42  68 101 137 181 230 280 336 409
#     4  12  27  42  69 102 141 179 235 280 342 412
#     4  12  24  44  73 100 141 175 233 289 341 395
#     4  12  25  42  71 106 137 179 230 289 346 399
#     4  12  25  46  71 101 140 183 227 282 347 409
#
# _framework density 21.627973999999998
#
# number of rings (size 3 to 8) (size 9 to 14) (size 15 to 20)
#    0.000    0.500    5.000    3.000    5.250    2.500 
#    0.000    1.250    0.000    0.000    0.000    0.000 
#    0.000    0.000    0.000    0.000    0.000    0.000 
#
# Total GULP energy -89473.587867 kJ/mol
# GULP energy per Si atom -5592.099242 kJ/mol
# Density = 2.157875 g / cm^3
# Si number density = 21.627974 Si / 1000 Ang^3
#
#
#
# Elastic Constant Matrix: (Units=GPa)
#
#
# Indices 1 2 3 4 5 6 
#
# 1 144.7506 6.8402 19.5642 29.4636 -4.8693 -17.8327
# 2 6.8402 52.3459 -5.5579 16.1453 -9.5983 -10.3404
# 3 19.5642 -5.5579 106.5909 17.4718 -3.3486 -16.8320
# 4 29.4636 16.1453 17.4718 34.2784 -11.7733 -0.0394
# 5 -4.8693 -9.5983 -3.3486 -11.7733 34.1765 6.3692
# 6 -17.8327 -10.3404 -16.8320 -0.0394 6.3692 26.5573
#
#
#
# Elastic Compliance Matrix: (Units=1/GPa)
#
#
# Indices 1 2 3 4 5 6 
#
# 1 0.010340 0.004458 0.002122 -0.013322 -0.003685 0.010888
# 2 0.004458 0.029711 0.007401 -0.022113 -0.001565 0.019595
# 3 0.002122 0.007401 0.013647 -0.013445 -0.003480 0.013771
# 4 -0.013322 -0.022113 -0.013445 0.064155 0.018336 -0.030380
# 5 -0.003685 -0.001565 -0.003480 0.018336 0.036901 -0.014112
# 6 0.010888 0.019595 0.013771 -0.030380 -0.014112 0.064662
#
#
# Mechanical properties :
#
#
# Convention : Reuss Voigt Hill
#
# Bulk Modulus (GPa) = 12.24586 38.37561 25.31073
# Shear Modulus (GPa) = 22.86494 37.85849 30.36172
#
# Velocity S-wave (km/s) = 3.25498 4.18837 3.75082
# Velocity P-wave (km/s) = 4.44981 6.41653 5.52145
#
# Compressibility (1/GPa) = 0.08166026
#
# Stress axis : x y z
#
# Youngs Moduli (GPa) = 96.71128 33.65727 73.27525
#
# Poissons Ratio (x) = -0.15005 -0.15548
# Poissons Ratio (y) = -0.43116 -0.54229
# Poissons Ratio (z) = -0.20521 -0.24909
#
# Static dielectric constant tensor:
#      x y z
#    x 1.974140 -0.268450 0.126610 
#    y -0.268450 2.500680 -0.263090 
#    z 0.126610 -0.263090 1.880960 
# 
# From -- ./inp_files/190674.got.cif
#   From: 2010.05.17/outbox.cif.g08.bks.cpg/sg2_96_cif.got.tgz:190674.got - 2010.06.03 11:33:40.
