data_PCOD9056222
_publ_section_title
;
Structure prediction by ZEFSAII (Michael W. Deem and Ramdas Pophale) SiO2 
 PCOD9056222
Probable space group: P -1
;
_chemical_formula_sum "Si O2"
_cell_formula_units_Z 16
_cell_length_a 8.959814
_cell_length_b 15.659822
_cell_length_c 13.340257
_cell_angle_alpha 128.967662
_cell_angle_beta 52.353131
_cell_angle_gamma 152.652582
_cell_volume 661.362913
_symmetry_space_group_name_H-M "P -1"
_symmetry_group_IT_number 2
_symmetry_cell_setting 'triclinic'
loop_
_space_group_symop_operation_xyz
x,y,z
-x,-y,-z
loop_
_atom_site_type_symbol
_atom_site_label
_atom_site_fract_x
_atom_site_fract_y
_atom_site_fract_z
Si Si1 0.464639 0.106090 0.056846
Si Si2 0.069321 0.663939 0.530580
Si Si3 0.673545 0.195822 0.820223
Si Si4 0.580511 0.385052 0.688053
Si Si5 0.272933 0.558275 0.702920
Si Si6 0.033217 0.176674 0.403127
Si Si7 0.252478 0.155400 0.833804
Si Si8 0.974284 0.120628 0.612226
O O1 0.602309 0.258223 0.193900
O O2 0.672095 0.223550 0.957891
O O3 0.076402 0.939266 0.069151
O O4 0.500000 0.000000 0.000000
O O5 0.881443 0.586786 0.655774
O O6 0.838877 0.512979 0.419477
O O7 0.182472 0.834402 0.569466
O O8 0.346035 0.703627 0.449379
O O9 0.386533 0.133786 0.844004
O O10 0.673451 0.061133 0.716046
O O11 0.985319 0.387182 0.769918
O O12 0.533851 0.357383 0.807097
O O13 0.247629 0.274634 0.697730
O O14 0.599608 0.645002 0.658430
O O15 0.069327 0.208498 0.528673
O O16 0.881947 0.987327 0.304347
O O17 0.000000 0.000000 0.500000
#
# Coordination Sequence:
#
# PCOD9056222 Si02
#       8
#     2   2   2   2   2   2   2   2
#     4  11  27  48  70  96 127 175 235 285 326 381
#     4  11  22  38  63 100 141 173 211 269 337 403
#     4  12  25  45  71  93 135 182 225 272 329 396
#     4  11  22  36  60  97 140 167 214 268 330 388
#     4  11  22  43  69  94 130 177 222 266 332 401
#     4  11  22  39  63  99 138 173 214 265 333 409
#     4  11  24  44  68  98 135 175 225 270 330 394
#     4  12  23  35  66 100 135 173 217 268 338 391
#
# _framework density 24.192466
#
# number of rings (size 3 to 8) (size 9 to 14) (size 15 to 20)
#    0.000    0.750    5.000    2.625    3.500    1.000 
#    2.250    0.625    2.750    0.000    0.000    0.000 
#    0.000    0.000    0.000    0.000    0.000    0.000 
#
# Total GULP energy -89334.585963 kJ/mol
# GULP energy per Si atom -5583.411623 kJ/mol
# Density = 2.413740 g / cm^3
# Si number density = 24.192466 Si / 1000 Ang^3
#
#
#
# Elastic Constant Matrix: (Units=GPa)
#
#
# Indices 1 2 3 4 5 6 
#
# 1 136.9192 19.4118 16.8830 -7.8522 -25.3313 -5.7312
# 2 19.4118 73.2339 12.1654 -15.9478 -9.3816 -8.8934
# 3 16.8830 12.1654 52.1800 1.1428 -10.8990 -7.8877
# 4 -7.8522 -15.9478 1.1428 25.2873 -2.4711 1.0857
# 5 -25.3313 -9.3816 -10.8990 -2.4711 43.7767 -3.6682
# 6 -5.7312 -8.8934 -7.8877 1.0857 -3.6682 38.4133
#
#
#
# Elastic Compliance Matrix: (Units=1/GPa)
#
#
# Indices 1 2 3 4 5 6 
#
# 1 0.008676 -0.000696 -0.001533 0.002736 0.004744 0.001194
# 2 -0.000696 0.017637 -0.002868 0.011240 0.003583 0.003415
# 3 -0.001533 -0.002868 0.021871 -0.003047 0.004113 0.004077
# 4 0.002736 0.011240 -0.003047 0.048148 0.006086 0.001605
# 5 0.004744 0.003583 0.004113 0.006086 0.028134 0.004897
# 6 0.001194 0.003415 0.004077 0.001605 0.004897 0.028261
#
#
# Mechanical properties :
#
#
# Convention : Reuss Voigt Hill
#
# Bulk Modulus (GPa) = 26.32349 39.91706 33.12028
# Shear Modulus (GPa) = 28.47608 35.75365 32.11486
#
# Velocity S-wave (km/s) = 3.43456 3.84850 3.64740
# Velocity P-wave (km/s) = 5.16069 6.02358 5.60875
#
# Compressibility (1/GPa) = 0.03798888
#
# Stress axis : x y z
#
# Youngs Moduli (GPa) = 115.26127 56.69763 45.72187
#
# Poissons Ratio (x) = 0.03948 0.07011
# Poissons Ratio (y) = 0.08026 0.13114
# Poissons Ratio (z) = 0.17674 0.16262
#
# Static dielectric constant tensor:
#      x y z
#    x 1.937020 0.005490 -0.030890 
#    y 0.005490 1.977030 0.010050 
#    z -0.030890 0.010050 1.931520 
# 
# From -- ./inp_files/399802.got.cif
#   From: 2010.05.17/outbox.cif.g08.bks.cpg/sg2_200_cif.got.tgz:399802.got - 2010.06.03 11:33:40.
