data_PCOD9056915
_publ_section_title
;
Structure prediction by ZEFSAII (Michael W. Deem and Ramdas Pophale) SiO2 
 PCOD9056915
Probable space group: P -1
;
_chemical_formula_sum "Si O2"
_cell_formula_units_Z 16
_cell_length_a 11.328527
_cell_length_b 8.774328
_cell_length_c 7.887378
_cell_angle_alpha 72.413993
_cell_angle_beta 106.076364
_cell_angle_gamma 99.814303
_cell_volume 714.908448
_symmetry_space_group_name_H-M "P -1"
_symmetry_group_IT_number 2
_symmetry_cell_setting 'triclinic'
loop_
_space_group_symop_operation_xyz
x,y,z
-x,-y,-z
loop_
_atom_site_type_symbol
_atom_site_label
_atom_site_fract_x
_atom_site_fract_y
_atom_site_fract_z
Si Si1 0.104660 0.380015 0.061654
Si Si2 0.278286 0.800487 0.753175
Si Si3 0.693031 0.815151 0.335071
Si Si4 0.059218 0.190197 0.766967
Si Si5 0.513768 0.359042 0.912013
Si Si6 0.685786 0.534854 0.676834
Si Si7 0.979073 0.113557 0.291491
Si Si8 0.136365 0.607535 0.479089
O O1 0.241933 0.452949 0.119573
O O2 0.087626 0.245483 0.247008
O O3 0.090740 0.296311 0.905204
O O4 0.000000 0.500000 0.000000
O O5 0.141335 0.793686 0.777111
O O6 0.243950 0.666252 0.637533
O O7 0.305610 0.996366 0.673998
O O8 0.387169 0.748831 0.929492
O O9 0.829177 0.780073 0.333045
O O10 0.605624 0.757113 0.159778
O O11 0.660533 0.699495 0.520459
O O12 0.924525 0.229974 0.641392
O O13 0.047287 0.000299 0.841695
O O14 0.563180 0.434074 0.726282
O O15 0.500000 0.500000 0.000000
O O16 0.785387 0.457204 0.621363
O O17 0.000000 0.000000 0.500000
O O18 0.000000 0.500000 0.500000
#
# Coordination Sequence:
#
# PCOD9056915 Si02
#       8
#     2   2   2   2   2   2   2   2
#     4  12  23  37  61 101 139 181 228 283 347 423
#     4  11  25  44  73 102 137 189 231 292 356 415
#     4  11  25  48  70 100 140 190 238 289 348 417
#     4  11  23  39  66 101 144 181 224 285 356 421
#     4  12  27  50  73  98 140 188 249 296 340 404
#     4  12  25  42  71 102 138 183 237 291 351 419
#     4  11  22  41  64  99 144 182 223 279 359 430
#     4  12  23  41  71 107 146 176 228 283 370 424
#
# _framework density 22.380486999999999
#
# number of rings (size 3 to 8) (size 9 to 14) (size 15 to 20)
#    0.000    0.500    3.750    5.625    1.750    0.000 
#    0.000    3.750    0.000    0.000    0.000    0.000 
#    0.000    0.000    0.000    0.000    0.000    0.000 
#
# Total GULP energy -89132.499361 kJ/mol
# GULP energy per Si atom -5570.781210 kJ/mol
# Density = 2.232955 g / cm^3
# Si number density = 22.380487 Si / 1000 Ang^3
#
#
#
# Elastic Constant Matrix: (Units=GPa)
#
#
# Indices 1 2 3 4 5 6 
#
# 1 70.8686 24.1686 27.1738 -3.4465 -6.8574 8.2547
# 2 24.1686 89.6908 29.7686 22.3235 -14.4756 0.2929
# 3 27.1738 29.7686 101.9743 9.0951 8.4119 2.0096
# 4 -3.4465 22.3235 9.0951 46.3232 8.7178 6.7557
# 5 -6.8574 -14.4756 8.4119 8.7178 34.8267 10.2401
# 6 8.2547 0.2929 2.0096 6.7557 10.2401 37.8632
#
#
#
# Elastic Compliance Matrix: (Units=1/GPa)
#
#
# Indices 1 2 3 4 5 6 
#
# 1 0.018287 -0.003983 -0.004272 0.004251 0.003511 -0.005437
# 2 -0.003983 0.017632 -0.004028 -0.009883 0.009989 0.000008
# 3 -0.004272 -0.004028 0.012586 0.000022 -0.006134 0.001949
# 4 0.004251 -0.009883 0.000022 0.028955 -0.009511 -0.003445
# 5 0.003511 0.009989 -0.006134 -0.009511 0.040275 -0.009713
# 6 -0.005437 0.000008 0.001949 -0.003445 -0.009713 0.030734
#
#
# Mechanical properties :
#
#
# Convention : Reuss Voigt Hill
#
# Bulk Modulus (GPa) = 41.77468 47.19508 44.48488
# Shear Modulus (GPa) = 27.62188 35.89747 31.75968
#
# Velocity S-wave (km/s) = 3.51692 4.00930 3.77115
# Velocity P-wave (km/s) = 5.93278 6.52426 6.23554
#
# Compressibility (1/GPa) = 0.02393794
#
# Stress axis : x y z
#
# Youngs Moduli (GPa) = 54.68372 56.71545 79.45154
#
# Poissons Ratio (x) = 0.22592 0.33940
# Poissons Ratio (y) = 0.21783 0.32005
# Poissons Ratio (z) = 0.23360 0.22847
#
# Static dielectric constant tensor:
#      x y z
#    x 1.863230 0.012450 -0.044380 
#    y 0.012450 1.902470 0.017720 
#    z -0.044380 0.017720 1.912510 
# 
# From -- ./inp_files/243140.got.cif
#   From: 2010.05.17/outbox.cif.g08.bks.cpg/sg2_122_cif.got.tgz:243140.got - 2010.06.03 11:33:40.
