data_PCOD9056958
_publ_section_title
;
Structure prediction by ZEFSAII (Michael W. Deem and Ramdas Pophale) SiO2 
 PCOD9056958
Probable space group: P -1
;
_chemical_formula_sum "Si O2"
_cell_formula_units_Z 14
_cell_length_a 6.903633
_cell_length_b 14.334351
_cell_length_c 13.111374
_cell_angle_alpha 148.319718
_cell_angle_beta 87.345471
_cell_angle_gamma 78.841656
_cell_volume 609.907245
_symmetry_space_group_name_H-M "P -1"
_symmetry_group_IT_number 2
_symmetry_cell_setting 'triclinic'
loop_
_space_group_symop_operation_xyz
x,y,z
-x,-y,-z
loop_
_atom_site_type_symbol
_atom_site_label
_atom_site_fract_x
_atom_site_fract_y
_atom_site_fract_z
Si Si1 0.117470 0.125450 0.160197
Si Si2 0.733080 0.473839 0.937821
Si Si3 0.570774 0.897325 0.269958
Si Si4 0.113433 0.890393 0.291089
Si Si5 0.563682 0.846938 0.992387
Si Si6 0.656653 0.428102 0.528176
Si Si7 0.278449 0.804322 0.496669
O O1 0.260220 0.153082 0.092190
O O2 0.911490 0.320194 0.389571
O O3 0.314872 0.002804 0.119192
O O4 0.000000 0.000000 0.000000
O O5 0.862303 0.328524 0.891869
O O6 0.764728 0.355946 0.719462
O O7 0.500000 0.500000 0.000000
O O8 0.720242 0.689864 0.128139
O O9 0.333134 0.910012 0.294140
O O10 0.588160 0.100344 0.482425
O O11 0.627319 0.875512 0.129632
O O12 0.000000 0.000000 0.500000
O O13 0.955666 0.007998 0.313641
O O14 0.585073 0.628267 0.778680
O O15 0.500000 0.500000 0.500000
O O16 0.627486 0.281225 0.474454
#
# Coordination Sequence:
#
# PCOD9056958 Si02
#       7
#     2   2   2   2   2   2   2
#     4  11  23  42  65  93 131 180 232 282 333 396
#     4   9  20  40  65  93 125 163 212 270 328 397
#     4  11  22  41  66  95 132 171 216 274 340 401
#     4   9  21  41  66  94 128 167 215 276 335 399
#     4  11  24  42  67  96 134 182 227 279 338 400
#     4  12  24  44  67  98 138 182 228 277 338 404
#     4  11  23  42  65  95 131 171 219 273 332 398
#
# _framework density 22.95431
#
# number of rings (size 3 to 8) (size 9 to 14) (size 15 to 20)
#    0.000    1.429    2.857    2.143    2.000    5.714 
#    2.571    4.286    0.000    0.000    0.000    0.000 
#    0.000    0.000    0.000    0.000    0.000    0.000 
#
# Total GULP energy -78051.461148 kJ/mol
# GULP energy per Si atom -5575.104368 kJ/mol
# Density = 2.290206 g / cm^3
# Si number density = 22.954310 Si / 1000 Ang^3
#
#
#
# Elastic Constant Matrix: (Units=GPa)
#
#
# Indices 1 2 3 4 5 6 
#
# 1 138.3663 26.2949 20.7029 28.3385 -10.6673 7.6703
# 2 26.2949 118.5086 40.9375 37.0485 -0.3917 10.1267
# 3 20.7029 40.9375 68.8694 12.2323 -13.1994 -5.7733
# 4 28.3385 37.0485 12.2323 39.1799 -0.8330 2.7369
# 5 -10.6673 -0.3917 -13.1994 -0.8330 39.6857 4.1650
# 6 7.6703 10.1267 -5.7733 2.7369 4.1650 27.9708
#
#
#
# Elastic Compliance Matrix: (Units=1/GPa)
#
#
# Indices 1 2 3 4 5 6 
#
# 1 0.008994 0.001012 -0.002008 -0.006593 0.001925 -0.002889
# 2 0.001012 0.015401 -0.008133 -0.012375 -0.001907 -0.006037
# 3 -0.002008 -0.008133 0.021254 0.002154 0.005780 0.006811
# 4 -0.006593 -0.012375 0.002154 0.041113 -0.000609 0.002801
# 5 0.001925 -0.001907 0.005780 -0.000609 0.027893 -0.002738
# 6 -0.002889 -0.006037 0.006811 0.002801 -0.002738 0.040269
#
#
# Mechanical properties :
#
#
# Convention : Reuss Voigt Hill
#
# Bulk Modulus (GPa) = 36.50549 55.73499 46.12024
# Shear Modulus (GPa) = 27.42542 37.22121 32.32331
#
# Velocity S-wave (km/s) = 3.46031 4.03120 3.75662
# Velocity P-wave (km/s) = 5.64828 6.78240 6.24116
#
# Compressibility (1/GPa) = 0.02739314
#
# Stress axis : x y z
#
# Youngs Moduli (GPa) = 111.18486 64.92902 47.04962
#
# Poissons Ratio (x) = -0.06572 0.09446
# Poissons Ratio (y) = -0.11255 0.38264
# Poissons Ratio (z) = 0.22323 0.52805
#
# Static dielectric constant tensor:
#      x y z
#    x 1.937040 -0.075010 0.058000 
#    y -0.075010 1.989650 -0.008450 
#    z 0.058000 -0.008450 1.992690 
# 
# From -- ./inp_files/97923.got.cif
#   From: 2010.05.17/outbox.cif.g08.bks.cpg/sg2_49_cif.got.tgz:97923.got - 2010.06.03 11:33:40.
