data_PCOD9056060
_publ_section_title
;
Structure prediction by ZEFSAII (Michael W. Deem and Ramdas Pophale) SiO2 
 PCOD9056060
Probable space group: P -1
;
_chemical_formula_sum "Si O2"
_cell_formula_units_Z 15
_cell_length_a 17.611795
_cell_length_b 12.862809
_cell_length_c 17.568320
_cell_angle_alpha 30.000580
_cell_angle_beta 150.014126
_cell_angle_gamma 158.229141
_cell_volume 695.747827
_symmetry_space_group_name_H-M "P -1"
_symmetry_group_IT_number 2
_symmetry_cell_setting 'triclinic'
loop_
_space_group_symop_operation_xyz
x,y,z
-x,-y,-z
loop_
_atom_site_type_symbol
_atom_site_label
_atom_site_fract_x
_atom_site_fract_y
_atom_site_fract_z
Si Si1 0.502963 0.249874 0.852976
Si Si2 0.588344 0.073969 0.351368
Si Si3 0.814009 0.229784 0.907088
Si Si4 0.329454 0.292866 0.416249
Si Si5 0.116539 0.290240 0.013245
Si Si6 0.057437 0.873293 0.761668
Si Si7 0.016309 0.722991 0.264187
Si Si8 0.500000 0.000000 0.500000
O O1 0.639348 0.484648 0.754992
O O2 0.260228 0.102301 0.736922
O O3 0.630590 0.434947 0.922631
O O4 0.500000 0.000000 0.000000
O O5 0.487103 0.994397 0.397644
O O6 0.819843 0.414694 0.330710
O O7 0.420199 0.001847 0.188788
O O8 0.624456 0.871185 0.485601
O O9 0.983444 0.299463 0.950615
O O10 0.892597 0.540894 0.795697
O O11 0.838535 0.126283 0.072280
O O12 0.500000 0.500000 0.500000
O O13 0.085123 0.066216 0.380129
O O14 0.060439 0.307621 0.869243
O O15 0.055576 0.990617 0.162871
O O16 0.243743 0.825550 0.395685
#
# Coordination Sequence:
#
# PCOD9056060 Si02
#       8
#     2   2   2   2   2   2   2   1
#     4  12  24  43  76 104 143 193 235 292 363 432
#     4  12  27  48  71 102 150 194 235 307 365 421
#     4  11  21  45  73 103 143 183 240 297 350 441
#     4  12  27  44  69 110 149 179 242 295 362 441
#     4  11  23  47  72 107 137 180 255 294 345 443
#     4  11  23  43  73 106 142 190 230 290 370 433
#     4  11  27  47  74 100 140 191 240 306 356 420
#     4  12  26  48  68 100 142 192 246 294 358 432
#
# _framework density 21.559536999999999
#
# number of rings (size 3 to 8) (size 9 to 14) (size 15 to 20)
#    0.000    0.533    5.333    2.800    1.867    3.200 
#    4.800    0.000    0.000    0.000    0.000    0.000 
#    0.000    0.000    0.000    0.000    0.000    0.000 
#
# Total GULP energy -83682.905153 kJ/mol
# GULP energy per Si atom -5578.860344 kJ/mol
# Density = 2.151047 g / cm^3
# Si number density = 21.559537 Si / 1000 Ang^3
#
#
#
# Elastic Constant Matrix: (Units=GPa)
#
#
# Indices 1 2 3 4 5 6 
#
# 1 103.2399 12.9264 20.3296 -2.5654 10.9977 7.0137
# 2 12.9264 68.0538 37.0305 21.7840 -10.3255 -0.5458
# 3 20.3296 37.0305 61.8145 15.0125 2.7696 -1.5557
# 4 -2.5654 21.7840 15.0125 43.1211 2.1475 4.8408
# 5 10.9977 -10.3255 2.7696 2.1475 19.1276 17.2063
# 6 7.0137 -0.5458 -1.5557 4.8408 17.2063 37.4268
#
#
#
# Elastic Compliance Matrix: (Units=1/GPa)
#
#
# Indices 1 2 3 4 5 6 
#
# 1 0.011670 -0.004193 -0.001653 0.003681 -0.011313 0.002408
# 2 -0.004193 0.036108 -0.019668 -0.011795 0.041363 -0.016996
# 3 -0.001653 -0.019668 0.030214 -0.000884 -0.025912 0.013306
# 4 0.003681 -0.011795 -0.000884 0.030193 -0.012660 0.001016
# 5 -0.011313 0.041363 -0.025912 -0.012660 0.142097 -0.062043
# 6 0.002408 -0.016996 0.013306 0.001016 -0.062043 0.054964
#
#
# Mechanical properties :
#
#
# Convention : Reuss Voigt Hill
#
# Bulk Modulus (GPa) = 37.08603 41.52013 39.30308
# Shear Modulus (GPa) = 13.68884 30.78989 22.23936
#
# Velocity S-wave (km/s) = 2.52252 3.78316 3.21523
# Velocity P-wave (km/s) = 5.07180 6.19542 5.66156
#
# Compressibility (1/GPa) = 0.02696433
#
# Stress axis : x y z
#
# Youngs Moduli (GPa) = 85.69285 27.69472 33.09724
#
# Poissons Ratio (x) = 0.11612 0.05470
# Poissons Ratio (y) = 0.35929 0.65096
# Poissons Ratio (z) = 0.14162 0.54471
#
# Static dielectric constant tensor:
#      x y z
#    x 1.757710 -0.004300 -0.021050 
#    y -0.004300 1.777230 0.011940 
#    z -0.021050 0.011940 1.820300 
# 
# From -- ./inp_files/575930.got.cif
#   From: 2010.05.17/outbox.cif.g08.bks.cpg/sg2_288_cif.got.tgz:575930.got - 2010.06.03 11:33:40.
