data_PCOD9056218
_publ_section_title
;
Structure prediction by ZEFSAII (Michael W. Deem and Ramdas Pophale) SiO2 
 PCOD9056218
Probable space group: P -1
;
_chemical_formula_sum "Si O2"
_cell_formula_units_Z 16
_cell_length_a 10.577208
_cell_length_b 10.761805
_cell_length_c 11.810287
_cell_angle_alpha 107.908959
_cell_angle_beta 74.579230
_cell_angle_gamma 45.058246
_cell_volume 630.895000
_symmetry_space_group_name_H-M "P -1"
_symmetry_group_IT_number 2
_symmetry_cell_setting 'triclinic'
loop_
_space_group_symop_operation_xyz
x,y,z
-x,-y,-z
loop_
_atom_site_type_symbol
_atom_site_label
_atom_site_fract_x
_atom_site_fract_y
_atom_site_fract_z
Si Si1 0.988918 0.817868 0.964989
Si Si2 0.356491 0.140155 0.899514
Si Si3 0.253343 0.703796 0.531973
Si Si4 0.889707 0.257354 0.827712
Si Si5 0.202956 0.364929 0.241220
Si Si6 0.526758 0.599240 0.815831
Si Si7 0.784231 0.510472 0.394699
Si Si8 0.332962 0.076032 0.657794
O O1 0.810400 0.845856 0.038214
O O2 0.120735 0.733337 0.030540
O O3 0.771482 0.108438 0.055572
O O4 0.177543 0.603615 0.762886
O O5 0.649843 0.850446 0.762067
O O6 0.301598 0.213102 0.801720
O O7 0.311215 0.258527 0.057357
O O8 0.500000 0.500000 0.500000
O O9 0.370252 0.598613 0.349217
O O10 0.124498 0.675807 0.589669
O O11 0.053675 0.990509 0.677928
O O12 0.621631 0.491810 0.890431
O O13 0.062858 0.236382 0.744006
O O14 0.295036 0.429186 0.268923
O O15 0.937553 0.515366 0.347372
O O16 0.502492 0.803380 0.575083
O O17 0.500000 0.000000 0.500000
#
# Coordination Sequence:
#
# PCOD9056218 Si02
#       8
#     2   2   2   2   2   2   2   2
#     4   9  20  40  65  91 127 168 204 258 312 372
#     4   8  17  35  58  86 128 163 196 242 321 372
#     4  12  23  44  66  87 125 175 209 255 313 374
#     4  11  23  43  64  91 126 170 211 254 315 370
#     4   9  18  35  61  92 120 158 202 260 305 365
#     4  11  22  41  68  91 126 167 209 256 319 372
#     4  11  22  38  65  95 124 167 213 253 317 372
#     4  11  22  36  59  95 129 162 205 258 311 372
#
# _framework density 25.360799
#
# number of rings (size 3 to 8) (size 9 to 14) (size 15 to 20)
#    0.000    1.750    2.500    3.375    0.000    4.500 
#    0.000    5.625    0.000    0.000    0.000    0.000 
#    0.000    0.000    0.000    0.000    0.000    0.000 
#
# Total GULP energy -89305.622111 kJ/mol
# GULP energy per Si atom -5581.601382 kJ/mol
# Density = 2.530308 g / cm^3
# Si number density = 25.360799 Si / 1000 Ang^3
#
#
#
# Elastic Constant Matrix: (Units=GPa)
#
#
# Indices 1 2 3 4 5 6 
#
# 1 84.7185 42.1377 28.5276 -14.1352 -4.3360 -6.0350
# 2 42.1377 123.7190 37.3432 4.8653 8.9709 -23.5166
# 3 28.5276 37.3432 95.6508 -20.5879 28.8586 -20.5124
# 4 -14.1352 4.8653 -20.5879 49.0712 3.3220 -1.7318
# 5 -4.3360 8.9709 28.8586 3.3220 38.0429 -7.9467
# 6 -6.0350 -23.5166 -20.5124 -1.7318 -7.9467 51.4984
#
#
#
# Elastic Compliance Matrix: (Units=1/GPa)
#
#
# Indices 1 2 3 4 5 6 
#
# 1 0.016495 -0.005075 -0.004280 0.003026 0.005832 -0.001087
# 2 -0.005075 0.011527 -0.003125 -0.003806 0.000098 0.003311
# 3 -0.004280 -0.003125 0.020240 0.008730 -0.015008 0.004111
# 4 0.003026 -0.003806 0.008730 0.025846 -0.007252 0.001844
# 5 0.005832 0.000098 -0.015008 -0.007252 0.039057 0.000533
# 6 -0.001087 0.003311 0.004111 0.001844 0.000533 0.022584
#
#
# Mechanical properties :
#
#
# Convention : Reuss Voigt Hill
#
# Bulk Modulus (GPa) = 42.91521 57.78948 50.35234
# Shear Modulus (GPa) = 29.67789 40.79449 35.23619
#
# Velocity S-wave (km/s) = 3.42457 4.01504 3.73150
# Velocity P-wave (km/s) = 5.70925 6.65811 6.20185
#
# Compressibility (1/GPa) = 0.02330176
#
# Stress axis : x y z
#
# Youngs Moduli (GPa) = 60.62453 86.75642 49.40756
#
# Poissons Ratio (x) = 0.44027 0.21145
# Poissons Ratio (y) = 0.30766 0.15441
# Poissons Ratio (z) = 0.25946 0.27113
#
# Static dielectric constant tensor:
#      x y z
#    x 2.064160 0.009300 0.031230 
#    y 0.009300 2.108400 -0.014900 
#    z 0.031230 -0.014900 1.971440 
# 
# From -- ./inp_files/402309.got.cif
#   From: 2010.05.17/outbox.cif.g08.bks.cpg/sg2_202_cif.got.tgz:402309.got - 2010.06.03 11:33:40.
