data_PCOD9056043
_publ_section_title
;
Structure prediction by ZEFSAII (Michael W. Deem and Ramdas Pophale) SiO2 
 PCOD9056043
Probable space group: P -1
;
_chemical_formula_sum "Si O2"
_cell_formula_units_Z 16
_cell_length_a 8.571649
_cell_length_b 8.419011
_cell_length_c 12.479495
_cell_angle_alpha 106.208642
_cell_angle_beta 107.878374
_cell_angle_gamma 49.357613
_cell_volume 646.431412
_symmetry_space_group_name_H-M "P -1"
_symmetry_group_IT_number 2
_symmetry_cell_setting 'triclinic'
loop_
_space_group_symop_operation_xyz
x,y,z
-x,-y,-z
loop_
_atom_site_type_symbol
_atom_site_label
_atom_site_fract_x
_atom_site_fract_y
_atom_site_fract_z
Si Si1 0.114856 0.857061 0.297684
Si Si2 0.403421 0.891122 0.638061
Si Si3 0.415378 0.269330 0.941884
Si Si4 0.138014 0.605985 0.794343
Si Si5 0.263465 0.008687 0.877246
Si Si6 0.233669 0.677595 0.609254
Si Si7 0.680302 0.004827 0.741771
Si Si8 0.995526 0.350154 0.611614
O O1 0.132814 0.679141 0.334509
O O2 0.311822 0.844956 0.308516
O O3 0.975782 0.891273 0.171580
O O4 0.966921 0.074121 0.374252
O O5 0.366147 0.923732 0.765371
O O6 0.389434 0.703013 0.583589
O O7 0.603367 0.878481 0.653225
O O8 0.208940 0.114082 0.590644
O O9 0.257318 0.506975 0.912407
O O10 0.290283 0.186299 0.943396
O O11 0.530082 0.144758 0.833100
O O12 0.599995 0.182996 0.048309
O O13 0.272196 0.606249 0.727521
O O14 0.070901 0.469089 0.706378
O O15 0.916441 0.835041 0.800310
O O16 0.149195 0.570399 0.508427
#
# Coordination Sequence:
#
# PCOD9056043 Si02
#       8
#     2   2   2   2   2   2   2   2
#     4   9  17  34  55  83 110 142 181 223 268 320
#     4   9  17  38  56  79 111 145 179 223 268 321
#     4  10  18  37  58  79 109 148 176 219 274 321
#     4  11  20  36  56  84 111 138 181 228 266 320
#     4   8  16  33  61  77 106 148 179 214 271 325
#     4   9  19  33  58  81 107 145 183 220 273 322
#     4  10  21  35  55  81 115 140 179 228 266 313
#     4  10  17  36  60  76 108 151 177 220 277 319
#
# _framework density 24.751273000000001
#
# number of rings (size 3 to 8) (size 9 to 14) (size 15 to 20)
#    0.000    2.750    3.750    1.875    0.000    0.500 
#    2.250   17.500    0.000    0.000    0.000    0.000 
#    0.000    0.000    0.000    0.000    0.000    0.000 
#
# Total GULP energy -89285.874101 kJ/mol
# GULP energy per Si atom -5580.367131 kJ/mol
# Density = 2.469494 g / cm^3
# Si number density = 24.751273 Si / 1000 Ang^3
#
#
#
# Elastic Constant Matrix: (Units=GPa)
#
#
# Indices 1 2 3 4 5 6 
#
# 1 123.6970 15.0581 6.2844 -7.7427 3.1641 20.2841
# 2 15.0581 45.3772 -16.5560 -7.2689 -5.3867 -4.4918
# 3 6.2844 -16.5560 55.5583 -15.8784 10.9960 5.7686
# 4 -7.7427 -7.2689 -15.8784 34.1167 3.3863 3.4164
# 5 3.1641 -5.3867 10.9960 3.3863 13.9643 -5.3685
# 6 20.2841 -4.4918 5.7686 3.4164 -5.3685 37.1527
#
#
#
# Elastic Compliance Matrix: (Units=1/GPa)
#
#
# Indices 1 2 3 4 5 6 
#
# 1 0.010294 -0.004227 0.001197 0.003665 -0.008845 -0.007932
# 2 -0.004227 0.029871 0.011433 0.010133 0.002388 0.003557
# 3 0.001197 0.011433 0.036502 0.024424 -0.035247 -0.012278
# 4 0.003665 0.010133 0.024424 0.048346 -0.033187 -0.013809
# 5 -0.008845 0.002388 -0.035247 -0.033187 0.122382 0.031326
# 6 -0.007932 0.003557 -0.012278 -0.013809 0.031326 0.039380
#
#
# Mechanical properties :
#
#
# Convention : Reuss Voigt Hill
#
# Bulk Modulus (GPa) = 10.69811 26.02284 18.36048
# Shear Modulus (GPa) = 16.60437 31.70315 24.15376
#
# Velocity S-wave (km/s) = 2.59289 3.58281 3.12726
# Velocity P-wave (km/s) = 3.64633 5.25851 4.52480
#
# Compressibility (1/GPa) = 0.09347442
#
# Stress axis : x y z
#
# Youngs Moduli (GPa) = 97.13948 33.47780 27.39571
#
# Poissons Ratio (x) = 0.14152 -0.03281
# Poissons Ratio (y) = 0.41063 -0.31323
# Poissons Ratio (z) = -0.11632 -0.38277
#
# Static dielectric constant tensor:
#      x y z
#    x 2.052850 0.014300 0.029410 
#    y 0.014300 1.998240 -0.014830 
#    z 0.029410 -0.014830 1.971770 
# 
# From -- ./inp_files/495252.got.cif
#   From: 2010.05.17/outbox.cif.g08.bks.cpg/sg2_248_cif.got.tgz:495252.got - 2010.06.03 11:33:40.
