data_PCOD9056425
_publ_section_title
;
Structure prediction by ZEFSAII (Michael W. Deem and Ramdas Pophale) SiO2 
 PCOD9056425
Probable space group: P -1
;
_chemical_formula_sum "Si O2"
_cell_formula_units_Z 16
_cell_length_a 18.723028
_cell_length_b 12.012014
_cell_length_c 14.054066
_cell_angle_alpha 29.465506
_cell_angle_beta 29.162228
_cell_angle_gamma 47.942446
_cell_volume 701.655711
_symmetry_space_group_name_H-M "P -1"
_symmetry_group_IT_number 2
_symmetry_cell_setting 'triclinic'
loop_
_space_group_symop_operation_xyz
x,y,z
-x,-y,-z
loop_
_atom_site_type_symbol
_atom_site_label
_atom_site_fract_x
_atom_site_fract_y
_atom_site_fract_z
Si Si1 0.639495 0.152560 0.364443
Si Si2 0.174219 0.351455 0.157417
Si Si3 0.142505 0.730396 0.343906
Si Si4 0.412720 0.772858 0.339905
Si Si5 0.274712 0.241141 0.920757
Si Si6 0.301144 0.956504 0.821907
Si Si7 0.408107 0.497505 0.209844
Si Si8 0.289916 0.090678 0.369945
O O1 0.452880 0.997201 0.683874
O O2 0.697357 0.206026 0.149369
O O3 0.729396 0.008222 0.425723
O O4 0.670555 0.404457 0.193468
O O5 0.178260 0.177248 0.369885
O O6 0.024632 0.422320 0.300579
O O7 0.180865 0.247457 0.122681
O O8 0.262189 0.588560 0.310789
O O9 0.196521 0.987961 0.145677
O O10 0.146237 0.820022 0.164209
O O11 0.310031 0.495371 0.633208
O O12 0.556596 0.755611 0.245174
O O13 0.305796 0.868780 0.458044
O O14 0.500000 0.000000 0.000000
O O15 0.338959 0.224123 0.536019
O O16 0.500000 0.500000 0.000000
O O17 0.541961 0.681045 0.986698
#
# Coordination Sequence:
#
# PCOD9056425 Si02
#       8
#     2   2   2   2   2   2   2   2
#     4  11  22  43  71 100 132 176 230 282 338 405
#     4  12  27  44  67 100 145 184 216 284 353 400
#     4  12  28  45  65 104 141 179 229 282 343 406
#     4  11  22  38  69 106 125 169 238 286 323 395
#     4  11  24  43  68  96 140 181 225 279 341 405
#     4  11  23  42  71 101 128 177 235 282 332 405
#     4  12  23  43  72 100 131 179 230 280 333 407
#     4  12  22  41  69  99 133 174 230 276 336 406
#
# _framework density 22.803207
#
# number of rings (size 3 to 8) (size 9 to 14) (size 15 to 20)
#    0.000    0.500    7.500    1.125    3.500    1.500 
#    0.000    1.875    0.000    0.000    0.000    0.000 
#    0.000    0.000    0.000    0.000    0.000    0.000 
#
# Total GULP energy -89291.185353 kJ/mol
# GULP energy per Si atom -5580.699085 kJ/mol
# Density = 2.275131 g / cm^3
# Si number density = 22.803207 Si / 1000 Ang^3
#
#
#
# Elastic Constant Matrix: (Units=GPa)
#
#
# Indices 1 2 3 4 5 6 
#
# 1 60.8614 30.3007 22.3565 2.3177 26.6721 -4.4041
# 2 30.3007 115.7587 25.5110 8.9581 8.4641 -6.2566
# 3 22.3565 25.5110 54.0883 -1.0192 17.0698 -4.0600
# 4 2.3177 8.9581 -1.0192 47.4186 0.1326 2.9823
# 5 26.6721 8.4641 17.0698 0.1326 24.8188 -3.1911
# 6 -4.4041 -6.2566 -4.0600 2.9823 -3.1911 31.4345
#
#
#
# Elastic Compliance Matrix: (Units=1/GPa)
#
#
# Indices 1 2 3 4 5 6 
#
# 1 0.035454 -0.006573 -0.000312 -0.000401 -0.035638 0.000039
# 2 -0.006573 0.011113 -0.004528 -0.001992 0.006599 0.001565
# 3 -0.000312 -0.004528 0.025815 0.001429 -0.015800 0.000650
# 4 -0.000401 -0.001992 0.001429 0.021664 -0.000291 -0.002353
# 5 -0.035638 0.006599 -0.015800 -0.000291 0.087621 0.003202
# 6 0.000039 0.001565 0.000650 -0.002353 0.003202 0.032761
#
#
# Mechanical properties :
#
#
# Convention : Reuss Voigt Hill
#
# Bulk Modulus (GPa) = 20.17854 43.00496 31.59175
# Shear Modulus (GPa) = 19.70275 30.90372 25.30324
#
# Velocity S-wave (km/s) = 2.94263 3.68535 3.33473
# Velocity P-wave (km/s) = 4.51815 6.08351 5.35830
#
# Compressibility (1/GPa) = 0.04955759
#
# Stress axis : x y z
#
# Youngs Moduli (GPa) = 28.20561 89.98339 38.73782
#
# Poissons Ratio (x) = 0.59143 0.01207
# Poissons Ratio (y) = 0.18539 0.17539
# Poissons Ratio (z) = 0.00879 0.40741
#
# Static dielectric constant tensor:
#      x y z
#    x 1.945180 -0.009930 0.080400 
#    y -0.009930 1.870120 -0.026280 
#    z 0.080400 -0.026280 1.934580 
# 
# From -- ./inp_files/521408.got.cif
#   From: 2010.05.17/outbox.cif.g08.bks.cpg/sg2_261_cif.got.tgz:521408.got - 2010.06.03 11:33:40.
