data_PCOD9056540
_publ_section_title
;
Structure prediction by ZEFSAII (Michael W. Deem and Ramdas Pophale) SiO2 
 PCOD9056540
Probable space group: P -1
;
_chemical_formula_sum "Si O2"
_cell_formula_units_Z 14
_cell_length_a 13.176522
_cell_length_b 6.640403
_cell_length_c 11.704928
_cell_angle_alpha 84.214168
_cell_angle_beta 96.481374
_cell_angle_gamma 48.545810
_cell_volume 741.188595
_symmetry_space_group_name_H-M "P -1"
_symmetry_group_IT_number 2
_symmetry_cell_setting 'triclinic'
loop_
_space_group_symop_operation_xyz
x,y,z
-x,-y,-z
loop_
_atom_site_type_symbol
_atom_site_label
_atom_site_fract_x
_atom_site_fract_y
_atom_site_fract_z
Si Si1 0.653101 0.725075 0.225061
Si Si2 0.353460 0.611710 0.928082
Si Si3 0.156625 0.247138 0.892103
Si Si4 0.626333 0.647794 0.837630
Si Si5 0.576856 0.713696 0.457862
Si Si6 0.649095 0.297475 0.670021
Si Si7 0.169933 0.277944 0.164624
O O1 0.626048 0.546500 0.173084
O O2 0.781815 0.653436 0.180753
O O3 0.662640 0.689423 0.364354
O O4 0.516629 0.046624 0.167052
O O5 0.240642 0.937547 0.879323
O O6 0.500000 0.500000 0.000000
O O7 0.304741 0.529759 0.028574
O O8 0.990764 0.457388 0.847684
O O9 0.188536 0.225108 0.033004
O O10 0.596507 0.501782 0.758465
O O11 0.729224 0.672216 0.792986
O O12 0.665616 0.445502 0.565915
O O13 0.460356 0.721588 0.387822
O O14 0.500000 0.000000 0.500000
O O15 0.780074 0.991441 0.748782
#
# Coordination Sequence:
#
# PCOD9056540 Si02
#       7
#     2   2   2   2   2   2   2
#     4  12  23  38  61  97 124 157 207 264 306 367
#     4  12  22  35  61  95 127 160 199 260 318 360
#     4  11  25  38  61  91 134 166 204 249 311 373
#     4  12  21  37  65  92 127 158 205 255 313 370
#     4  11  23  40  65  96 122 159 212 263 304 360
#     4  11  22  39  67  91 123 166 205 256 309 367
#     4  11  23  42  58  92 130 172 203 247 306 379
#
# _framework density 18.888580000000001
#
# number of rings (size 3 to 8) (size 9 to 14) (size 15 to 20)
#    0.000    0.571    7.143    2.143    0.000    1.714 
#    0.000    0.714    0.000    4.286    0.000    0.000 
#    0.000    0.000    0.000    0.000    0.000    0.000 
#
# Total GULP energy -78206.257335 kJ/mol
# GULP energy per Si atom -5586.161238 kJ/mol
# Density = 1.884559 g / cm^3
# Si number density = 18.888580 Si / 1000 Ang^3
#
#
#
# Elastic Constant Matrix: (Units=GPa)
#
#
# Indices 1 2 3 4 5 6 
#
# 1 82.8405 44.7650 28.5424 3.5617 -9.7516 3.2686
# 2 44.7650 128.4375 39.3973 10.4523 6.4217 13.2199
# 3 28.5424 39.3973 97.7613 4.2169 -22.2055 6.8236
# 4 3.5617 10.4523 4.2169 40.1219 13.6946 1.1097
# 5 -9.7516 6.4217 -22.2055 13.6946 32.9399 -0.4550
# 6 3.2686 13.2199 6.8236 1.1097 -0.4550 26.6845
#
#
#
# Elastic Compliance Matrix: (Units=1/GPa)
#
#
# Indices 1 2 3 4 5 6 
#
# 1 0.016204 -0.005564 -0.001146 -0.001926 0.005927 0.001246
# 2 -0.005564 0.011875 -0.004544 0.000479 -0.007282 -0.004184
# 3 -0.001146 -0.004544 0.015654 -0.004789 0.013074 -0.001189
# 4 -0.001926 0.000479 -0.004789 0.031248 -0.016889 -0.000364
# 5 0.005927 -0.007282 0.013074 -0.016889 0.049383 0.001083
# 6 0.001246 -0.004184 -0.001189 -0.000364 0.001083 0.039733
#
#
# Mechanical properties :
#
#
# Convention : Reuss Voigt Hill
#
# Bulk Modulus (GPa) = 47.11461 59.38318 53.24889
# Shear Modulus (GPa) = 25.81587 33.03824 29.42705
#
# Velocity S-wave (km/s) = 3.70096 4.18678 3.95134
# Velocity P-wave (km/s) = 6.57726 7.40804 7.00498
#
# Compressibility (1/GPa) = 0.02122484
#
# Stress axis : x y z
#
# Youngs Moduli (GPa) = 61.71165 84.21346 63.88145
#
# Poissons Ratio (x) = 0.46856 0.07323
# Poissons Ratio (y) = 0.34336 0.29026
# Poissons Ratio (z) = 0.07074 0.38264
#
# Static dielectric constant tensor:
#      x y z
#    x 1.681460 0.035830 -0.030270 
#    y 0.035830 1.628050 -0.001530 
#    z -0.030270 -0.001530 1.691210 
# 
# From -- ./inp_files/40237.got.cif
#   From: 2010.05.17/outbox.cif.g08.bks.cpg/sg2_21_cif.got.tgz:40237.got - 2010.06.03 11:33:40.
