data_PCOD9056337
_publ_section_title
;
Structure prediction by ZEFSAII (Michael W. Deem and Ramdas Pophale) SiO2 
 PCOD9056337
Probable space group: P -1
;
_chemical_formula_sum "Si O2"
_cell_formula_units_Z 16
_cell_length_a 9.780740
_cell_length_b 20.155446
_cell_length_c 5.213214
_cell_angle_alpha 125.626157
_cell_angle_beta 107.703501
_cell_angle_gamma 60.299102
_cell_volume 725.436335
_symmetry_space_group_name_H-M "P -1"
_symmetry_group_IT_number 2
_symmetry_cell_setting 'triclinic'
loop_
_space_group_symop_operation_xyz
x,y,z
-x,-y,-z
loop_
_atom_site_type_symbol
_atom_site_label
_atom_site_fract_x
_atom_site_fract_y
_atom_site_fract_z
Si Si1 0.154045 0.472122 0.841774
Si Si2 0.499373 0.755141 0.051580
Si Si3 0.691762 0.735021 0.631344
Si Si4 0.993227 0.058377 0.378789
Si Si5 0.511568 0.582362 0.821798
Si Si6 0.181105 0.796076 0.733870
Si Si7 0.074545 0.184617 0.980366
Si Si8 0.183444 0.645834 0.071735
O O1 0.195859 0.372078 0.529000
O O2 0.319955 0.452689 0.028061
O O3 0.140007 0.559710 0.868159
O O4 0.000000 0.500000 0.000000
O O5 0.564937 0.752472 0.369204
O O6 0.607828 0.769523 0.932265
O O7 0.516282 0.654320 0.786022
O O8 0.317343 0.808222 0.000109
O O9 0.790689 0.792822 0.768048
O O10 0.840640 0.149993 0.424036
O O11 0.115762 0.103390 0.617862
O O12 0.000000 0.000000 0.500000
O O13 0.000000 0.000000 0.000000
O O14 0.500000 0.500000 0.500000
O O15 0.354295 0.623607 0.995554
O O16 0.196676 0.695536 0.454277
O O17 0.023441 0.835624 0.897726
O O18 0.956484 0.276598 0.984906
#
# Coordination Sequence:
#
# PCOD9056337 Si02
#       8
#     2   2   2   2   2   2   2   2
#     4  11  24  38  59  90 136 182 235 286 334 390
#     4  11  24  43  64  95 133 180 230 275 332 403
#     4  11  27  42  63  95 140 184 226 275 344 387
#     4  11  24  43  75 112 138 164 214 279 342 409
#     4  11  22  38  59  87 127 183 238 293 338 373
#     4  11  22  43  73 100 133 173 233 280 333 397
#     4  11  25  42  72 101 133 177 223 283 336 412
#     4  11  23  39  65  94 131 182 243 288 335 390
#
# _framework density 22.055689000000001
#
# number of rings (size 3 to 8) (size 9 to 14) (size 15 to 20)
#    0.000    1.000    2.500    4.125   10.500    0.500 
#    0.000    0.000    0.000    4.500    0.000    0.000 
#    0.000    0.000    0.000    0.000    0.000    0.000 
#
# Total GULP energy -89188.761794 kJ/mol
# GULP energy per Si atom -5574.297612 kJ/mol
# Density = 2.200549 g / cm^3
# Si number density = 22.055689 Si / 1000 Ang^3
#
#
#
# Elastic Constant Matrix: (Units=GPa)
#
#
# Indices 1 2 3 4 5 6 
#
# 1 94.5780 18.9539 13.4677 8.9300 10.7949 9.1696
# 2 18.9539 92.6257 11.2897 -11.3776 21.0731 25.5263
# 3 13.4677 11.2897 100.0758 11.3305 18.1976 2.2971
# 4 8.9300 -11.3776 11.3305 30.4634 5.0109 5.2796
# 5 10.7949 21.0731 18.1976 5.0109 39.1998 -5.9890
# 6 9.1696 25.5263 2.2971 5.2796 -5.9890 20.2173
#
#
#
# Elastic Compliance Matrix: (Units=1/GPa)
#
#
# Indices 1 2 3 4 5 6 
#
# 1 0.011809 -0.000288 -0.000602 -0.001838 -0.003416 -0.005456
# 2 -0.000288 0.051487 -0.000027 0.042586 -0.046757 -0.089846
# 3 -0.000602 -0.000027 0.011353 -0.002946 -0.004971 -0.001687
# 4 -0.001838 0.042586 -0.002946 0.072043 -0.043090 -0.084179
# 5 -0.003416 -0.046757 -0.004971 -0.043090 0.073805 0.094266
# 6 -0.005456 -0.089846 -0.001687 -0.084179 0.094266 0.215476
#
#
# Mechanical properties :
#
#
# Convention : Reuss Voigt Hill
#
# Bulk Modulus (GPa) = 13.73328 41.63356 27.68342
# Shear Modulus (GPa) = 10.82068 34.21399 22.51734
#
# Velocity S-wave (km/s) = 2.21737 3.94287 3.19867
# Velocity P-wave (km/s) = 3.57712 6.29649 5.12063
#
# Compressibility (1/GPa) = 0.07281583
#
# Stress axis : x y z
#
# Youngs Moduli (GPa) = 84.67981 19.42226 88.08512
#
# Poissons Ratio (x) = 0.00559 0.05304
# Poissons Ratio (y) = 0.02438 0.00234
# Poissons Ratio (z) = 0.05099 0.00052
#
# Static dielectric constant tensor:
#      x y z
#    x 1.808890 -0.016210 0.009060 
#    y -0.016210 1.941650 0.001440 
#    z 0.009060 0.001440 1.797610 
# 
# From -- ./inp_files/53980.got.cif
#   From: 2010.05.17/outbox.cif.g08.bks.cpg/sg2_27_cif.got.tgz:53980.got - 2010.06.03 11:33:40.
