data_PCOD9056157
_publ_section_title
;
Structure prediction by ZEFSAII (Michael W. Deem and Ramdas Pophale) SiO2 
 PCOD9056157
Probable space group: P -1
;
_chemical_formula_sum "Si O2"
_cell_formula_units_Z 13
_cell_length_a 11.463048
_cell_length_b 8.358550
_cell_length_c 10.607882
_cell_angle_alpha 107.727643
_cell_angle_beta 116.172703
_cell_angle_gamma 122.237680
_cell_volume 542.506131
_symmetry_space_group_name_H-M "P -1"
_symmetry_group_IT_number 2
_symmetry_cell_setting 'triclinic'
loop_
_space_group_symop_operation_xyz
x,y,z
-x,-y,-z
loop_
_atom_site_type_symbol
_atom_site_label
_atom_site_fract_x
_atom_site_fract_y
_atom_site_fract_z
Si Si1 0.313846 0.180703 0.839879
Si Si2 0.503777 0.296694 0.214245
Si Si3 0.794225 0.071886 0.804220
Si Si4 0.500000 0.000000 0.500000
Si Si5 0.819706 0.529342 0.728819
Si Si6 0.778491 0.260611 0.409764
Si Si7 0.872169 0.860518 0.613694
O O1 0.305893 0.012139 0.705193
O O2 0.500000 0.500000 0.000000
O O3 0.349686 0.137485 0.985690
O O4 0.091847 0.045465 0.699545
O O5 0.369120 0.192519 0.249417
O O6 0.622920 0.239146 0.269136
O O7 0.684420 0.618144 0.375032
O O8 0.675502 0.118529 0.716678
O O9 0.862960 0.034754 0.708042
O O10 0.992905 0.294821 0.043178
O O11 0.408909 0.709869 0.378393
O O12 0.792954 0.333869 0.580309
O O13 0.853662 0.713098 0.689578
O O14 0.000000 0.500000 0.500000
#
# Coordination Sequence:
#
# PCOD9056157 Si02
#       7
#     2   2   2   1   2   2   2
#     4  12  27  46  71 110 137 186 241 293 349 409
#     4  11  23  45  74  99 139 196 227 283 364 418
#     4  12  24  45  73 105 139 182 235 290 360 418
#     4  12  26  44  64 106 140 178 240 288 346 416
#     4  11  24  43  72 103 135 189 233 285 356 411
#     4  11  21  48  73  96 144 189 239 277 347 437
#     4  11  24  46  71 101 143 185 231 293 354 426
#
# _framework density 23.962862999999999
#
# number of rings (size 3 to 8) (size 9 to 14) (size 15 to 20)
#    0.000    0.615    7.692    1.846    0.000    3.077 
#    5.538    0.000    0.000    0.000    0.000    0.000 
#    0.000    0.000    0.000    0.000    0.000    0.000 
#
# Total GULP energy -72535.691445 kJ/mol
# GULP energy per Si atom -5579.668573 kJ/mol
# Density = 2.390832 g / cm^3
# Si number density = 23.962863 Si / 1000 Ang^3
#
#
#
# Elastic Constant Matrix: (Units=GPa)
#
#
# Indices 1 2 3 4 5 6 
#
# 1 101.4328 -11.2010 31.1206 4.1167 -24.1630 -9.2455
# 2 -11.2010 52.9212 6.9681 10.0948 -7.5922 -10.0011
# 3 31.1206 6.9681 139.4686 5.5589 4.7841 -2.6650
# 4 4.1167 10.0948 5.5589 51.8929 0.1021 -3.7705
# 5 -24.1630 -7.5922 4.7841 0.1021 34.6951 8.5353
# 6 -9.2455 -10.0011 -2.6650 -3.7705 8.5353 19.0016
#
#
#
# Elastic Compliance Matrix: (Units=1/GPa)
#
#
# Indices 1 2 3 4 5 6 
#
# 1 0.014941 0.006510 -0.003884 -0.001710 0.011194 0.004784
# 2 0.006510 0.024677 -0.002551 -0.004214 0.007439 0.011620
# 3 -0.003884 -0.002551 0.008316 -0.000086 -0.004381 -0.000115
# 4 -0.001710 -0.004214 -0.000086 0.020400 -0.002702 0.002200
# 5 0.011194 0.007439 -0.004381 -0.002702 0.041415 -0.010392
# 6 0.004784 0.011620 -0.000115 0.002200 -0.010392 0.066159
#
#
# Mechanical properties :
#
#
# Convention : Reuss Voigt Hill
#
# Bulk Modulus (GPa) = 20.79661 38.62199 29.70930
# Shear Modulus (GPa) = 26.07089 38.91357 32.49223
#
# Velocity S-wave (km/s) = 3.30202 4.03415 3.68631
# Velocity P-wave (km/s) = 4.82030 6.15236 5.52661
#
# Compressibility (1/GPa) = 0.04808477
#
# Stress axis : x y z
#
# Youngs Moduli (GPa) = 66.92930 40.52400 120.25610
#
# Poissons Ratio (x) = -0.26381 0.46702
# Poissons Ratio (y) = -0.43570 0.30673
# Poissons Ratio (z) = 0.25992 0.10336
#
# Static dielectric constant tensor:
#      x y z
#    x 1.769800 -0.081180 -0.048120 
#    y -0.081180 1.954210 -0.031370 
#    z -0.048120 -0.031370 1.863750 
# 
# From -- ./inp_files/255643.got.cif
#   From: 2010.05.17/outbox.cif.g08.bks.cpg/sg2_128_cif.got.tgz:255643.got - 2010.06.03 11:33:40.
