data_PCOD9056569
_publ_section_title
;
Structure prediction by ZEFSAII (Michael W. Deem and Ramdas Pophale) SiO2 
 PCOD9056569
Probable space group: P -1
;
_chemical_formula_sum "Si O2"
_cell_formula_units_Z 12
_cell_length_a 14.045223
_cell_length_b 7.061262
_cell_length_c 8.199072
_cell_angle_alpha 56.701065
_cell_angle_beta 41.062389
_cell_angle_gamma 67.492637
_cell_volume 445.731703
_symmetry_space_group_name_H-M "P -1"
_symmetry_group_IT_number 2
_symmetry_cell_setting 'triclinic'
loop_
_space_group_symop_operation_xyz
x,y,z
-x,-y,-z
loop_
_atom_site_type_symbol
_atom_site_label
_atom_site_fract_x
_atom_site_fract_y
_atom_site_fract_z
Si Si1 0.611914 0.819878 0.767306
Si Si2 0.371585 0.489755 0.800982
Si Si3 0.854437 0.702275 0.052508
Si Si4 0.672797 0.114541 0.080434
Si Si5 0.079019 0.043192 0.703077
Si Si6 0.174740 0.499405 0.474122
O O1 0.468385 0.910401 0.837275
O O2 0.665676 0.607762 0.690889
O O3 0.750348 0.999439 0.499393
O O4 0.599607 0.710287 0.013407
O O5 0.500000 0.500000 0.500000
O O6 0.215371 0.432338 0.944890
O O7 0.361843 0.721405 0.804054
O O8 0.877597 0.544556 0.253970
O O9 0.730124 0.878063 0.173400
O O10 0.991932 0.878795 0.770591
O O11 0.797451 0.252575 0.748964
O O12 0.087439 0.318022 0.554211
O O13 0.000000 0.000000 0.000000
#
# Coordination Sequence:
#
# PCOD9056569 Si02
#       6
#     2   2   2   2   2   2
#     4   9  19  38  61  86 126 165 196 254 315 359
#     4  11  23  38  61  96 129 155 207 272 301 356
#     4  11  22  39  68  93 119 167 211 250 315 371
#     4  11  22  40  67  91 120 168 213 250 308 378
#     4   8  18  37  64  86 123 172 194 249 324 362
#     4   8  18  39  60  85 128 157 199 255 306 358
#
# _framework density 26.922027
#
# number of rings (size 3 to 8) (size 9 to 14) (size 15 to 20)
#    1.000    1.333    0.000    4.000    0.000    4.667 
#    0.000    5.000    0.000    5.000    0.000    0.000 
#    0.000    0.000    0.000    0.000    0.000    0.000 
#
# Total GULP energy -67207.563648 kJ/mol
# GULP energy per Si atom -5600.630304 kJ/mol
# Density = 2.686075 g / cm^3
# Si number density = 26.922027 Si / 1000 Ang^3
#
#
#
# Elastic Constant Matrix: (Units=GPa)
#
#
# Indices 1 2 3 4 5 6 
#
# 1 145.2157 34.6834 59.8101 -16.0032 -22.8948 9.5877
# 2 34.6834 112.5713 24.3278 -0.8219 4.0802 -4.5567
# 3 59.8101 24.3278 162.4361 -17.0161 5.9129 4.9404
# 4 -16.0032 -0.8219 -17.0161 35.4053 4.5065 6.9925
# 5 -22.8948 4.0802 5.9129 4.5065 50.7480 -4.4942
# 6 9.5877 -4.5567 4.9404 6.9925 -4.4942 32.0831
#
#
#
# Elastic Compliance Matrix: (Units=1/GPa)
#
#
# Indices 1 2 3 4 5 6 
#
# 1 0.010032 -0.002693 -0.003054 0.002999 0.004573 -0.002923
# 2 -0.002693 0.010008 -0.000693 -0.001603 -0.001579 0.002461
# 3 -0.003054 -0.000693 0.007835 0.002982 -0.002625 -0.001410
# 4 0.002999 -0.001603 0.002982 0.033141 -0.002621 -0.009173
# 5 0.004573 -0.001579 -0.002625 -0.002621 0.022660 0.002559
# 6 -0.002923 0.002461 -0.001410 -0.009173 0.002559 0.034967
#
#
# Mechanical properties :
#
#
# Convention : Reuss Voigt Hill
#
# Bulk Modulus (GPa) = 66.68433 73.09618 69.89026
# Shear Modulus (GPa) = 36.62441 43.74073 40.18257
#
# Velocity S-wave (km/s) = 3.69235 4.03515 3.86755
# Velocity P-wave (km/s) = 6.55752 6.99428 6.77942
#
# Compressibility (1/GPa) = 0.01499603
#
# Stress axis : x y z
#
# Youngs Moduli (GPa) = 99.68294 99.92216 127.62926
#
# Poissons Ratio (x) = 0.26909 0.38975
# Poissons Ratio (y) = 0.26845 0.08839
# Poissons Ratio (z) = 0.30441 0.06920
#
# Static dielectric constant tensor:
#      x y z
#    x 2.097990 0.017450 -0.034230 
#    y 0.017450 2.077350 0.035320 
#    z -0.034230 0.035320 2.129130 
# 
# From -- ./inp_files/164575.got.cif
#   From: 2010.05.17/outbox.cif.g08.bks.cpg/sg2_83_cif.got.tgz:164575.got - 2010.06.03 11:33:40.
