data_PCOD9056327
_publ_section_title
;
Structure prediction by ZEFSAII (Michael W. Deem and Ramdas Pophale) SiO2 
 PCOD9056327
Probable space group: P -1
;
_chemical_formula_sum "Si O2"
_cell_formula_units_Z 14
_cell_length_a 10.229682
_cell_length_b 21.027013
_cell_length_c 9.529403
_cell_angle_alpha 42.614243
_cell_angle_beta 28.985860
_cell_angle_gamma 46.318108
_cell_volume 665.618173
_symmetry_space_group_name_H-M "P -1"
_symmetry_group_IT_number 2
_symmetry_cell_setting 'triclinic'
loop_
_space_group_symop_operation_xyz
x,y,z
-x,-y,-z
loop_
_atom_site_type_symbol
_atom_site_label
_atom_site_fract_x
_atom_site_fract_y
_atom_site_fract_z
Si Si1 0.875308 0.229206 0.731981
Si Si2 0.536009 0.414476 0.390834
Si Si3 0.047997 0.843245 0.916950
Si Si4 0.670675 0.828126 0.795476
Si Si5 0.509256 0.024649 0.787597
Si Si6 0.076357 0.299029 0.977806
Si Si7 0.820564 0.433871 0.370152
O O1 0.965912 0.333043 0.450812
O O2 0.119877 0.158615 0.546890
O O3 0.851703 0.210946 0.947800
O O4 0.592163 0.214089 0.947926
O O5 0.604161 0.403901 0.509760
O O6 0.339479 0.514480 0.429794
O O7 0.830605 0.385908 0.090731
O O8 0.350567 0.342348 0.619360
O O9 0.258388 0.910536 0.559305
O O10 0.997744 0.770330 0.959910
O O11 0.769897 0.912191 0.095847
O O12 0.848575 0.759940 0.853283
O O13 0.567997 0.927075 0.806326
O O14 0.500000 0.000000 0.000000
O O15 0.000000 0.500000 0.000000
#
# Coordination Sequence:
#
# PCOD9056327 Si02
#       7
#     2   2   2   2   2   2   2
#     4  12  27  45  67 106 140 179 219 288 353 390
#     4  11  22  37  68 100 127 171 233 272 320 394
#     4  12  28  46  69 100 146 176 220 291 349 392
#     4  12  24  42  73  97 135 181 235 273 332 415
#     4  12  26  46  72 103 132 182 236 279 330 407
#     4  12  22  42  67 101 128 181 229 272 330 410
#     4  11  22  41  69 103 136 173 229 282 328 404
#
# _framework density 21.033079000000001
#
# number of rings (size 3 to 8) (size 9 to 14) (size 15 to 20)
#    0.000    0.286    5.714    3.000    4.000    3.429 
#    0.000    1.429    0.000    0.000    0.000    0.000 
#    0.000    0.000    0.000    0.000    0.000    0.000 
#
# Total GULP energy -78160.775247 kJ/mol
# GULP energy per Si atom -5582.912518 kJ/mol
# Density = 2.098521 g / cm^3
# Si number density = 21.033079 Si / 1000 Ang^3
#
#
#
# Elastic Constant Matrix: (Units=GPa)
#
#
# Indices 1 2 3 4 5 6 
#
# 1 114.3279 48.6933 56.0451 -17.1140 -1.9819 12.5200
# 2 48.6933 100.4734 39.2812 6.9937 5.3454 2.6626
# 3 56.0451 39.2812 135.3551 -3.9771 -11.5449 0.4943
# 4 -17.1140 6.9937 -3.9771 39.3388 -3.7604 0.0047
# 5 -1.9819 5.3454 -11.5449 -3.7604 36.1547 -3.7593
# 6 12.5200 2.6626 0.4943 0.0047 -3.7593 9.8563
#
#
#
# Elastic Compliance Matrix: (Units=1/GPa)
#
#
# Indices 1 2 3 4 5 6 
#
# 1 0.017444 -0.006411 -0.005137 0.008113 -0.001031 -0.020566
# 2 -0.006411 0.014341 -0.001981 -0.005864 -0.003394 0.003076
# 3 -0.005137 -0.001981 0.010400 -0.000437 0.004130 0.008114
# 4 0.008113 -0.005864 -0.000437 0.030289 0.003557 -0.007357
# 5 -0.001031 -0.003394 0.004130 0.003557 0.031242 0.013934
# 6 -0.020566 0.003076 0.008114 -0.007357 0.013934 0.131661
#
#
# Mechanical properties :
#
#
# Convention : Reuss Voigt Hill
#
# Bulk Modulus (GPa) = 66.09989 70.91061 68.50525
# Shear Modulus (GPa) = 18.69327 30.81243 24.75285
#
# Velocity S-wave (km/s) = 2.98443 3.83162 3.43425
# Velocity P-wave (km/s) = 6.58564 7.30494 6.95460
#
# Compressibility (1/GPa) = 0.01512862
#
# Stress axis : x y z
#
# Youngs Moduli (GPa) = 57.32611 69.72891 96.15814
#
# Poissons Ratio (x) = 0.44701 0.49395
# Poissons Ratio (y) = 0.36750 0.19045
# Poissons Ratio (z) = 0.29448 0.13810
#
# Static dielectric constant tensor:
#      x y z
#    x 1.734380 -0.019290 -0.003750 
#    y -0.019290 1.822960 0.014340 
#    z -0.003750 0.014340 1.745770 
# 
# From -- ./inp_files/217242.got.cif
#   From: 2010.05.17/outbox.cif.g08.bks.cpg/sg2_109_cif.got.tgz:217242.got - 2010.06.03 11:33:40.
