data_PCOD9056214
_publ_section_title
;
Structure prediction by ZEFSAII (Michael W. Deem and Ramdas Pophale) SiO2 
 PCOD9056214
Probable space group: P -1
;
_chemical_formula_sum "Si O2"
_cell_formula_units_Z 14
_cell_length_a 13.967313
_cell_length_b 25.535336
_cell_length_c 14.503916
_cell_angle_alpha 19.659081
_cell_angle_beta 148.483215
_cell_angle_gamma 157.522907
_cell_volume 659.023540
_symmetry_space_group_name_H-M "P -1"
_symmetry_group_IT_number 2
_symmetry_cell_setting 'triclinic'
loop_
_space_group_symop_operation_xyz
x,y,z
-x,-y,-z
loop_
_atom_site_type_symbol
_atom_site_label
_atom_site_fract_x
_atom_site_fract_y
_atom_site_fract_z
Si Si1 0.062171 0.130159 0.926927
Si Si2 0.701869 0.694464 0.909947
Si Si3 0.058435 0.448847 0.728796
Si Si4 0.533404 0.141933 0.875168
Si Si5 0.621215 0.110996 0.645052
Si Si6 0.103049 0.910717 0.496110
Si Si7 0.559773 0.554168 0.700291
O O1 0.342426 0.371203 0.754447
O O2 0.857578 0.149668 0.737095
O O3 0.050733 0.997782 0.222614
O O4 0.000000 0.000000 0.000000
O O5 0.929943 0.718337 0.023714
O O6 0.569617 0.584057 0.082879
O O7 0.500000 0.500000 0.000000
O O8 0.818042 0.932670 0.612686
O O9 0.288657 0.667011 0.609839
O O10 0.000000 0.500000 0.500000
O O11 0.832965 0.340318 0.793608
O O12 0.422868 0.249788 0.595654
O O13 0.500000 0.000000 0.000000
O O14 0.448432 0.020314 0.101904
O O15 0.371084 0.975913 0.598859
O O16 0.842804 0.671564 0.706693
#
# Coordination Sequence:
#
# PCOD9056214 Si02
#       7
#     2   2   2   2   2   2   2
#     4  11  26  50  73  91 124 172 225 290 343 381
#     4  11  22  36  58  94 140 179 212 255 316 385
#     4  12  20  37  57  90 131 182 220 250 307 386
#     4  12  22  35  64  95 135 176 213 248 318 396
#     4  12  24  42  66  96 132 174 218 270 324 392
#     4  11  25  43  65 101 134 165 225 274 328 402
#     4  11  23  43  63  95 136 171 221 271 320 396
#
# _framework density 21.243551
#
# number of rings (size 3 to 8) (size 9 to 14) (size 15 to 20)
#    0.000    0.571    7.143    1.714    2.000    1.714 
#    0.000    0.714    0.000    0.000    0.000    0.000 
#    0.000    0.000    0.000    0.000    0.000    0.000 
#
# Total GULP energy -77976.830720 kJ/mol
# GULP energy per Si atom -5569.773623 kJ/mol
# Density = 2.119520 g / cm^3
# Si number density = 21.243551 Si / 1000 Ang^3
#
#
#
# Elastic Constant Matrix: (Units=GPa)
#
#
# Indices 1 2 3 4 5 6 
#
# 1 64.8604 54.8044 18.1511 -13.6932 5.1038 -7.2073
# 2 54.8044 154.9878 15.8486 -19.2432 8.6456 14.2974
# 3 18.1511 15.8486 33.7450 -8.4879 10.8324 0.4756
# 4 -13.6932 -19.2432 -8.4879 33.6730 4.3026 -1.1490
# 5 5.1038 8.6456 10.8324 4.3026 16.7194 -8.4430
# 6 -7.2073 14.2974 0.4756 -1.1490 -8.4430 36.8272
#
#
#
# Elastic Compliance Matrix: (Units=1/GPa)
#
#
# Indices 1 2 3 4 5 6 
#
# 1 0.029041 -0.010514 -0.014507 0.001027 0.012156 0.012772
# 2 -0.010514 0.011818 0.005597 0.005181 -0.012635 -0.009453
# 3 -0.014507 0.005597 0.053552 0.016036 -0.045143 -0.015553
# 4 0.001027 0.005181 0.016036 0.040368 -0.027315 -0.007020
# 5 0.012156 -0.012635 -0.045143 -0.027315 0.115867 0.033578
# 6 0.012772 -0.009453 -0.015553 -0.007020 0.033578 0.041003
#
#
# Mechanical properties :
#
#
# Convention : Reuss Voigt Hill
#
# Bulk Modulus (GPa) = 17.99737 47.91126 32.95432
# Shear Modulus (GPa) = 14.32591 28.42986 21.37789
#
# Velocity S-wave (km/s) = 2.59967 3.66222 3.17570
# Velocity P-wave (km/s) = 4.18346 6.36276 5.38452
#
# Compressibility (1/GPa) = 0.05556367
#
# Stress axis : x y z
#
# Youngs Moduli (GPa) = 34.43396 84.61874 18.67340
#
# Poissons Ratio (x) = 0.88972 0.27089
# Poissons Ratio (y) = 0.36205 -0.10452
# Poissons Ratio (z) = 0.49952 -0.47365
#
# Static dielectric constant tensor:
#      x y z
#    x 1.680660 0.416170 0.001020 
#    y 0.416170 4.104150 0.186260 
#    z 0.001020 0.186260 1.817120 
# 
# From -- ./inp_files/124625.got.cif
#   From: 2010.05.17/outbox.cif.g08.bks.cpg/sg2_63_cif.got.tgz:124625.got - 2010.06.03 11:33:40.
