data_PCOD9056242
_publ_section_title
;
Structure prediction by ZEFSAII (Michael W. Deem and Ramdas Pophale) SiO2 
 PCOD9056242
Probable space group: P -1
;
_chemical_formula_sum "Si O2"
_cell_formula_units_Z 16
_cell_length_a 12.623038
_cell_length_b 13.366935
_cell_length_c 8.389412
_cell_angle_alpha 61.427165
_cell_angle_beta 130.695295
_cell_angle_gamma 135.836465
_cell_volume 747.599385
_symmetry_space_group_name_H-M "P -1"
_symmetry_group_IT_number 2
_symmetry_cell_setting 'triclinic'
loop_
_space_group_symop_operation_xyz
x,y,z
-x,-y,-z
loop_
_atom_site_type_symbol
_atom_site_label
_atom_site_fract_x
_atom_site_fract_y
_atom_site_fract_z
Si Si1 0.421436 0.751293 0.636393
Si Si2 0.171614 0.816795 0.468044
Si Si3 0.378644 0.339751 0.935335
Si Si4 0.449249 0.357530 0.646598
Si Si5 0.073058 0.189629 0.004355
Si Si6 0.264466 0.093532 0.429626
Si Si7 0.921053 0.530178 0.644414
Si Si8 0.156774 0.451951 0.083562
O O1 0.335750 0.821596 0.571711
O O2 0.513504 0.722094 0.884251
O O3 0.574607 0.841277 0.587397
O O4 0.262681 0.600778 0.513659
O O5 0.027504 0.661788 0.524623
O O6 0.211465 0.938917 0.536780
O O7 0.103961 0.850110 0.217853
O O8 0.207069 0.253442 0.939648
O O9 0.500000 0.500000 0.000000
O O10 0.346280 0.339062 0.718942
O O11 0.500000 0.500000 0.500000
O O12 0.341649 0.213265 0.549797
O O13 0.642920 0.405801 0.841152
O O14 0.100913 0.082148 0.199165
O O15 0.139466 0.318092 0.095291
O O16 0.893657 0.571100 0.761629
O O17 0.033865 0.473391 0.841758
#
# Coordination Sequence:
#
# PCOD9056242 Si02
#       8
#     2   2   2   2   2   2   2   2
#     4  11  22  43  67  93 126 176 221 259 312 383
#     4  12  25  42  65  97 134 169 215 261 330 381
#     4  11  22  36  64  99 125 156 221 275 307 367
#     4  12  22  39  66  91 128 170 214 262 320 380
#     4  11  23  40  67  95 129 167 216 269 316 377
#     4  11  25  44  64  96 134 173 208 265 326 384
#     4  11  24  39  67  98 128 168 214 271 315 380
#     4  11  22  41  64  99 126 163 221 267 318 372
#
# _framework density 21.401834999999998
#
# number of rings (size 3 to 8) (size 9 to 14) (size 15 to 20)
#    0.000    0.750    5.000    3.375    1.750    0.000 
#    0.000    7.500    0.000    0.000    0.000    0.000 
#    0.000    0.000    0.000    0.000    0.000    0.000 
#
# Total GULP energy -89478.384438 kJ/mol
# GULP energy per Si atom -5592.399027 kJ/mol
# Density = 2.135312 g / cm^3
# Si number density = 21.401835 Si / 1000 Ang^3
#
#
#
# Elastic Constant Matrix: (Units=GPa)
#
#
# Indices 1 2 3 4 5 6 
#
# 1 90.2129 20.9949 28.3678 -12.6345 3.8856 -26.2749
# 2 20.9949 92.3755 17.4063 -4.7053 0.3712 -27.3105
# 3 28.3678 17.4063 59.1045 -11.8855 19.3307 -16.3409
# 4 -12.6345 -4.7053 -11.8855 25.6078 -3.9352 2.6883
# 5 3.8856 0.3712 19.3307 -3.9352 41.1509 1.4611
# 6 -26.2749 -27.3105 -16.3409 2.6883 1.4611 35.1753
#
#
#
# Elastic Compliance Matrix: (Units=1/GPa)
#
#
# Indices 1 2 3 4 5 6 
#
# 1 0.015836 0.000317 -0.004202 0.004994 0.000609 0.009716
# 2 0.000317 0.014167 -0.001227 0.001103 0.000149 0.010575
# 3 -0.004202 -0.001227 0.027003 0.007534 -0.011854 0.008369
# 4 0.004994 0.001103 0.007534 0.044739 0.000092 0.004664
# 5 0.000609 0.000149 -0.011854 0.000092 0.030039 -0.006191
# 6 0.009716 0.010575 0.008369 0.004664 -0.006191 0.047686
#
#
# Mechanical properties :
#
#
# Convention : Reuss Voigt Hill
#
# Bulk Modulus (GPa) = 21.37654 41.69232 31.53443
# Shear Modulus (GPa) = 24.35605 32.04842 28.20223
#
# Velocity S-wave (km/s) = 3.37714 3.87390 3.63402
# Velocity P-wave (km/s) = 5.02161 6.28749 5.68986
#
# Compressibility (1/GPa) = 0.04678026
#
# Stress axis : x y z
#
# Youngs Moduli (GPa) = 63.14917 70.58782 37.03241
#
# Poissons Ratio (x) = -0.02239 0.15563
# Poissons Ratio (y) = -0.02003 0.04545
# Poissons Ratio (z) = 0.26538 0.08664
#
# Static dielectric constant tensor:
#      x y z
#    x 1.778810 -0.008360 0.023090 
#    y -0.008360 1.781200 0.004200 
#    z 0.023090 0.004200 1.812910 
# 
# From -- ./inp_files/190894.got.cif
#   From: 2010.05.17/outbox.cif.g08.bks.cpg/sg2_96_cif.got.tgz:190894.got - 2010.06.03 11:33:40.
