data_PCOD9056995
_publ_section_title
;
Structure prediction by ZEFSAII (Michael W. Deem and Ramdas Pophale) SiO2 
 PCOD9056995
Probable space group: P -1
;
_chemical_formula_sum "Si O2"
_cell_formula_units_Z 16
_cell_length_a 12.106086
_cell_length_b 18.776863
_cell_length_c 13.205895
_cell_angle_alpha 146.106963
_cell_angle_beta 40.815892
_cell_angle_gamma 153.949377
_cell_volume 734.405560
_symmetry_space_group_name_H-M "P -1"
_symmetry_group_IT_number 2
_symmetry_cell_setting 'triclinic'
loop_
_space_group_symop_operation_xyz
x,y,z
-x,-y,-z
loop_
_atom_site_type_symbol
_atom_site_label
_atom_site_fract_x
_atom_site_fract_y
_atom_site_fract_z
Si Si1 0.346967 0.586774 0.915179
Si Si2 0.157683 0.763108 0.241848
Si Si3 0.143463 0.549146 0.564883
Si Si4 0.130358 0.241716 0.234734
Si Si5 0.986906 0.838392 0.009162
Si Si6 0.485876 0.964450 0.850104
Si Si7 0.265549 0.529484 0.132351
Si Si8 0.221734 0.029396 0.663827
O O1 0.625842 0.698391 0.824666
O O2 0.139287 0.427644 0.789560
O O3 0.300399 0.711913 0.109202
O O4 0.292007 0.501509 0.965031
O O5 0.260475 0.858674 0.173270
O O6 0.225549 0.914065 0.448802
O O7 0.181844 0.421497 0.402236
O O8 0.398751 0.772972 0.657150
O O9 0.000000 0.500000 0.500000
O O10 0.969553 0.508841 0.727455
O O11 0.081250 0.171177 0.070804
O O12 0.891561 0.087603 0.290723
O O13 0.963284 0.958249 0.225805
O O14 0.795880 0.627061 0.939502
O O15 0.258867 0.926824 0.924617
O O16 0.500000 0.000000 0.000000
O O17 0.511866 0.749698 0.249147
#
# Coordination Sequence:
#
# PCOD9056995 Si02
#       8
#     2   2   2   2   2   2   2   2
#     4  11  26  46  68  93 140 182 221 273 349 396
#     4  11  26  46  67 100 137 177 227 281 328 405
#     4  11  22  41  67  98 134 175 217 275 335 391
#     4  12  25  44  69 101 134 182 223 281 336 399
#     4  11  24  44  68 100 143 171 223 284 340 387
#     4  11  24  44  71  98 136 181 222 271 341 407
#     4  11  23  42  69  99 135 179 218 278 337 401
#     4  12  26  40  72 105 130 175 232 279 331 398
#
# _framework density 21.786327
#
# number of rings (size 3 to 8) (size 9 to 14) (size 15 to 20)
#    0.000    0.750    3.750    4.500    1.750    3.500 
#    0.000    1.875    0.000    0.000    0.000    0.000 
#    0.000    0.000    0.000    0.000    0.000    0.000 
#
# Total GULP energy -89517.212566 kJ/mol
# GULP energy per Si atom -5594.825785 kJ/mol
# Density = 2.173674 g / cm^3
# Si number density = 21.786327 Si / 1000 Ang^3
#
#
#
# Elastic Constant Matrix: (Units=GPa)
#
#
# Indices 1 2 3 4 5 6 
#
# 1 67.2974 29.5361 36.3149 15.2806 -7.1771 -0.8451
# 2 29.5361 89.9285 14.3613 2.0374 1.4912 -4.6529
# 3 36.3149 14.3613 73.9530 20.6570 -14.3885 -11.0827
# 4 15.2806 2.0374 20.6570 34.7075 -7.6574 2.9515
# 5 -7.1771 1.4912 -14.3885 -7.6574 35.3674 -5.1304
# 6 -0.8451 -4.6529 -11.0827 2.9515 -5.1304 35.8692
#
#
#
# Elastic Compliance Matrix: (Units=1/GPa)
#
#
# Indices 1 2 3 4 5 6 
#
# 1 0.023779 -0.006303 -0.009809 -0.004054 -0.000210 -0.002984
# 2 -0.006303 0.013238 0.000013 0.001596 -0.001305 0.001255
# 3 -0.009809 0.000013 0.023466 -0.008869 0.006903 0.008738
# 4 -0.004054 0.001596 -0.008869 0.036828 0.002711 -0.005271
# 5 -0.000210 -0.001305 0.006903 0.002711 0.032611 0.006400
# 6 -0.002984 0.001255 0.008738 -0.005271 0.006400 0.032021
#
#
# Mechanical properties :
#
#
# Convention : Reuss Voigt Hill
#
# Bulk Modulus (GPa) = 35.35281 43.51150 39.43216
# Shear Modulus (GPa) = 24.56167 31.25325 27.90746
#
# Velocity S-wave (km/s) = 3.36130 3.79163 3.58294
# Velocity P-wave (km/s) = 5.59703 6.25971 5.93762
#
# Compressibility (1/GPa) = 0.02828630
#
# Stress axis : x y z
#
# Youngs Moduli (GPa) = 42.05367 75.53792 42.61471
#
# Poissons Ratio (x) = 0.47609 0.41799
# Poissons Ratio (y) = 0.26505 -0.00054
# Poissons Ratio (z) = 0.41249 -0.00096
#
# Static dielectric constant tensor:
#      x y z
#    x 1.837670 -0.000560 -0.036350 
#    y -0.000560 1.819720 -0.016850 
#    z -0.036350 -0.016850 1.827780 
# 
# From -- ./inp_files/436948.got.cif
#   From: 2010.05.17/outbox.cif.g08.bks.cpg/sg2_219_cif.got.tgz:436948.got - 2010.06.03 11:33:40.
