data_PCOD9056588
_publ_section_title
;
Structure prediction by ZEFSAII (Michael W. Deem and Ramdas Pophale) SiO2 
 PCOD9056588
Probable space group: P -1
;
_chemical_formula_sum "Si O2"
_cell_formula_units_Z 14
_cell_length_a 8.474349
_cell_length_b 24.193214
_cell_length_c 9.924359
_cell_angle_alpha 31.527269
_cell_angle_beta 54.277038
_cell_angle_gamma 36.831007
_cell_volume 605.561066
_symmetry_space_group_name_H-M "P -1"
_symmetry_group_IT_number 2
_symmetry_cell_setting 'triclinic'
loop_
_space_group_symop_operation_xyz
x,y,z
-x,-y,-z
loop_
_atom_site_type_symbol
_atom_site_label
_atom_site_fract_x
_atom_site_fract_y
_atom_site_fract_z
Si Si1 0.846723 0.344128 0.590442
Si Si2 0.195915 0.328711 0.805750
Si Si3 0.663925 0.697152 0.667319
Si Si4 0.502880 0.314901 0.924681
Si Si5 0.941915 0.198122 0.615150
Si Si6 0.641940 0.113838 0.814079
Si Si7 0.185910 0.583640 0.968390
O O1 0.802860 0.259664 0.886070
O O2 0.690379 0.508323 0.373967
O O3 0.718706 0.341301 0.524925
O O4 0.119077 0.293121 0.495016
O O5 0.421232 0.269049 0.936508
O O6 0.356702 0.222335 0.817040
O O7 0.000000 0.500000 0.500000
O O8 0.964228 0.350955 0.949865
O O9 0.405935 0.839906 0.412933
O O10 0.580821 0.700701 0.855011
O O11 0.787266 0.542437 0.854532
O O12 0.805853 0.151245 0.710164
O O13 0.001414 0.264683 0.340593
O O14 0.184974 0.056328 0.880310
O O15 0.500000 0.500000 0.000000
#
# Coordination Sequence:
#
# PCOD9056588 Si02
#       7
#     2   2   2   2   2   2   2
#     4  11  22  39  69  99 135 177 218 287 340 393
#     4  12  22  42  68 102 134 173 233 282 332 408
#     4  12  23  43  67 104 130 175 233 278 338 404
#     4  11  23  38  68 103 135 171 227 286 341 390
#     4  11  23  44  68  94 140 182 219 277 348 400
#     4  11  25  44  67  96 136 183 224 275 340 411
#     4  12  23  39  71 102 130 175 227 283 335 402
#
# _framework density 23.119056
#
# number of rings (size 3 to 8) (size 9 to 14) (size 15 to 20)
#    0.000    0.571    7.143    1.286    0.000    2.286 
#    0.000    0.714    0.000    0.000    0.000    0.000 
#    0.000    0.000    0.000    0.000    0.000    0.000 
#
# Total GULP energy -77975.513798 kJ/mol
# GULP energy per Si atom -5569.679557 kJ/mol
# Density = 2.306644 g / cm^3
# Si number density = 23.119056 Si / 1000 Ang^3
#
#
#
# Elastic Constant Matrix: (Units=GPa)
#
#
# Indices 1 2 3 4 5 6 
#
# 1 82.0572 17.4345 45.1633 13.0611 -12.1295 -3.6135
# 2 17.4345 75.6712 50.1163 33.6705 -2.4448 -5.1637
# 3 45.1633 50.1163 147.8291 21.2277 6.9791 -10.4538
# 4 13.0611 33.6705 21.2277 45.2791 2.3542 -6.5348
# 5 -12.1295 -2.4448 6.9791 2.3542 41.0841 8.4232
# 6 -3.6135 -5.1637 -10.4538 -6.5348 8.4232 29.0272
#
#
#
# Elastic Compliance Matrix: (Units=1/GPa)
#
#
# Indices 1 2 3 4 5 6 
#
# 1 0.016362 0.001757 -0.005485 -0.004157 0.006614 -0.002481
# 2 0.001757 0.024583 -0.006975 -0.016183 0.004694 -0.002926
# 3 -0.005485 -0.006975 0.010963 0.002457 -0.004855 0.003987
# 4 -0.004157 -0.016183 0.002457 0.035534 -0.006134 0.007268
# 5 0.006614 0.004694 -0.004855 -0.006134 0.029825 -0.010126
# 6 -0.002481 -0.002926 0.003987 0.007268 -0.010126 0.039632
#
#
# Mechanical properties :
#
#
# Convention : Reuss Voigt Hill
#
# Bulk Modulus (GPa) = 32.78556 58.99841 45.89198
# Shear Modulus (GPa) = 26.52891 35.93430 31.23161
#
# Velocity S-wave (km/s) = 3.39114 3.94676 3.67945
# Velocity P-wave (km/s) = 5.43554 6.80764 6.15991
#
# Compressibility (1/GPa) = 0.03050124
#
# Stress axis : x y z
#
# Youngs Moduli (GPa) = 61.11563 40.67885 91.21239
#
# Poissons Ratio (x) = -0.07147 0.50033
# Poissons Ratio (y) = -0.10738 0.63624
# Poissons Ratio (z) = 0.33524 0.28375
#
# Static dielectric constant tensor:
#      x y z
#    x 2.005730 -0.043490 0.013510 
#    y -0.043490 2.009760 0.097880 
#    z 0.013510 0.097880 1.909300 
# 
# From -- ./inp_files/186030.got.cif
#   From: 2010.05.17/outbox.cif.g08.bks.cpg/sg2_94_cif.got.tgz:186030.got - 2010.06.03 11:33:40.
