data_PCOD9056236
_publ_section_title
;
Structure prediction by ZEFSAII (Michael W. Deem and Ramdas Pophale) SiO2 
 PCOD9056236
Probable space group: P -1
;
_chemical_formula_sum "Si O2"
_cell_formula_units_Z 15
_cell_length_a 12.017778
_cell_length_b 8.375125
_cell_length_c 12.272523
_cell_angle_alpha 91.462205
_cell_angle_beta 36.180118
_cell_angle_gamma 71.008737
_cell_volume 590.497539
_symmetry_space_group_name_H-M "P -1"
_symmetry_group_IT_number 2
_symmetry_cell_setting 'triclinic'
loop_
_space_group_symop_operation_xyz
x,y,z
-x,-y,-z
loop_
_atom_site_type_symbol
_atom_site_label
_atom_site_fract_x
_atom_site_fract_y
_atom_site_fract_z
Si Si1 0.097912 0.439421 0.180931
Si Si2 0.103278 0.805933 0.650720
Si Si3 0.365504 0.030594 0.716350
Si Si4 0.869841 0.400852 0.047279
Si Si5 0.661361 0.210989 0.102360
Si Si6 0.500000 0.500000 0.500000
Si Si7 0.188175 0.302136 0.410463
Si Si8 0.403621 0.880728 0.264763
O O1 0.993503 0.322433 0.299085
O O2 0.939253 0.648755 0.370232
O O3 0.068394 0.482871 0.076274
O O4 0.375523 0.296857 0.979074
O O5 0.285307 0.686543 0.601387
O O6 0.236400 0.831481 0.448727
O O7 0.881118 0.015752 0.871727
O O8 0.475306 0.077881 0.730447
O O9 0.500000 0.000000 0.500000
O O10 0.382895 0.839395 0.741739
O O11 0.097207 0.197739 0.905246
O O12 0.727499 0.358272 0.074643
O O13 0.684759 0.521203 0.288363
O O14 0.425194 0.286700 0.229039
O O15 0.000000 0.500000 0.500000
O O16 0.260410 0.087383 0.316330
#
# Coordination Sequence:
#
# PCOD9056236 Si02
#       8
#     2   2   2   2   2   1   2   2
#     4  12  25  46  72 100 145 186 229 299 350 415
#     4  12  24  44  67 101 151 187 237 278 341 417
#     4  11  22  36  63  97 143 190 231 272 334 408
#     4  12  24  39  66 103 143 188 239 271 342 417
#     4  11  23  44  66  98 139 183 231 300 345 409
#     4  12  24  34  64 100 144 194 236 264 322 418
#     4  11  26  51  79 102 131 179 241 305 374 425
#     4  11  25  47  68 104 147 184 235 295 344 413
#
# _framework density 25.402308999999999
#
# number of rings (size 3 to 8) (size 9 to 14) (size 15 to 20)
#    0.000    0.533    5.333    4.400    3.733    1.600 
#    0.000    3.333    0.000    0.000    0.000    0.000 
#    0.000    0.000    0.000    0.000    0.000    0.000 
#
# Total GULP energy -83809.785567 kJ/mol
# GULP energy per Si atom -5587.319038 kJ/mol
# Density = 2.534449 g / cm^3
# Si number density = 25.402309 Si / 1000 Ang^3
#
#
#
# Elastic Constant Matrix: (Units=GPa)
#
#
# Indices 1 2 3 4 5 6 
#
# 1 37.7448 28.5060 32.1237 -1.8780 -19.9003 -7.0510
# 2 28.5060 106.5691 39.9870 3.1027 -39.0882 -5.6842
# 3 32.1237 39.9870 200.1487 6.5136 -38.6709 -5.3904
# 4 -1.8780 3.1027 6.5136 51.9625 -3.4515 -13.0361
# 5 -19.9003 -39.0882 -38.6709 -3.4515 32.0731 13.2967
# 6 -7.0510 -5.6842 -5.3904 -13.0361 13.2967 37.1473
#
#
#
# Elastic Compliance Matrix: (Units=1/GPa)
#
#
# Indices 1 2 3 4 5 6 
#
# 1 0.041271 -0.003539 -0.002532 0.003662 0.017886 0.001808
# 2 -0.003539 0.018668 0.001577 -0.001563 0.025264 -0.007178
# 3 -0.002532 0.001577 0.006962 -0.001203 0.009948 -0.003212
# 4 0.003662 -0.001563 -0.001203 0.021654 -0.002373 0.008729
# 5 0.017886 0.025264 0.009948 -0.002373 0.095751 -0.026402
# 6 0.001808 -0.007178 -0.003212 0.008729 -0.026402 0.038212
#
#
# Mechanical properties :
#
#
# Convention : Reuss Voigt Hill
#
# Bulk Modulus (GPa) = 17.26697 60.63288 38.94993
# Shear Modulus (GPa) = 19.93535 40.49298 30.21416
#
# Velocity S-wave (km/s) = 2.80444 3.99691 3.45255
# Velocity P-wave (km/s) = 4.15917 6.72467 5.59106
#
# Compressibility (1/GPa) = 0.05791403
#
# Stress axis : x y z
#
# Youngs Moduli (GPa) = 24.22981 53.56844 143.63230
#
# Poissons Ratio (x) = 0.18961 0.36362
# Poissons Ratio (y) = 0.08576 -0.22656
# Poissons Ratio (z) = 0.06134 -0.08450
#
# Static dielectric constant tensor:
#      x y z
#    x -1.491060 -1.297640 -3.437530 
#    y -1.297640 1.530490 -1.256490 
#    z -3.437530 -1.256490 -1.445280 
# 
# From -- ./inp_files/528466.got.cif
#   From: 2010.05.17/outbox.cif.g08.bks.cpg/sg2_265_cif.got.tgz:528466.got - 2010.06.03 11:33:40.
