data_PCOD9056079
_publ_section_title
;
Structure prediction by ZEFSAII (Michael W. Deem and Ramdas Pophale) SiO2 
 PCOD9056079
Probable space group: P -1
;
_chemical_formula_sum "Si O2"
_cell_formula_units_Z 14
_cell_length_a 9.473320
_cell_length_b 9.332110
_cell_length_c 12.756457
_cell_angle_alpha 84.949391
_cell_angle_beta 128.940817
_cell_angle_gamma 133.328395
_cell_volume 507.247753
_symmetry_space_group_name_H-M "P -1"
_symmetry_group_IT_number 2
_symmetry_cell_setting 'triclinic'
loop_
_space_group_symop_operation_xyz
x,y,z
-x,-y,-z
loop_
_atom_site_type_symbol
_atom_site_label
_atom_site_fract_x
_atom_site_fract_y
_atom_site_fract_z
Si Si1 0.338502 0.098288 0.057321
Si Si2 0.764926 0.562934 0.754202
Si Si3 0.292686 0.899038 0.667064
Si Si4 0.512682 0.486622 0.840823
Si Si5 0.719770 0.377255 0.535350
Si Si6 0.857803 0.134783 0.633328
Si Si7 0.301888 0.682952 0.002787
O O1 0.459213 0.069575 0.205494
O O2 0.366811 0.276348 0.100338
O O3 0.565352 0.204954 0.058456
O O4 0.001024 0.844594 0.870730
O O5 0.484473 0.419599 0.710813
O O6 0.694560 0.480128 0.608197
O O7 0.009447 0.427823 0.112240
O O8 0.288847 0.967423 0.546910
O O9 0.955235 0.604281 0.548713
O O10 0.417956 0.088125 0.802495
O O11 0.742378 0.515038 0.992171
O O12 0.191545 0.277277 0.767999
O O13 0.866335 0.314191 0.640188
O O14 0.364637 0.093538 0.377005
#
# Coordination Sequence:
#
# PCOD9056079 Si02
#       7
#     2   2   2   2   2   2   2
#     4  11  22  44  69  97 130 175 229 273 339 391
#     4  11  22  43  68  97 130 178 225 271 343 396
#     4  11  21  45  75  93 135 178 223 277 324 408
#     4  12  25  41  64 104 141 166 222 288 324 398
#     4  11  22  45  72  95 133 180 227 266 331 408
#     4  11  26  43  69 104 132 180 226 270 335 396
#     4  11  22  42  71  95 132 178 222 273 342 396
#
# _framework density 27.599924000000001
#
# number of rings (size 3 to 8) (size 9 to 14) (size 15 to 20)
#    0.000    0.857    4.286    3.429    0.000    3.429 
#    2.571    4.286    0.000    0.000    0.000    0.000 
#    0.000    0.000    0.000    0.000    0.000    0.000 
#
# Total GULP energy -78437.657485 kJ/mol
# GULP energy per Si atom -5602.689820 kJ/mol
# Density = 2.753711 g / cm^3
# Si number density = 27.599924 Si / 1000 Ang^3
#
#
#
# Elastic Constant Matrix: (Units=GPa)
#
#
# Indices 1 2 3 4 5 6 
#
# 1 195.3746 40.1192 37.0680 12.2849 -12.3798 -7.2563
# 2 40.1192 89.6052 28.8983 17.2561 8.2362 -5.7954
# 3 37.0680 28.8983 50.4760 8.0698 -9.6883 -3.1604
# 4 12.2849 17.2561 8.0698 45.7560 5.6270 10.7932
# 5 -12.3798 8.2362 -9.6883 5.6270 53.7644 -7.3423
# 6 -7.2563 -5.7954 -3.1604 10.7932 -7.3423 58.7897
#
#
#
# Elastic Compliance Matrix: (Units=1/GPa)
#
#
# Indices 1 2 3 4 5 6 
#
# 1 0.006229 -0.001676 -0.003188 -0.000814 0.001303 0.000744
# 2 -0.001676 0.015534 -0.007652 -0.003898 -0.003575 0.001182
# 3 -0.003188 -0.007652 0.028144 -0.002317 0.005962 0.001535
# 4 -0.000814 -0.003898 -0.002317 0.025743 -0.003490 -0.005771
# 5 0.001303 -0.003575 0.005962 -0.003490 0.021356 0.003437
# 6 0.000744 0.001182 0.001535 -0.005771 0.003437 0.018790
#
#
# Mechanical properties :
#
#
# Convention : Reuss Voigt Hill
#
# Bulk Modulus (GPa) = 40.19915 60.84742 50.52328
# Shear Modulus (GPa) = 33.53038 46.95337 40.24188
#
# Velocity S-wave (km/s) = 3.48928 4.12905 3.82258
# Velocity P-wave (km/s) = 5.55248 6.69524 6.15046
#
# Compressibility (1/GPa) = 0.02487615
#
# Stress axis : x y z
#
# Youngs Moduli (GPa) = 160.54711 64.37587 35.53120
#
# Poissons Ratio (x) = 0.10786 0.11327
# Poissons Ratio (y) = 0.26900 0.27188
# Poissons Ratio (z) = 0.51182 0.49259
#
# Static dielectric constant tensor:
#      x y z
#    x 2.095070 0.033190 -0.027410 
#    y 0.033190 2.187300 -0.030590 
#    z -0.027410 -0.030590 2.233990 
# 
# From -- ./inp_files/493053.got.cif
#   From: 2010.05.17/outbox.cif.g08.bks.cpg/sg2_247_cif.got.tgz:493053.got - 2010.06.03 11:33:40.
