data_PCOD9056453
_publ_section_title
;
Structure prediction by ZEFSAII (Michael W. Deem and Ramdas Pophale) SiO2 
 PCOD9056453
Probable space group: P -1
;
_chemical_formula_sum "Si O2"
_cell_formula_units_Z 14
_cell_length_a 8.844515
_cell_length_b 5.405812
_cell_length_c 21.882906
_cell_angle_alpha 129.925008
_cell_angle_beta 133.350188
_cell_angle_gamma 60.629516
_cell_volume 581.114457
_symmetry_space_group_name_H-M "P -1"
_symmetry_group_IT_number 2
_symmetry_cell_setting 'triclinic'
loop_
_space_group_symop_operation_xyz
x,y,z
-x,-y,-z
loop_
_atom_site_type_symbol
_atom_site_label
_atom_site_fract_x
_atom_site_fract_y
_atom_site_fract_z
Si Si1 0.600383 0.148903 0.455462
Si Si2 0.016772 0.537995 0.167517
Si Si3 0.195170 0.733625 0.774495
Si Si4 0.536374 0.476937 0.728474
Si Si5 0.186776 0.728861 0.585400
Si Si6 0.630944 0.282338 0.052442
Si Si7 0.909466 0.268686 0.647725
O O1 0.500000 0.500000 0.500000
O O2 0.781541 0.162601 0.457538
O O3 0.721264 0.074285 0.540722
O O4 0.457089 0.907116 0.344654
O O5 0.230307 0.456775 0.176912
O O6 0.117161 0.591605 0.270511
O O7 0.861238 0.252942 0.079694
O O8 0.878802 0.884751 0.173748
O O9 0.371872 0.624897 0.757006
O O10 0.294049 0.577199 0.840019
O O11 0.981149 0.569198 0.675435
O O12 0.415418 0.601817 0.652980
O O13 0.000000 0.500000 0.500000
O O14 0.108758 0.015452 0.654575
O O15 0.500000 0.500000 0.000000
O O16 0.500000 0.000000 0.000000
#
# Coordination Sequence:
#
# PCOD9056453 Si02
#       7
#     2   2   2   2   2   2   2
#     4  12  25  38  58  91 141 195 251 296 347 411
#     4  11  25  43  74 106 140 185 240 302 367 436
#     4  11  23  45  73 101 146 182 240 298 369 429
#     4  12  25  42  66 106 143 187 247 301 354 420
#     4  12  23  38  61  87 138 197 254 294 350 408
#     4  11  24  51  84 111 143 188 230 294 382 462
#     4  11  22  39  60  94 135 198 246 295 351 418
#
# _framework density 24.091640000000002
#
# number of rings (size 3 to 8) (size 9 to 14) (size 15 to 20)
#    0.000    0.571    5.714    3.000    2.000    2.286 
#    0.000    1.429    0.000    0.000    0.000    0.000 
#    0.000    0.000    0.000    0.000    0.000    0.000 
#
# Total GULP energy -77935.358165 kJ/mol
# GULP energy per Si atom -5566.811297 kJ/mol
# Density = 2.403681 g / cm^3
# Si number density = 24.091640 Si / 1000 Ang^3
#
#
#
# Elastic Constant Matrix: (Units=GPa)
#
#
# Indices 1 2 3 4 5 6 
#
# 1 75.1542 24.0542 20.8634 -9.5957 31.5644 -4.5730
# 2 24.0542 86.4946 19.8767 -6.0631 16.1600 -14.1988
# 3 20.8634 19.8767 99.3744 -13.6784 36.3961 10.2006
# 4 -9.5957 -6.0631 -13.6784 38.8696 12.3505 3.1889
# 5 31.5644 16.1600 36.3961 12.3505 48.9801 0.2608
# 6 -4.5730 -14.1988 10.2006 3.1889 0.2608 39.3452
#
#
#
# Elastic Compliance Matrix: (Units=1/GPa)
#
#
# Indices 1 2 3 4 5 6 
#
# 1 0.023918 -0.002901 0.005974 0.014815 -0.022626 -0.000866
# 2 -0.002901 0.014026 -0.002118 0.000743 -0.001400 0.005222
# 3 0.005974 -0.002118 0.020142 0.015769 -0.022060 -0.006424
# 4 0.014815 0.000743 0.015769 0.046022 -0.033084 -0.005609
# 5 -0.022626 -0.001400 -0.022060 -0.033084 0.060168 0.004867
# 6 -0.000866 0.005222 -0.006424 -0.005609 0.004867 0.029288
#
#
# Mechanical properties :
#
#
# Convention : Reuss Voigt Hill
#
# Bulk Modulus (GPa) = 16.66782 43.40131 30.03457
# Shear Modulus (GPa) = 23.62391 38.52091 31.07241
#
# Velocity S-wave (km/s) = 3.13483 4.00300 3.59522
# Velocity P-wave (km/s) = 4.47620 6.27850 5.45234
#
# Compressibility (1/GPa) = 0.05999584
#
# Stress axis : x y z
#
# Youngs Moduli (GPa) = 41.80988 71.29804 49.64847
#
# Poissons Ratio (x) = 0.20682 -0.29659
# Poissons Ratio (y) = 0.12128 0.10513
# Poissons Ratio (z) = -0.24976 0.15098
#
# Static dielectric constant tensor:
#      x y z
#    x 2.077400 0.133010 0.111750 
#    y 0.133010 2.164780 0.017710 
#    z 0.111750 0.017710 2.024120 
# 
# From -- ./inp_files/35630.got.cif
#   From: 2010.05.17/outbox.cif.g08.bks.cpg/sg2_18_cif.got.tgz:35630.got - 2010.06.03 11:33:40.
