data_PCOD9056061
_publ_section_title
;
Structure prediction by ZEFSAII (Michael W. Deem and Ramdas Pophale) SiO2 
 PCOD9056061
Probable space group: P -1
;
_chemical_formula_sum "Si O2"
_cell_formula_units_Z 16
_cell_length_a 7.951606
_cell_length_b 15.116703
_cell_length_c 9.753050
_cell_angle_alpha 42.018323
_cell_angle_beta 78.310372
_cell_angle_gamma 70.626433
_cell_volume 738.504372
_symmetry_space_group_name_H-M "P -1"
_symmetry_group_IT_number 2
_symmetry_cell_setting 'triclinic'
loop_
_space_group_symop_operation_xyz
x,y,z
-x,-y,-z
loop_
_atom_site_type_symbol
_atom_site_label
_atom_site_fract_x
_atom_site_fract_y
_atom_site_fract_z
Si Si1 0.318872 0.962340 0.029754
Si Si2 0.391910 0.453865 0.416455
Si Si3 0.799806 0.717301 0.004356
Si Si4 0.753546 0.232516 0.517925
Si Si5 0.390851 0.759641 0.992805
Si Si6 0.847626 0.433146 0.434432
Si Si7 0.894875 0.152517 0.296199
Si Si8 0.841184 0.741454 0.285249
O O1 0.349800 0.841365 0.050675
O O2 0.190661 0.105116 0.830502
O O3 0.246868 0.904975 0.243509
O O4 0.500000 0.000000 0.000000
O O5 0.581012 0.351621 0.460097
O O6 0.334936 0.486117 0.548746
O O7 0.266044 0.354528 0.513145
O O8 0.376158 0.602818 0.182843
O O9 0.599067 0.752361 0.934979
O O10 0.948602 0.775768 0.842919
O O11 0.879466 0.553786 0.198254
O O12 0.780282 0.768265 0.106804
O O13 0.896563 0.300218 0.481973
O O14 0.774686 0.217843 0.371102
O O15 0.240099 0.836743 0.821123
O O16 0.037724 0.638170 0.371212
O O17 0.000000 0.000000 0.500000
#
# Coordination Sequence:
#
# PCOD9056061 Si02
#       8
#     2   2   2   2   2   2   2   2
#     4  12  23  43  74 111 136 182 247 296 352 432
#     4  11  21  45  73 106 134 178 242 300 351 414
#     4  11  23  47  71 101 144 187 241 288 355 434
#     4  12  25  44  72 102 144 185 238 291 356 424
#     4  12  25  48  79  98 143 195 232 300 365 407
#     4  11  22  41  73 110 139 179 235 313 358 402
#     4  12  31  50  65 103 153 191 235 290 355 441
#     4  11  23  38  74 110 142 178 238 303 358 415
#
# _framework density 21.665410000000001
#
# number of rings (size 3 to 8) (size 9 to 14) (size 15 to 20)
#    0.000    0.500    5.000    4.875    1.750    2.000 
#    2.250    0.000    0.000    0.000    0.000    0.000 
#    0.000    0.000    0.000    0.000    0.000    0.000 
#
# Total GULP energy -89176.453621 kJ/mol
# GULP energy per Si atom -5573.528351 kJ/mol
# Density = 2.161610 g / cm^3
# Si number density = 21.665410 Si / 1000 Ang^3
#
#
#
# Elastic Constant Matrix: (Units=GPa)
#
#
# Indices 1 2 3 4 5 6 
#
# 1 74.8182 17.2948 69.4237 0.7343 4.6576 -7.3393
# 2 17.2948 72.8311 38.8642 -11.5625 -1.8023 -5.6763
# 3 69.4237 38.8642 135.8118 -22.2121 -4.0191 3.0479
# 4 0.7343 -11.5625 -22.2121 44.1481 -1.5842 3.4149
# 5 4.6576 -1.8023 -4.0191 -1.5842 35.2432 -7.0528
# 6 -7.3393 -5.6763 3.0479 3.4149 -7.0528 21.9065
#
#
#
# Elastic Compliance Matrix: (Units=1/GPa)
#
#
# Indices 1 2 3 4 5 6 
#
# 1 0.033051 0.001952 -0.019747 -0.011263 -0.004070 0.014771
# 2 0.001952 0.017038 -0.005796 0.001086 0.001222 0.006099
# 3 -0.019747 -0.005796 0.021179 0.010479 0.002842 -0.011783
# 4 -0.011263 0.001086 0.010479 0.029155 0.002297 -0.008755
# 5 -0.004070 0.001222 0.002842 0.002297 0.031042 0.008193
# 6 0.014771 0.006099 -0.011783 -0.008755 0.008193 0.057820
#
#
# Mechanical properties :
#
#
# Convention : Reuss Voigt Hill
#
# Bulk Modulus (GPa) = 41.52238 59.40294 50.46266
# Shear Modulus (GPa) = 20.45022 30.78478 25.61750
#
# Velocity S-wave (km/s) = 3.07565 3.77360 3.44236
# Velocity P-wave (km/s) = 5.64089 6.81649 6.25637
#
# Compressibility (1/GPa) = 0.02408340
#
# Stress axis : x y z
#
# Youngs Moduli (GPa) = 30.25620 58.69234 47.21732
#
# Poissons Ratio (x) = -0.11455 0.93242
# Poissons Ratio (y) = -0.05905 0.27369
# Poissons Ratio (z) = 0.59748 0.34021
#
# Static dielectric constant tensor:
#      x y z
#    x 3.070170 0.252460 -0.052870 
#    y 0.252460 1.857410 -0.053300 
#    z -0.052870 -0.053300 1.777090 
# 
# From -- ./inp_files/205015.got.cif
#   From: 2010.05.17/outbox.cif.g08.bks.cpg/sg2_103_cif.got.tgz:205015.got - 2010.06.03 11:33:40.
