data_PCOD9056462
_publ_section_title
;
Structure prediction by ZEFSAII (Michael W. Deem and Ramdas Pophale) SiO2 
 PCOD9056462
Probable space group: P -1
;
_chemical_formula_sum "Si O2"
_cell_formula_units_Z 16
_cell_length_a 19.099010
_cell_length_b 10.889304
_cell_length_c 15.324840
_cell_angle_alpha 150.097764
_cell_angle_beta 150.035269
_cell_angle_gamma 49.706988
_cell_volume 720.602227
_symmetry_space_group_name_H-M "P -1"
_symmetry_group_IT_number 2
_symmetry_cell_setting 'triclinic'
loop_
_space_group_symop_operation_xyz
x,y,z
-x,-y,-z
loop_
_atom_site_type_symbol
_atom_site_label
_atom_site_fract_x
_atom_site_fract_y
_atom_site_fract_z
Si Si1 0.239328 0.190923 0.543698
Si Si2 0.205316 0.028292 0.684261
Si Si3 0.794679 0.720744 0.616852
Si Si4 0.038207 0.053245 0.766860
Si Si5 0.130712 0.598488 0.628478
Si Si6 0.775285 0.525455 0.651680
Si Si7 0.524776 0.788646 0.056378
Si Si8 0.450990 0.285604 0.238014
O O1 0.198951 0.079034 0.332004
O O2 0.257580 0.504746 0.748479
O O3 0.389268 0.181884 0.740936
O O4 0.098958 0.047465 0.370660
O O5 0.186447 0.721515 0.490404
O O6 0.340092 0.145601 0.828384
O O7 0.287002 0.211438 0.968768
O O8 0.050298 0.012059 0.461069
O O9 0.901494 0.582946 0.605669
O O10 0.826416 0.761082 0.778326
O O11 0.616741 0.499873 0.286465
O O12 0.144269 0.890598 0.795991
O O13 0.141640 0.360359 0.096380
O O14 0.000000 0.500000 0.500000
O O15 0.592518 0.405293 0.395945
O O16 0.456261 0.009448 0.106829
O O17 0.500000 0.500000 0.500000
#
# Coordination Sequence:
#
# PCOD9056462 Si02
#       8
#     2   2   2   2   2   2   2   2
#     4   8  19  33  60  84 112 154 193 230 284 341
#     4  10  20  40  58  86 117 155 189 239 290 349
#     4  10  18  33  61  83 114 154 196 228 287 342
#     4  10  20  36  60  86 122 150 192 240 285 339
#     4   8  18  36  52  84 113 158 185 235 284 333
#     4  11  21  36  59  89 114 156 198 232 285 350
#     4  10  17  36  62  83 113 152 195 233 286 346
#     4  11  23  38  61  86 117 149 192 246 296 336
#
# _framework density 22.203651000000001
#
# number of rings (size 3 to 8) (size 9 to 14) (size 15 to 20)
#    0.750    1.500    2.500    1.500    1.750    0.500 
#    0.000    6.250    5.500    1.500    0.000    0.000 
#    0.000    0.000    0.000    0.000    0.000    0.000 
#
# Total GULP energy -89106.325978 kJ/mol
# GULP energy per Si atom -5569.145374 kJ/mol
# Density = 2.215311 g / cm^3
# Si number density = 22.203651 Si / 1000 Ang^3
#
#
#
# Elastic Constant Matrix: (Units=GPa)
#
#
# Indices 1 2 3 4 5 6 
#
# 1 68.7011 20.7004 6.8333 -20.8577 4.6280 13.2365
# 2 20.7004 41.7156 30.0433 -21.4941 -0.3773 16.6580
# 3 6.8333 30.0433 119.6622 -24.6141 -8.5242 7.5689
# 4 -20.8577 -21.4941 -24.6141 16.9801 -0.3560 -5.5707
# 5 4.6280 -0.3773 -8.5242 -0.3560 34.2249 -8.7944
# 6 13.2365 16.6580 7.5689 -5.5707 -8.7944 24.4358
#
#
#
# Elastic Compliance Matrix: (Units=1/GPa)
#
#
# Indices 1 2 3 4 5 6 
#
# 1 0.038254 0.034207 0.010011 0.095259 -0.008644 -0.028536
# 2 0.034207 0.129201 0.008963 0.194851 -0.017228 -0.071162
# 3 0.010011 0.008963 0.014937 0.043442 0.001443 -0.005736
# 4 0.095259 0.194851 0.043442 0.451358 -0.021627 -0.102774
# 5 -0.008644 -0.017228 0.001443 -0.021627 0.036551 0.024204
# 6 -0.028536 -0.071162 -0.005736 -0.102774 0.024204 0.091951
#
#
# Mechanical properties :
#
#
# Convention : Reuss Voigt Hill
#
# Bulk Modulus (GPa) = 3.46317 38.35922 20.91120
# Shear Modulus (GPa) = 6.64767 26.62829 16.63798
#
# Velocity S-wave (km/s) = 1.73218 3.46681 2.74037
# Velocity P-wave (km/s) = 2.35875 5.77396 4.41035
#
# Compressibility (1/GPa) = 0.28875266
#
# Stress axis : x y z
#
# Youngs Moduli (GPa) = 26.14099 7.73986 66.94970
#
# Poissons Ratio (x) = -0.26476 -0.67023
# Poissons Ratio (y) = -0.89420 -0.60004
# Poissons Ratio (z) = -0.26170 -0.06937
#
# Static dielectric constant tensor:
#      x y z
#    x 1.906130 0.056480 -0.021590 
#    y 0.056480 1.828650 -0.023750 
#    z -0.021590 -0.023750 1.834920 
# 
# From -- ./inp_files/223037.got.cif
#   From: 2010.05.17/outbox.cif.g08.bks.cpg/sg2_112_cif.got.tgz:223037.got - 2010.06.03 11:33:40.
