data_PCOD9056683
_publ_section_title
;
Structure prediction by ZEFSAII (Michael W. Deem and Ramdas Pophale) SiO2 
 PCOD9056683
Probable space group: P -1
;
_chemical_formula_sum "Si O2"
_cell_formula_units_Z 15
_cell_length_a 10.012980
_cell_length_b 11.968876
_cell_length_c 6.493830
_cell_angle_alpha 65.740137
_cell_angle_beta 60.746861
_cell_angle_gamma 63.310615
_cell_volume 588.083613
_symmetry_space_group_name_H-M "P -1"
_symmetry_group_IT_number 2
_symmetry_cell_setting 'triclinic'
loop_
_space_group_symop_operation_xyz
x,y,z
-x,-y,-z
loop_
_atom_site_type_symbol
_atom_site_label
_atom_site_fract_x
_atom_site_fract_y
_atom_site_fract_z
Si Si1 0.149032 0.885404 0.393203
Si Si2 0.016278 0.740859 0.910410
Si Si3 0.236727 0.093847 0.712542
Si Si4 0.461128 0.421971 0.400139
Si Si5 0.259715 0.263011 0.183857
Si Si6 0.269485 0.536226 0.107140
Si Si7 0.494779 0.141615 0.759661
Si Si8 0.000000 0.000000 0.000000
O O1 0.139551 0.767648 0.633676
O O2 0.318395 0.908633 0.288157
O O3 0.102297 0.886122 0.189214
O O4 0.000000 0.000000 0.500000
O O5 0.884276 0.710089 0.891456
O O6 0.099790 0.628832 0.089618
O O7 0.918147 0.865660 0.033619
O O8 0.223640 0.199568 0.468832
O O9 0.400784 0.074321 0.725748
O O10 0.180192 0.978548 0.759478
O O11 0.500000 0.500000 0.500000
O O12 0.298628 0.510477 0.345905
O O13 0.455425 0.284677 0.582839
O O14 0.597996 0.406622 0.134878
O O15 0.296771 0.394199 0.102157
O O16 0.404290 0.162485 0.030246
#
# Coordination Sequence:
#
# PCOD9056683 Si02
#       8
#     2   2   2   2   2   2   2   1
#     4  12  26  49  74 100 137 182 244 301 359 423
#     4  11  24  43  72 102 143 190 233 293 355 421
#     4  11  25  47  72 103 142 187 241 297 359 424
#     4  11  22  40  66 105 147 189 233 280 354 428
#     4  11  23  44  68 107 146 182 239 285 358 428
#     4  11  23  39  69 107 144 189 232 284 346 433
#     4  11  25  46  73 103 145 188 230 302 354 428
#     4  12  26  48  74 100 132 190 248 298 360 420
#
# _framework density 25.506575999999999
#
# number of rings (size 3 to 8) (size 9 to 14) (size 15 to 20)
#    0.000    0.800    6.667    0.400    0.000    4.267 
#    0.000    1.333    0.000    0.000    0.000    0.000 
#    0.000    0.000    0.000    0.000    0.000    0.000 
#
# Total GULP energy -83813.377016 kJ/mol
# GULP energy per Si atom -5587.558468 kJ/mol
# Density = 2.544852 g / cm^3
# Si number density = 25.506576 Si / 1000 Ang^3
#
#
#
# Elastic Constant Matrix: (Units=GPa)
#
#
# Indices 1 2 3 4 5 6 
#
# 1 243.8930 50.5369 67.1368 -11.4451 22.3722 -14.3476
# 2 50.5369 41.0643 37.7349 -19.7193 18.7704 -6.9978
# 3 67.1368 37.7349 133.7632 -33.2102 14.1500 -4.7160
# 4 -11.4451 -19.7193 -33.2102 44.4161 -2.1810 7.5757
# 5 22.3722 18.7704 14.1500 -2.1810 60.5456 -8.7241
# 6 -14.3476 -6.9978 -4.7160 7.5757 -8.7241 41.4254
#
#
#
# Elastic Compliance Matrix: (Units=1/GPa)
#
#
# Indices 1 2 3 4 5 6 
#
# 1 0.005973 -0.007313 -0.001743 -0.003212 0.000544 0.001337
# 2 -0.007313 0.051522 -0.005639 0.016186 -0.011344 0.000180
# 3 -0.001743 -0.005639 0.011348 0.005754 -0.000250 -0.001369
# 4 -0.003212 0.016186 0.005754 0.033778 -0.004662 -0.004883
# 5 0.000544 -0.011344 -0.000250 -0.004662 0.020206 0.003352
# 6 0.001337 0.000180 -0.001369 -0.004883 0.003352 0.026076
#
#
# Mechanical properties :
#
#
# Convention : Reuss Voigt Hill
#
# Bulk Modulus (GPa) = 25.34638 81.05974 53.20306
# Shear Modulus (GPa) = 26.11717 46.83155 36.47436
#
# Velocity S-wave (km/s) = 3.20338 4.28957 3.78563
# Velocity P-wave (km/s) = 4.86219 7.50885 6.32549
#
# Compressibility (1/GPa) = 0.03945337
#
# Stress axis : x y z
#
# Youngs Moduli (GPa) = 167.41347 19.40915 88.11977
#
# Poissons Ratio (x) = 0.14194 0.15359
# Poissons Ratio (y) = 1.22427 0.49693
# Poissons Ratio (z) = 0.29179 0.10945
#
# Static dielectric constant tensor:
#      x y z
#    x 2.572570 0.433860 0.108380 
#    y 0.433860 2.464920 0.049380 
#    z 0.108380 0.049380 2.072460 
# 
# From -- ./inp_files/34310.got.cif
#   From: 2010.05.17/outbox.cif.g08.bks.cpg/sg2_18_cif.got.tgz:34310.got - 2010.06.03 11:33:40.
