data_PCOD9056075
_publ_section_title
;
Structure prediction by ZEFSAII (Michael W. Deem and Ramdas Pophale) SiO2 
 PCOD9056075
Probable space group: P -1
;
_chemical_formula_sum "Si O2"
_cell_formula_units_Z 16
_cell_length_a 15.223438
_cell_length_b 6.634256
_cell_length_c 8.310732
_cell_angle_alpha 97.643213
_cell_angle_beta 55.173269
_cell_angle_gamma 93.752985
_cell_volume 682.831446
_symmetry_space_group_name_H-M "P -1"
_symmetry_group_IT_number 2
_symmetry_cell_setting 'triclinic'
loop_
_space_group_symop_operation_xyz
x,y,z
-x,-y,-z
loop_
_atom_site_type_symbol
_atom_site_label
_atom_site_fract_x
_atom_site_fract_y
_atom_site_fract_z
Si Si1 0.471602 0.808806 0.901754
Si Si2 0.024069 0.137660 0.142523
Si Si3 0.160957 0.807779 0.020528
Si Si4 0.148868 0.429235 0.813137
Si Si5 0.403071 0.364777 0.513459
Si Si6 0.287557 0.510237 0.102749
Si Si7 0.906112 0.481851 0.461900
Si Si8 0.347149 0.086113 0.811561
O O1 0.569334 0.687849 0.704399
O O2 0.413025 0.924464 0.828898
O O3 0.392552 0.643230 0.042558
O O4 0.500000 0.000000 0.000000
O O5 0.929879 0.256298 0.344057
O O6 0.107176 0.296408 0.992317
O O7 0.080015 0.977893 0.190798
O O8 0.000000 0.000000 0.000000
O O9 0.112118 0.653524 0.928395
O O10 0.245120 0.952647 0.859897
O O11 0.219855 0.660362 0.069776
O O12 0.278938 0.437797 0.666532
O O13 0.100201 0.385295 0.682818
O O14 0.500000 0.500000 0.500000
O O15 0.402815 0.165152 0.602975
O O16 0.206684 0.482491 0.330474
O O17 0.320215 0.292721 0.965295
O O18 0.000000 0.500000 0.500000
#
# Coordination Sequence:
#
# PCOD9056075 Si02
#       8
#     2   2   2   2   2   2   2   2
#     4  11  27  43  69 108 147 187 235 294 361 430
#     4  12  26  47  74 104 137 191 243 299 352 423
#     4  11  21  45  74  99 142 182 234 306 347 418
#     4  12  26  47  73 108 146 179 253 299 344 434
#     4  12  23  46  76 104 137 195 238 293 360 418
#     4  11  25  47  67 106 149 183 236 301 355 432
#     4  12  28  46  73 104 147 193 229 295 375 419
#     4  11  22  45  72 100 145 187 238 292 357 423
#
# _framework density 23.431842
#
# number of rings (size 3 to 8) (size 9 to 14) (size 15 to 20)
#    0.000    0.500    5.000    3.000    3.500    4.000 
#    2.250    0.000    0.000    0.000    0.000    0.000 
#    0.000    0.000    0.000    0.000    0.000    0.000 
#
# Total GULP energy -89295.732395 kJ/mol
# GULP energy per Si atom -5580.983275 kJ/mol
# Density = 2.337851 g / cm^3
# Si number density = 23.431842 Si / 1000 Ang^3
#
#
#
# Elastic Constant Matrix: (Units=GPa)
#
#
# Indices 1 2 3 4 5 6 
#
# 1 62.7816 10.3977 15.0721 -2.1457 -7.6974 -1.2347
# 2 10.3977 115.1661 28.8653 -1.5754 -13.0575 10.4115
# 3 15.0721 28.8653 134.9309 6.6950 -22.7790 14.7267
# 4 -2.1457 -1.5754 6.6950 40.9962 -2.0726 -3.9027
# 5 -7.6974 -13.0575 -22.7790 -2.0726 36.5129 4.1428
# 6 -1.2347 10.4115 14.7267 -3.9027 4.1428 51.3803
#
#
#
# Elastic Compliance Matrix: (Units=1/GPa)
#
#
# Indices 1 2 3 4 5 6 
#
# 1 0.016775 -0.000961 -0.001453 0.001281 0.002253 0.000930
# 2 -0.000961 0.009565 -0.001331 0.000500 0.002615 -0.001753
# 3 -0.001453 -0.001331 0.009128 -0.001635 0.005151 -0.002921
# 4 0.001281 0.000500 -0.001635 0.024990 0.000592 0.002249
# 5 0.002253 0.002615 0.005151 0.000592 0.032559 -0.004532
# 6 0.000930 -0.001753 -0.002921 0.002249 -0.004532 0.021214
#
#
# Mechanical properties :
#
#
# Convention : Reuss Voigt Hill
#
# Bulk Modulus (GPa) = 35.74312 46.83874 41.29093
# Shear Modulus (GPa) = 38.15457 43.01411 40.58434
#
# Velocity S-wave (km/s) = 4.03962 4.28917 4.16627
# Velocity P-wave (km/s) = 6.08648 6.67548 6.38777
#
# Compressibility (1/GPa) = 0.02797742
#
# Stress axis : x y z
#
# Youngs Moduli (GPa) = 59.61410 104.54490 109.55670
#
# Poissons Ratio (x) = 0.10051 0.15915
# Poissons Ratio (y) = 0.05731 0.14581
# Poissons Ratio (z) = 0.08660 0.13914
#
# Static dielectric constant tensor:
#      x y z
#    x 2.090950 -0.022560 -0.006260 
#    y -0.022560 1.872350 -0.002660 
#    z -0.006260 -0.002660 1.885830 
# 
# From -- ./inp_files/323834.got.cif
#   From: 2010.05.17/outbox.cif.g08.bks.cpg/sg2_162_cif.got.tgz:323834.got - 2010.06.03 11:33:40.
