data_PCOD9056967
_publ_section_title
;
Structure prediction by ZEFSAII (Michael W. Deem and Ramdas Pophale) SiO2 
 PCOD9056967
Probable space group: P -1
;
_chemical_formula_sum "Si O2"
_cell_formula_units_Z 16
_cell_length_a 17.868829
_cell_length_b 11.303942
_cell_length_c 7.855985
_cell_angle_alpha 52.085790
_cell_angle_beta 118.597191
_cell_angle_gamma 148.408241
_cell_volume 651.960481
_symmetry_space_group_name_H-M "P -1"
_symmetry_group_IT_number 2
_symmetry_cell_setting 'triclinic'
loop_
_space_group_symop_operation_xyz
x,y,z
-x,-y,-z
loop_
_atom_site_type_symbol
_atom_site_label
_atom_site_fract_x
_atom_site_fract_y
_atom_site_fract_z
Si Si1 0.090420 0.698956 0.176510
Si Si2 0.009532 0.944795 0.291684
Si Si3 0.775480 0.250617 0.296565
Si Si4 0.616307 0.078045 0.946593
Si Si5 0.445464 0.365962 0.744070
Si Si6 0.753550 0.370688 0.503260
Si Si7 0.879219 0.021013 0.259303
Si Si8 0.739271 0.882557 0.741050
O O1 0.132132 0.588380 0.338382
O O2 0.942969 0.515384 0.274452
O O3 0.215650 0.969092 0.169457
O O4 0.088826 0.760483 0.931869
O O5 0.852371 0.655210 0.334711
O O6 0.974011 0.067430 0.180422
O O7 0.065122 0.959414 0.519467
O O8 0.139347 0.072282 0.201295
O O9 0.743697 0.257086 0.066025
O O10 0.698847 0.231697 0.384417
O O11 0.748316 0.034141 0.481314
O O12 0.577592 0.847282 0.081748
O O13 0.643900 0.206180 0.687308
O O14 0.500000 0.000000 0.000000
O O15 0.500000 0.500000 0.500000
O O16 0.293399 0.236869 0.715270
O O17 0.578046 0.593693 0.811213
#
# Coordination Sequence:
#
# PCOD9056967 Si02
#       8
#     2   2   2   2   2   2   2   2
#     4  11  22  43  69 103 125 173 238 276 336 403
#     4  11  22  41  66  99 134 171 223 290 332 389
#     4  11  22  44  73 102 133 177 225 288 339 394
#     4  12  28  45  70 102 135 180 233 276 333 417
#     4  12  24  45  66  92 140 187 214 273 351 409
#     4  11  23  43  71  99 133 175 229 282 341 391
#     4  11  25  39  66 101 132 178 226 274 344 409
#     4  11  22  41  71  93 136 176 222 276 337 403
#
# _framework density 24.541367000000001
#
# number of rings (size 3 to 8) (size 9 to 14) (size 15 to 20)
#    0.000    0.750    6.250    1.500    1.750    3.500 
#    2.250    0.000    0.000    0.000    0.000    0.000 
#    0.000    0.000    0.000    0.000    0.000    0.000 
#
# Total GULP energy -89414.541913 kJ/mol
# GULP energy per Si atom -5588.408870 kJ/mol
# Density = 2.448551 g / cm^3
# Si number density = 24.541367 Si / 1000 Ang^3
#
#
#
# Elastic Constant Matrix: (Units=GPa)
#
#
# Indices 1 2 3 4 5 6 
#
# 1 110.7362 31.3021 -4.2147 -4.6689 -10.1917 7.8150
# 2 31.3021 142.0868 13.2476 -9.3279 -1.5495 -3.7784
# 3 -4.2147 13.2476 49.3517 -0.3284 -10.0738 -2.2308
# 4 -4.6689 -9.3279 -0.3284 19.9955 -2.2788 2.2570
# 5 -10.1917 -1.5495 -10.0738 -2.2788 35.9169 -8.3125
# 6 7.8150 -3.7784 -2.2308 2.2570 -8.3125 25.7887
#
#
#
# Elastic Compliance Matrix: (Units=1/GPa)
#
#
# Indices 1 2 3 4 5 6 
#
# 1 0.010305 -0.002365 0.002011 0.001954 0.002926 -0.002523
# 2 -0.002365 0.008002 -0.002378 0.002941 -0.000515 0.001260
# 3 0.002011 -0.002378 0.022799 0.000218 0.007680 0.003471
# 4 0.001954 0.002941 0.000218 0.052629 0.003223 -0.003710
# 5 0.002926 -0.000515 0.007680 0.003223 0.033363 0.010174
# 6 -0.002523 0.001260 0.003471 -0.003710 0.010174 0.043630
#
#
# Mechanical properties :
#
#
# Convention : Reuss Voigt Hill
#
# Bulk Modulus (GPa) = 28.05694 42.53827 35.29760
# Shear Modulus (GPa) = 26.58547 33.79620 30.19084
#
# Velocity S-wave (km/s) = 3.29491 3.71497 3.51123
# Velocity P-wave (km/s) = 5.09240 5.98099 5.55450
#
# Compressibility (1/GPa) = 0.03564181
#
# Stress axis : x y z
#
# Youngs Moduli (GPa) = 97.03803 124.97522 43.86191
#
# Poissons Ratio (x) = 0.29552 -0.08821
# Poissons Ratio (y) = 0.22946 0.10432
# Poissons Ratio (z) = -0.19515 0.29724
#
# Static dielectric constant tensor:
#      x y z
#    x 1.982480 0.017240 -0.080520 
#    y 0.017240 1.973440 0.019410 
#    z -0.080520 0.019410 2.091440 
# 
# From -- ./inp_files/262193.got.cif
#   From: 2010.05.17/outbox.cif.g08.bks.cpg/sg2_132_cif.got.tgz:262193.got - 2010.06.03 11:33:40.
