data_PCOD9056827
_publ_section_title
;
Structure prediction by ZEFSAII (Michael W. Deem and Ramdas Pophale) SiO2 
 PCOD9056827
Probable space group: P -1
;
_chemical_formula_sum "Si O2"
_cell_formula_units_Z 16
_cell_length_a 12.034386
_cell_length_b 14.947160
_cell_length_c 9.212213
_cell_angle_alpha 114.706852
_cell_angle_beta 100.752335
_cell_angle_gamma 31.160242
_cell_volume 725.504972
_symmetry_space_group_name_H-M "P -1"
_symmetry_group_IT_number 2
_symmetry_cell_setting 'triclinic'
loop_
_space_group_symop_operation_xyz
x,y,z
-x,-y,-z
loop_
_atom_site_type_symbol
_atom_site_label
_atom_site_fract_x
_atom_site_fract_y
_atom_site_fract_z
Si Si1 0.352918 0.571542 0.325684
Si Si2 0.065366 0.036808 0.146442
Si Si3 0.643101 0.031354 0.222411
Si Si4 0.722905 0.441586 0.410850
Si Si5 0.777214 0.621180 0.450036
Si Si6 0.948790 0.440338 0.037904
Si Si7 0.522955 0.727268 0.927454
Si Si8 0.995867 0.068595 0.688471
O O1 0.479538 0.572727 0.416243
O O2 0.192385 0.651678 0.470258
O O3 0.515489 0.353501 0.201111
O O4 0.227499 0.693599 0.230413
O O5 0.888888 0.257721 0.220519
O O6 0.042398 0.990070 0.251055
O O7 0.310291 0.902199 0.100885
O O8 0.000000 0.000000 0.000000
O O9 0.460213 0.146370 0.387489
O O10 0.497785 0.177002 0.142157
O O11 0.797126 0.011798 0.286287
O O12 0.827093 0.803765 0.074360
O O13 0.733619 0.546379 0.454498
O O14 0.846033 0.549508 0.247198
O O15 0.000000 0.500000 0.500000
O O16 0.750012 0.547378 0.957502
O O17 0.000000 0.500000 0.000000
O O18 0.000000 0.000000 0.500000
#
# Coordination Sequence:
#
# PCOD9056827 Si02
#       8
#     2   2   2   2   2   2   2   2
#     4  11  22  40  71 103 150 191 236 310 369 453
#     4  12  24  40  68 108 152 198 242 307 388 454
#     4  12  26  52  80 106 156 202 249 319 385 448
#     4  11  23  43  70 107 147 194 252 302 379 452
#     4  12  29  50  83 112 146 205 263 315 378 454
#     4  12  31  53  77 115 148 201 265 318 378 451
#     4  12  25  47  72 107 154 193 247 315 382 447
#     4  12  24  40  67 112 151 201 250 301 384 463
#
# _framework density 22.053604
#
# number of rings (size 3 to 8) (size 9 to 14) (size 15 to 20)
#    0.000    0.250    6.250    2.250    3.500    4.000 
#    0.000    0.000    0.000    0.000    0.000    0.000 
#    0.000    0.000    0.000    0.000    0.000    0.000 
#
# Total GULP energy -89099.324039 kJ/mol
# GULP energy per Si atom -5568.707752 kJ/mol
# Density = 2.200341 g / cm^3
# Si number density = 22.053604 Si / 1000 Ang^3
#
#
#
# Elastic Constant Matrix: (Units=GPa)
#
#
# Indices 1 2 3 4 5 6 
#
# 1 93.7633 22.0345 36.1664 0.3408 -9.5497 4.4361
# 2 22.0345 110.4830 51.4946 6.7940 -3.7755 8.7286
# 3 36.1664 51.4946 119.4638 -2.8129 -14.4820 8.4738
# 4 0.3408 6.7940 -2.8129 40.3810 1.1186 -2.6719
# 5 -9.5497 -3.7755 -14.4820 1.1186 32.7256 1.6095
# 6 4.4361 8.7286 8.4738 -2.6719 1.6095 23.4703
#
#
#
# Elastic Compliance Matrix: (Units=1/GPa)
#
#
# Indices 1 2 3 4 5 6 
#
# 1 0.012311 -0.000870 -0.003011 -0.000302 0.002224 -0.001103
# 2 -0.000870 0.011793 -0.004781 -0.002468 -0.000791 -0.002722
# 3 -0.003011 -0.004781 0.012002 0.001418 0.003936 -0.002095
# 4 -0.000302 -0.002468 0.001418 0.025529 -0.000786 0.003423
# 5 0.002224 -0.000791 0.003936 -0.000786 0.033075 -0.003905
# 6 -0.001103 -0.002722 -0.002095 0.003423 -0.003905 0.045241
#
#
# Mechanical properties :
#
#
# Convention : Reuss Voigt Hill
#
# Bulk Modulus (GPa) = 53.24318 60.34459 56.79389
# Shear Modulus (GPa) = 30.57428 33.58302 32.07865
#
# Velocity S-wave (km/s) = 3.72743 3.90653 3.81803
# Velocity P-wave (km/s) = 6.53605 6.91159 6.72644
#
# Compressibility (1/GPa) = 0.01878175
#
# Stress axis : x y z
#
# Youngs Moduli (GPa) = 81.22880 84.79816 83.31859
#
# Poissons Ratio (x) = 0.07378 0.25089
# Poissons Ratio (y) = 0.07068 0.39832
# Poissons Ratio (z) = 0.24460 0.40540
#
# Static dielectric constant tensor:
#      x y z
#    x 1.802770 -0.071840 -0.002040 
#    y -0.071840 1.838600 0.065500 
#    z -0.002040 0.065500 1.943490 
# 
# From -- ./inp_files/273769.got.cif
#   From: 2010.05.17/outbox.cif.g08.bks.cpg/sg2_137_cif.got.tgz:273769.got - 2010.06.03 11:33:40.
