data_PCOD9056965
_publ_section_title
;
Structure prediction by ZEFSAII (Michael W. Deem and Ramdas Pophale) SiO2 
 PCOD9056965
Probable space group: P -1
;
_chemical_formula_sum "Si O2"
_cell_formula_units_Z 16
_cell_length_a 13.953020
_cell_length_b 11.116584
_cell_length_c 11.089650
_cell_angle_alpha 119.730442
_cell_angle_beta 36.250012
_cell_angle_gamma 137.420661
_cell_volume 667.273945
_symmetry_space_group_name_H-M "P -1"
_symmetry_group_IT_number 2
_symmetry_cell_setting 'triclinic'
loop_
_space_group_symop_operation_xyz
x,y,z
-x,-y,-z
loop_
_atom_site_type_symbol
_atom_site_label
_atom_site_fract_x
_atom_site_fract_y
_atom_site_fract_z
Si Si1 0.072473 0.746754 0.577188
Si Si2 0.534328 0.678604 0.514909
Si Si3 0.315061 0.657448 0.146252
Si Si4 0.802422 0.376003 0.017063
Si Si5 0.875353 0.830932 0.396950
Si Si6 0.759021 0.756935 0.734066
Si Si7 0.782358 0.966861 0.219823
Si Si8 0.895070 0.218954 0.029280
O O1 0.905427 0.548604 0.710755
O O2 0.905442 0.738570 0.657493
O O3 0.262828 0.769256 0.327851
O O4 0.171054 0.897373 0.655191
O O5 0.500000 0.500000 0.500000
O O6 0.315113 0.626633 0.748687
O O7 0.696730 0.834915 0.528462
O O8 0.604251 0.762616 0.352067
O O9 0.323734 0.693750 0.013489
O O10 0.522093 0.675511 0.973946
O O11 0.838339 0.242757 0.965007
O O12 0.003979 0.594460 0.908982
O O13 0.770160 0.705488 0.559936
O O14 0.098997 0.023759 0.301675
O O15 0.916296 0.778251 0.201778
O O16 0.742727 0.037249 0.175046
O O17 0.000000 0.000000 0.000000
#
# Coordination Sequence:
#
# PCOD9056965 Si02
#       8
#     2   2   2   2   2   2   2   2
#     4  11  24  44  66 107 141 185 239 288 347 427
#     4  12  23  42  69 101 132 179 237 287 351 424
#     4  11  24  43  72 101 145 188 233 288 353 417
#     4  11  23  42  69 100 136 181 237 285 350 420
#     4  11  22  41  66  98 135 174 238 285 346 418
#     4  11  23  42  68  99 140 188 234 289 349 419
#     4  12  23  43  73  97 143 184 223 295 355 409
#     4  11  23  43  68  98 138 183 226 297 354 406
#
# _framework density 23.978159999999999
#
# number of rings (size 3 to 8) (size 9 to 14) (size 15 to 20)
#    0.000    0.750    6.250    1.125    0.000    1.500 
#    0.000    3.750    0.000    0.000    0.000    0.000 
#    0.000    0.000    0.000    0.000    0.000    0.000 
#
# Total GULP energy -89118.816064 kJ/mol
# GULP energy per Si atom -5569.926004 kJ/mol
# Density = 2.392358 g / cm^3
# Si number density = 23.978160 Si / 1000 Ang^3
#
#
#
# Elastic Constant Matrix: (Units=GPa)
#
#
# Indices 1 2 3 4 5 6 
#
# 1 94.7113 8.6484 26.5121 1.3861 16.0916 -17.0971
# 2 8.6484 71.5096 28.8159 -2.7729 13.0422 -16.2491
# 3 26.5121 28.8159 120.9956 -3.1332 18.5769 -15.8553
# 4 1.3861 -2.7729 -3.1332 38.2833 -0.5314 5.7049
# 5 16.0916 13.0422 18.5769 -0.5314 24.3863 -8.7223
# 6 -17.0971 -16.2491 -15.8553 5.7049 -8.7223 34.2168
#
#
#
# Elastic Compliance Matrix: (Units=1/GPa)
#
#
# Indices 1 2 3 4 5 6 
#
# 1 0.012847 0.001280 -0.001548 -0.001322 -0.006245 0.004938
# 2 0.001280 0.017391 -0.002715 -0.000006 -0.005881 0.006142
# 3 -0.001548 -0.002715 0.010174 0.000423 -0.004780 0.001363
# 4 -0.001322 -0.000006 0.000423 0.026959 -0.000698 -0.005140
# 5 -0.006245 -0.005881 -0.004780 -0.000698 0.053952 0.005741
# 6 0.004938 0.006142 0.001363 -0.005140 0.005741 0.037562
#
#
# Mechanical properties :
#
#
# Convention : Reuss Voigt Hill
#
# Bulk Modulus (GPa) = 29.03071 46.12992 37.58031
# Shear Modulus (GPa) = 28.35543 34.25994 31.30769
#
# Velocity S-wave (km/s) = 3.44256 3.78404 3.61733
# Velocity P-wave (km/s) = 5.28536 6.19452 5.75791
#
# Compressibility (1/GPa) = 0.03444628
#
# Stress axis : x y z
#
# Youngs Moduli (GPa) = 77.84150 57.49993 98.29042
#
# Poissons Ratio (x) = -0.07360 0.15216
# Poissons Ratio (y) = -0.09963 0.26682
# Poissons Ratio (z) = 0.12051 0.15609
#
# Static dielectric constant tensor:
#      x y z
#    x 2.056130 -0.115770 -0.021650 
#    y -0.115770 2.147400 0.014650 
#    z -0.021650 0.014650 1.958610 
# 
# From -- ./inp_files/452548.got.cif
#   From: 2010.05.17/outbox.cif.g08.bks.cpg/sg2_227_cif.got.tgz:452548.got - 2010.06.03 11:33:40.
