data_PCOD9056723
_publ_section_title
;
Structure prediction by ZEFSAII (Michael W. Deem and Ramdas Pophale) SiO2 
 PCOD9056723
Probable space group: P -1
;
_chemical_formula_sum "Si O2"
_cell_formula_units_Z 16
_cell_length_a 9.747552
_cell_length_b 11.116650
_cell_length_c 17.153201
_cell_angle_alpha 30.584521
_cell_angle_beta 131.281952
_cell_angle_gamma 122.241426
_cell_volume 707.795847
_symmetry_space_group_name_H-M "P -1"
_symmetry_group_IT_number 2
_symmetry_cell_setting 'triclinic'
loop_
_space_group_symop_operation_xyz
x,y,z
-x,-y,-z
loop_
_atom_site_type_symbol
_atom_site_label
_atom_site_fract_x
_atom_site_fract_y
_atom_site_fract_z
Si Si1 0.539670 0.797204 0.268639
Si Si2 0.422526 0.063047 0.522956
Si Si3 0.930425 0.595611 0.750010
Si Si4 0.149744 0.853498 0.805919
Si Si5 0.876334 0.258099 0.412156
Si Si6 0.234204 0.818347 0.024762
Si Si7 0.309830 0.748621 0.356417
Si Si8 0.924559 0.669108 0.306945
O O1 0.384407 0.835995 0.254609
O O2 0.642323 0.537028 0.464742
O O3 0.673837 0.000527 0.219087
O O4 0.435736 0.781666 0.156505
O O5 0.261016 0.278003 0.357023
O O6 0.586242 0.129428 0.602719
O O7 0.500000 0.000000 0.500000
O O8 0.309592 0.843306 0.629344
O O9 0.096586 0.664854 0.827701
O O10 0.980578 0.699855 0.626747
O O11 0.896604 0.320307 0.890454
O O12 0.183290 0.726053 0.972148
O O13 0.979000 0.058924 0.619105
O O14 0.832920 0.499851 0.307387
O O15 0.198833 0.100183 0.843212
O O16 0.095279 0.778109 0.270249
O O17 0.000000 0.500000 0.500000
#
# Coordination Sequence:
#
# PCOD9056723 Si02
#       8
#     2   2   2   2   2   2   2   2
#     4  11  22  41  66  98 128 174 221 281 327 398
#     4  11  23  40  69 101 135 177 225 279 332 403
#     4  11  24  43  69 100 133 177 231 273 337 405
#     4  11  22  41  66  94 131 173 222 274 330 397
#     4  11  22  43  71  97 132 181 228 272 332 410
#     4  12  25  42  68  99 137 173 224 285 337 388
#     4  11  22  40  67  95 134 169 226 270 335 400
#     4  12  24  43  68  96 136 178 223 276 340 403
#
# _framework density 22.605388999999999
#
# number of rings (size 3 to 8) (size 9 to 14) (size 15 to 20)
#    0.000    0.750    3.750    5.250    1.750    2.000 
#    2.250    0.000    0.000    3.000    0.000    0.000 
#    0.000    0.000    0.000    0.000    0.000    0.000 
#
# Total GULP energy -89397.341865 kJ/mol
# GULP energy per Si atom -5587.333867 kJ/mol
# Density = 2.255394 g / cm^3
# Si number density = 22.605389 Si / 1000 Ang^3
#
#
#
# Elastic Constant Matrix: (Units=GPa)
#
#
# Indices 1 2 3 4 5 6 
#
# 1 69.6926 2.7846 -1.0699 -14.7568 -12.2025 1.3805
# 2 2.7846 139.7649 10.1602 -8.6229 -10.3449 16.2391
# 3 -1.0699 10.1602 32.8144 -11.1274 -8.7000 3.8938
# 4 -14.7568 -8.6229 -11.1274 29.3391 -0.3844 -8.3156
# 5 -12.2025 -10.3449 -8.7000 -0.3844 15.3018 -4.4900
# 6 1.3805 16.2391 3.8938 -8.3156 -4.4900 43.8971
#
#
#
# Elastic Compliance Matrix: (Units=1/GPa)
#
#
# Indices 1 2 3 4 5 6 
#
# 1 0.023716 0.001394 0.014265 0.019319 0.029674 0.004168
# 2 0.001394 0.007945 0.000384 0.002736 0.006224 -0.001862
# 3 0.014265 0.000384 0.051366 0.028656 0.042931 0.004673
# 4 0.019319 0.002736 0.028656 0.059076 0.038243 0.010941
# 5 0.029674 0.006224 0.042931 0.038243 0.122323 0.012712
# 6 0.004168 -0.001862 0.004673 0.010941 0.012712 0.026297
#
#
# Mechanical properties :
#
#
# Convention : Reuss Voigt Hill
#
# Bulk Modulus (GPa) = 8.68701 29.55797 19.12249
# Shear Modulus (GPa) = 16.83471 33.06738 24.95105
#
# Velocity S-wave (km/s) = 2.73192 3.82882 3.32590
# Velocity P-wave (km/s) = 3.71516 5.71406 4.81938
#
# Compressibility (1/GPa) = 0.11511434
#
# Stress axis : x y z
#
# Youngs Moduli (GPa) = 42.16639 125.86533 19.46826
#
# Poissons Ratio (x) = -0.17552 -0.27772
# Poissons Ratio (y) = -0.05880 -0.00748
# Poissons Ratio (z) = -0.60151 -0.04839
#
# Static dielectric constant tensor:
#      x y z
#    x 1.901010 -0.029420 0.000450 
#    y -0.029420 1.832050 -0.005910 
#    z 0.000450 -0.005910 1.867460 
# 
# From -- ./inp_files/184926.got.cif
#   From: 2010.05.17/outbox.cif.g08.bks.cpg/sg2_93_cif.got.tgz:184926.got - 2010.06.03 11:33:40.
