data_PCOD9056826
_publ_section_title
;
Structure prediction by ZEFSAII (Michael W. Deem and Ramdas Pophale) SiO2 
 PCOD9056826
Probable space group: P -1
;
_chemical_formula_sum "Si O2"
_cell_formula_units_Z 16
_cell_length_a 10.155000
_cell_length_b 14.781576
_cell_length_c 5.973975
_cell_angle_alpha 91.077922
_cell_angle_beta 116.719339
_cell_angle_gamma 108.238868
_cell_volume 747.167399
_symmetry_space_group_name_H-M "P -1"
_symmetry_group_IT_number 2
_symmetry_cell_setting 'triclinic'
loop_
_space_group_symop_operation_xyz
x,y,z
-x,-y,-z
loop_
_atom_site_type_symbol
_atom_site_label
_atom_site_fract_x
_atom_site_fract_y
_atom_site_fract_z
Si Si1 0.372286 0.961262 0.205100
Si Si2 0.574601 0.536033 0.810971
Si Si3 0.256830 0.255683 0.902692
Si Si4 0.511449 0.848832 0.993892
Si Si5 0.220834 0.704155 0.498851
Si Si6 0.063736 0.335582 0.416740
Si Si7 0.176608 0.516835 0.207660
Si Si8 0.051209 0.818469 0.074094
O O1 0.189795 0.920234 0.136752
O O2 0.500000 0.000000 0.500000
O O3 0.402179 0.048675 0.058230
O O4 0.415839 0.874152 0.123626
O O5 0.500000 0.500000 0.500000
O O6 0.725543 0.502992 0.920437
O O7 0.500000 0.500000 0.000000
O O8 0.632245 0.652934 0.863448
O O9 0.174261 0.304330 0.666105
O O10 0.110954 0.184892 0.934564
O O11 0.360800 0.200780 0.865621
O O12 0.379286 0.776787 0.730002
O O13 0.251216 0.623385 0.369341
O O14 0.136449 0.764473 0.296999
O O15 0.087561 0.652727 0.579503
O O16 0.162571 0.434707 0.375561
O O17 0.997513 0.248227 0.185383
O O18 0.000000 0.500000 0.000000
#
# Coordination Sequence:
#
# PCOD9056826 Si02
#       8
#     2   2   2   2   2   2   2   2
#     4  11  24  46  74 100 133 168 232 304 360 427
#     4  12  27  47  68 103 154 200 243 301 359 427
#     4  11  26  44  67 101 144 188 230 286 362 434
#     4  11  25  43  69 104 131 176 234 289 363 431
#     4  11  22  40  71 103 135 184 240 290 349 422
#     4  11  22  44  67 101 148 184 235 292 353 427
#     4  12  23  42  70 105 136 189 247 288 341 421
#     4  11  22  44  70  99 137 180 230 292 355 419
#
# _framework density 21.414210000000001
#
# number of rings (size 3 to 8) (size 9 to 14) (size 15 to 20)
#    0.000    0.750    5.000    2.625    0.000    4.500 
#    0.000    1.250    0.000    0.000    0.000    0.000 
#    0.000    0.000    0.000    0.000    0.000    0.000 
#
# Total GULP energy -89423.179194 kJ/mol
# GULP energy per Si atom -5588.948700 kJ/mol
# Density = 2.136547 g / cm^3
# Si number density = 21.414210 Si / 1000 Ang^3
#
#
#
# Elastic Constant Matrix: (Units=GPa)
#
#
# Indices 1 2 3 4 5 6 
#
# 1 142.3716 45.4312 23.8982 -1.9942 -4.4289 0.3639
# 2 45.4312 69.1772 10.7499 15.2158 4.1803 1.7744
# 3 23.8982 10.7499 49.9978 5.3051 7.8047 -1.7363
# 4 -1.9942 15.2158 5.3051 29.9722 2.8795 -1.0152
# 5 -4.4289 4.1803 7.8047 2.8795 27.9059 0.1649
# 6 0.3639 1.7744 -1.7363 -1.0152 0.1649 42.9624
#
#
#
# Elastic Compliance Matrix: (Units=1/GPa)
#
#
# Indices 1 2 3 4 5 6 
#
# 1 0.010282 -0.007354 -0.004384 0.004866 0.003457 0.000141
# 2 -0.007354 0.021956 0.000502 -0.011433 -0.003410 -0.001081
# 3 -0.004384 0.000502 0.023529 -0.004014 -0.006943 0.000899
# 4 0.004866 -0.011433 -0.004014 0.040298 -0.000558 0.001223
# 5 0.003457 -0.003410 -0.006943 -0.000558 0.038895 -0.000332
# 6 0.000141 -0.001081 0.000899 0.001223 -0.000332 0.023386
#
#
# Mechanical properties :
#
#
# Convention : Reuss Voigt Hill
#
# Bulk Modulus (GPa) = 30.03444 46.85613 38.44529
# Shear Modulus (GPa) = 26.05294 32.26592 29.15943
#
# Velocity S-wave (km/s) = 3.49179 3.88590 3.69411
# Velocity P-wave (km/s) = 5.50570 6.48552 6.01559
#
# Compressibility (1/GPa) = 0.03329511
#
# Stress axis : x y z
#
# Youngs Moduli (GPa) = 97.25892 45.54604 42.49988
#
# Poissons Ratio (x) = 0.33494 0.18634
# Poissons Ratio (y) = 0.71524 -0.02135
# Poissons Ratio (z) = 0.42642 -0.02288
#
# Static dielectric constant tensor:
#      x y z
#    x 1.819910 0.033930 -0.003850 
#    y 0.033930 1.755440 -0.017900 
#    z -0.003850 -0.017900 1.796510 
# 
# From -- ./inp_files/39529.got.cif
#   From: 2010.05.17/outbox.cif.g08.bks.cpg/sg2_20_cif.got.tgz:39529.got - 2010.06.03 11:33:40.
