data_PCOD9056052
_publ_section_title
;
Structure prediction by ZEFSAII (Michael W. Deem and Ramdas Pophale) SiO2 
 PCOD9056052
Probable space group: P -1
;
_chemical_formula_sum "Si O2"
_cell_formula_units_Z 14
_cell_length_a 14.948425
_cell_length_b 11.372883
_cell_length_c 8.318650
_cell_angle_alpha 122.219961
_cell_angle_beta 72.727594
_cell_angle_gamma 149.262400
_cell_volume 567.340593
_symmetry_space_group_name_H-M "P -1"
_symmetry_group_IT_number 2
_symmetry_cell_setting 'triclinic'
loop_
_space_group_symop_operation_xyz
x,y,z
-x,-y,-z
loop_
_atom_site_type_symbol
_atom_site_label
_atom_site_fract_x
_atom_site_fract_y
_atom_site_fract_z
Si Si1 0.722411 0.529185 0.260024
Si Si2 0.965278 0.588207 0.470608
Si Si3 0.065625 0.868317 0.118129
Si Si4 0.488954 0.636120 0.185626
Si Si5 0.732630 0.863689 0.484511
Si Si6 0.157908 0.288651 0.291617
Si Si7 0.314635 0.958339 0.906813
O O1 0.771359 0.600323 0.476746
O O2 0.761355 0.739077 0.329755
O O3 0.505083 0.212026 0.099177
O O4 0.874308 0.630953 0.154127
O O5 0.961144 0.724746 0.673725
O O6 0.000000 0.500000 0.500000
O O7 0.122486 0.833554 0.437026
O O8 0.769967 0.301679 0.273648
O O9 0.075134 0.027109 0.137234
O O10 0.243833 0.108333 0.320217
O O11 0.132867 0.814444 0.957043
O O12 0.300240 0.475433 0.201732
O O13 0.620820 0.896899 0.193448
O O14 0.544203 0.673114 0.366124
O O15 0.500000 0.500000 0.000000
#
# Coordination Sequence:
#
# PCOD9056052 Si02
#       7
#     2   2   2   2   2   2   2
#     4  11  22  45  75 105 130 178 246 280 335 413
#     4  12  26  46  66 100 147 182 224 280 355 416
#     4  11  22  45  77 101 132 182 239 286 337 405
#     4  12  23  42  71 106 139 176 235 288 338 408
#     4  11  21  45  71  97 137 180 228 281 342 411
#     4  11  23  45  74  98 137 188 228 284 344 410
#     4  12  27  42  67 112 141 173 230 294 342 404
#
# _framework density 24.676534
#
# number of rings (size 3 to 8) (size 9 to 14) (size 15 to 20)
#    0.000    0.571    7.143    1.714    0.000    5.143 
#    2.571    2.857    0.000    0.000    0.000    0.000 
#    0.000    0.000    0.000    0.000    0.000    0.000 
#
# Total GULP energy -78107.280406 kJ/mol
# GULP energy per Si atom -5579.091458 kJ/mol
# Density = 2.462037 g / cm^3
# Si number density = 24.676534 Si / 1000 Ang^3
#
#
#
# Elastic Constant Matrix: (Units=GPa)
#
#
# Indices 1 2 3 4 5 6 
#
# 1 87.9125 0.6032 26.9356 0.6338 2.8493 -8.1784
# 2 0.6032 103.8774 29.4363 -5.0968 -13.4986 -2.7258
# 3 26.9356 29.4363 88.8470 14.3077 2.0203 6.3445
# 4 0.6338 -5.0968 14.3077 44.0473 9.1505 -12.4840
# 5 2.8493 -13.4986 2.0203 9.1505 39.4999 9.3506
# 6 -8.1784 -2.7258 6.3445 -12.4840 9.3506 37.7726
#
#
#
# Elastic Compliance Matrix: (Units=1/GPa)
#
#
# Indices 1 2 3 4 5 6 
#
# 1 0.013725 0.001566 -0.005707 0.004067 -0.002529 0.006013
# 2 0.001566 0.011629 -0.005045 0.003021 0.002872 0.002313
# 3 -0.005707 -0.005045 0.016494 -0.008305 0.001543 -0.007497
# 4 0.004067 0.003021 -0.008305 0.032189 -0.009987 0.015604
# 5 -0.002529 0.002872 0.001543 -0.009987 0.031483 -0.011694
# 6 0.006013 0.002313 -0.007497 0.015604 -0.011694 0.037254
#
#
# Mechanical properties :
#
#
# Convention : Reuss Voigt Hill
#
# Bulk Modulus (GPa) = 42.59299 43.84301 43.21800
# Shear Modulus (GPa) = 29.59086 39.17475 34.38281
#
# Velocity S-wave (km/s) = 3.46663 3.98871 3.73680
# Velocity P-wave (km/s) = 5.77247 6.24649 6.01415
#
# Compressibility (1/GPa) = 0.02347804
#
# Stress axis : x y z
#
# Youngs Moduli (GPa) = 72.86132 85.98980 60.62671
#
# Poissons Ratio (x) = -0.13468 0.34598
# Poissons Ratio (y) = -0.11411 0.30584
# Poissons Ratio (z) = 0.41579 0.43379
#
# Static dielectric constant tensor:
#      x y z
#    x 2.157470 0.081170 0.100860 
#    y 0.081170 1.955690 0.023280 
#    z 0.100860 0.023280 2.014520 
# 
# From -- ./inp_files/180547.got.cif
#   From: 2010.05.17/outbox.cif.g08.bks.cpg/sg2_91_cif.got.tgz:180547.got - 2010.06.03 11:33:40.
