data_PCOD9056027
_publ_section_title
;
Structure prediction by ZEFSAII (Michael W. Deem and Ramdas Pophale) SiO2 
 PCOD9056027
Probable space group: P -1
;
_chemical_formula_sum "Si O2"
_cell_formula_units_Z 16
_cell_length_a 25.239042
_cell_length_b 9.524391
_cell_length_c 8.952597
_cell_angle_alpha 42.404969
_cell_angle_beta 42.476953
_cell_angle_gamma 36.913775
_cell_volume 812.086747
_symmetry_space_group_name_H-M "P -1"
_symmetry_group_IT_number 2
_symmetry_cell_setting 'triclinic'
loop_
_space_group_symop_operation_xyz
x,y,z
-x,-y,-z
loop_
_atom_site_type_symbol
_atom_site_label
_atom_site_fract_x
_atom_site_fract_y
_atom_site_fract_z
Si Si1 0.665214 0.360464 0.869135
Si Si2 0.003311 0.752102 0.160606
Si Si3 0.487947 0.552364 0.305111
Si Si4 0.147671 0.735378 0.310162
Si Si5 0.591471 0.738636 0.460896
Si Si6 0.978303 0.297370 0.155010
Si Si7 0.668564 0.985948 0.912452
Si Si8 0.851691 0.652682 0.596118
O O1 0.763743 0.262931 0.820365
O O2 0.642153 0.582948 0.627945
O O3 0.666794 0.159351 0.913045
O O4 0.585005 0.450502 0.091981
O O5 0.902584 0.784475 0.322724
O O6 0.061644 0.575286 0.314505
O O7 0.061358 0.627489 0.987439
O O8 0.000000 0.000000 0.000000
O O9 0.500000 0.500000 0.500000
O O10 0.443806 0.407447 0.443400
O O11 0.414349 0.837730 0.174079
O O12 0.177631 0.492191 0.338459
O O13 0.094084 0.707325 0.581686
O O14 0.070579 0.009180 0.185533
O O15 0.500000 0.000000 0.500000
O O16 0.651650 0.793904 0.182481
O O17 0.000000 0.500000 0.000000
O O18 0.766179 0.842218 0.732029
#
# Coordination Sequence:
#
# PCOD9056027 Si02
#       8
#     2   2   2   2   2   2   2   2
#     4  11  25  43  66  97 132 173 223 269 326 395
#     4  11  24  44  68  90 135 177 214 269 326 387
#     4  11  25  44  66 100 133 169 215 277 328 388
#     4  11  26  42  64 100 133 163 224 274 318 395
#     4  11  21  45  69  87 129 179 220 263 322 392
#     4  11  24  45  66  91 131 178 212 265 332 385
#     4  11  25  44  67  95 133 176 222 266 328 398
#     4  11  26  42  64 102 130 169 223 270 325 390
#
# _framework density 19.702328000000001
#
# number of rings (size 3 to 8) (size 9 to 14) (size 15 to 20)
#    0.000    1.000    5.000    0.750    7.000    3.500 
#    0.000    0.000    0.000    0.000    0.000    0.000 
#    0.000    0.000    0.000    0.000    0.000    0.000 
#
# Total GULP energy -89292.980466 kJ/mol
# GULP energy per Si atom -5580.811279 kJ/mol
# Density = 1.965748 g / cm^3
# Si number density = 19.702328 Si / 1000 Ang^3
#
#
#
# Elastic Constant Matrix: (Units=GPa)
#
#
# Indices 1 2 3 4 5 6 
#
# 1 82.8471 5.5883 28.3648 7.5844 -1.5812 7.5944
# 2 5.5883 66.0068 34.8618 14.9310 -10.1646 6.1188
# 3 28.3648 34.8618 140.0338 6.5954 4.8871 -0.7339
# 4 7.5844 14.9310 6.5954 30.7967 7.8943 -4.9755
# 5 -1.5812 -10.1646 4.8871 7.8943 19.7258 9.5085
# 6 7.5944 6.1188 -0.7339 -4.9755 9.5085 26.9749
#
#
#
# Elastic Compliance Matrix: (Units=1/GPa)
#
#
# Indices 1 2 3 4 5 6 
#
# 1 0.018153 0.013581 -0.007228 -0.020690 0.029403 -0.022569
# 2 0.013581 0.052386 -0.016306 -0.054635 0.080269 -0.054522
# 3 -0.007228 -0.016306 0.012942 0.017317 -0.028421 0.019298
# 4 -0.020690 -0.054635 0.017317 0.101369 -0.111666 0.076748
# 5 0.029403 0.080269 -0.028421 -0.111666 0.203850 -0.119712
# 6 -0.022569 -0.054522 0.019298 0.076748 -0.119712 0.112672
#
#
# Mechanical properties :
#
#
# Convention : Reuss Voigt Hill
#
# Bulk Modulus (GPa) = 15.72960 47.39083 31.56021
# Shear Modulus (GPa) = 9.21707 30.17099 19.69403
#
# Velocity S-wave (km/s) = 2.16525 3.91748 3.16504
# Velocity P-wave (km/s) = 3.77519 6.67592 5.42309
#
# Compressibility (1/GPa) = 0.06357442
#
# Stress axis : x y z
#
# Youngs Moduli (GPa) = 55.08684 19.08897 77.26703
#
# Poissons Ratio (x) = -0.25924 0.55848
# Poissons Ratio (y) = -0.74813 1.25995
# Poissons Ratio (z) = 0.39817 0.31127
#
# Static dielectric constant tensor:
#      x y z
#    x 1.675530 -0.033920 0.015430 
#    y -0.033920 1.684950 -0.022030 
#    z 0.015430 -0.022030 1.730970 
# 
# From -- ./inp_files/49077.got.cif
#   From: 2010.05.17/outbox.cif.g08.bks.cpg/sg2_25_cif.got.tgz:49077.got - 2010.06.03 11:33:40.
