data_PCOD9056038
_publ_section_title
;
Structure prediction by ZEFSAII (Michael W. Deem and Ramdas Pophale) SiO2 
 PCOD9056038
Probable space group: P -1
;
_chemical_formula_sum "Si O2"
_cell_formula_units_Z 16
_cell_length_a 11.675883
_cell_length_b 17.772377
_cell_length_c 8.973943
_cell_angle_alpha 136.421711
_cell_angle_beta 53.262696
_cell_angle_gamma 148.342425
_cell_volume 672.845741
_symmetry_space_group_name_H-M "P -1"
_symmetry_group_IT_number 2
_symmetry_cell_setting 'triclinic'
loop_
_space_group_symop_operation_xyz
x,y,z
-x,-y,-z
loop_
_atom_site_type_symbol
_atom_site_label
_atom_site_fract_x
_atom_site_fract_y
_atom_site_fract_z
Si Si1 0.322183 0.865675 0.673886
Si Si2 0.855026 0.695706 0.465335
Si Si3 0.416656 0.677914 0.854927
Si Si4 0.375085 0.381412 0.750424
Si Si5 0.025060 0.854857 0.086231
Si Si6 0.754410 0.769450 0.926337
Si Si7 0.245184 0.772009 0.270964
Si Si8 0.560752 0.821309 0.620493
O O1 0.157048 0.842960 0.867835
O O2 0.218847 0.755207 0.446098
O O3 0.430577 0.835866 0.649646
O O4 0.518319 0.051466 0.718819
O O5 0.680999 0.498527 0.347299
O O6 0.745697 0.705499 0.438404
O O7 0.886184 0.780459 0.712745
O O8 0.071528 0.760554 0.335828
O O9 0.621363 0.784972 0.963220
O O10 0.468639 0.758094 0.769477
O O11 0.237182 0.647283 0.031914
O O12 0.566817 0.578663 0.859927
O O13 0.453352 0.306085 0.626063
O O14 0.185110 0.315305 0.910449
O O15 0.920144 0.884138 0.097278
O O16 0.189414 0.999123 0.286663
#
# Coordination Sequence:
#
# PCOD9056038 Si02
#       8
#     2   2   2   2   2   2   2   2
#     4  11  26  44  65  92 136 169 216 270 324 381
#     4  11  21  45  70  93 129 176 217 262 323 387
#     4  11  23  42  70  96 131 169 216 269 323 382
#     4  11  24  44  68  96 133 173 211 269 327 381
#     4  12  25  43  66  97 131 176 214 266 327 381
#     4  11  23  46  67  95 134 170 220 266 317 386
#     4  11  24  45  66  95 126 176 218 267 317 388
#     4  12  24  44  66 100 133 167 214 273 325 384
#
# _framework density 23.779593999999999
#
# number of rings (size 3 to 8) (size 9 to 14) (size 15 to 20)
#    0.000    0.750    5.000    3.000    3.500    0.500 
#    2.250    1.250    0.000    0.000    0.000    0.000 
#    0.000    0.000    0.000    0.000    0.000    0.000 
#
# Total GULP energy -89548.256825 kJ/mol
# GULP energy per Si atom -5596.766052 kJ/mol
# Density = 2.372547 g / cm^3
# Si number density = 23.779594 Si / 1000 Ang^3
#
#
#
# Elastic Constant Matrix: (Units=GPa)
#
#
# Indices 1 2 3 4 5 6 
#
# 1 137.4484 19.2124 31.3552 1.0269 -4.3996 -4.6714
# 2 19.2124 68.2489 38.5688 -21.0410 -8.4145 -5.7415
# 3 31.3552 38.5688 76.0328 -25.5209 -17.6033 -0.4969
# 4 1.0269 -21.0410 -25.5209 29.4789 8.9519 -3.4093
# 5 -4.3996 -8.4145 -17.6033 8.9519 37.3552 -4.8837
# 6 -4.6714 -5.7415 -0.4969 -3.4093 -4.8837 31.5302
#
#
#
# Elastic Compliance Matrix: (Units=1/GPa)
#
#
# Indices 1 2 3 4 5 6 
#
# 1 0.008566 -0.001403 -0.004603 -0.005188 -0.000187 0.000351
# 2 -0.001403 0.022953 -0.007592 0.010569 -0.000462 0.004924
# 3 -0.004603 -0.007592 0.025355 0.014902 0.006245 0.000914
# 4 -0.005188 0.010569 0.014902 0.056515 -0.003849 0.006906
# 5 -0.000187 -0.000462 0.006245 -0.003849 0.031082 0.004385
# 6 0.000351 0.004924 0.000914 0.006906 0.004385 0.034105
#
#
# Mechanical properties :
#
#
# Convention : Reuss Voigt Hill
#
# Bulk Modulus (GPa) = 33.69435 51.11142 42.40289
# Shear Modulus (GPa) = 23.18395 32.51243 27.84819
#
# Velocity S-wave (km/s) = 3.12581 3.70163 3.42584
# Velocity P-wave (km/s) = 5.21802 6.30951 5.78955
#
# Compressibility (1/GPa) = 0.02967856
#
# Stress axis : x y z
#
# Youngs Moduli (GPa) = 116.73546 43.56680 39.43942
#
# Poissons Ratio (x) = 0.06112 0.18155
# Poissons Ratio (y) = 0.16377 0.29942
# Poissons Ratio (z) = 0.53737 0.33076
#
# Static dielectric constant tensor:
#      x y z
#    x 1.876440 0.007220 0.026220 
#    y 0.007220 1.931030 0.020950 
#    z 0.026220 0.020950 1.915520 
# 
# From -- ./inp_files/279801.got.cif
#   From: 2010.05.17/outbox.cif.g08.bks.cpg/sg2_140_cif.got.tgz:279801.got - 2010.06.03 11:33:40.
