data_PCOD9056371
_publ_section_title
;
Structure prediction by ZEFSAII (Michael W. Deem and Ramdas Pophale) SiO2 
 PCOD9056371
Probable space group: P -1
;
_chemical_formula_sum "Si O2"
_cell_formula_units_Z 16
_cell_length_a 11.026189
_cell_length_b 10.045287
_cell_length_c 14.817881
_cell_angle_alpha 69.019904
_cell_angle_beta 127.044852
_cell_angle_gamma 68.614584
_cell_volume 767.365210
_symmetry_space_group_name_H-M "P -1"
_symmetry_group_IT_number 2
_symmetry_cell_setting 'triclinic'
loop_
_space_group_symop_operation_xyz
x,y,z
-x,-y,-z
loop_
_atom_site_type_symbol
_atom_site_label
_atom_site_fract_x
_atom_site_fract_y
_atom_site_fract_z
Si Si1 0.424609 0.390433 0.004135
Si Si2 0.062503 0.043425 0.604850
Si Si3 0.450029 0.877032 0.043279
Si Si4 0.807567 0.518789 0.431579
Si Si5 0.737694 0.148213 0.576735
Si Si6 0.121002 0.685568 0.303644
Si Si7 0.956768 0.707996 0.843996
Si Si8 0.221582 0.483611 0.201929
O O1 0.650048 0.146140 0.213277
O O2 0.500000 0.500000 0.000000
O O3 0.417715 0.323740 0.919263
O O4 0.179557 0.550436 0.911301
O O5 0.911043 0.299161 0.484914
O O6 0.971339 0.014184 0.654314
O O7 0.000000 0.000000 0.500000
O O8 0.560226 0.755341 0.219049
O O9 0.500000 0.000000 0.000000
O O10 0.161920 0.072208 0.866582
O O11 0.800052 0.485020 0.542222
O O12 0.000000 0.500000 0.500000
O O13 0.733558 0.275568 0.618686
O O14 0.504681 0.317073 0.366661
O O15 0.771039 0.969863 0.677314
O O16 0.144143 0.604916 0.234117
O O17 0.827378 0.649958 0.791201
O O18 0.073042 0.647252 0.009618
#
# Coordination Sequence:
#
# PCOD9056371 Si02
#       8
#     2   2   2   2   2   2   2   2
#     4  12  21  41  67  99 137 170 215 282 340 395
#     4  11  22  38  63  99 134 172 218 272 337 395
#     4  12  22  40  65  96 137 173 215 277 336 404
#     4  11  23  39  63  97 134 173 217 269 339 398
#     4  11  23  44  65  96 135 173 233 275 329 402
#     4  11  24  44  65 100 133 178 228 275 336 402
#     4  11  25  44  68 100 132 181 228 274 341 395
#     4  11  26  45  68  94 137 181 229 279 324 403
#
# _framework density 20.850567999999999
#
# number of rings (size 3 to 8) (size 9 to 14) (size 15 to 20)
#    0.000    0.750    5.000    3.000    0.000    4.500 
#    0.000    2.500    0.000    0.000    0.000    0.000 
#    0.000    0.000    0.000    0.000    0.000    0.000 
#
# Total GULP energy -89435.175178 kJ/mol
# GULP energy per Si atom -5589.698449 kJ/mol
# Density = 2.080311 g / cm^3
# Si number density = 20.850568 Si / 1000 Ang^3
#
#
#
# Elastic Constant Matrix: (Units=GPa)
#
#
# Indices 1 2 3 4 5 6 
#
# 1 24.0598 12.4988 -3.0888 -3.1163 3.4258 -3.1511
# 2 12.4988 91.3932 4.8446 17.4289 -11.2192 -9.4710
# 3 -3.0888 4.8446 96.6940 13.3820 -5.1874 -3.9366
# 4 -3.1163 17.4289 13.3820 31.0435 6.1530 -6.3971
# 5 3.4258 -11.2192 -5.1874 6.1530 35.3346 4.8506
# 6 -3.1511 -9.4710 -3.9366 -6.3971 4.8506 35.1392
#
#
#
# Elastic Compliance Matrix: (Units=1/GPa)
#
#
# Indices 1 2 3 4 5 6 
#
# 1 0.051491 -0.010694 -0.000269 0.014884 -0.011850 0.006051
# 2 -0.010694 0.015631 0.000961 -0.011875 0.008200 0.000068
# 3 -0.000269 0.000961 0.011283 -0.006038 0.003042 -0.000020
# 4 0.014884 -0.011875 -0.006038 0.047771 -0.015558 0.008302
# 5 -0.011850 0.008200 0.003042 -0.015558 0.036077 -0.006324
# 6 0.006051 0.000068 -0.000020 0.008302 -0.006324 0.031401
#
#
# Mechanical properties :
#
#
# Convention : Reuss Voigt Hill
#
# Bulk Modulus (GPa) = 17.12210 26.73958 21.93084
# Shear Modulus (GPa) = 21.44765 33.49628 27.47196
#
# Velocity S-wave (km/s) = 3.21072 4.01246 3.63376
# Velocity P-wave (km/s) = 4.68770 5.85821 5.30534
#
# Compressibility (1/GPa) = 0.05840405
#
# Stress axis : x y z
#
# Youngs Moduli (GPa) = 19.42072 63.97352 88.62815
#
# Poissons Ratio (x) = 0.68411 0.02381
# Poissons Ratio (y) = 0.20768 -0.08520
# Poissons Ratio (z) = 0.00522 -0.06150
#
# Static dielectric constant tensor:
#      x y z
#    x 1.705770 0.037920 0.146860 
#    y 0.037920 1.679820 -0.239710 
#    z 0.146860 -0.239710 1.099730 
# 
# From -- ./inp_files/428738.got.cif
#   From: 2010.05.17/outbox.cif.g08.bks.cpg/sg2_215_cif.got.tgz:428738.got - 2010.06.03 11:33:40.
