data_PCOD9056914
_publ_section_title
;
Structure prediction by ZEFSAII (Michael W. Deem and Ramdas Pophale) SiO2 
 PCOD9056914
Probable space group: P -1
;
_chemical_formula_sum "Si O2"
_cell_formula_units_Z 16
_cell_length_a 11.589131
_cell_length_b 11.434360
_cell_length_c 12.335302
_cell_angle_alpha 48.795320
_cell_angle_beta 33.361496
_cell_angle_gamma 48.785434
_cell_volume 652.548515
_symmetry_space_group_name_H-M "P -1"
_symmetry_group_IT_number 2
_symmetry_cell_setting 'triclinic'
loop_
_space_group_symop_operation_xyz
x,y,z
-x,-y,-z
loop_
_atom_site_type_symbol
_atom_site_label
_atom_site_fract_x
_atom_site_fract_y
_atom_site_fract_z
Si Si1 0.634178 0.818426 0.498748
Si Si2 0.949405 0.652036 0.525485
Si Si3 0.512450 0.776854 0.179042
Si Si4 0.016889 0.521703 0.781588
Si Si5 0.134516 0.797934 0.623833
Si Si6 0.484847 0.577996 0.637281
Si Si7 0.175348 0.180658 0.891750
Si Si8 0.800592 0.091080 0.819335
O O1 0.763654 0.782110 0.530850
O O2 0.521222 0.672029 0.659087
O O3 0.760497 0.814294 0.287430
O O4 0.500000 0.000000 0.500000
O O5 0.000000 0.500000 0.500000
O O6 0.902763 0.590885 0.717113
O O7 0.145656 0.736915 0.326364
O O8 0.273246 0.816175 0.399019
O O9 0.583050 0.588060 0.206325
O O10 0.664408 0.806219 0.140351
O O11 0.442494 0.875534 0.061484
O O12 0.991490 0.672361 0.788702
O O13 0.279544 0.473490 0.577977
O O14 0.987041 0.349486 0.946996
O O15 0.320369 0.711496 0.614271
O O16 0.981931 0.963225 0.685144
O O17 0.157037 0.001334 0.041978
#
# Coordination Sequence:
#
# PCOD9056914 Si02
#       8
#     2   2   2   2   2   2   2   2
#     4  11  23  38  64  90 115 162 215 247 283 356
#     4  12  22  40  63  87 115 168 212 241 283 364
#     4  11  19  39  64  89 119 166 196 241 303 380
#     4  10  19  37  64  86 118 162 206 236 296 367
#     4  11  19  36  65  93 117 155 210 247 292 364
#     4  10  17  36  64  85 111 158 213 235 285 360
#     4  11  23  41  61  90 129 157 188 255 324 351
#     4  12  26  35  61  99 125 148 198 265 309 341
#
# _framework density 24.519248999999999
#
# number of rings (size 3 to 8) (size 9 to 14) (size 15 to 20)
#    0.000    1.000    8.750    2.250    0.000    1.000 
#    0.000    0.000    0.000    1.500    0.000    0.000 
#    0.000    0.000    0.000    0.000    0.000    0.000 
#
# Total GULP energy -89327.766963 kJ/mol
# GULP energy per Si atom -5582.985435 kJ/mol
# Density = 2.446344 g / cm^3
# Si number density = 24.519249 Si / 1000 Ang^3
#
#
#
# Elastic Constant Matrix: (Units=GPa)
#
#
# Indices 1 2 3 4 5 6 
#
# 1 122.2249 16.9826 10.3306 -9.0398 23.3501 -21.3636
# 2 16.9826 113.0672 6.0891 -10.2026 10.1543 -11.4882
# 3 10.3306 6.0891 66.7167 -17.7599 16.2642 -7.3148
# 4 -9.0398 -10.2026 -17.7599 33.8661 -5.5145 14.0027
# 5 23.3501 10.1543 16.2642 -5.5145 36.5946 -22.5333
# 6 -21.3636 -11.4882 -7.3148 14.0027 -22.5333 52.0056
#
#
#
# Elastic Compliance Matrix: (Units=1/GPa)
#
#
# Indices 1 2 3 4 5 6 
#
# 1 0.009534 -0.000764 0.000246 0.001082 -0.005003 0.001323
# 2 -0.000764 0.009344 0.000329 0.002326 -0.001610 0.000473
# 3 0.000246 0.000329 0.019734 0.010643 -0.010043 -0.004268
# 4 0.001082 0.002326 0.010643 0.039608 -0.007027 -0.011254
# 5 -0.005003 -0.001610 -0.010043 -0.007027 0.045255 0.017677
# 6 0.001323 0.000473 -0.004268 -0.011254 0.017677 0.029966
#
#
# Mechanical properties :
#
#
# Convention : Reuss Voigt Hill
#
# Bulk Modulus (GPa) = 26.15426 40.97926 33.56676
# Shear Modulus (GPa) = 30.01872 42.40036 36.20954
#
# Velocity S-wave (km/s) = 3.50278 4.16296 3.84706
# Velocity P-wave (km/s) = 5.20090 6.31319 5.78384
#
# Compressibility (1/GPa) = 0.03823468
#
# Stress axis : x y z
#
# Youngs Moduli (GPa) = 104.88680 107.02270 50.67354
#
# Poissons Ratio (x) = 0.08175 -0.01248
# Poissons Ratio (y) = 0.08012 -0.01667
# Poissons Ratio (z) = -0.02582 -0.03521
#
# Static dielectric constant tensor:
#      x y z
#    x 2.070270 -0.008180 -0.038050 
#    y -0.008180 1.949450 -0.012030 
#    z -0.038050 -0.012030 2.141850 
# 
# From -- ./inp_files/423003.got.cif
#   From: 2010.05.17/outbox.cif.g08.bks.cpg/sg2_212_cif.got.tgz:423003.got - 2010.06.03 11:33:40.
