data_PCOD9056804
_publ_section_title
;
Structure prediction by ZEFSAII (Michael W. Deem and Ramdas Pophale) SiO2 
 PCOD9056804
Probable space group: P -1
;
_chemical_formula_sum "Si O2"
_cell_formula_units_Z 16
_cell_length_a 8.658820
_cell_length_b 10.699436
_cell_length_c 15.023584
_cell_angle_alpha 130.639585
_cell_angle_beta 48.490637
_cell_angle_gamma 109.007416
_cell_volume 777.038198
_symmetry_space_group_name_H-M "P -1"
_symmetry_group_IT_number 2
_symmetry_cell_setting 'triclinic'
loop_
_space_group_symop_operation_xyz
x,y,z
-x,-y,-z
loop_
_atom_site_type_symbol
_atom_site_label
_atom_site_fract_x
_atom_site_fract_y
_atom_site_fract_z
Si Si1 0.558562 0.252027 0.649939
Si Si2 0.267034 0.524605 0.648988
Si Si3 0.861382 0.052179 0.912260
Si Si4 0.088120 0.582538 0.381938
Si Si5 0.630308 0.156912 0.212388
Si Si6 0.798954 0.452422 0.105166
Si Si7 0.640253 0.056178 0.349734
Si Si8 0.247417 0.264282 0.279810
O O1 0.764650 0.285940 0.637373
O O2 0.396513 0.424055 0.804813
O O3 0.605168 0.204605 0.505372
O O4 0.459416 0.097937 0.649665
O O5 0.500000 0.500000 0.500000
O O6 0.212522 0.725165 0.758879
O O7 0.233795 0.495609 0.753391
O O8 0.096232 0.443871 0.625584
O O9 0.757903 0.925609 0.833539
O O10 0.769070 0.027766 0.034068
O O11 0.804907 0.251928 0.004218
O O12 0.111270 0.002745 0.786071
O O13 0.229001 0.402421 0.272489
O O14 0.964390 0.666643 0.554080
O O15 0.539282 0.102015 0.312845
O O16 0.446138 0.256905 0.265847
O O17 0.000000 0.500000 0.000000
#
# Coordination Sequence:
#
# PCOD9056804 Si02
#       8
#     2   2   2   2   2   2   2   2
#     4  11  24  44  66  94 135 182 220 272 328 408
#     4  11  22  40  70 102 129 174 227 280 324 398
#     4  11  22  43  67  97 134 173 216 277 337 395
#     4  11  23  41  67  98 135 169 224 281 331 392
#     4  11  23  39  67  97 133 169 221 279 334 394
#     4  11  24  45  70  99 140 178 223 268 345 400
#     4  11  23  42  67  96 131 178 227 265 329 402
#     4  11  23  40  65 101 132 168 217 278 344 384
#
# _framework density 20.591006
#
# number of rings (size 3 to 8) (size 9 to 14) (size 15 to 20)
#    0.000    1.000    3.750    3.750    3.500    1.000 
#    2.250    1.250    0.000    0.000    0.000    0.000 
#    0.000    0.000    0.000    0.000    0.000    0.000 
#
# Total GULP energy -89133.695440 kJ/mol
# GULP energy per Si atom -5570.855965 kJ/mol
# Density = 2.054414 g / cm^3
# Si number density = 20.591006 Si / 1000 Ang^3
#
#
#
# Elastic Constant Matrix: (Units=GPa)
#
#
# Indices 1 2 3 4 5 6 
#
# 1 83.3582 49.3946 47.4766 0.8928 -1.6518 28.2130
# 2 49.3946 77.8442 38.9648 -1.6571 6.0493 14.5779
# 3 47.4766 38.9648 99.1347 0.6653 -1.1544 7.8602
# 4 0.8928 -1.6571 0.6653 43.6710 3.7566 2.5727
# 5 -1.6518 6.0493 -1.1544 3.7566 35.8849 3.9171
# 6 28.2130 14.5779 7.8602 2.5727 3.9171 33.9136
#
#
#
# Elastic Compliance Matrix: (Units=1/GPa)
#
#
# Indices 1 2 3 4 5 6 
#
# 1 0.030170 -0.011956 -0.008210 -0.000295 0.005205 -0.018636
# 2 -0.011956 0.022107 -0.003155 0.001441 -0.004705 0.001609
# 3 -0.008210 -0.003155 0.014887 -0.000473 0.000164 0.004752
# 4 -0.000295 0.001441 -0.000473 0.023286 -0.002519 -0.001740
# 5 0.005205 -0.004705 0.000164 -0.002519 0.029779 -0.005594
# 6 -0.018636 0.001609 0.004752 -0.001740 -0.005594 0.043975
#
#
# Mechanical properties :
#
#
# Convention : Reuss Voigt Hill
#
# Bulk Modulus (GPa) = 48.72470 59.11213 53.91842
# Shear Modulus (GPa) = 22.96878 30.99396 26.98137
#
# Velocity S-wave (km/s) = 3.34350 3.88392 3.62380
# Velocity P-wave (km/s) = 6.21448 6.99165 6.61449
#
# Compressibility (1/GPa) = 0.02052347
#
# Stress axis : x y z
#
# Youngs Moduli (GPa) = 33.14527 45.23478 67.17079
#
# Poissons Ratio (x) = 0.54081 0.55144
# Poissons Ratio (y) = 0.39627 0.21196
# Poissons Ratio (z) = 0.27211 0.14274
#
# Static dielectric constant tensor:
#      x y z
#    x 1.766110 -0.047650 0.002220 
#    y -0.047650 1.777440 -0.015580 
#    z 0.002220 -0.015580 1.784380 
# 
# From -- ./inp_files/499370.got.cif
#   From: 2010.05.17/outbox.cif.g08.bks.cpg/sg2_250_cif.got.tgz:499370.got - 2010.06.03 11:33:40.
