data_PCOD9056013
_publ_section_title
;
Structure prediction by ZEFSAII (Michael W. Deem and Ramdas Pophale) SiO2 
 PCOD9056013
Probable space group: P -1
;
_chemical_formula_sum "Si O2"
_cell_formula_units_Z 16
_cell_length_a 11.447450
_cell_length_b 18.146844
_cell_length_c 9.712651
_cell_angle_alpha 150.415274
_cell_angle_beta 56.659107
_cell_angle_gamma 130.721436
_cell_volume 754.117486
_symmetry_space_group_name_H-M "P -1"
_symmetry_group_IT_number 2
_symmetry_cell_setting 'triclinic'
loop_
_space_group_symop_operation_xyz
x,y,z
-x,-y,-z
loop_
_atom_site_type_symbol
_atom_site_label
_atom_site_fract_x
_atom_site_fract_y
_atom_site_fract_z
Si Si1 0.663617 0.209080 0.838490
Si Si2 0.139185 0.156168 0.227306
Si Si3 0.356658 0.640246 0.631922
Si Si4 0.396477 0.308591 0.084408
Si Si5 0.316013 0.065246 0.182698
Si Si6 0.409405 0.133987 0.541616
Si Si7 0.257493 0.703214 0.525455
Si Si8 0.061004 0.651569 0.308701
O O1 0.791023 0.218748 0.660590
O O2 0.582367 0.020722 0.636275
O O3 0.720578 0.317871 0.117503
O O4 0.551826 0.284103 0.968723
O O5 0.282342 0.209839 0.119012
O O6 0.195126 0.121440 0.281415
O O7 0.074885 0.292530 0.496688
O O8 0.000000 0.000000 0.000000
O O9 0.408308 0.492687 0.380952
O O10 0.512173 0.805867 0.766609
O O11 0.248808 0.603767 0.508594
O O12 0.338543 0.223866 0.836357
O O13 0.318366 0.070265 0.354381
O O14 0.277566 0.884303 0.855312
O O15 0.580501 0.263182 0.598104
O O16 0.123514 0.629554 0.380817
O O17 0.000000 0.500000 0.000000
#
# Coordination Sequence:
#
# PCOD9056013 Si02
#       8
#     2   2   2   2   2   2   2   2
#     4  12  22  44  69  99 129 176 230 268 316 403
#     4  12  25  45  67  95 139 181 214 268 338 398
#     4  11  23  40  72 100 135 167 223 285 329 380
#     4  12  25  40  67 107 131 168 230 283 319 380
#     4  11  22  42  69  98 134 177 219 270 339 395
#     4  11  22  40  71 101 126 171 231 275 319 390
#     4  11  21  45  67  98 136 177 217 269 343 394
#     4  12  28  43  66  99 138 175 216 271 341 395
#
# _framework density 21.216851999999999
#
# number of rings (size 3 to 8) (size 9 to 14) (size 15 to 20)
#    0.000    0.500    6.250    3.000    1.750    3.000 
#    0.000    7.500    0.000    0.000    0.000    0.000 
#    0.000    0.000    0.000    0.000    0.000    0.000 
#
# Total GULP energy -89491.101644 kJ/mol
# GULP energy per Si atom -5593.193853 kJ/mol
# Density = 2.116856 g / cm^3
# Si number density = 21.216852 Si / 1000 Ang^3
#
#
#
# Elastic Constant Matrix: (Units=GPa)
#
#
# Indices 1 2 3 4 5 6 
#
# 1 111.7453 0.2492 8.1009 -12.4539 23.2612 -21.6918
# 2 0.2492 37.3419 -6.8418 -14.2927 8.0263 -13.2909
# 3 8.1009 -6.8418 92.6312 -10.9877 13.8372 -9.8661
# 4 -12.4539 -14.2927 -10.9877 35.7461 -3.1181 1.6466
# 5 23.2612 8.0263 13.8372 -3.1181 32.8036 -11.3760
# 6 -21.6918 -13.2909 -9.8661 1.6466 -11.3760 26.0568
#
#
#
# Elastic Compliance Matrix: (Units=1/GPa)
#
#
# Indices 1 2 3 4 5 6 
#
# 1 0.014224 0.010916 0.003414 0.008976 -0.008314 0.014504
# 2 0.010916 0.053300 0.011385 0.026061 -0.011317 0.033997
# 3 0.003414 0.011385 0.014569 0.009137 -0.006801 0.010619
# 4 0.008976 0.026061 0.009137 0.042940 -0.005956 0.018911
# 5 -0.008314 -0.011317 -0.006801 -0.005956 0.042761 0.003777
# 6 0.014504 0.033997 0.010619 0.018911 0.003777 0.072268
#
#
# Mechanical properties :
#
#
# Convention : Reuss Voigt Hill
#
# Bulk Modulus (GPa) = 7.48943 27.19277 17.34110
# Shear Modulus (GPa) = 21.44628 34.93529 28.19078
#
# Velocity S-wave (km/s) = 3.18278 4.06221 3.64909
# Velocity P-wave (km/s) = 4.12848 5.90309 5.09367
#
# Compressibility (1/GPa) = 0.13352156
#
# Stress axis : x y z
#
# Youngs Moduli (GPa) = 70.30550 18.76155 68.64070
#
# Poissons Ratio (x) = -0.20479 -0.23433
# Poissons Ratio (y) = -0.76742 -0.78148
# Poissons Ratio (z) = -0.24001 -0.21360
#
# Static dielectric constant tensor:
#      x y z
#    x 1.774260 -0.003870 0.050190 
#    y -0.003870 1.803070 0.016850 
#    z 0.050190 0.016850 1.742180 
# 
# From -- ./inp_files/274304.got.cif
#   From: 2010.05.17/outbox.cif.g08.bks.cpg/sg2_138_cif.got.tgz:274304.got - 2010.06.03 11:33:40.
