data_PCOD9056555
_publ_section_title
;
Structure prediction by ZEFSAII (Michael W. Deem and Ramdas Pophale) SiO2 
 PCOD9056555
Probable space group: P -1
;
_chemical_formula_sum "Si O2"
_cell_formula_units_Z 16
_cell_length_a 10.165941
_cell_length_b 10.702735
_cell_length_c 9.849535
_cell_angle_alpha 90.558308
_cell_angle_beta 42.042846
_cell_angle_gamma 84.948630
_cell_volume 710.341497
_symmetry_space_group_name_H-M "P -1"
_symmetry_group_IT_number 2
_symmetry_cell_setting 'triclinic'
loop_
_space_group_symop_operation_xyz
x,y,z
-x,-y,-z
loop_
_atom_site_type_symbol
_atom_site_label
_atom_site_fract_x
_atom_site_fract_y
_atom_site_fract_z
Si Si1 0.444005 0.833754 0.426439
Si Si2 0.946948 0.238098 0.392189
Si Si3 0.392983 0.910280 0.768581
Si Si4 0.834136 0.686141 0.030445
Si Si5 0.037825 0.802060 0.126805
Si Si6 0.724244 0.509843 0.657732
Si Si7 0.783739 0.788649 0.563231
Si Si8 0.741515 0.457321 0.961040
O O1 0.232797 0.834334 0.516566
O O2 0.414204 0.829936 0.611367
O O3 0.548830 0.954858 0.311063
O O4 0.604549 0.720900 0.248254
O O5 0.839935 0.380964 0.507921
O O6 0.102829 0.245088 0.151971
O O7 0.071043 0.184810 0.427339
O O8 0.554381 0.846813 0.752298
O O9 0.170204 0.908765 0.989699
O O10 0.862285 0.539085 0.967347
O O11 0.959017 0.736766 0.055191
O O12 0.178035 0.689808 0.094582
O O13 0.857635 0.842376 0.366727
O O14 0.793347 0.636722 0.547466
O O15 0.753894 0.506124 0.798055
O O16 0.488294 0.521602 0.819478
#
# Coordination Sequence:
#
# PCOD9056555 Si02
#       8
#     2   2   2   2   2   2   2   2
#     4  11  26  48  69  96 134 177 227 283 334 387
#     4  12  24  43  71 100 138 176 219 270 338 402
#     4  11  26  48  69  96 134 177 227 283 334 387
#     4  12  24  42  69 104 131 175 226 272 331 401
#     4  12  24  42  69 104 131 175 226 272 331 401
#     4  11  22  40  68  97 141 182 204 267 347 399
#     4  12  24  43  71 100 138 176 219 270 338 402
#     4  11  22  39  68 100 140 175 214 269 335 400
#
# _framework density 22.524376
#
# number of rings (size 3 to 8) (size 9 to 14) (size 15 to 20)
#    0.000    0.500    7.500    1.500    0.000    3.000 
#    0.000    3.750    0.000    0.000    0.000    0.000 
#    0.000    0.000    0.000    0.000    0.000    0.000 
#
# Total GULP energy -89547.690832 kJ/mol
# GULP energy per Si atom -5596.730677 kJ/mol
# Density = 2.247311 g / cm^3
# Si number density = 22.524376 Si / 1000 Ang^3
#
#
#
# Elastic Constant Matrix: (Units=GPa)
#
#
# Indices 1 2 3 4 5 6 
#
# 1 106.2941 1.7520 9.2159 -11.6848 -7.8691 16.4850
# 2 1.7520 36.6263 -2.1450 -8.1569 -1.6823 6.1985
# 3 9.2159 -2.1450 86.5293 -14.4410 0.3265 15.9393
# 4 -11.6848 -8.1569 -14.4410 29.7523 2.7471 -9.2693
# 5 -7.8691 -1.6823 0.3265 2.7471 28.2499 -4.8455
# 6 16.4850 6.1985 15.9393 -9.2693 -4.8455 26.9411
#
#
#
# Elastic Compliance Matrix: (Units=1/GPa)
#
#
# Indices 1 2 3 4 5 6 
#
# 1 0.010685 0.001187 0.000410 0.002754 0.001782 -0.005786
# 2 0.001187 0.030432 0.003257 0.008263 0.000138 -0.006787
# 3 0.000410 0.003257 0.013940 0.005601 -0.001706 -0.007627
# 4 0.002754 0.008263 0.005601 0.042099 -0.001649 0.007288
# 5 0.001782 0.000138 -0.001706 -0.001649 0.037111 0.005994
# 6 -0.005786 -0.006787 -0.007627 0.007288 0.005994 0.050318
#
#
# Mechanical properties :
#
#
# Convention : Reuss Voigt Hill
#
# Bulk Modulus (GPa) = 15.44059 27.45504 21.44782
# Shear Modulus (GPa) = 25.44978 31.69711 28.57345
#
# Velocity S-wave (km/s) = 3.36501 3.75538 3.56554
# Velocity P-wave (km/s) = 4.68697 5.56950 5.14719
#
# Compressibility (1/GPa) = 0.06476435
#
# Stress axis : x y z
#
# Youngs Moduli (GPa) = 93.59208 32.86030 71.73560
#
# Poissons Ratio (x) = -0.03901 -0.02942
# Poissons Ratio (y) = -0.11111 -0.23362
# Poissons Ratio (z) = -0.03838 -0.10701
#
# Static dielectric constant tensor:
#      x y z
#    x 1.815150 -0.000530 -0.011650 
#    y -0.000530 1.826600 0.001960 
#    z -0.011650 0.001960 1.830640 
# 
# From -- ./inp_files/187297.got.cif
#   From: 2010.05.17/outbox.cif.g08.bks.cpg/sg2_94_cif.got.tgz:187297.got - 2010.06.03 11:33:40.
