data_PCOD9056016
_publ_section_title
;
Structure prediction by ZEFSAII (Michael W. Deem and Ramdas Pophale) SiO2 
 PCOD9056016
Probable space group: P -1
;
_chemical_formula_sum "Si O2"
_cell_formula_units_Z 16
_cell_length_a 8.896868
_cell_length_b 6.843739
_cell_length_c 18.519391
_cell_angle_alpha 61.788609
_cell_angle_beta 59.178921
_cell_angle_gamma 75.719778
_cell_volume 853.309368
_symmetry_space_group_name_H-M "P -1"
_symmetry_group_IT_number 2
_symmetry_cell_setting 'triclinic'
loop_
_space_group_symop_operation_xyz
x,y,z
-x,-y,-z
loop_
_atom_site_type_symbol
_atom_site_label
_atom_site_fract_x
_atom_site_fract_y
_atom_site_fract_z
Si Si1 0.694188 0.426477 0.983222
Si Si2 0.977073 0.792731 0.839261
Si Si3 0.165060 0.043514 0.001250
Si Si4 0.330313 0.420108 0.328692
Si Si5 0.832951 0.043587 0.581328
Si Si6 0.667149 0.509225 0.511000
Si Si7 0.980545 0.223363 0.662702
Si Si8 0.691878 0.487160 0.145653
O O1 0.704985 0.419422 0.069427
O O2 0.500000 0.500000 0.000000
O O3 0.834007 0.604284 0.886974
O O4 0.727833 0.184088 0.984529
O O5 0.906302 0.879391 0.917973
O O6 0.160662 0.662384 0.825244
O O7 0.993231 0.016597 0.750052
O O8 0.264203 0.253132 0.908108
O O9 0.000000 0.000000 0.000000
O O10 0.361396 0.429647 0.407004
O O11 0.168195 0.586589 0.319559
O O12 0.505541 0.469675 0.232793
O O13 0.279712 0.175241 0.358642
O O14 0.732137 0.256946 0.540370
O O15 0.907127 0.108575 0.629063
O O16 0.000000 0.000000 0.500000
O O17 0.500000 0.500000 0.500000
O O18 0.830436 0.660708 0.416925
#
# Coordination Sequence:
#
# PCOD9056016 Si02
#       8
#     2   2   2   2   2   2   2   2
#     4  11  25  42  66  96 128 172 219 261 322 382
#     4  11  25  42  63  99 128 167 221 263 319 387
#     4  11  21  45  68  84 134 177 204 267 322 372
#     4  11  25  44  66  96 130 173 216 264 326 383
#     4  11  21  45  69  84 129 178 210 262 320 384
#     4  11  25  44  66  98 131 167 214 268 324 386
#     4  11  25  43  65  96 133 168 219 265 322 387
#     4  11  25  42  65  97 129 167 220 264 319 388
#
# _framework density 18.750527000000002
#
# number of rings (size 3 to 8) (size 9 to 14) (size 15 to 20)
#    0.000    1.000    5.000    1.500    7.000    4.500 
#    0.000    0.000    0.000    0.000    0.000    0.000 
#    0.000    0.000    0.000    0.000    0.000    0.000 
#
# Total GULP energy -89277.940835 kJ/mol
# GULP energy per Si atom -5579.871302 kJ/mol
# Density = 1.870785 g / cm^3
# Si number density = 18.750527 Si / 1000 Ang^3
#
#
#
# Elastic Constant Matrix: (Units=GPa)
#
#
# Indices 1 2 3 4 5 6 
#
# 1 123.0153 55.3400 64.8351 -25.2248 -10.2474 -6.6451
# 2 55.3400 150.4186 66.3459 -32.0065 -16.5695 -1.9735
# 3 64.8351 66.3459 153.4235 -36.6642 -27.2141 -5.1728
# 4 -25.2248 -32.0065 -36.6642 30.4790 -4.2579 -4.7892
# 5 -10.2474 -16.5695 -27.2141 -4.2579 32.1425 -4.3792
# 6 -6.6451 -1.9735 -5.1728 -4.7892 -4.3792 25.0658
#
#
#
# Elastic Compliance Matrix: (Units=1/GPa)
#
#
# Indices 1 2 3 4 5 6 
#
# 1 0.011760 -0.001696 -0.002115 0.006419 0.002508 0.004212
# 2 -0.001696 0.010429 0.000435 0.011715 0.007297 0.003974
# 3 -0.002115 0.000435 0.015735 0.021561 0.017066 0.009822
# 4 0.006419 0.011715 0.021561 0.087127 0.042116 0.031079
# 5 0.002508 0.007297 0.017066 0.042116 0.058847 0.023089
# 6 0.004212 0.003974 0.009822 0.031079 0.023089 0.053323
#
#
# Mechanical properties :
#
#
# Convention : Reuss Voigt Hill
#
# Bulk Modulus (GPa) = 32.08197 88.87772 60.47984
# Shear Modulus (GPa) = 19.65690 33.55989 26.60839
#
# Velocity S-wave (km/s) = 3.24132 4.23520 3.77115
# Velocity P-wave (km/s) = 5.58169 8.45097 7.16150
#
# Compressibility (1/GPa) = 0.03117016
#
# Stress axis : x y z
#
# Youngs Moduli (GPa) = 85.03703 95.88664 63.55434
#
# Poissons Ratio (x) = 0.16263 0.13442
# Poissons Ratio (y) = 0.14423 -0.02762
# Poissons Ratio (z) = 0.17986 -0.04167
#
# Static dielectric constant tensor:
#      x y z
#    x 2.045300 0.499590 -0.117270 
#    y 0.499590 2.261210 -0.205830 
#    z -0.117270 -0.205830 1.729930 
# 
# From -- ./inp_files/38532.got.cif
#   From: 2010.05.17/outbox.cif.g08.bks.cpg/sg2_20_cif.got.tgz:38532.got - 2010.06.03 11:33:40.
