data_PCOD9056261
_publ_section_title
;
Structure prediction by ZEFSAII (Michael W. Deem and Ramdas Pophale) SiO2 
 PCOD9056261
Probable space group: P -1
;
_chemical_formula_sum "Si O2"
_cell_formula_units_Z 16
_cell_length_a 10.156536
_cell_length_b 11.137491
_cell_length_c 15.439468
_cell_angle_alpha 50.084150
_cell_angle_beta 111.830396
_cell_angle_gamma 69.031574
_cell_volume 679.015313
_symmetry_space_group_name_H-M "P -1"
_symmetry_group_IT_number 2
_symmetry_cell_setting 'triclinic'
loop_
_space_group_symop_operation_xyz
x,y,z
-x,-y,-z
loop_
_atom_site_type_symbol
_atom_site_label
_atom_site_fract_x
_atom_site_fract_y
_atom_site_fract_z
Si Si1 0.015540 0.306691 0.060428
Si Si2 0.958501 0.534907 0.641326
Si Si3 0.366022 0.411900 0.750502
Si Si4 0.538804 0.074562 0.393924
Si Si5 0.619436 0.975970 0.876867
Si Si6 0.865852 0.174580 0.201160
Si Si7 0.326178 0.730224 0.710213
Si Si8 0.784370 0.911431 0.225858
O O1 0.724725 0.576859 0.826785
O O2 0.044883 0.144524 0.215428
O O3 0.000000 0.500000 0.000000
O O4 0.235724 0.101722 0.137386
O O5 0.103608 0.555620 0.631712
O O6 0.998999 0.375953 0.645835
O O7 0.670602 0.832462 0.468942
O O8 0.147210 0.304532 0.873515
O O9 0.346735 0.607001 0.686037
O O10 0.487685 0.245435 0.767271
O O11 0.571836 0.159107 0.988314
O O12 0.500000 0.000000 0.500000
O O13 0.729970 0.041654 0.437279
O O14 0.399060 0.041494 0.786953
O O15 0.852661 0.179705 0.299680
O O16 0.891208 0.971087 0.268560
O O17 0.589586 0.480652 0.949354
#
# Coordination Sequence:
#
# PCOD9056261 Si02
#       8
#     2   2   2   2   2   2   2   2
#     4  11  24  36  58  85 116 155 184 236 289 334
#     4   9  17  33  56  82 113 146 183 233 282 338
#     4   8  16  32  56  84 106 141 192 236 275 320
#     4  11  22  37  53  86 118 149 188 231 294 336
#     4   9  17  33  58  85 112 142 188 235 280 330
#     4   9  19  35  55  83 112 147 195 230 275 333
#     4   9  19  33  55  82 113 147 188 236 272 337
#     4   8  16  32  58  83 107 147 190 233 273 332
#
# _framework density 23.563531000000001
#
# number of rings (size 3 to 8) (size 9 to 14) (size 15 to 20)
#    0.000    2.750    1.250    1.500    8.750    0.500 
#    2.250    3.125    0.000    0.750    0.000    0.000 
#    0.000    0.000    0.000    0.000    0.000    0.000 
#
# Total GULP energy -89120.652512 kJ/mol
# GULP energy per Si atom -5570.040782 kJ/mol
# Density = 2.350990 g / cm^3
# Si number density = 23.563531 Si / 1000 Ang^3
#
#
#
# Elastic Constant Matrix: (Units=GPa)
#
#
# Indices 1 2 3 4 5 6 
#
# 1 166.2394 109.2656 42.8568 -6.2940 -32.1162 -29.6681
# 2 109.2656 151.3322 25.7133 -23.7847 -7.5255 -32.1256
# 3 42.8568 25.7133 79.5428 -9.6996 -13.8599 -15.8499
# 4 -6.2940 -23.7847 -9.6996 35.6110 -4.8670 11.4153
# 5 -32.1162 -7.5255 -13.8599 -4.8670 47.2408 0.6823
# 6 -29.6681 -32.1256 -15.8499 11.4153 0.6823 46.4759
#
#
#
# Elastic Compliance Matrix: (Units=1/GPa)
#
#
# Indices 1 2 3 4 5 6 
#
# 1 0.015546 -0.010483 -0.003856 -0.005126 0.007203 0.002516
# 2 -0.010483 0.015521 0.001494 0.007568 -0.003476 0.002738
# 3 -0.003856 0.001494 0.015684 0.004014 0.002590 0.002896
# 4 -0.005126 0.007568 0.004014 0.035416 0.002625 -0.005410
# 5 0.007203 -0.003476 0.002590 0.002625 0.026512 0.002045
# 6 0.002516 0.002738 0.002896 -0.005410 0.002045 0.027302
#
#
# Mechanical properties :
#
#
# Convention : Reuss Voigt Hill
#
# Bulk Modulus (GPa) = 47.48143 83.64285 65.56214
# Shear Modulus (GPa) = 29.63962 40.48412 35.06187
#
# Velocity S-wave (km/s) = 3.55048 4.14947 3.86161
# Velocity P-wave (km/s) = 6.08293 7.65058 6.91134
#
# Compressibility (1/GPa) = 0.02106087
#
# Stress axis : x y z
#
# Youngs Moduli (GPa) = 64.32366 64.42846 63.75777
#
# Poissons Ratio (x) = 0.67540 0.24585
# Poissons Ratio (y) = 0.67431 -0.09523
# Poissons Ratio (z) = 0.24803 -0.09623
#
# Static dielectric constant tensor:
#      x y z
#    x 1.884520 0.056640 -0.021940 
#    y 0.056640 1.925580 0.055580 
#    z -0.021940 0.055580 1.923910 
# 
# From -- ./inp_files/401874.got.cif
#   From: 2010.05.17/outbox.cif.g08.bks.cpg/sg2_201_cif.got.tgz:401874.got - 2010.06.03 11:33:40.
