data_PCOD9056624
_publ_section_title
;
Structure prediction by ZEFSAII (Michael W. Deem and Ramdas Pophale) SiO2 
 PCOD9056624
Probable space group: P -1
;
_chemical_formula_sum "Si O2"
_cell_formula_units_Z 16
_cell_length_a 19.403259
_cell_length_b 9.592392
_cell_length_c 10.356363
_cell_angle_alpha 118.528998
_cell_angle_beta 157.348088
_cell_angle_gamma 61.930525
_cell_volume 649.693608
_symmetry_space_group_name_H-M "P -1"
_symmetry_group_IT_number 2
_symmetry_cell_setting 'triclinic'
loop_
_space_group_symop_operation_xyz
x,y,z
-x,-y,-z
loop_
_atom_site_type_symbol
_atom_site_label
_atom_site_fract_x
_atom_site_fract_y
_atom_site_fract_z
Si Si1 0.255352 0.072742 0.605374
Si Si2 0.403055 0.395689 0.103814
Si Si3 0.372540 0.623834 0.915460
Si Si4 0.247640 0.605578 0.153420
Si Si5 0.679370 0.909410 0.832337
Si Si6 0.919814 0.149956 0.222584
Si Si7 0.031530 0.355490 0.746398
Si Si8 0.492774 0.944211 0.171948
O O1 0.307157 0.047674 0.533382
O O2 0.061719 0.067457 0.330671
O O3 0.313117 0.249064 0.820007
O O4 0.377061 0.942387 0.840687
O O5 0.323978 0.456431 0.131059
O O6 0.613317 0.357675 0.479930
O O7 0.374143 0.546186 0.024972
O O8 0.162483 0.651505 0.524609
O O9 0.500000 0.500000 0.000000
O O10 0.463522 0.787856 0.133008
O O11 0.214751 0.747933 0.059174
O O12 0.069016 0.539126 0.872517
O O13 0.500000 0.000000 0.500000
O O14 0.608889 0.913152 0.859495
O O15 0.790915 0.738974 0.924023
O O16 0.828033 0.027521 0.101089
O O17 0.005556 0.267829 0.524637
#
# Coordination Sequence:
#
# PCOD9056624 Si02
#       8
#     2   2   2   2   2   2   2   2
#     4  11  23  41  69  94 129 178 227 277 326 403
#     4  11  22  40  62  98 134 170 217 277 339 388
#     4  12  24  42  69  96 133 178 226 272 333 405
#     4  11  24  36  66 100 134 166 219 283 336 382
#     4  12  27  44  70 102 137 174 223 283 338 392
#     4  12  22  41  67  97 130 175 230 273 322 404
#     4  12  23  42  68  99 130 176 230 273 323 404
#     4  11  23  41  69  95 132 173 228 268 339 392
#
# _framework density 24.626994
#
# number of rings (size 3 to 8) (size 9 to 14) (size 15 to 20)
#    0.000    0.500    6.250    2.250    7.000    0.000 
#    0.000    2.500    0.000    0.000    0.000    0.000 
#    0.000    0.000    0.000    0.000    0.000    0.000 
#
# Total GULP energy -89392.299800 kJ/mol
# GULP energy per Si atom -5587.018737 kJ/mol
# Density = 2.457094 g / cm^3
# Si number density = 24.626994 Si / 1000 Ang^3
#
#
#
# Elastic Constant Matrix: (Units=GPa)
#
#
# Indices 1 2 3 4 5 6 
#
# 1 96.9474 26.0124 43.9935 0.5593 45.2255 -6.4651
# 2 26.0124 71.8361 11.7064 -12.3460 -9.6061 3.8149
# 3 43.9935 11.7064 89.4002 -13.0815 18.9207 -4.3272
# 4 0.5593 -12.3460 -13.0815 40.8867 1.3071 8.1821
# 5 45.2255 -9.6061 18.9207 1.3071 39.7125 -14.4764
# 6 -6.4651 3.8149 -4.3272 8.1821 -14.4764 42.2558
#
#
#
# Elastic Compliance Matrix: (Units=1/GPa)
#
#
# Indices 1 2 3 4 5 6 
#
# 1 0.049574 -0.025309 -0.009605 -0.007248 -0.061721 -0.010855
# 2 -0.025309 0.028575 0.002438 0.007673 0.036015 0.004650
# 3 -0.009605 0.002438 0.015594 0.005697 0.003970 0.000164
# 4 -0.007248 0.007673 0.005697 0.029643 0.004438 -0.005438
# 5 -0.061721 0.036015 0.003970 0.004438 0.111244 0.024963
# 6 -0.010855 0.004650 0.000164 -0.005438 0.024963 0.031207
#
#
# Mechanical properties :
#
#
# Convention : Reuss Voigt Hill
#
# Bulk Modulus (GPa) = 34.73029 46.84537 40.78783
# Shear Modulus (GPa) = 14.68923 36.33577 25.51250
#
# Velocity S-wave (km/s) = 2.44492 3.84532 3.22212
# Velocity P-wave (km/s) = 4.70142 6.22724 5.51733
#
# Compressibility (1/GPa) = 0.02879331
#
# Stress axis : x y z
#
# Youngs Moduli (GPa) = 20.17174 34.99502 64.12689
#
# Poissons Ratio (x) = 0.88568 0.61592
# Poissons Ratio (y) = 0.51052 -0.15634
# Poissons Ratio (z) = 0.19374 -0.08532
#
# Static dielectric constant tensor:
#      x y z
#    x 2.059340 -0.000520 0.054070 
#    y -0.000520 1.972580 -0.025320 
#    z 0.054070 -0.025320 1.966140 
# 
# From -- ./inp_files/308654.got.cif
#   From: 2010.05.17/outbox.cif.g08.bks.cpg/sg2_155_cif.got.tgz:308654.got - 2010.06.03 11:33:40.
