data_PCOD9056228
_publ_section_title
;
Structure prediction by ZEFSAII (Michael W. Deem and Ramdas Pophale) SiO2 
 PCOD9056228
Probable space group: P -1
;
_chemical_formula_sum "Si O2"
_cell_formula_units_Z 16
_cell_length_a 11.726287
_cell_length_b 15.122028
_cell_length_c 12.185100
_cell_angle_alpha 96.215987
_cell_angle_beta 117.662581
_cell_angle_gamma 30.937351
_cell_volume 758.624279
_symmetry_space_group_name_H-M "P -1"
_symmetry_group_IT_number 2
_symmetry_cell_setting 'triclinic'
loop_
_space_group_symop_operation_xyz
x,y,z
-x,-y,-z
loop_
_atom_site_type_symbol
_atom_site_label
_atom_site_fract_x
_atom_site_fract_y
_atom_site_fract_z
Si Si1 0.477453 0.525398 0.667876
Si Si2 0.542439 0.324008 0.515579
Si Si3 0.432326 0.052427 0.350642
Si Si4 0.451218 0.935311 0.027489
Si Si5 0.651561 0.677179 0.899464
Si Si6 0.067119 0.384577 0.609458
Si Si7 0.886596 0.333532 0.999972
Si Si8 0.254283 0.964754 0.554828
O O1 0.622728 0.348163 0.645119
O O2 0.553413 0.559464 0.621860
O O3 0.600836 0.453404 0.839487
O O4 0.088076 0.774248 0.535159
O O5 0.780672 0.092913 0.556413
O O6 0.250443 0.455740 0.458608
O O7 0.474496 0.131359 0.361050
O O8 0.114188 0.198514 0.190969
O O9 0.500000 0.000000 0.500000
O O10 0.720024 0.826178 0.380510
O O11 0.718745 0.727096 0.203514
O O12 0.460527 0.859324 0.923946
O O13 0.142205 0.149603 0.993023
O O14 0.500000 0.000000 0.000000
O O15 0.410286 0.820287 0.710200
O O16 0.737952 0.525355 0.957975
O O17 0.000000 0.500000 0.000000
O O18 0.000000 0.500000 0.500000
#
# Coordination Sequence:
#
# PCOD9056228 Si02
#       8
#     2   2   2   2   2   2   2   2
#     4  11  25  41  63  99 141 177 218 271 338 402
#     4  11  23  39  66  93 139 178 215 271 333 397
#     4  11  24  43  68  95 130 171 229 284 327 395
#     4  11  22  36  62  95 133 166 215 280 335 384
#     4  12  21  34  62  96 129 162 213 278 332 378
#     4  11  23  42  67  99 132 177 225 276 338 399
#     4  11  24  40  60  95 130 168 216 272 331 388
#     4  12  23  40  66 102 131 174 225 273 333 397
#
# _framework density 21.090809
#
# number of rings (size 3 to 8) (size 9 to 14) (size 15 to 20)
#    0.000    0.750    5.000    3.375    5.250    0.000 
#    0.000    0.625    0.000    3.750    0.000    0.000 
#    0.000    0.000    0.000    0.000    0.000    0.000 
#
# Total GULP energy -89128.122835 kJ/mol
# GULP energy per Si atom -5570.507677 kJ/mol
# Density = 2.104281 g / cm^3
# Si number density = 21.090809 Si / 1000 Ang^3
#
#
#
# Elastic Constant Matrix: (Units=GPa)
#
#
# Indices 1 2 3 4 5 6 
#
# 1 33.1160 -4.0169 5.0267 -3.4686 5.8329 7.9290
# 2 -4.0169 100.4248 22.8372 24.8775 10.4337 28.7796
# 3 5.0267 22.8372 102.0793 3.0558 4.7904 -0.7373
# 4 -3.4686 24.8775 3.0558 33.4954 5.8681 8.8435
# 5 5.8329 10.4337 4.7904 5.8681 16.3976 0.5557
# 6 7.9290 28.7796 -0.7373 8.8435 0.5557 35.3646
#
#
#
# Elastic Compliance Matrix: (Units=1/GPa)
#
#
# Indices 1 2 3 4 5 6 
#
# 1 0.039598 0.007310 -0.002978 0.006687 -0.019709 -0.016251
# 2 0.007310 0.017970 -0.003814 -0.006647 -0.010049 -0.014522
# 3 -0.002978 -0.003814 0.010808 0.000515 0.000013 0.003868
# 4 0.006687 -0.006647 0.000515 0.039046 -0.012081 -0.005654
# 5 -0.019709 -0.010049 0.000013 -0.012081 0.078221 0.014389
# 6 -0.016251 -0.014522 0.003868 -0.005654 0.014389 0.045007
#
#
# Mechanical properties :
#
#
# Convention : Reuss Voigt Hill
#
# Bulk Modulus (GPa) = 14.40696 31.47934 22.94315
# Shear Modulus (GPa) = 19.78212 31.16975 25.47594
#
# Velocity S-wave (km/s) = 3.06592 3.84850 3.47928
# Velocity P-wave (km/s) = 4.40215 5.89117 5.20023
#
# Compressibility (1/GPa) = 0.06941090
#
# Stress axis : x y z
#
# Youngs Moduli (GPa) = 25.25351 55.64869 92.52224
#
# Poissons Ratio (x) = -0.40677 0.27552
# Poissons Ratio (y) = -0.18459 0.35293
# Poissons Ratio (z) = 0.07520 0.21227
#
# Static dielectric constant tensor:
#      x y z
#    x 1.819290 -0.010230 0.017460 
#    y -0.010230 1.698420 0.002000 
#    z 0.017460 0.002000 1.866480 
# 
# From -- ./inp_files/357402.got.cif
#   From: 2010.05.17/outbox.cif.g08.bks.cpg/sg2_179_cif.got.tgz:357402.got - 2010.06.03 11:33:40.
