data_PCOD9056891
_publ_section_title
;
Structure prediction by ZEFSAII (Michael W. Deem and Ramdas Pophale) SiO2 
 PCOD9056891
Probable space group: P -1
;
_chemical_formula_sum "Si O2"
_cell_formula_units_Z 16
_cell_length_a 17.656891
_cell_length_b 9.523122
_cell_length_c 11.728227
_cell_angle_alpha 56.148531
_cell_angle_beta 148.392315
_cell_angle_gamma 110.812793
_cell_volume 825.608700
_symmetry_space_group_name_H-M "P -1"
_symmetry_group_IT_number 2
_symmetry_cell_setting 'triclinic'
loop_
_space_group_symop_operation_xyz
x,y,z
-x,-y,-z
loop_
_atom_site_type_symbol
_atom_site_label
_atom_site_fract_x
_atom_site_fract_y
_atom_site_fract_z
Si Si1 0.361365 0.835313 0.484803
Si Si2 0.320621 0.210749 0.378410
Si Si3 0.866124 0.652586 0.703676
Si Si4 0.225222 0.537665 0.533343
Si Si5 0.899239 0.549158 0.188151
Si Si6 0.668977 0.127817 0.839754
Si Si7 0.305037 0.273236 0.954648
Si Si8 0.060316 0.805826 0.712882
O O1 0.289025 0.702298 0.518993
O O2 0.317986 0.026463 0.400794
O O3 0.708964 0.918409 0.011197
O O4 0.541759 0.764639 0.758991
O O5 0.239682 0.239964 0.383071
O O6 0.494347 0.208622 0.609883
O O7 0.224898 0.362047 0.105287
O O8 0.776404 0.559816 0.544803
O O9 0.945347 0.768509 0.675564
O O10 0.000000 0.500000 0.000000
O O11 0.312749 0.395916 0.801795
O O12 0.052899 0.593865 0.330663
O O13 0.832964 0.625676 0.189040
O O14 0.927621 0.340844 0.302713
O O15 0.780894 0.211106 0.014590
O O16 0.683990 0.148485 0.713324
O O17 0.000000 0.000000 0.500000
#
# Coordination Sequence:
#
# PCOD9056891 Si02
#       8
#     2   2   2   2   2   2   2   2
#     4  11  23  40  63  95 120 160 209 256 296 368
#     4  11  22  41  64  94 123 158 211 255 300 360
#     4  11  22  43  62  89 128 161 205 254 301 364
#     4  11  24  38  63  91 123 166 199 253 315 353
#     4  11  22  41  63  90 126 160 204 256 303 363
#     4  11  22  41  67  89 122 166 205 253 304 364
#     4  11  22  44  61  90 129 160 201 255 310 363
#     4  11  25  42  62  95 125 161 207 253 307 366
#
# _framework density 19.379639000000001
#
# number of rings (size 3 to 8) (size 9 to 14) (size 15 to 20)
#    0.000    1.000    5.000    3.750    0.000    4.000 
#    0.000    5.625    0.000    0.000    0.000    0.000 
#    0.000    0.000    0.000    0.000    0.000    0.000 
#
# Total GULP energy -89472.774866 kJ/mol
# GULP energy per Si atom -5592.048429 kJ/mol
# Density = 1.933553 g / cm^3
# Si number density = 19.379639 Si / 1000 Ang^3
#
#
#
# Elastic Constant Matrix: (Units=GPa)
#
#
# Indices 1 2 3 4 5 6 
#
# 1 66.0019 23.2527 9.4951 -14.6963 6.1606 -9.9618
# 2 23.2527 59.4446 13.9206 -3.3273 12.9080 14.8420
# 3 9.4951 13.9206 53.0819 -10.2549 2.1851 -7.9392
# 4 -14.6963 -3.3273 -10.2549 37.3651 3.9458 -2.3000
# 5 6.1606 12.9080 2.1851 3.9458 35.3014 -3.4858
# 6 -9.9618 14.8420 -7.9392 -2.3000 -3.4858 18.8889
#
#
#
# Elastic Compliance Matrix: (Units=1/GPa)
#
#
# Indices 1 2 3 4 5 6 
#
# 1 0.033830 -0.028578 0.011523 0.016183 0.006799 0.048365
# 2 -0.028578 0.054675 -0.022195 -0.014917 -0.019143 -0.072710
# 3 0.011523 -0.022195 0.030629 0.012669 0.006660 0.039163
# 4 0.016183 -0.014917 0.012669 0.037064 0.000687 0.030221
# 5 0.006799 -0.019143 0.006660 0.000687 0.036439 0.028235
# 6 0.048365 -0.072710 0.039163 0.030221 0.028235 0.160931
#
#
# Mechanical properties :
#
#
# Convention : Reuss Voigt Hill
#
# Bulk Modulus (GPa) = 24.60989 30.20725 27.40857
# Shear Modulus (GPa) = 11.22050 27.10175 19.16113
#
# Velocity S-wave (km/s) = 2.40882 3.74366 3.14781
# Velocity P-wave (km/s) = 4.52360 5.85727 5.23310
#
# Compressibility (1/GPa) = 0.04063408
#
# Stress axis : x y z
#
# Youngs Moduli (GPa) = 29.55962 18.29002 32.64870
#
# Poissons Ratio (x) = 0.52269 -0.37622
# Poissons Ratio (y) = 0.84475 0.72464
# Poissons Ratio (z) = -0.34063 0.40595
#
# Static dielectric constant tensor:
#      x y z
#    x 1.668850 0.006760 -0.007220 
#    y 0.006760 1.657590 0.006190 
#    z -0.007220 0.006190 1.691990 
# 
# From -- ./inp_files/461122.got.cif
#   From: 2010.05.17/outbox.cif.g08.bks.cpg/sg2_231_cif.got.tgz:461122.got - 2010.06.03 11:33:40.
