data_PCOD9056424
_publ_section_title
;
Structure prediction by ZEFSAII (Michael W. Deem and Ramdas Pophale) SiO2 
 PCOD9056424
Probable space group: P -1
;
_chemical_formula_sum "Si O2"
_cell_formula_units_Z 16
_cell_length_a 12.055889
_cell_length_b 9.183981
_cell_length_c 18.869857
_cell_angle_alpha 130.051962
_cell_angle_beta 151.061125
_cell_angle_gamma 48.140355
_cell_volume 742.611297
_symmetry_space_group_name_H-M "P -1"
_symmetry_group_IT_number 2
_symmetry_cell_setting 'triclinic'
loop_
_space_group_symop_operation_xyz
x,y,z
-x,-y,-z
loop_
_atom_site_type_symbol
_atom_site_label
_atom_site_fract_x
_atom_site_fract_y
_atom_site_fract_z
Si Si1 0.144099 0.295878 0.978392
Si Si2 0.868226 0.836263 0.232617
Si Si3 0.461124 0.538851 0.211874
Si Si4 0.325469 0.866681 0.982049
Si Si5 0.103564 0.759283 0.679923
Si Si6 0.904727 0.231518 0.039989
Si Si7 0.617229 0.770821 0.481433
Si Si8 0.249569 0.460880 0.370438
O O1 0.401636 0.333602 0.128759
O O2 0.177893 0.098388 0.980457
O O3 0.086843 0.248454 0.850481
O O4 0.000000 0.500000 0.000000
O O5 0.603819 0.844829 0.115542
O O6 0.059422 0.676536 0.335456
O O7 0.902305 0.055147 0.316446
O O8 0.737027 0.456765 0.320767
O O9 0.435673 0.674754 0.309026
O O10 0.277862 0.650040 0.084516
O O11 0.227241 0.799530 0.834334
O O12 0.254548 0.753813 0.973251
O O13 0.839141 0.763466 0.553338
O O14 0.121261 0.329934 0.207570
O O15 0.000000 0.000000 0.000000
O O16 0.703251 0.653800 0.564867
O O17 0.500000 0.000000 0.500000
O O18 0.500000 0.500000 0.500000
#
# Coordination Sequence:
#
# PCOD9056424 Si02
#       8
#     2   2   2   2   2   2   2   2
#     4  11  22  38  69 105 135 174 234 289 346 405
#     4  11  23  45  71 103 139 185 232 292 350 425
#     4  12  25  44  72 101 137 185 241 287 343 423
#     4  11  22  42  73 102 143 179 232 298 352 409
#     4  11  22  46  68 101 141 185 232 280 357 427
#     4  12  26  45  73 109 139 182 248 300 342 416
#     4  12  28  46  70 100 143 190 226 287 365 416
#     4  12  27  47  70 104 145 187 229 288 366 420
#
# _framework density 21.545593
#
# number of rings (size 3 to 8) (size 9 to 14) (size 15 to 20)
#    0.000    0.500    5.000    3.375    7.000    1.000 
#    0.000    0.625    0.000    0.000    0.000    0.000 
#    0.000    0.000    0.000    0.000    0.000    0.000 
#
# Total GULP energy -89388.679136 kJ/mol
# GULP energy per Si atom -5586.792446 kJ/mol
# Density = 2.149655 g / cm^3
# Si number density = 21.545593 Si / 1000 Ang^3
#
#
#
# Elastic Constant Matrix: (Units=GPa)
#
#
# Indices 1 2 3 4 5 6 
#
# 1 69.2346 42.9484 22.9227 -0.0397 11.7660 -0.6018
# 2 42.9484 150.7798 67.3522 -4.6866 -11.0768 -1.8772
# 3 22.9227 67.3522 101.8004 2.2814 0.7505 11.7248
# 4 -0.0397 -4.6866 2.2814 27.0710 1.8795 1.5266
# 5 11.7660 -11.0768 0.7505 1.8795 35.8822 -3.7866
# 6 -0.6018 -1.8772 11.7248 1.5266 -3.7866 37.2233
#
#
#
# Elastic Compliance Matrix: (Units=1/GPa)
#
#
# Indices 1 2 3 4 5 6 
#
# 1 0.019777 -0.006187 -0.000200 -0.000395 -0.008452 -0.000773
# 2 -0.006187 0.012123 -0.007098 0.002075 0.006158 0.003289
# 3 -0.000200 -0.007098 0.015250 -0.002009 -0.002907 -0.005378
# 4 -0.000395 0.002075 -0.002009 0.037608 -0.001257 -0.000939
# 5 -0.008452 0.006158 -0.002907 -0.001257 0.033144 0.004513
# 6 -0.000773 0.003289 -0.005378 -0.000939 0.004513 0.029210
#
#
# Mechanical properties :
#
#
# Convention : Reuss Voigt Hill
#
# Bulk Modulus (GPa) = 49.55268 65.36238 57.45753
# Shear Modulus (GPa) = 27.65348 32.60806 30.13077
#
# Velocity S-wave (km/s) = 3.58646 3.89452 3.74366
# Velocity P-wave (km/s) = 6.34029 7.11517 6.73888
#
# Compressibility (1/GPa) = 0.02018054
#
# Stress axis : x y z
#
# Youngs Moduli (GPa) = 50.56366 82.48768 65.57248
#
# Poissons Ratio (x) = 0.51034 0.01310
# Poissons Ratio (y) = 0.31283 0.46545
# Poissons Ratio (z) = 0.01010 0.58552
#
# Static dielectric constant tensor:
#      x y z
#    x 1.902860 -0.021970 0.064540 
#    y -0.021970 1.776410 0.023290 
#    z 0.064540 0.023290 1.807110 
# 
# From -- ./inp_files/279438.got.cif
#   From: 2010.05.17/outbox.cif.g08.bks.cpg/sg2_140_cif.got.tgz:279438.got - 2010.06.03 11:33:40.
