data_PCOD9056686
_publ_section_title
;
Structure prediction by ZEFSAII (Michael W. Deem and Ramdas Pophale) SiO2 
 PCOD9056686
Probable space group: P -1
;
_chemical_formula_sum "Si O2"
_cell_formula_units_Z 16
_cell_length_a 19.662722
_cell_length_b 9.501075
_cell_length_c 17.289261
_cell_angle_alpha 51.797545
_cell_angle_beta 159.522815
_cell_angle_gamma 116.182240
_cell_volume 767.705852
_symmetry_space_group_name_H-M "P -1"
_symmetry_group_IT_number 2
_symmetry_cell_setting 'triclinic'
loop_
_space_group_symop_operation_xyz
x,y,z
-x,-y,-z
loop_
_atom_site_type_symbol
_atom_site_label
_atom_site_fract_x
_atom_site_fract_y
_atom_site_fract_z
Si Si1 0.533881 0.376679 0.742443
Si Si2 0.968627 0.343110 0.707769
Si Si3 0.596854 0.931889 0.212436
Si Si4 0.499949 0.370772 0.971060
Si Si5 0.027681 0.708998 0.834744
Si Si6 0.165409 0.975314 0.341047
Si Si7 0.368850 0.426187 0.073503
Si Si8 0.966445 0.340461 0.892126
O O1 0.512231 0.191076 0.821936
O O2 0.574636 0.509699 0.805944
O O3 0.289936 0.530676 0.394532
O O4 0.744329 0.292051 0.938790
O O5 0.735284 0.520791 0.362659
O O6 0.954198 0.337324 0.787208
O O7 0.166518 0.382264 0.880612
O O8 0.987552 0.129502 0.772615
O O9 0.865080 0.782452 0.560603
O O10 0.500000 0.000000 0.000000
O O11 0.548505 0.147752 0.124138
O O12 0.674123 0.384088 0.093041
O O13 0.500000 0.500000 0.000000
O O14 0.882209 0.865848 0.694244
O O15 0.078313 0.478573 0.985188
O O16 0.414808 0.780381 0.659694
O O17 0.093669 0.114961 0.140476
#
# Coordination Sequence:
#
# PCOD9056686 Si02
#       8
#     2   2   2   2   2   2   2   2
#     4  11  23  41  67  93 128 164 215 261 305 376
#     4  11  23  41  67  95 126 166 216 257 307 381
#     4  11  22  40  66  91 123 169 214 252 313 380
#     4  11  23  42  64  94 131 163 206 266 318 365
#     4  11  25  42  63  96 131 161 208 269 316 366
#     4  11  25  42  65  96 131 163 208 266 318 368
#     4  11  23  42  66  93 128 166 211 261 310 373
#     4  11  22  43  68  92 127 169 211 256 315 381
#
# _framework density 20.841315999999999
#
# number of rings (size 3 to 8) (size 9 to 14) (size 15 to 20)
#    0.000    1.000    5.000    3.000    0.000    7.000 
#    0.000    0.000    0.000    0.000    0.000    0.000 
#    0.000    0.000    0.000    0.000    0.000    0.000 
#
# Total GULP energy -89386.275749 kJ/mol
# GULP energy per Si atom -5586.642234 kJ/mol
# Density = 2.079388 g / cm^3
# Si number density = 20.841316 Si / 1000 Ang^3
#
#
#
# Elastic Constant Matrix: (Units=GPa)
#
#
# Indices 1 2 3 4 5 6 
#
# 1 48.7866 1.5775 29.0999 11.0984 10.4954 7.0479
# 2 1.5775 102.2313 13.5102 2.2408 8.2149 28.7008
# 3 29.0999 13.5102 56.4216 6.6349 4.4371 33.2090
# 4 11.0984 2.2408 6.6349 33.4462 8.4492 6.2064
# 5 10.4954 8.2149 4.4371 8.4492 28.0338 5.7917
# 6 7.0479 28.7008 33.2090 6.2064 5.7917 44.0368
#
#
#
# Elastic Compliance Matrix: (Units=1/GPa)
#
#
# Indices 1 2 3 4 5 6 
#
# 1 0.039869 -0.001038 -0.029971 -0.007927 -0.011524 0.019530
# 2 -0.001038 0.012453 0.003941 0.001249 -0.002023 -0.010832
# 3 -0.029971 0.003941 0.055329 0.004190 0.008560 -0.041213
# 4 -0.007927 0.001249 0.004190 0.034650 -0.007131 -0.006651
# 5 -0.011524 -0.002023 0.008560 -0.007131 0.043014 -0.007944
# 6 0.019530 -0.010832 -0.041213 -0.006651 -0.007944 0.059705
#
#
# Mechanical properties :
#
#
# Convention : Reuss Voigt Hill
#
# Bulk Modulus (GPa) = 18.68557 32.86830 25.77693
# Shear Modulus (GPa) = 15.77319 31.98682 23.88001
#
# Velocity S-wave (km/s) = 2.75403 3.92188 3.38864
# Velocity P-wave (km/s) = 4.37012 6.02604 5.26361
#
# Compressibility (1/GPa) = 0.05351725
#
# Stress axis : x y z
#
# Youngs Moduli (GPa) = 25.08217 80.30038 18.07358
#
# Poissons Ratio (x) = 0.08332 0.54168
# Poissons Ratio (y) = 0.02602 -0.07123
# Poissons Ratio (z) = 0.75173 -0.31648
#
# Static dielectric constant tensor:
#      x y z
#    x 1.758420 -0.027940 -0.013320 
#    y -0.027940 1.767900 -0.003050 
#    z -0.013320 -0.003050 1.741450 
# 
# From -- ./inp_files/577261.got.cif
#   From: 2010.05.17/outbox.cif.g08.bks.cpg/sg2_289_cif.got.tgz:577261.got - 2010.06.03 11:33:40.
