data_PCOD9056216
_publ_section_title
;
Structure prediction by ZEFSAII (Michael W. Deem and Ramdas Pophale) SiO2 
 PCOD9056216
Probable space group: P -1
;
_chemical_formula_sum "Si O2"
_cell_formula_units_Z 14
_cell_length_a 9.008884
_cell_length_b 20.766328
_cell_length_c 13.962838
_cell_angle_alpha 28.001667
_cell_angle_beta 138.410353
_cell_angle_gamma 148.486768
_cell_volume 640.918908
_symmetry_space_group_name_H-M "P -1"
_symmetry_group_IT_number 2
_symmetry_cell_setting 'triclinic'
loop_
_space_group_symop_operation_xyz
x,y,z
-x,-y,-z
loop_
_atom_site_type_symbol
_atom_site_label
_atom_site_fract_x
_atom_site_fract_y
_atom_site_fract_z
Si Si1 0.473887 0.309482 0.573093
Si Si2 0.685070 0.936054 0.906726
Si Si3 0.315812 0.680028 0.910892
Si Si4 0.692077 0.152260 0.776035
Si Si5 0.114594 0.784913 0.524705
Si Si6 0.266293 0.383276 0.862322
Si Si7 0.956619 0.461969 0.338976
O O1 0.471815 0.157936 0.723641
O O2 0.582990 0.457099 0.350780
O O3 0.717931 0.402124 0.649329
O O4 0.179006 0.250390 0.547865
O O5 0.468720 0.749061 0.997911
O O6 0.581379 0.977927 0.895617
O O7 0.730672 0.063055 0.677572
O O8 0.000000 0.000000 0.000000
O O9 0.270198 0.806912 0.668922
O O10 0.525779 0.666252 0.966353
O O11 0.000000 0.500000 0.000000
O O12 0.813941 0.303705 0.555379
O O13 0.966700 0.225724 0.877526
O O14 0.064971 0.620718 0.663444
O O15 0.193837 0.448578 0.833891
#
# Coordination Sequence:
#
# PCOD9056216 Si02
#       7
#     2   2   2   2   2   2   2
#     4   9  16  32  60  90 119 148 200 247 286 344
#     4  11  23  42  64  84 117 162 204 239 292 354
#     4  12  24  38  62  90 126 153 195 245 299 355
#     4   8  16  34  60  85 112 157 202 242 283 342
#     4  11  22  36  59  91 122 154 190 248 303 346
#     4   9  16  34  58  87 118 158 193 240 292 347
#     4   8  17  30  58  88 118 154 201 238 285 351
#
# _framework density 21.843637000000001
#
# number of rings (size 3 to 8) (size 9 to 14) (size 15 to 20)
#    0.000    2.286    2.857    2.571    0.000    1.714 
#    0.000    1.429    6.286    0.000    0.000    0.000 
#    0.000    0.000    0.000    0.000    0.000    0.000 
#
# Total GULP energy -78198.260518 kJ/mol
# GULP energy per Si atom -5585.590037 kJ/mol
# Density = 2.179392 g / cm^3
# Si number density = 21.843637 Si / 1000 Ang^3
#
#
#
# Elastic Constant Matrix: (Units=GPa)
#
#
# Indices 1 2 3 4 5 6 
#
# 1 133.2815 66.9963 10.0224 -0.0138 34.5729 -4.9142
# 2 66.9963 115.7148 27.9685 3.8151 25.1464 -15.0661
# 3 10.0224 27.9685 42.6306 -2.2355 -2.9599 6.5927
# 4 -0.0138 3.8151 -2.2355 20.0679 1.8030 3.9278
# 5 34.5729 25.1464 -2.9599 1.8030 39.3463 1.6768
# 6 -4.9142 -15.0661 6.5927 3.9278 1.6768 28.8428
#
#
#
# Elastic Compliance Matrix: (Units=1/GPa)
#
#
# Indices 1 2 3 4 5 6 
#
# 1 0.012188 -0.005996 0.000878 0.002086 -0.006858 -0.001141
# 2 -0.005996 0.019578 -0.014587 -0.007325 -0.008604 0.014037
# 3 0.000878 -0.014587 0.036880 0.009328 0.011659 -0.017848
# 4 0.002086 -0.007325 0.009328 0.054692 0.001605 -0.013144
# 5 -0.006858 -0.008604 0.011659 0.001605 0.038203 -0.010767
# 6 -0.001141 0.014037 -0.017848 -0.013144 -0.010767 0.048304
#
#
# Mechanical properties :
#
#
# Convention : Reuss Voigt Hill
#
# Bulk Modulus (GPa) = 34.20466 55.73348 44.96907
# Shear Modulus (GPa) = 19.30502 30.09404 24.69953
#
# Velocity S-wave (km/s) = 2.97607 3.71577 3.36630
# Velocity P-wave (km/s) = 5.24425 6.63170 5.97836
#
# Compressibility (1/GPa) = 0.02923578
#
# Stress axis : x y z
#
# Youngs Moduli (GPa) = 82.04856 51.07797 27.11511
#
# Poissons Ratio (x) = 0.30625 -0.02380
# Poissons Ratio (y) = 0.49193 0.39553
# Poissons Ratio (z) = -0.07203 0.74508
#
# Static dielectric constant tensor:
#      x y z
#    x 1.800280 -0.033600 0.000480 
#    y -0.033600 1.802590 -0.045040 
#    z 0.000480 -0.045040 1.834920 
# 
# From -- ./inp_files/158189.got.cif
#   From: 2010.05.17/outbox.cif.g08.bks.cpg/sg2_80_cif.got.tgz:158189.got - 2010.06.03 11:33:40.
