data_PCOD9056332
_publ_section_title
;
Structure prediction by ZEFSAII (Michael W. Deem and Ramdas Pophale) SiO2 
 PCOD9056332
Probable space group: P -1
;
_chemical_formula_sum "Si O2"
_cell_formula_units_Z 14
_cell_length_a 6.557573
_cell_length_b 9.686343
_cell_length_c 20.270057
_cell_angle_alpha 136.240268
_cell_angle_beta 134.735000
_cell_angle_gamma 69.787627
_cell_volume 596.832495
_symmetry_space_group_name_H-M "P -1"
_symmetry_group_IT_number 2
_symmetry_cell_setting 'triclinic'
loop_
_space_group_symop_operation_xyz
x,y,z
-x,-y,-z
loop_
_atom_site_type_symbol
_atom_site_label
_atom_site_fract_x
_atom_site_fract_y
_atom_site_fract_z
Si Si1 0.525417 0.449359 0.411780
Si Si2 0.414395 0.750997 0.383986
Si Si3 0.520854 0.476201 0.802789
Si Si4 0.278501 0.344230 0.840059
Si Si5 0.845434 0.204350 0.190025
Si Si6 0.000667 0.103317 0.964209
Si Si7 0.290283 0.906652 0.726179
O O1 0.500000 0.500000 0.500000
O O2 0.556098 0.645842 0.438362
O O3 0.737575 0.306408 0.395148
O O4 0.182107 0.300598 0.269924
O O5 0.555067 0.704050 0.331476
O O6 0.047214 0.638027 0.252289
O O7 0.500000 0.000000 0.500000
O O8 0.486810 0.385698 0.836649
O O9 0.303632 0.617356 0.795066
O O10 0.848468 0.645339 0.918643
O O11 0.162927 0.095198 0.746646
O O12 0.500000 0.500000 0.000000
O O13 0.807669 0.165168 0.246180
O O14 0.781128 0.978288 0.061824
O O15 0.648413 0.038160 0.845698
O O16 0.000000 0.000000 0.000000
#
# Coordination Sequence:
#
# PCOD9056332 Si02
#       7
#     2   2   2   2   2   2   2
#     4  11  26  47  73 103 139 190 254 299 350 436
#     4  12  29  50  73 107 150 193 243 301 365 432
#     4  12  24  45  72 102 149 193 234 298 367 431
#     4  12  29  47  73 110 151 189 240 299 373 431
#     4  11  22  42  71 101 137 184 239 298 359 425
#     4  11  22  37  72 104 137 177 240 296 357 424
#     4  11  25  43  68 106 137 185 244 299 353 428
#
# _framework density 23.457166999999998
#
# number of rings (size 3 to 8) (size 9 to 14) (size 15 to 20)
#    0.000    0.571    4.286    3.000    6.000    5.714 
#    0.000    0.000    0.000    0.000    0.000    0.000 
#    0.000    0.000    0.000    0.000    0.000    0.000 
#
# Total GULP energy -78103.620269 kJ/mol
# GULP energy per Si atom -5578.830019 kJ/mol
# Density = 2.340378 g / cm^3
# Si number density = 23.457167 Si / 1000 Ang^3
#
#
#
# Elastic Constant Matrix: (Units=GPa)
#
#
# Indices 1 2 3 4 5 6 
#
# 1 80.5684 27.5888 38.9780 6.9488 -28.4654 14.2616
# 2 27.5888 142.8296 47.0700 7.9887 -29.6596 24.1932
# 3 38.9780 47.0700 102.5223 19.3273 -40.4035 1.9525
# 4 6.9488 7.9887 19.3273 40.1966 0.3067 -0.2234
# 5 -28.4654 -29.6596 -40.4035 0.3067 67.8531 -10.7243
# 6 14.2616 24.1932 1.9525 -0.2234 -10.7243 45.7871
#
#
#
# Elastic Compliance Matrix: (Units=1/GPa)
#
#
# Indices 1 2 3 4 5 6 
#
# 1 0.016778 -0.000241 -0.004690 -0.000647 0.003498 -0.004082
# 2 -0.000241 0.009210 -0.003611 -0.000085 0.001082 -0.004384
# 3 -0.004690 -0.003611 0.017365 -0.006854 0.007514 0.004354
# 4 -0.000647 -0.000085 -0.006854 0.028335 -0.004581 -0.000396
# 5 0.003498 0.001082 0.007514 -0.004581 0.021658 0.003069
# 6 -0.004082 -0.004384 0.004354 -0.000396 0.003069 0.025959
#
#
# Mechanical properties :
#
#
# Convention : Reuss Voigt Hill
#
# Bulk Modulus (GPa) = 38.06709 61.46599 49.76654
# Shear Modulus (GPa) = 34.44845 44.91961 39.68403
#
# Velocity S-wave (km/s) = 3.83635 4.38078 4.11757
# Velocity P-wave (km/s) = 5.99057 7.20060 6.62328
#
# Compressibility (1/GPa) = 0.02626941
#
# Stress axis : x y z
#
# Youngs Moduli (GPa) = 59.60352 108.57785 57.58709
#
# Poissons Ratio (x) = 0.02619 0.27006
# Poissons Ratio (y) = 0.01437 0.20794
# Poissons Ratio (z) = 0.27951 0.39206
#
# Static dielectric constant tensor:
#      x y z
#    x 1.939840 -0.136420 -0.009630 
#    y -0.136420 1.978910 0.044240 
#    z -0.009630 0.044240 2.225480 
# 
# From -- ./inp_files/476660.got.cif
#   From: 2010.05.17/outbox.cif.g08.bks.cpg/sg2_239_cif.got.tgz:476660.got - 2010.06.03 11:33:40.
