data_PCOD9056996
_publ_section_title
;
Structure prediction by ZEFSAII (Michael W. Deem and Ramdas Pophale) SiO2 
 PCOD9056996
Probable space group: P -1
;
_chemical_formula_sum "Si O2"
_cell_formula_units_Z 14
_cell_length_a 6.965239
_cell_length_b 15.197654
_cell_length_c 11.894140
_cell_angle_alpha 34.767938
_cell_angle_beta 113.839197
_cell_angle_gamma 126.868511
_cell_volume 563.436769
_symmetry_space_group_name_H-M "P -1"
_symmetry_group_IT_number 2
_symmetry_cell_setting 'triclinic'
loop_
_space_group_symop_operation_xyz
x,y,z
-x,-y,-z
loop_
_atom_site_type_symbol
_atom_site_label
_atom_site_fract_x
_atom_site_fract_y
_atom_site_fract_z
Si Si1 0.370106 0.481622 0.786594
Si Si2 0.965691 0.819260 0.828481
Si Si3 0.865251 0.324187 0.576688
Si Si4 0.495031 0.942470 0.902720
Si Si5 0.711579 0.044437 0.592692
Si Si6 0.940393 0.644521 0.782340
Si Si7 0.794628 0.788834 0.176727
O O1 0.304968 0.633621 0.585777
O O2 0.655929 0.556099 0.780830
O O3 0.251036 0.324804 0.828469
O O4 0.237870 0.382062 0.973316
O O5 0.010031 0.799826 0.729149
O O6 0.854603 0.941947 0.703611
O O7 0.214608 0.882445 0.889199
O O8 0.672600 0.139933 0.788827
O O9 0.000000 0.500000 0.500000
O O10 0.087886 0.293044 0.626316
O O11 0.599047 0.980471 0.757617
O O12 0.549932 0.797207 0.123343
O O13 0.899255 0.254850 0.393873
O O14 0.500000 0.000000 0.500000
O O15 0.000000 0.500000 0.000000
O O16 0.000000 0.000000 0.000000
#
# Coordination Sequence:
#
# PCOD9056996 Si02
#       7
#     2   2   2   2   2   2   2
#     4  11  22  41  67  98 135 170 215 272 335 379
#     4  12  25  43  67 101 136 177 216 265 329 405
#     4   9  21  40  69  93 128 171 218 283 325 378
#     4  11  22  43  72  94 133 176 219 269 327 396
#     4  12  25  43  68  97 135 180 223 258 324 403
#     4  12  26  42  66 100 140 173 216 271 329 398
#     4   9  19  43  69  90 128 171 224 274 317 391
#
# _framework density 24.847507
#
# number of rings (size 3 to 8) (size 9 to 14) (size 15 to 20)
#    0.000    1.143    2.857    3.429    4.000    0.000 
#    0.000    7.143   12.571    0.000    0.000    0.000 
#    0.000    0.000    0.000    0.000    0.000    0.000 
#
# Total GULP energy -78298.801138 kJ/mol
# GULP energy per Si atom -5592.771510 kJ/mol
# Density = 2.479095 g / cm^3
# Si number density = 24.847507 Si / 1000 Ang^3
#
#
#
# Elastic Constant Matrix: (Units=GPa)
#
#
# Indices 1 2 3 4 5 6 
#
# 1 156.9437 59.0248 66.5250 17.4737 37.0301 31.0819
# 2 59.0248 137.2704 18.5728 8.9501 16.4047 33.5177
# 3 66.5250 18.5728 132.5712 13.5424 44.0521 31.7217
# 4 17.4737 8.9501 13.5424 41.2274 8.8158 9.5845
# 5 37.0301 16.4047 44.0521 8.8158 55.3061 6.4715
# 6 31.0819 33.5177 31.7217 9.5845 6.4715 62.0940
#
#
#
# Elastic Compliance Matrix: (Units=1/GPa)
#
#
# Indices 1 2 3 4 5 6 
#
# 1 0.009974 -0.003141 -0.003197 -0.001635 -0.002809 -0.001119
# 2 -0.003141 0.009668 0.001849 0.000020 -0.001724 -0.004414
# 3 -0.003197 0.001849 0.012765 -0.000374 -0.007927 -0.005035
# 4 -0.001635 0.000020 -0.000374 0.026245 -0.002470 -0.002795
# 5 -0.002809 -0.001724 -0.007927 -0.002470 0.026714 0.003983
# 6 -0.001119 -0.004414 -0.005035 -0.002795 0.003983 0.021636
#
#
# Mechanical properties :
#
#
# Convention : Reuss Voigt Hill
#
# Bulk Modulus (GPa) = 42.68192 79.44780 61.06486
# Shear Modulus (GPa) = 40.39037 50.56968 45.48003
#
# Velocity S-wave (km/s) = 4.03616 4.51621 4.28292
# Velocity P-wave (km/s) = 6.23984 7.69665 7.00622
#
# Compressibility (1/GPa) = 0.02342912
#
# Stress axis : x y z
#
# Youngs Moduli (GPa) = 100.25572 103.43560 78.33627
#
# Poissons Ratio (x) = 0.32488 0.25046
# Poissons Ratio (y) = 0.31489 -0.14482
# Poissons Ratio (z) = 0.32054 -0.19122
#
# Static dielectric constant tensor:
#      x y z
#    x 1.987160 -0.037330 0.006520 
#    y -0.037330 2.014730 0.012400 
#    z 0.006520 0.012400 1.960270 
# 
# From -- ./inp_files/49234.got.cif
#   From: 2010.05.17/outbox.cif.g08.bks.cpg/sg2_25_cif.got.tgz:49234.got - 2010.06.03 11:33:40.
