data_PCOD9056331
_publ_section_title
;
Structure prediction by ZEFSAII (Michael W. Deem and Ramdas Pophale) SiO2 
 PCOD9056331
Probable space group: P -1
;
_chemical_formula_sum "Si O2"
_cell_formula_units_Z 16
_cell_length_a 12.783584
_cell_length_b 8.771157
_cell_length_c 18.086641
_cell_angle_alpha 74.499232
_cell_angle_beta 40.281347
_cell_angle_gamma 44.720604
_cell_volume 735.269369
_symmetry_space_group_name_H-M "P -1"
_symmetry_group_IT_number 2
_symmetry_cell_setting 'triclinic'
loop_
_space_group_symop_operation_xyz
x,y,z
-x,-y,-z
loop_
_atom_site_type_symbol
_atom_site_label
_atom_site_fract_x
_atom_site_fract_y
_atom_site_fract_z
Si Si1 0.783801 0.890807 0.742434
Si Si2 0.237058 0.187689 0.929226
Si Si3 0.437342 0.900717 0.440758
Si Si4 0.886465 0.098909 0.466006
Si Si5 0.793377 0.585329 0.542165
Si Si6 0.668623 0.245755 0.348904
Si Si7 0.243731 0.910991 0.841289
Si Si8 0.995951 0.718914 0.805336
O O1 0.851567 0.022326 0.696668
O O2 0.027519 0.626512 0.593937
O O3 0.814577 0.810266 0.820792
O O4 0.512336 0.062819 0.820805
O O5 0.243225 0.070016 0.870241
O O6 0.000000 0.500000 0.000000
O O7 0.161746 0.152916 0.048794
O O8 0.211657 0.992080 0.498714
O O9 0.398964 0.843533 0.547624
O O10 0.745168 0.608042 0.286673
O O11 0.385000 0.127924 0.433529
O O12 0.607376 0.428559 0.561634
O O13 0.000000 0.000000 0.500000
O O14 0.585206 0.624999 0.688553
O O15 0.000000 0.500000 0.500000
O O16 0.806905 0.069977 0.221957
O O17 0.865752 0.217803 0.285473
O O18 0.000000 0.000000 0.000000
#
# Coordination Sequence:
#
# PCOD9056331 Si02
#       8
#     2   2   2   2   2   2   2   2
#     4  12  24  45  71 100 140 181 237 294 351 412
#     4  12  28  44  68 103 139 186 235 290 357 420
#     4  11  23  43  74 103 140 180 235 293 348 418
#     4  11  22  37  69 104 135 176 226 289 348 405
#     4  12  25  44  71 109 142 177 241 298 345 408
#     4  11  22  44  70 104 137 183 237 284 344 425
#     4  12  25  45  72  98 145 190 226 287 358 418
#     4  11  22  45  68 100 141 183 231 284 353 424
#
# _framework density 21.760732999999998
#
# number of rings (size 3 to 8) (size 9 to 14) (size 15 to 20)
#    0.000    0.500    6.250    2.625    3.500    3.000 
#    0.000    0.000    0.000    2.250    0.000    0.000 
#    0.000    0.000    0.000    0.000    0.000    0.000 
#
# Total GULP energy -89217.487171 kJ/mol
# GULP energy per Si atom -5576.092948 kJ/mol
# Density = 2.171120 g / cm^3
# Si number density = 21.760733 Si / 1000 Ang^3
#
#
#
# Elastic Constant Matrix: (Units=GPa)
#
#
# Indices 1 2 3 4 5 6 
#
# 1 173.2497 31.0853 44.9499 10.5277 -7.9594 -9.6059
# 2 31.0853 65.8965 28.9155 -1.5109 -7.4004 -11.4247
# 3 44.9499 28.9155 116.5117 -6.2003 -1.9011 -3.5415
# 4 10.5277 -1.5109 -6.2003 25.4635 -2.4162 5.1286
# 5 -7.9594 -7.4004 -1.9011 -2.4162 54.9083 -3.0737
# 6 -9.6059 -11.4247 -3.5415 5.1286 -3.0737 22.3071
#
#
#
# Elastic Compliance Matrix: (Units=1/GPa)
#
#
# Indices 1 2 3 4 5 6 
#
# 1 0.007176 -0.001849 -0.002435 -0.004171 0.000680 0.002809
# 2 -0.001849 0.019624 -0.003866 -0.000597 0.002729 0.009154
# 3 -0.002435 -0.003866 0.010606 0.003774 -0.000468 -0.002277
# 4 -0.004171 -0.000597 0.003774 0.044283 0.000746 -0.011581
# 5 0.000680 0.002729 -0.000468 0.000746 0.018922 0.004052
# 6 0.002809 0.009154 -0.002277 -0.011581 0.004052 0.053586
#
#
# Mechanical properties :
#
#
# Convention : Reuss Voigt Hill
#
# Bulk Modulus (GPa) = 47.38037 62.83992 55.11015
# Shear Modulus (GPa) = 28.16403 37.24960 32.70681
#
# Velocity S-wave (km/s) = 3.60148 4.14186 3.88109
# Velocity P-wave (km/s) = 6.25419 7.19817 6.74272
#
# Compressibility (1/GPa) = 0.02110579
#
# Stress axis : x y z
#
# Youngs Moduli (GPa) = 139.35365 50.95903 94.28893
#
# Poissons Ratio (x) = 0.09421 0.22960
# Poissons Ratio (y) = 0.25763 0.36451
# Poissons Ratio (z) = 0.33934 0.19700
#
# Static dielectric constant tensor:
#      x y z
#    x 1.851330 0.007770 -0.004270 
#    y 0.007770 1.838980 -0.044010 
#    z -0.004270 -0.044010 1.861140 
# 
# From -- ./inp_files/566713.got.cif
#   From: 2010.05.17/outbox.cif.g08.bks.cpg/sg2_284_cif.got.tgz:566713.got - 2010.06.03 11:33:40.
