data_PCOD9056015
_publ_section_title
;
Structure prediction by ZEFSAII (Michael W. Deem and Ramdas Pophale) SiO2 
 PCOD9056015
Probable space group: P -1
;
_chemical_formula_sum "Si O2"
_cell_formula_units_Z 14
_cell_length_a 8.429644
_cell_length_b 24.363095
_cell_length_c 9.592818
_cell_angle_alpha 137.420975
_cell_angle_beta 133.532261
_cell_angle_gamma 27.859716
_cell_volume 618.454166
_symmetry_space_group_name_H-M "P -1"
_symmetry_group_IT_number 2
_symmetry_cell_setting 'triclinic'
loop_
_space_group_symop_operation_xyz
x,y,z
-x,-y,-z
loop_
_atom_site_type_symbol
_atom_site_label
_atom_site_fract_x
_atom_site_fract_y
_atom_site_fract_z
Si Si1 0.058652 0.192457 0.679536
Si Si2 0.173860 0.439133 0.339774
Si Si3 0.242115 0.727399 0.068934
Si Si4 0.817428 0.979439 0.769193
Si Si5 0.772266 0.440817 0.894145
Si Si6 0.115566 0.349267 0.638561
Si Si7 0.921961 0.219675 0.251586
O O1 0.004786 0.121329 0.438314
O O2 0.042893 0.191290 0.833887
O O3 0.799123 0.336702 0.740215
O O4 0.447350 0.109414 0.728828
O O5 0.571212 0.308473 0.296160
O O6 0.000000 0.500000 0.500000
O O7 0.110031 0.539913 0.403920
O O8 0.954195 0.431661 0.117287
O O9 0.515400 0.715382 0.266719
O O10 0.418113 0.588052 0.926558
O O11 0.150672 0.774886 0.944643
O O12 0.802723 0.915740 0.761607
O O13 0.000000 0.000000 0.000000
O O14 0.985695 0.403044 0.816085
O O15 0.066589 0.268799 0.438371
#
# Coordination Sequence:
#
# PCOD9056015 Si02
#       7
#     2   2   2   2   2   2   2
#     4  11  26  46  71 100 135 183 232 278 341 405
#     4  11  24  38  67 108 143 181 223 275 339 415
#     4  11  25  42  68 107 140 172 220 284 346 410
#     4  11  27  48  72  95 132 186 236 285 332 397
#     4  11  21  45  68 100 147 175 215 281 350 409
#     4  11  23  41  65 103 143 179 215 272 354 404
#     4  12  24  43  71  96 138 182 227 282 340 401
#
# _framework density 22.637084999999999
#
# number of rings (size 3 to 8) (size 9 to 14) (size 15 to 20)
#    0.000    0.857    4.286    2.571    6.000    1.714 
#    0.000    1.429    0.000    0.000    0.000    0.000 
#    0.000    0.000    0.000    0.000    0.000    0.000 
#
# Total GULP energy -78215.546538 kJ/mol
# GULP energy per Si atom -5586.824753 kJ/mol
# Density = 2.258556 g / cm^3
# Si number density = 22.637085 Si / 1000 Ang^3
#
#
#
# Elastic Constant Matrix: (Units=GPa)
#
#
# Indices 1 2 3 4 5 6 
#
# 1 68.0792 7.8125 14.6953 10.2116 -27.5426 6.3035
# 2 7.8125 67.9375 8.7871 1.5625 -11.4605 7.8515
# 3 14.6953 8.7871 110.5845 -3.9876 -6.1529 -2.6539
# 4 10.2116 1.5625 -3.9876 28.3747 7.6129 -3.0384
# 5 -27.5426 -11.4605 -6.1529 7.6129 41.1722 -8.0395
# 6 6.3035 7.8515 -2.6539 -3.0384 -8.0395 17.8274
#
#
#
# Elastic Compliance Matrix: (Units=1/GPa)
#
#
# Indices 1 2 3 4 5 6 
#
# 1 0.025591 0.001514 -0.003111 -0.015299 0.019089 -0.004178
# 2 0.001514 0.016373 -0.001523 -0.003627 0.004755 -0.006447
# 3 -0.003111 -0.001523 0.009716 0.003191 -0.000996 0.003312
# 4 -0.015299 -0.003627 0.003191 0.047021 -0.018023 0.007368
# 5 0.019089 0.004755 -0.000996 -0.018023 0.042996 0.007326
# 6 -0.004178 -0.006447 0.003312 0.007368 0.007326 0.065462
#
#
# Mechanical properties :
#
#
# Convention : Reuss Voigt Hill
#
# Bulk Modulus (GPa) = 22.00666 34.35455 28.18060
# Shear Modulus (GPa) = 21.87746 31.82863 26.85304
#
# Velocity S-wave (km/s) = 3.11214 3.75379 3.44792
# Velocity P-wave (km/s) = 4.75988 5.83070 5.32229
#
# Compressibility (1/GPa) = 0.04544080
#
# Stress axis : x y z
#
# Youngs Moduli (GPa) = 39.07632 61.07677 102.91884
#
# Poissons Ratio (x) = -0.09249 0.32017
# Poissons Ratio (y) = -0.05918 0.15676
# Poissons Ratio (z) = 0.12156 0.09303
#
# Static dielectric constant tensor:
#      x y z
#    x 1.811960 -0.007560 -0.012090 
#    y -0.007560 1.890270 0.005810 
#    z -0.012090 0.005810 1.887110 
# 
# From -- ./inp_files/208120.got.cif
#   From: 2010.05.17/outbox.cif.g08.bks.cpg/sg2_105_cif.got.tgz:208120.got - 2010.06.03 11:33:40.
