data_PCOD9056054
_publ_section_title
;
Structure prediction by ZEFSAII (Michael W. Deem and Ramdas Pophale) SiO2 
 PCOD9056054
Probable space group: P -1
;
_chemical_formula_sum "Si O2"
_cell_formula_units_Z 16
_cell_length_a 20.388363
_cell_length_b 14.536308
_cell_length_c 11.121170
_cell_angle_alpha 28.820501
_cell_angle_beta 154.323386
_cell_angle_gamma 150.211845
_cell_volume 638.319308
_symmetry_space_group_name_H-M "P -1"
_symmetry_group_IT_number 2
_symmetry_cell_setting 'triclinic'
loop_
_space_group_symop_operation_xyz
x,y,z
-x,-y,-z
loop_
_atom_site_type_symbol
_atom_site_label
_atom_site_fract_x
_atom_site_fract_y
_atom_site_fract_z
Si Si1 0.365330 0.662107 0.999938
Si Si2 0.419716 0.264439 0.495932
Si Si3 0.713323 0.297002 0.553776
Si Si4 0.872635 0.817248 0.575691
Si Si5 0.993724 0.442029 0.416589
Si Si6 0.234906 0.625109 0.178436
Si Si7 0.126534 0.929945 0.492894
Si Si8 0.556128 0.833316 0.910258
O O1 0.356324 0.449832 0.165986
O O2 0.505839 0.719920 0.265028
O O3 0.424164 0.829145 0.799899
O O4 0.200546 0.616963 0.852715
O O5 0.574153 0.299617 0.627454
O O6 0.270901 0.048832 0.502075
O O7 0.864589 0.376454 0.622697
O O8 0.768154 0.401362 0.653258
O O9 0.554427 0.314068 0.207107
O O10 0.653331 0.054566 0.760619
O O11 0.876334 0.594995 0.808773
O O12 0.898367 0.892070 0.671112
O O13 0.691834 0.780362 0.267919
O O14 0.000000 0.000000 0.500000
O O15 0.000000 0.500000 0.500000
O O16 0.011658 0.235983 0.626555
O O17 0.174247 0.798703 0.826344
#
# Coordination Sequence:
#
# PCOD9056054 Si02
#       8
#     2   2   2   2   2   2   2   2
#     4  11  21  45  72 101 144 188 236 299 351 423
#     4  11  22  41  71 106 134 184 243 296 356 416
#     4  11  26  43  72 107 143 196 238 290 365 428
#     4  12  26  44  70 106 147 183 240 298 352 423
#     4  12  27  45  72 102 147 189 239 297 361 426
#     4  12  24  44  73 106 145 189 236 300 357 423
#     4  12  26  43  73 106 142 188 243 294 358 431
#     4  11  23  45  71 102 147 184 243 289 351 432
#
# _framework density 25.065823999999999
#
# number of rings (size 3 to 8) (size 9 to 14) (size 15 to 20)
#    0.000    0.500    6.250    1.875    3.500    1.500 
#    0.000    0.625    0.000    0.000    0.000    0.000 
#    0.000    0.000    0.000    0.000    0.000    0.000 
#
# Total GULP energy -89483.437400 kJ/mol
# GULP energy per Si atom -5592.714837 kJ/mol
# Density = 2.500877 g / cm^3
# Si number density = 25.065824 Si / 1000 Ang^3
#
#
#
# Elastic Constant Matrix: (Units=GPa)
#
#
# Indices 1 2 3 4 5 6 
#
# 1 183.9244 76.8521 13.6691 -6.0501 -17.8931 18.4539
# 2 76.8521 155.1766 34.5925 -13.4223 -5.5512 12.7752
# 3 13.6691 34.5925 26.7542 1.2961 2.8090 -4.2718
# 4 -6.0501 -13.4223 1.2961 33.4838 0.7426 -8.5193
# 5 -17.8931 -5.5512 2.8090 0.7426 29.5750 -1.1117
# 6 18.4539 12.7752 -4.2718 -8.5193 -1.1117 65.7714
#
#
#
# Elastic Compliance Matrix: (Units=1/GPa)
#
#
# Indices 1 2 3 4 5 6 
#
# 1 0.007366 -0.003474 0.000138 -0.000502 0.003752 -0.001385
# 2 -0.003474 0.011881 -0.014198 0.004227 0.001307 -0.001686
# 3 0.000138 -0.014198 0.057659 -0.006325 -0.007692 0.005515
# 4 -0.000502 0.004227 -0.006325 0.032500 0.000391 0.003126
# 5 0.003752 0.001307 -0.007692 0.000391 0.037006 -0.001130
# 6 -0.001385 -0.001686 0.005515 0.003126 -0.001130 0.016664
#
#
# Mechanical properties :
#
#
# Convention : Reuss Voigt Hill
#
# Bulk Modulus (GPa) = 23.90203 68.45362 46.17783
# Shear Modulus (GPa) = 23.57493 41.81549 32.69521
#
# Velocity S-wave (km/s) = 3.07012 4.08882 3.61553
# Velocity P-wave (km/s) = 4.70361 7.04700 5.99100
#
# Compressibility (1/GPa) = 0.04183745
#
# Stress axis : x y z
#
# Youngs Moduli (GPa) = 135.76429 84.16859 17.34330
#
# Poissons Ratio (x) = 0.29239 -0.00239
# Poissons Ratio (y) = 0.47163 0.24624
# Poissons Ratio (z) = -0.01870 1.19503
#
# Static dielectric constant tensor:
#      x y z
#    x 1.992550 -0.043950 0.007460 
#    y -0.043950 2.006030 -0.009860 
#    z 0.007460 -0.009860 2.097720 
# 
# From -- ./inp_files/471699.got.cif
#   From: 2010.05.17/outbox.cif.g08.bks.cpg/sg2_236_cif.got.tgz:471699.got - 2010.06.03 11:33:40.
