data_PCOD9056439
_publ_section_title
;
Structure prediction by ZEFSAII (Michael W. Deem and Ramdas Pophale) SiO2 
 PCOD9056439
Probable space group: P -1
;
_chemical_formula_sum "Si O2"
_cell_formula_units_Z 14
_cell_length_a 5.680087
_cell_length_b 13.362871
_cell_length_c 17.699831
_cell_angle_alpha 155.139164
_cell_angle_beta 68.050995
_cell_angle_gamma 113.927438
_cell_volume 516.212138
_symmetry_space_group_name_H-M "P -1"
_symmetry_group_IT_number 2
_symmetry_cell_setting 'triclinic'
loop_
_space_group_symop_operation_xyz
x,y,z
-x,-y,-z
loop_
_atom_site_type_symbol
_atom_site_label
_atom_site_fract_x
_atom_site_fract_y
_atom_site_fract_z
Si Si1 0.687749 0.598490 0.133506
Si Si2 0.774093 0.223843 0.751389
Si Si3 0.951519 0.961344 0.226303
Si Si4 0.233950 0.020040 0.963461
Si Si5 0.277607 0.796122 0.943096
Si Si6 0.737724 0.311480 0.395681
Si Si7 0.256476 0.296999 0.539574
O O1 0.405140 0.676536 0.222333
O O2 0.809179 0.752959 0.151978
O O3 0.915301 0.681082 0.223654
O O4 0.693450 0.333357 0.917040
O O5 0.719421 0.932855 0.567288
O O6 0.761867 0.062775 0.262682
O O7 0.060403 0.177770 0.417378
O O8 0.168163 0.893487 0.099411
O O9 0.056690 0.930933 0.000284
O O10 0.292621 0.785471 0.752505
O O11 0.500000 0.000000 0.000000
O O12 0.436865 0.255863 0.089249
O O13 0.170030 0.525228 0.744216
O O14 0.513390 0.395612 0.527277
O O15 0.000000 0.500000 0.500000
#
# Coordination Sequence:
#
# PCOD9056439 Si02
#       7
#     2   2   2   2   2   2   2
#     4   9  18  35  64  89 121 159 202 252 308 374
#     4   9  18  36  61  93 120 157 203 253 310 366
#     4  11  22  40  59  86 117 160 200 248 309 364
#     4  11  22  39  55  80 117 158 201 251 298 355
#     4  11  24  38  58  83 118 158 202 251 301 359
#     4  12  23  36  59  85 117 158 202 249 301 363
#     4  11  23  39  58  88 118 155 203 252 302 368
#
# _framework density 27.120635
#
# number of rings (size 3 to 8) (size 9 to 14) (size 15 to 20)
#    0.000    1.429    4.286    1.714    2.000    1.143 
#    0.000    0.714    0.000    0.000    0.000   11.000 
#    0.000    0.000    0.000    0.000    0.000    0.000 
#
# Total GULP energy -78088.459281 kJ/mol
# GULP energy per Si atom -5577.747091 kJ/mol
# Density = 2.705891 g / cm^3
# Si number density = 27.120635 Si / 1000 Ang^3
#
#
#
# Elastic Constant Matrix: (Units=GPa)
#
#
# Indices 1 2 3 4 5 6 
#
# 1 146.2891 36.8792 43.8544 9.4240 -6.9371 8.9201
# 2 36.8792 68.0972 38.4356 5.1690 4.2689 -1.7409
# 3 43.8544 38.4356 159.9067 17.8171 5.8677 -0.6121
# 4 9.4240 5.1690 17.8171 38.0387 -6.6743 3.7974
# 5 -6.9371 4.2689 5.8677 -6.6743 48.2130 13.8510
# 6 8.9201 -1.7409 -0.6121 3.7974 13.8510 40.2365
#
#
#
# Elastic Compliance Matrix: (Units=1/GPa)
#
#
# Indices 1 2 3 4 5 6 
#
# 1 0.008620 -0.004064 -0.001480 -0.000130 0.002624 -0.003000
# 2 -0.004064 0.019028 -0.003257 -0.000807 -0.002761 0.002701
# 3 -0.001480 -0.003257 0.007876 -0.003295 -0.001683 0.001197
# 4 -0.000130 -0.000807 -0.003295 0.029504 0.005942 -0.004886
# 5 0.002624 -0.002761 -0.001683 0.005942 0.025259 -0.009983
# 6 -0.003000 0.002701 0.001197 -0.004886 -0.009983 0.029551
#
#
# Mechanical properties :
#
#
# Convention : Reuss Voigt Hill
#
# Bulk Modulus (GPa) = 55.80389 68.07017 61.93703
# Shear Modulus (GPa) = 34.86392 42.30589 38.58491
#
# Velocity S-wave (km/s) = 3.58929 3.95386 3.77598
# Velocity P-wave (km/s) = 6.14803 6.78215 6.47286
#
# Compressibility (1/GPa) = 0.01791990
#
# Stress axis : x y z
#
# Youngs Moduli (GPa) = 116.01071 52.55477 126.96684
#
# Poissons Ratio (x) = 0.21358 0.18797
# Poissons Ratio (y) = 0.47147 0.41359
# Poissons Ratio (z) = 0.17175 0.17119
#
# Static dielectric constant tensor:
#      x y z
#    x 4.133580 -1.101080 0.615760 
#    y -1.101080 2.734310 -0.372090 
#    z 0.615760 -0.372090 2.264290 
# 
# From -- ./inp_files/47559.got.cif
#   From: 2010.05.17/outbox.cif.g08.bks.cpg/sg2_24_cif.got.tgz:47559.got - 2010.06.03 11:33:40.
