data_PCOD9056323
_publ_section_title
;
Structure prediction by ZEFSAII (Michael W. Deem and Ramdas Pophale) SiO2 
 PCOD9056323
Probable space group: P -1
;
_chemical_formula_sum "Si O2"
_cell_formula_units_Z 16
_cell_length_a 12.759031
_cell_length_b 7.219843
_cell_length_c 15.477852
_cell_angle_alpha 83.968816
_cell_angle_beta 25.986987
_cell_angle_gamma 76.069799
_cell_volume 585.216137
_symmetry_space_group_name_H-M "P -1"
_symmetry_group_IT_number 2
_symmetry_cell_setting 'triclinic'
loop_
_space_group_symop_operation_xyz
x,y,z
-x,-y,-z
loop_
_atom_site_type_symbol
_atom_site_label
_atom_site_fract_x
_atom_site_fract_y
_atom_site_fract_z
Si Si1 0.291584 0.530892 0.959835
Si Si2 0.535661 0.213612 0.050464
Si Si3 0.774912 0.769691 0.892389
Si Si4 0.080867 0.202637 0.504798
Si Si5 0.992934 0.278277 0.001055
Si Si6 0.401613 0.906956 0.657115
Si Si7 0.279897 0.766975 0.387021
Si Si8 0.171454 0.464675 0.560651
O O1 0.703663 0.779312 0.717020
O O2 0.121356 0.696449 0.012102
O O3 0.579361 0.480533 0.685017
O O4 0.372333 0.624164 0.980253
O O5 0.021171 0.383664 0.604430
O O6 0.740055 0.997243 0.924940
O O7 0.430700 0.229761 0.030409
O O8 0.055173 0.715450 0.624271
O O9 0.593566 0.723793 0.118075
O O10 0.854776 0.211576 0.608108
O O11 0.207921 0.990442 0.464666
O O12 0.803427 0.206053 0.204293
O O13 0.000000 0.500000 0.000000
O O14 0.255839 0.097614 0.814963
O O15 0.952195 0.533906 0.804757
O O16 0.500000 0.000000 0.500000
O O17 0.634687 0.733507 0.531548
#
# Coordination Sequence:
#
# PCOD9056323 Si02
#       8
#     2   2   2   2   2   2   2   2
#     4  12  23  43  68  95 132 183 228 285 356 421
#     4  11  22  40  63  96 142 178 221 279 338 424
#     4  11  25  38  63 103 137 176 223 280 347 421
#     4  11  22  38  66  98 136 177 225 274 338 432
#     4  11  27  49  78 105 141 188 247 312 372 431
#     4  11  26  49  74 107 143 184 247 307 371 432
#     4  11  22  37  66  96 131 174 225 267 343 426
#     4  12  23  43  69  96 135 180 230 287 353 420
#
# _framework density 27.340326999999998
#
# number of rings (size 3 to 8) (size 9 to 14) (size 15 to 20)
#    0.000    0.750    5.000    2.250    1.750    3.500 
#    0.000    2.500    0.000    0.000    0.000    0.000 
#    0.000    0.000    0.000    0.000    0.000    0.000 
#
# Total GULP energy -89387.724913 kJ/mol
# GULP energy per Si atom -5586.732807 kJ/mol
# Density = 2.727810 g / cm^3
# Si number density = 27.340327 Si / 1000 Ang^3
#
#
#
# Elastic Constant Matrix: (Units=GPa)
#
#
# Indices 1 2 3 4 5 6 
#
# 1 69.3565 36.8041 33.8719 -3.9538 1.7884 -45.4176
# 2 36.8041 220.4884 68.1845 8.8381 -2.6990 -52.2756
# 3 33.8719 68.1845 226.9042 5.6236 15.0876 -31.2192
# 4 -3.9538 8.8381 5.6236 64.0543 -28.0874 -0.2479
# 5 1.7884 -2.6990 15.0876 -28.0874 49.6583 -0.9915
# 6 -45.4176 -52.2756 -31.2192 -0.2479 -0.9915 50.8331
#
#
#
# Elastic Compliance Matrix: (Units=1/GPa)
#
#
# Indices 1 2 3 4 5 6 
#
# 1 0.036289 0.002400 -0.001653 0.002908 0.001648 0.033922
# 2 0.002400 0.006435 -0.001220 -0.000337 0.000604 0.008023
# 3 -0.001653 -0.001220 0.005281 -0.001460 -0.002428 0.000458
# 4 0.002908 -0.000337 -0.001460 0.021447 0.012486 0.001703
# 5 0.001648 0.000604 -0.002428 0.012486 0.027935 0.001207
# 6 0.033922 0.008023 0.000458 0.001703 0.001207 0.058544
#
#
# Mechanical properties :
#
#
# Convention : Reuss Voigt Hill
#
# Bulk Modulus (GPa) = 21.24974 88.27445 54.76210
# Shear Modulus (GPa) = 28.97502 58.10173 43.53837
#
# Velocity S-wave (km/s) = 3.25897 4.61491 3.99489
# Velocity P-wave (km/s) = 4.68512 7.79448 6.43056
#
# Compressibility (1/GPa) = 0.04705940
#
# Stress axis : x y z
#
# Youngs Moduli (GPa) = 27.55685 155.39850 189.35571
#
# Poissons Ratio (x) = -0.37294 0.31294
# Poissons Ratio (y) = -0.06613 0.23100
# Poissons Ratio (z) = 0.04554 0.18958
#
# Static dielectric constant tensor:
#      x y z
#    x 2.040740 0.002140 0.104110 
#    y 0.002140 2.022430 -0.071340 
#    z 0.104110 -0.071340 2.636040 
# 
# From -- ./inp_files/599122.got.cif
#   From: 2010.05.17/outbox.cif.g08.bks.cpg/sg2_300_cif.got.tgz:599122.got - 2010.06.03 11:33:40.
