data_PCOD9056502
_publ_section_title
;
Structure prediction by ZEFSAII (Michael W. Deem and Ramdas Pophale) SiO2 
 PCOD9056502
Probable space group: P -1
;
_chemical_formula_sum "Si O2"
_cell_formula_units_Z 14
_cell_length_a 14.037049
_cell_length_b 5.167641
_cell_length_c 9.333711
_cell_angle_alpha 77.212833
_cell_angle_beta 88.922829
_cell_angle_gamma 111.207693
_cell_volume 611.894772
_symmetry_space_group_name_H-M "P -1"
_symmetry_group_IT_number 2
_symmetry_cell_setting 'triclinic'
loop_
_space_group_symop_operation_xyz
x,y,z
-x,-y,-z
loop_
_atom_site_type_symbol
_atom_site_label
_atom_site_fract_x
_atom_site_fract_y
_atom_site_fract_z
Si Si1 0.271517 0.519271 0.694364
Si Si2 0.008922 0.392392 0.355174
Si Si3 0.917103 0.700093 0.091979
Si Si4 0.297364 0.142097 0.234626
Si Si5 0.800690 0.971446 0.449546
Si Si6 0.800539 0.422580 0.856469
Si Si7 0.503197 0.293957 0.392450
O O1 0.187097 0.304905 0.828672
O O2 0.246437 0.807479 0.646911
O O3 0.390057 0.585948 0.712790
O O4 0.253710 0.349598 0.565312
O O5 0.972756 0.580328 0.222821
O O6 0.920169 0.078790 0.391024
O O7 0.000000 0.500000 0.500000
O O8 0.120142 0.428203 0.293276
O O9 0.872655 0.485440 0.986324
O O10 0.000000 0.000000 0.000000
O O11 0.276608 0.413948 0.146269
O O12 0.407635 0.227525 0.296101
O O13 0.218879 0.010712 0.384955
O O14 0.264348 0.901152 0.143926
O O15 0.500000 0.500000 0.500000
O O16 0.500000 0.000000 0.500000
#
# Coordination Sequence:
#
# PCOD9056502 Si02
#       7
#     2   2   2   2   2   2   2
#     4  11  23  43  69 100 136 182 232 290 350 413
#     4  11  24  42  71 104 136 180 241 294 349 417
#     4  11  26  48  71 102 146 194 234 284 361 435
#     4  12  24  40  68 100 139 180 230 286 355 411
#     4  11  22  39  65 103 137 171 226 293 349 407
#     4  12  26  44  65  99 147 187 228 287 353 426
#     4  12  22  41  70 105 141 177 233 304 358 402
#
# _framework density 22.879750999999999
#
# number of rings (size 3 to 8) (size 9 to 14) (size 15 to 20)
#    0.000    0.571    4.286    3.857    2.000    5.143 
#    0.000    1.429    0.000    0.000    0.000    0.000 
#    0.000    0.000    0.000    0.000    0.000    0.000 
#
# Total GULP energy -78363.580090 kJ/mol
# GULP energy per Si atom -5597.398578 kJ/mol
# Density = 2.282768 g / cm^3
# Si number density = 22.879751 Si / 1000 Ang^3
#
#
#
# Elastic Constant Matrix: (Units=GPa)
#
#
# Indices 1 2 3 4 5 6 
#
# 1 155.0337 67.4061 37.3974 8.7034 10.0301 7.9010
# 2 67.4061 117.3203 39.0160 30.6291 7.2835 -1.8266
# 3 37.3974 39.0160 108.8096 20.8405 17.1622 1.4099
# 4 8.7034 30.6291 20.8405 43.4182 8.7494 -3.8866
# 5 10.0301 7.2835 17.1622 8.7494 39.2069 -1.2622
# 6 7.9010 -1.8266 1.4099 -3.8866 -1.2622 35.8976
#
#
#
# Elastic Compliance Matrix: (Units=1/GPa)
#
#
# Indices 1 2 3 4 5 6 
#
# 1 0.009232 -0.005492 -0.001505 0.002846 -0.001382 -0.001993
# 2 -0.005492 0.014427 -0.001935 -0.008339 0.001471 0.001168
# 3 -0.001505 -0.001935 0.011603 -0.003233 -0.003636 -0.000701
# 4 0.002846 -0.008339 -0.003233 0.031029 -0.004615 0.002273
# 5 -0.001382 0.001471 -0.003636 -0.004615 0.028240 0.001015
# 6 -0.001993 0.001168 -0.000701 0.002273 0.001015 0.028664
#
#
# Mechanical properties :
#
#
# Convention : Reuss Voigt Hill
#
# Bulk Modulus (GPa) = 57.48023 74.31143 65.89583
# Shear Modulus (GPa) = 34.04584 39.52748 36.78666
#
# Velocity S-wave (km/s) = 3.86169 4.16097 4.01412
# Velocity P-wave (km/s) = 6.71274 7.45886 7.09561
#
# Compressibility (1/GPa) = 0.01739729
#
# Stress axis : x y z
#
# Youngs Moduli (GPa) = 108.31418 69.31523 86.18247
#
# Poissons Ratio (x) = 0.38070 0.12972
# Poissons Ratio (y) = 0.59489 0.16679
# Poissons Ratio (z) = 0.16303 0.13414
#
# Static dielectric constant tensor:
#      x y z
#    x 1.893540 0.009020 -0.003880 
#    y 0.009020 1.874880 0.005850 
#    z -0.003880 0.005850 1.866300 
# 
# From -- ./inp_files/45478.got.cif
#   From: 2010.05.17/outbox.cif.g08.bks.cpg/sg2_23_cif.got.tgz:45478.got - 2010.06.03 11:33:40.
