data_PCOD9056469
_publ_section_title
;
Structure prediction by ZEFSAII (Michael W. Deem and Ramdas Pophale) SiO2 
 PCOD9056469
Probable space group: P -1
;
_chemical_formula_sum "Si O2"
_cell_formula_units_Z 15
_cell_length_a 9.741195
_cell_length_b 16.423805
_cell_length_c 8.269811
_cell_angle_alpha 131.215193
_cell_angle_beta 92.059259
_cell_angle_gamma 49.719411
_cell_volume 556.924193
_symmetry_space_group_name_H-M "P -1"
_symmetry_group_IT_number 2
_symmetry_cell_setting 'triclinic'
loop_
_space_group_symop_operation_xyz
x,y,z
-x,-y,-z
loop_
_atom_site_type_symbol
_atom_site_label
_atom_site_fract_x
_atom_site_fract_y
_atom_site_fract_z
Si Si1 0.267595 0.715245 0.702831
Si Si2 0.179659 0.155361 0.540740
Si Si3 0.824718 0.842127 0.813709
Si Si4 0.065706 0.412845 0.071292
Si Si5 0.405224 0.448272 0.993984
Si Si6 0.489689 0.254053 0.453526
Si Si7 0.000000 0.500000 0.500000
Si Si8 0.201719 0.889455 0.226155
O O1 0.500000 0.500000 0.500000
O O2 0.388481 0.723245 0.598530
O O3 0.068992 0.757264 0.691192
O O4 0.125923 0.882083 0.046988
O O5 0.260330 0.138178 0.343670
O O6 0.225638 0.204729 0.757905
O O7 0.882785 0.356855 0.782619
O O8 0.241348 0.990664 0.348351
O O9 0.874244 0.704734 0.742930
O O10 0.631014 0.054142 0.153778
O O11 0.804550 0.563893 0.359890
O O12 0.172550 0.412757 0.221662
O O13 0.000000 0.500000 0.000000
O O14 0.489056 0.289385 0.685369
O O15 0.548403 0.334711 0.013745
O O16 0.500000 0.500000 0.000000
O O17 0.000000 0.000000 0.500000
#
# Coordination Sequence:
#
# PCOD9056469 Si02
#       8
#     2   2   2   2   2   2   1   2
#     4  12  25  42  70 112 152 189 243 309 383 460
#     4  11  24  45  70  99 149 192 248 316 375 455
#     4  12  25  47  71 109 150 201 256 312 380 456
#     4  11  26  53  75 106 145 197 255 320 381 451
#     4  11  22  39  63 101 148 191 236 297 380 453
#     4  11  25  45  74 107 148 193 243 321 388 454
#     4  12  28  48  82 100 146 208 262 312 386 450
#     4  12  24  38  67 106 147 199 241 299 385 456
#
# _framework density 26.933648000000002
#
# number of rings (size 3 to 8) (size 9 to 14) (size 15 to 20)
#    0.000    0.533    4.000    4.400    5.600    0.533 
#    0.000    0.667    0.000    0.000    0.000    0.000 
#    0.000    0.000    0.000    0.000    0.000    0.000 
#
# Total GULP energy -83811.598843 kJ/mol
# GULP energy per Si atom -5587.439923 kJ/mol
# Density = 2.687235 g / cm^3
# Si number density = 26.933648 Si / 1000 Ang^3
#
#
#
# Elastic Constant Matrix: (Units=GPa)
#
#
# Indices 1 2 3 4 5 6 
#
# 1 124.5348 17.6414 30.6623 17.2042 -18.5947 27.9059
# 2 17.6414 118.0626 53.0026 20.9504 1.9269 34.2899
# 3 30.6623 53.0026 204.0282 -3.3038 24.0860 -6.2129
# 4 17.2042 20.9504 -3.3038 59.7274 -5.3933 4.7234
# 5 -18.5947 1.9269 24.0860 -5.3933 50.4490 5.8040
# 6 27.9059 34.2899 -6.2129 4.7234 5.8040 30.4485
#
#
#
# Elastic Compliance Matrix: (Units=1/GPa)
#
#
# Indices 1 2 3 4 5 6 
#
# 1 0.019336 0.012148 -0.008913 -0.006270 0.014271 -0.034968
# 2 0.012148 0.025884 -0.011574 -0.008566 0.013140 -0.043820
# 3 -0.008913 -0.011574 0.011333 0.004325 -0.010653 0.024875
# 4 -0.006270 -0.008566 0.004325 0.020392 -0.003453 0.013771
# 5 0.014271 0.013140 -0.010653 -0.003453 0.033426 -0.035887
# 6 -0.034968 -0.043820 0.024875 0.013771 -0.035887 0.124019
#
#
# Mechanical properties :
#
#
# Convention : Reuss Voigt Hill
#
# Bulk Modulus (GPa) = 25.07880 72.13758 48.60819
# Shear Modulus (GPa) = 18.91370 51.14626 35.02998
#
# Velocity S-wave (km/s) = 2.65284 4.36245 3.61030
# Velocity P-wave (km/s) = 4.32608 7.22608 5.95530
#
# Compressibility (1/GPa) = 0.03987431
#
# Stress axis : x y z
#
# Youngs Moduli (GPa) = 51.71639 38.63459 88.24159
#
# Poissons Ratio (x) = -0.46932 0.78648
# Poissons Ratio (y) = -0.62824 1.02130
# Poissons Ratio (z) = 0.46094 0.44716
#
# Static dielectric constant tensor:
#      x y z
#    x 2.039560 0.215210 -0.059870 
#    y 0.215210 1.787710 0.048410 
#    z -0.059870 0.048410 2.120280 
# 
# From -- ./inp_files/271082.got.cif
#   From: 2010.05.17/outbox.cif.g08.bks.cpg/sg2_136_cif.got.tgz:271082.got - 2010.06.03 11:33:40.
