data_PCOD9056280
_publ_section_title
;
Structure prediction by ZEFSAII (Michael W. Deem and Ramdas Pophale) SiO2 
 PCOD9056280
Probable space group: P -1
;
_chemical_formula_sum "Si O2"
_cell_formula_units_Z 16
_cell_length_a 22.352152
_cell_length_b 11.226603
_cell_length_c 5.910195
_cell_angle_alpha 118.023563
_cell_angle_beta 121.571565
_cell_angle_gamma 33.870559
_cell_volume 702.287062
_symmetry_space_group_name_H-M "P -1"
_symmetry_group_IT_number 2
_symmetry_cell_setting 'triclinic'
loop_
_space_group_symop_operation_xyz
x,y,z
-x,-y,-z
loop_
_atom_site_type_symbol
_atom_site_label
_atom_site_fract_x
_atom_site_fract_y
_atom_site_fract_z
Si Si1 0.309110 0.931772 0.476627
Si Si2 0.826476 0.047997 0.508069
Si Si3 0.758077 0.688451 0.268695
Si Si4 0.261047 0.539608 0.284300
Si Si5 0.987382 0.440308 0.674701
Si Si6 0.372116 0.710704 0.007711
Si Si7 0.408567 0.204015 0.655559
Si Si8 0.554318 0.611467 0.803006
O O1 0.208645 0.976533 0.354128
O O2 0.436808 0.717622 0.614781
O O3 0.269338 0.121843 0.706567
O O4 0.332690 0.905580 0.230093
O O5 0.830414 0.204291 0.670785
O O6 0.714170 0.190807 0.269007
O O7 0.925958 0.813893 0.389701
O O8 0.864691 0.557850 0.519607
O O9 0.648243 0.814647 0.303978
O O10 0.775071 0.539171 0.997719
O O11 0.305986 0.423468 0.510715
O O12 0.372849 0.437825 0.301060
O O13 0.000000 0.500000 0.500000
O O14 0.000000 0.500000 0.000000
O O15 0.500000 0.500000 0.000000
O O16 0.365612 0.607264 0.096694
O O17 0.500000 0.000000 0.500000
O O18 0.468863 0.229405 0.938072
#
# Coordination Sequence:
#
# PCOD9056280 Si02
#       8
#     2   2   2   2   2   2   2   2
#     4  12  23  40  68 101 141 190 246 302 374 436
#     4  12  25  44  74 103 141 193 244 315 368 446
#     4  11  27  46  70 104 144 191 249 309 368 456
#     4  11  24  44  67 100 146 186 242 296 374 444
#     4  12  29  53  81 114 146 194 256 322 382 444
#     4  12  23  36  63 104 143 186 240 306 373 444
#     4  11  24  41  67  99 148 196 238 290 374 454
#     4  11  22  37  61 102 141 185 235 297 364 446
#
# _framework density 22.782708
#
# number of rings (size 3 to 8) (size 9 to 14) (size 15 to 20)
#    0.000    0.500    5.000    3.375    3.500    4.500 
#    0.000    0.625    0.000    0.000    0.000    0.000 
#    0.000    0.000    0.000    0.000    0.000    0.000 
#
# Total GULP energy -89227.126928 kJ/mol
# GULP energy per Si atom -5576.695433 kJ/mol
# Density = 2.273085 g / cm^3
# Si number density = 22.782708 Si / 1000 Ang^3
#
#
#
# Elastic Constant Matrix: (Units=GPa)
#
#
# Indices 1 2 3 4 5 6 
#
# 1 26.7494 -5.7244 7.1578 8.8883 6.1173 10.1300
# 2 -5.7244 121.1657 37.3722 34.3250 16.4056 -0.3272
# 3 7.1578 37.3722 111.4564 21.6076 14.3272 -6.0889
# 4 8.8883 34.3250 21.6076 48.6100 1.6769 4.9022
# 5 6.1173 16.4056 14.3272 1.6769 27.4095 -1.8239
# 6 10.1300 -0.3272 -6.0889 4.9022 -1.8239 34.3264
#
#
#
# Elastic Compliance Matrix: (Units=1/GPa)
#
#
# Indices 1 2 3 4 5 6 
#
# 1 0.054031 0.009298 -0.002780 -0.013096 -0.016391 -0.015350
# 2 0.009298 0.013207 -0.002213 -0.009542 -0.008379 -0.002093
# 3 -0.002780 -0.002213 0.011093 -0.003045 -0.003467 0.003018
# 4 -0.013096 -0.009542 -0.003045 0.030846 0.008290 -0.000731
# 5 -0.016391 -0.008379 -0.003467 0.008290 0.046824 0.005446
# 6 -0.015350 -0.002093 0.003018 -0.000731 0.005446 0.034571
#
#
# Mechanical properties :
#
#
# Convention : Reuss Voigt Hill
#
# Bulk Modulus (GPa) = 11.50213 37.44252 24.47233
# Shear Modulus (GPa) = 23.70309 36.77359 30.23834
#
# Velocity S-wave (km/s) = 3.22902 4.02195 3.64710
# Velocity P-wave (km/s) = 4.35450 6.16753 5.33854
#
# Compressibility (1/GPa) = 0.08694043
#
# Stress axis : x y z
#
# Youngs Moduli (GPa) = 18.50801 75.71727 90.14327
#
# Poissons Ratio (x) = -0.70401 0.25063
# Poissons Ratio (y) = -0.17209 0.19948
# Poissons Ratio (z) = 0.05146 0.16756
#
# Static dielectric constant tensor:
#      x y z
#    x 1.968940 0.085020 -0.064200 
#    y 0.085020 1.920690 0.077170 
#    z -0.064200 0.077170 1.999770 
# 
# From -- ./inp_files/82818.got.cif
#   From: 2010.05.17/outbox.cif.g08.bks.cpg/sg2_42_cif.got.tgz:82818.got - 2010.06.03 11:33:40.
