data_PCOD9056173
_publ_section_title
;
Structure prediction by ZEFSAII (Michael W. Deem and Ramdas Pophale) SiO2 
 PCOD9056173
Probable space group: P -1
;
_chemical_formula_sum "Si O2"
_cell_formula_units_Z 15
_cell_length_a 10.916165
_cell_length_b 7.489641
_cell_length_c 10.078689
_cell_angle_alpha 127.790592
_cell_angle_beta 95.796743
_cell_angle_gamma 73.031579
_cell_volume 619.522594
_symmetry_space_group_name_H-M "P -1"
_symmetry_group_IT_number 2
_symmetry_cell_setting 'triclinic'
loop_
_space_group_symop_operation_xyz
x,y,z
-x,-y,-z
loop_
_atom_site_type_symbol
_atom_site_label
_atom_site_fract_x
_atom_site_fract_y
_atom_site_fract_z
Si Si1 0.092249 0.123344 0.491905
Si Si2 0.217136 0.473397 0.790937
Si Si3 0.483874 0.173178 0.950312
Si Si4 0.490761 0.452612 0.693109
Si Si5 0.764063 0.131746 0.854787
Si Si6 0.899717 0.175641 0.292792
Si Si7 0.000000 0.000000 0.000000
Si Si8 0.630781 0.149264 0.351313
O O1 0.157748 0.262326 0.661977
O O2 0.988503 0.271955 0.441852
O O3 0.194945 0.953317 0.327634
O O4 0.000000 0.000000 0.500000
O O5 0.353411 0.424903 0.708484
O O6 0.117410 0.692037 0.793688
O O7 0.229882 0.605671 0.986999
O O8 0.453932 0.435807 0.126731
O O9 0.614716 0.899135 0.191444
O O10 0.621598 0.119689 0.868808
O O11 0.500000 0.000000 0.000000
O O12 0.580158 0.224699 0.526855
O O13 0.459619 0.658898 0.671942
O O14 0.863720 0.966855 0.897097
O O15 0.769264 0.181133 0.352196
O O16 0.962699 0.924199 0.116172
#
# Coordination Sequence:
#
# PCOD9056173 Si02
#       8
#     2   2   2   2   2   2   1   2
#     4  11  22  34  50  72  99 136 172 200 243 297
#     4   9  17  33  53  72  97 127 162 209 251 285
#     4   9  15  25  45  72  97 123 154 196 250 294
#     4   8  15  25  43  71  96 120 151 191 244 294
#     4   9  18  31  49  73 101 130 164 203 246 295
#     4   9  18  32  50  74 101 128 164 207 249 292
#     4   8  14  28  46  68  98 126 158 202 242 278
#     4   9  15  26  43  69 100 121 149 196 242 289
#
# _framework density 24.21219
#
# number of rings (size 3 to 8) (size 9 to 14) (size 15 to 20)
#    0.000    2.933    0.000    3.600    0.000    1.600 
#    0.000    4.000    0.000    3.200    0.000    3.733 
#    0.000    0.000    0.000    0.000    0.000    0.000 
#
# Total GULP energy -83507.077828 kJ/mol
# GULP energy per Si atom -5567.138522 kJ/mol
# Density = 2.415708 g / cm^3
# Si number density = 24.212190 Si / 1000 Ang^3
#
#
#
# Elastic Constant Matrix: (Units=GPa)
#
#
# Indices 1 2 3 4 5 6 
#
# 1 113.3637 20.1628 106.0478 3.3977 2.7462 14.1005
# 2 20.1628 66.2556 29.9324 1.9696 9.6125 7.3546
# 3 106.0478 29.9324 144.8268 13.0889 14.0136 27.4258
# 4 3.3977 1.9696 13.0889 26.6922 2.8642 10.6832
# 5 2.7462 9.6125 14.0136 2.8642 50.4353 -8.1850
# 6 14.1005 7.3546 27.4258 10.6832 -8.1850 33.8107
#
#
#
# Elastic Compliance Matrix: (Units=1/GPa)
#
#
# Indices 1 2 3 4 5 6 
#
# 1 0.031437 0.000057 -0.025514 0.004788 0.006327 0.007592
# 2 0.000057 0.017067 -0.002940 0.001506 -0.002936 -0.002538
# 3 -0.025514 -0.002940 0.030001 -0.004954 -0.008296 -0.013499
# 4 0.004788 0.001506 -0.004954 0.044982 -0.003911 -0.013466
# 5 0.006327 -0.002936 -0.008296 -0.003911 0.024500 0.011896
# 6 0.007592 -0.002538 -0.013499 -0.013466 0.011896 0.045047
#
#
# Mechanical properties :
#
#
# Convention : Reuss Voigt Hill
#
# Bulk Modulus (GPa) = 46.05974 70.74802 58.40388
# Shear Modulus (GPa) = 19.45018 33.40784 26.42901
#
# Velocity S-wave (km/s) = 2.83737 3.71859 3.30746
# Velocity P-wave (km/s) = 5.45883 6.90801 6.22573
#
# Compressibility (1/GPa) = 0.02171094
#
# Stress axis : x y z
#
# Youngs Moduli (GPa) = 31.80925 58.59229 33.33176
#
# Poissons Ratio (x) = -0.00331 0.85042
# Poissons Ratio (y) = -0.00180 0.09800
# Poissons Ratio (z) = 0.81158 0.17227
#
# Static dielectric constant tensor:
#      x y z
#    x 1.657590 0.264960 0.617060 
#    y 0.264960 1.647700 -0.699070 
#    z 0.617060 -0.699070 0.885530 
# 
# From -- ./inp_files/413667.got.cif
#   From: 2010.05.17/outbox.cif.g08.bks.cpg/sg2_207_cif.got.tgz:413667.got - 2010.06.03 11:33:40.
