data_PCOD9056293
_publ_section_title
;
Structure prediction by ZEFSAII (Michael W. Deem and Ramdas Pophale) SiO2 
 PCOD9056293
Probable space group: P -1
;
_chemical_formula_sum "Si O2"
_cell_formula_units_Z 12
_cell_length_a 5.873692
_cell_length_b 7.835084
_cell_length_c 14.439812
_cell_angle_alpha 123.659975
_cell_angle_beta 90.021091
_cell_angle_gamma 112.297814
_cell_volume 492.237665
_symmetry_space_group_name_H-M "P -1"
_symmetry_group_IT_number 2
_symmetry_cell_setting 'triclinic'
loop_
_space_group_symop_operation_xyz
x,y,z
-x,-y,-z
loop_
_atom_site_type_symbol
_atom_site_label
_atom_site_fract_x
_atom_site_fract_y
_atom_site_fract_z
Si Si1 0.969335 0.709282 0.105469
Si Si2 0.469417 0.466285 0.285444
Si Si3 0.805731 0.606598 0.556881
Si Si4 0.548366 0.068533 0.206006
Si Si5 0.800120 0.896070 0.316588
Si Si6 0.279361 0.161957 0.011871
O O1 0.887658 0.721845 0.213318
O O2 0.755023 0.714550 0.041480
O O3 0.240869 0.933882 0.165954
O O4 0.000000 0.500000 0.000000
O O5 0.225089 0.397725 0.331759
O O6 0.625888 0.338411 0.290546
O O7 0.620525 0.740024 0.351258
O O8 0.400149 0.344896 0.148396
O O9 0.500000 0.500000 0.500000
O O10 0.000000 0.500000 0.500000
O O11 0.949788 0.865084 0.593126
O O12 0.651020 0.976979 0.264815
O O13 0.616118 0.999378 0.085773
O O14 0.000000 0.000000 0.000000
#
# Coordination Sequence:
#
# PCOD9056293 Si02
#       6
#     2   2   2   2   2   2
#     4  11  22  39  66 107 157 193 233 299 362 457
#     4  12  24  47  78 106 145 207 250 310 392 454
#     4  12  29  57  80 108 151 197 266 348 392 443
#     4  11  22  44  66 107 165 191 235 308 362 459
#     4  11  26  47  74 112 147 194 255 307 385 466
#     4  11  22  37  63 108 152 199 248 284 368 466
#
# _framework density 24.37847
#
# number of rings (size 3 to 8) (size 9 to 14) (size 15 to 20)
#    0.000    0.667    3.333    4.500    2.333    4.000 
#    6.000    0.000    0.000    0.000    0.000    0.000 
#    0.000    0.000    0.000    0.000    0.000    0.000 
#
# Total GULP energy -66967.690663 kJ/mol
# GULP energy per Si atom -5580.640889 kJ/mol
# Density = 2.432298 g / cm^3
# Si number density = 24.378470 Si / 1000 Ang^3
#
#
#
# Elastic Constant Matrix: (Units=GPa)
#
#
# Indices 1 2 3 4 5 6 
#
# 1 103.6949 42.3611 56.0593 4.2348 -9.3526 12.5335
# 2 42.3611 149.8468 27.0345 33.7075 -4.4630 23.9526
# 3 56.0593 27.0345 91.7228 9.5298 -12.2590 3.3494
# 4 4.2348 33.7075 9.5298 36.9665 6.4243 -1.8320
# 5 -9.3526 -4.4630 -12.2590 6.4243 57.0682 -1.6488
# 6 12.5335 23.9526 3.3494 -1.8320 -1.6488 46.1450
#
#
#
# Elastic Compliance Matrix: (Units=1/GPa)
#
#
# Indices 1 2 3 4 5 6 
#
# 1 0.016016 -0.003395 -0.009094 0.003524 -0.000043 -0.001789
# 2 -0.003395 0.010623 0.000324 -0.009855 0.001310 -0.004960
# 3 -0.009094 0.000324 0.017114 -0.004085 0.002700 0.000994
# 4 0.003524 -0.009855 -0.004085 0.037871 -0.005167 0.005774
# 5 -0.000043 0.001310 0.002700 -0.005167 0.018768 -0.000399
# 6 -0.001789 -0.004960 0.000994 0.005774 -0.000399 0.024874
#
#
# Mechanical properties :
#
#
# Convention : Reuss Voigt Hill
#
# Bulk Modulus (GPa) = 51.48619 66.24160 58.86389
# Shear Modulus (GPa) = 32.03642 42.68992 37.36317
#
# Velocity S-wave (km/s) = 3.62902 4.18919 3.91913
# Velocity P-wave (km/s) = 6.22295 7.11550 6.68414
#
# Compressibility (1/GPa) = 0.01942268
#
# Stress axis : x y z
#
# Youngs Moduli (GPa) = 62.43925 94.13099 58.43072
#
# Poissons Ratio (x) = 0.31955 0.53139
# Poissons Ratio (y) = 0.21196 -0.01892
# Poissons Ratio (z) = 0.56784 -0.03048
#
# Static dielectric constant tensor:
#      x y z
#    x 2.030960 -0.073000 -0.007930 
#    y -0.073000 1.999210 -0.003680 
#    z -0.007930 -0.003680 2.153950 
# 
# From -- ./inp_files/87284.got.cif
#   From: 2010.05.17/outbox.cif.g08.bks.cpg/sg2_44_cif.got.tgz:87284.got - 2010.06.03 11:33:40.
