data_PCOD9056499
_publ_section_title
;
Structure prediction by ZEFSAII (Michael W. Deem and Ramdas Pophale) SiO2 
 PCOD9056499
Probable space group: P -1
;
_chemical_formula_sum "Si O2"
_cell_formula_units_Z 16
_cell_length_a 9.041665
_cell_length_b 18.615725
_cell_length_c 12.273394
_cell_angle_alpha 50.724156
_cell_angle_beta 60.901714
_cell_angle_gamma 29.821247
_cell_volume 784.566179
_symmetry_space_group_name_H-M "P -1"
_symmetry_group_IT_number 2
_symmetry_cell_setting 'triclinic'
loop_
_space_group_symop_operation_xyz
x,y,z
-x,-y,-z
loop_
_atom_site_type_symbol
_atom_site_label
_atom_site_fract_x
_atom_site_fract_y
_atom_site_fract_z
Si Si1 0.124188 0.766373 0.924943
Si Si2 0.271103 0.481778 0.163190
Si Si3 0.801020 0.499604 0.577570
Si Si4 0.896306 0.800374 0.368443
Si Si5 0.211522 0.353069 0.976552
Si Si6 0.268567 0.740817 0.139098
Si Si7 0.738981 0.360327 0.389441
Si Si8 0.779505 0.867935 0.752366
O O1 0.423458 0.680781 0.853895
O O2 0.857086 0.891431 0.811678
O O3 0.202230 0.621459 0.034593
O O4 0.095322 0.807408 0.021826
O O5 0.303698 0.457746 0.301773
O O6 0.987141 0.553909 0.151401
O O7 0.485762 0.621528 0.512525
O O8 0.000000 0.500000 0.500000
O O9 0.013509 0.319989 0.634296
O O10 0.035244 0.830360 0.234895
O O11 0.059431 0.706943 0.513878
O O12 0.539248 0.963252 0.347906
O O13 0.237178 0.233875 0.114836
O O14 0.530740 0.257975 0.938631
O O15 0.000000 0.500000 0.000000
O O16 0.521329 0.544124 0.253857
O O17 0.953175 0.240183 0.326516
#
# Coordination Sequence:
#
# PCOD9056499 Si02
#       8
#     2   2   2   2   2   2   2   2
#     4  10  17  36  62  85 117 154 197 243 298 353
#     4  10  18  33  59  91 112 147 200 248 288 347
#     4  11  23  39  62  89 114 157 209 249 286 347
#     4  11  26  41  58  89 126 164 193 243 310 349
#     4  11  21  34  64  95 116 150 203 249 293 351
#     4  11  20  39  63  93 118 153 204 248 297 347
#     4  11  21  42  64  84 122 163 204 241 289 370
#     4  11  23  41  62  89 123 160 197 242 305 362
#
# _framework density 20.393436999999999
#
# number of rings (size 3 to 8) (size 9 to 14) (size 15 to 20)
#    0.000    1.250    6.250    2.625    3.500    1.000 
#    0.000    1.875    0.000    0.000    0.000    0.000 
#    0.000    0.000    0.000    0.000    0.000    0.000 
#
# Total GULP energy -89253.186950 kJ/mol
# GULP energy per Si atom -5578.324184 kJ/mol
# Density = 2.034702 g / cm^3
# Si number density = 20.393437 Si / 1000 Ang^3
#
#
#
# Elastic Constant Matrix: (Units=GPa)
#
#
# Indices 1 2 3 4 5 6 
#
# 1 99.1949 9.6737 22.2322 0.4124 -0.4268 -22.9644
# 2 9.6737 52.1888 13.0786 2.7536 -1.1898 -25.1013
# 3 22.2322 13.0786 45.1008 9.9719 10.8741 -7.1170
# 4 0.4124 2.7536 9.9719 17.3935 -5.5340 3.1851
# 5 -0.4268 -1.1898 10.8741 -5.5340 40.8610 9.3935
# 6 -22.9644 -25.1013 -7.1170 3.1851 9.3935 30.0884
#
#
#
# Elastic Compliance Matrix: (Units=1/GPa)
#
#
# Indices 1 2 3 4 5 6 
#
# 1 0.014355 0.006354 -0.005571 -0.001683 -0.002031 0.015751
# 2 0.006354 0.039338 -0.001829 -0.016291 -0.010196 0.042142
# 3 -0.005571 -0.001829 0.037482 -0.028382 -0.016516 0.011248
# 4 -0.001683 -0.016291 -0.028382 0.093010 0.028963 -0.040476
# 5 -0.002031 -0.010196 -0.016516 0.028963 0.039201 -0.029267
# 6 0.015751 0.042142 0.011248 -0.040476 -0.029267 0.096497
#
#
# Mechanical properties :
#
#
# Convention : Reuss Voigt Hill
#
# Bulk Modulus (GPa) = 11.22570 31.82815 21.52693
# Shear Modulus (GPa) = 14.21786 27.76857 20.99322
#
# Velocity S-wave (km/s) = 2.64328 3.69405 3.21192
# Velocity P-wave (km/s) = 3.85129 5.81684 4.93295
#
# Compressibility (1/GPa) = 0.08908133
#
# Stress axis : x y z
#
# Youngs Moduli (GPa) = 69.66215 25.42062 26.67970
#
# Poissons Ratio (x) = -0.16152 0.14864
# Poissons Ratio (y) = -0.44262 0.04880
# Poissons Ratio (z) = 0.38810 0.04650
#
# Static dielectric constant tensor:
#      x y z
#    x 1.780590 -0.020850 -0.009860 
#    y -0.020850 1.709560 0.001590 
#    z -0.009860 0.001590 1.767100 
# 
# From -- ./inp_files/209255.got.cif
#   From: 2010.05.17/outbox.cif.g08.bks.cpg/sg2_105_cif.got.tgz:209255.got - 2010.06.03 11:33:40.
