data_PCOD9056709
_publ_section_title
;
Structure prediction by ZEFSAII (Michael W. Deem and Ramdas Pophale) SiO2 
 PCOD9056709
Probable space group: P -1
;
_chemical_formula_sum "Si O2"
_cell_formula_units_Z 15
_cell_length_a 8.310148
_cell_length_b 13.533204
_cell_length_c 9.426880
_cell_angle_alpha 68.398957
_cell_angle_beta 65.729776
_cell_angle_gamma 117.480593
_cell_volume 620.840004
_symmetry_space_group_name_H-M "P -1"
_symmetry_group_IT_number 2
_symmetry_cell_setting 'triclinic'
loop_
_space_group_symop_operation_xyz
x,y,z
-x,-y,-z
loop_
_atom_site_type_symbol
_atom_site_label
_atom_site_fract_x
_atom_site_fract_y
_atom_site_fract_z
Si Si1 0.093809 0.439768 0.585934
Si Si2 0.917477 0.081468 0.527670
Si Si3 0.875938 0.109593 0.140432
Si Si4 0.500000 0.000000 0.500000
Si Si5 0.508110 0.633706 0.850042
Si Si6 0.142245 0.649610 0.965911
Si Si7 0.436229 0.401563 0.843427
Si Si8 0.207445 0.902208 0.147785
O O1 0.390210 0.548139 0.381656
O O2 0.000000 0.500000 0.500000
O O3 0.001607 0.408616 0.799226
O O4 0.953020 0.273301 0.670324
O O5 0.708879 0.057125 0.528749
O O6 0.842459 0.038472 0.741609
O O7 0.192695 0.258563 0.324779
O O8 0.000000 0.000000 0.500000
O O9 0.629392 0.954143 0.383899
O O10 0.804281 0.202408 0.172381
O O11 0.864751 0.094129 0.985474
O O12 0.165423 0.224572 0.022390
O O13 0.385386 0.504353 0.841633
O O14 0.420619 0.716810 0.832081
O O15 0.427712 0.571093 0.073575
O O16 0.000000 0.500000 0.000000
O O17 0.500000 0.000000 0.000000
#
# Coordination Sequence:
#
# PCOD9056709 Si02
#       8
#     2   2   2   1   2   2   2   2
#     4  11  24  42  70 101 136 186 232 282 358 425
#     4  12  26  46  76 102 141 191 241 290 360 437
#     4  11  24  43  70  97 138 179 232 291 356 419
#     4  12  24  46  70 102 136 194 236 288 354 432
#     4  11  22  40  67 102 135 175 229 291 346 415
#     4  11  23  40  66 101 137 173 228 291 351 419
#     4  11  22  40  68  99 134 174 229 288 345 415
#     4  11  25  46  69 101 146 187 229 300 361 420
#
# _framework density 24.160816000000001
#
# number of rings (size 3 to 8) (size 9 to 14) (size 15 to 20)
#    0.000    0.800    6.667    0.800    1.867    4.267 
#    0.000    2.000    0.000    0.000    0.000    0.000 
#    0.000    0.000    0.000    0.000    0.000    0.000 
#
# Total GULP energy -83560.111484 kJ/mol
# GULP energy per Si atom -5570.674099 kJ/mol
# Density = 2.410582 g / cm^3
# Si number density = 24.160816 Si / 1000 Ang^3
#
#
#
# Elastic Constant Matrix: (Units=GPa)
#
#
# Indices 1 2 3 4 5 6 
#
# 1 74.7074 37.7102 43.7162 10.7203 -10.5352 0.5746
# 2 37.7102 97.1475 39.1440 33.3562 -9.5846 9.4593
# 3 43.7162 39.1440 129.1772 29.4165 -24.7237 4.5091
# 4 10.7203 33.3562 29.4165 50.3899 3.5079 -10.0625
# 5 -10.5352 -9.5846 -24.7237 3.5079 48.3172 -1.5379
# 6 0.5746 9.4593 4.5091 -10.0625 -1.5379 35.1561
#
#
#
# Elastic Compliance Matrix: (Units=1/GPa)
#
#
# Indices 1 2 3 4 5 6 
#
# 1 0.019697 -0.007395 -0.005716 0.004816 -0.000327 0.003765
# 2 -0.007395 0.018464 0.000766 -0.013018 0.003116 -0.008535
# 3 -0.005716 0.000766 0.012404 -0.007657 0.005693 -0.003646
# 4 0.004816 -0.013018 -0.007657 0.035263 -0.007559 0.014168
# 5 -0.000327 0.003116 0.005693 -0.007559 0.024621 -0.002650
# 6 0.003765 -0.008535 -0.003646 0.014168 -0.002650 0.035087
#
#
# Mechanical properties :
#
#
# Convention : Reuss Voigt Hill
#
# Bulk Modulus (GPa) = 38.64697 60.24144 49.44420
# Shear Modulus (GPa) = 27.95652 38.80342 33.37997
#
# Velocity S-wave (km/s) = 3.40531 4.01190 3.72099
# Velocity P-wave (km/s) = 5.61177 6.81528 6.24260
#
# Compressibility (1/GPa) = 0.02587525
#
# Stress axis : x y z
#
# Youngs Moduli (GPa) = 50.76925 54.16057 80.62068
#
# Poissons Ratio (x) = 0.40054 0.46080
# Poissons Ratio (y) = 0.37546 -0.06179
# Poissons Ratio (z) = 0.29018 -0.04151
#
# Static dielectric constant tensor:
#      x y z
#    x 1.973360 0.003630 0.048570 
#    y 0.003630 1.962100 0.215340 
#    z 0.048570 0.215340 1.253860 
# 
# From -- ./inp_files/189041.got.cif
#   From: 2010.05.17/outbox.cif.g08.bks.cpg/sg2_95_cif.got.tgz:189041.got - 2010.06.03 11:33:40.
