data_PCOD9056399
_publ_section_title
;
Structure prediction by ZEFSAII (Michael W. Deem and Ramdas Pophale) SiO2 
 PCOD9056399
Probable space group: P -1
;
_chemical_formula_sum "Si O2"
_cell_formula_units_Z 14
_cell_length_a 9.448403
_cell_length_b 12.068024
_cell_length_c 9.597175
_cell_angle_alpha 118.969418
_cell_angle_beta 135.011231
_cell_angle_gamma 84.244013
_cell_volume 622.761400
_symmetry_space_group_name_H-M "P -1"
_symmetry_group_IT_number 2
_symmetry_cell_setting 'triclinic'
loop_
_space_group_symop_operation_xyz
x,y,z
-x,-y,-z
loop_
_atom_site_type_symbol
_atom_site_label
_atom_site_fract_x
_atom_site_fract_y
_atom_site_fract_z
Si Si1 0.786371 0.457355 0.638089
Si Si2 0.756599 0.549221 0.983394
Si Si3 0.384919 0.277260 0.644191
Si Si4 0.023374 0.364764 0.376116
Si Si5 0.381790 0.222812 0.065735
Si Si6 0.238166 0.093442 0.164185
Si Si7 0.552920 0.120140 0.878313
O O1 0.722743 0.501121 0.768292
O O2 0.859815 0.585644 0.661101
O O3 0.597836 0.329594 0.357165
O O4 0.997367 0.422682 0.789788
O O5 0.594096 0.420728 0.879555
O O6 0.699067 0.682252 0.029585
O O7 0.176171 0.314292 0.545839
O O8 0.350232 0.212485 0.426215
O O9 0.418268 0.165616 0.698233
O O10 0.000000 0.500000 0.500000
O O11 0.789479 0.244757 0.126203
O O12 0.218451 0.149060 0.031267
O O13 0.437585 0.117816 0.943727
O O14 0.394313 0.010339 0.203468
O O15 0.000000 0.000000 0.000000
#
# Coordination Sequence:
#
# PCOD9056399 Si02
#       7
#     2   2   2   2   2   2   2
#     4  11  22  38  66 106 136 173 222 276 342 411
#     4  11  23  39  71 106 133 175 225 284 344 408
#     4  12  24  44  72  99 138 181 230 279 340 408
#     4  12  23  39  69 101 141 173 218 281 351 404
#     4  12  25  45  71 100 142 174 227 288 347 391
#     4  12  27  50  72  92 135 195 237 275 331 410
#     4  12  27  44  69 103 141 181 228 281 340 406
#
# _framework density 22.480519999999999
#
# number of rings (size 3 to 8) (size 9 to 14) (size 15 to 20)
#    0.000    0.286    7.143    2.143    2.000    1.143 
#    2.571    0.714    0.000    0.000    0.000    0.000 
#    0.000    0.000    0.000    0.000    0.000    0.000 
#
# Total GULP energy -78431.316006 kJ/mol
# GULP energy per Si atom -5602.236858 kJ/mol
# Density = 2.242935 g / cm^3
# Si number density = 22.480520 Si / 1000 Ang^3
#
#
#
# Elastic Constant Matrix: (Units=GPa)
#
#
# Indices 1 2 3 4 5 6 
#
# 1 78.4348 12.4213 22.8208 5.1633 -11.7965 -5.7435
# 2 12.4213 103.2376 24.5105 -7.5404 -8.3039 -29.4359
# 3 22.8208 24.5105 42.4929 -11.6371 2.7821 -14.1366
# 4 5.1633 -7.5404 -11.6371 34.2941 -1.7996 -1.7034
# 5 -11.7965 -8.3039 2.7821 -1.7996 28.5518 2.3915
# 6 -5.7435 -29.4359 -14.1366 -1.7034 2.3915 59.9235
#
#
#
# Elastic Compliance Matrix: (Units=1/GPa)
#
#
# Indices 1 2 3 4 5 6 
#
# 1 0.018027 0.000684 -0.012949 -0.006581 0.008622 -0.001522
# 2 0.000684 0.012860 -0.006175 0.001092 0.004292 0.004786
# 3 -0.012949 -0.006175 0.040669 0.014134 -0.010733 0.006150
# 4 -0.006581 0.001092 0.014134 0.035301 -0.001916 0.004320
# 5 0.008622 0.004292 -0.010733 -0.001916 0.040867 -0.001283
# 6 -0.001522 0.004786 0.006150 0.004320 -0.001283 0.020518
#
#
# Mechanical properties :
#
#
# Convention : Reuss Voigt Hill
#
# Bulk Modulus (GPa) = 28.83849 38.18561 33.51205
# Shear Modulus (GPa) = 23.07552 35.51474 29.29513
#
# Velocity S-wave (km/s) = 3.20733 3.97898 3.61381
# Velocity P-wave (km/s) = 5.15480 6.17517 5.68791
#
# Compressibility (1/GPa) = 0.03467588
#
# Stress axis : x y z
#
# Youngs Moduli (GPa) = 55.47199 77.76270 24.58873
#
# Poissons Ratio (x) = -0.05321 0.31840
# Poissons Ratio (y) = -0.03795 0.15183
# Poissons Ratio (z) = 0.71832 0.48018
#
# Static dielectric constant tensor:
#      x y z
#    x 1.859310 -0.005200 -0.029920 
#    y -0.005200 1.841200 -0.014480 
#    z -0.029920 -0.014480 1.798750 
# 
# From -- ./inp_files/190520.got.cif
#   From: 2010.05.17/outbox.cif.g08.bks.cpg/sg2_96_cif.got.tgz:190520.got - 2010.06.03 11:33:40.
