data_PCOD9056468
_publ_section_title
;
Structure prediction by ZEFSAII (Michael W. Deem and Ramdas Pophale) SiO2 
 PCOD9056468
Probable space group: P -1
;
_chemical_formula_sum "Si O2"
_cell_formula_units_Z 16
_cell_length_a 11.984447
_cell_length_b 7.814721
_cell_length_c 10.326678
_cell_angle_alpha 49.495049
_cell_angle_beta 109.156734
_cell_angle_gamma 125.568063
_cell_volume 596.237534
_symmetry_space_group_name_H-M "P -1"
_symmetry_group_IT_number 2
_symmetry_cell_setting 'triclinic'
loop_
_space_group_symop_operation_xyz
x,y,z
-x,-y,-z
loop_
_atom_site_type_symbol
_atom_site_label
_atom_site_fract_x
_atom_site_fract_y
_atom_site_fract_z
Si Si1 0.470707 0.332857 0.747729
Si Si2 0.164980 0.098308 0.134625
Si Si3 0.198598 0.204645 0.604906
Si Si4 0.913603 0.571593 0.336836
Si Si5 0.709512 0.325600 0.194176
Si Si6 0.928610 0.711212 0.743899
Si Si7 0.696142 0.197190 0.950689
Si Si8 0.548918 0.733283 0.795745
O O1 0.358945 0.292150 0.616533
O O2 0.592834 0.271124 0.803584
O O3 0.535734 0.604257 0.714607
O O4 0.369578 0.111836 0.924460
O O5 0.131494 0.190855 0.212191
O O6 0.293361 0.056057 0.222096
O O7 0.223303 0.356744 0.941526
O O8 0.029659 0.830350 0.179883
O O9 0.177984 0.353869 0.644239
O O10 0.131386 0.253004 0.430399
O O11 0.091665 0.892635 0.736187
O O12 0.821050 0.325054 0.330528
O O13 0.000000 0.500000 0.500000
O O14 0.561619 0.180181 0.275251
O O15 0.686900 0.243167 0.078001
O O16 0.853677 0.397397 0.878187
O O17 0.500000 0.500000 0.000000
#
# Coordination Sequence:
#
# PCOD9056468 Si02
#       8
#     2   2   2   2   2   2   2   2
#     4  11  20  37  60  90 115 149 193 235 291 336
#     4   9  19  37  62  84 111 152 194 236 283 346
#     4  10  22  37  61  79 115 165 189 230 289 351
#     4  11  23  39  57  86 117 149 198 239 285 339
#     4  10  19  38  62  85 115 153 190 234 292 341
#     4   9  19  40  55  83 119 153 194 232 285 339
#     4  10  22  37  59  94 117 143 192 251 277 331
#     4  10  17  36  62  84 114 153 187 235 285 349
#
# _framework density 26.834938999999999
#
# number of rings (size 3 to 8) (size 9 to 14) (size 15 to 20)
#    0.000    2.000    5.000    0.375    0.000    4.000 
#    4.500    0.625    0.000    0.000    0.000    0.000 
#    0.000    0.000    0.000    0.000    0.000    0.000 
#
# Total GULP energy -89524.681577 kJ/mol
# GULP energy per Si atom -5595.292599 kJ/mol
# Density = 2.677386 g / cm^3
# Si number density = 26.834939 Si / 1000 Ang^3
#
#
#
# Elastic Constant Matrix: (Units=GPa)
#
#
# Indices 1 2 3 4 5 6 
#
# 1 92.8830 41.9135 6.0969 21.5324 3.3581 9.9427
# 2 41.9135 107.6795 2.5196 27.2808 3.4203 27.2125
# 3 6.0969 2.5196 54.3382 17.7789 15.3961 -0.3191
# 4 21.5324 27.2808 17.7789 48.4486 7.8987 3.0682
# 5 3.3581 3.4203 15.3961 7.8987 30.2074 9.1317
# 6 9.9427 27.2125 -0.3191 3.0682 9.1317 47.6291
#
#
#
# Elastic Compliance Matrix: (Units=1/GPa)
#
#
# Indices 1 2 3 4 5 6 
#
# 1 0.013570 -0.004359 -0.000183 -0.003507 0.000033 -0.000124
# 2 -0.004359 0.014378 0.001323 -0.006524 0.002088 -0.007276
# 3 -0.000183 0.001323 0.024040 -0.007829 -0.010954 0.002048
# 4 -0.003507 -0.006524 -0.007829 0.029107 -0.003458 0.003195
# 5 0.000033 0.002088 -0.010954 -0.003458 0.042110 -0.009124
# 6 -0.000124 -0.007276 0.002048 0.003195 -0.009124 0.026736
#
#
# Mechanical properties :
#
#
# Convention : Reuss Voigt Hill
#
# Bulk Modulus (GPa) = 21.95454 39.55118 30.75286
# Shear Modulus (GPa) = 29.14396 38.88174 34.01285
#
# Velocity S-wave (km/s) = 3.29910 3.81060 3.56404
# Velocity P-wave (km/s) = 4.76562 5.84222 5.33117
#
# Compressibility (1/GPa) = 0.04554867
#
# Stress axis : x y z
#
# Youngs Moduli (GPa) = 73.68999 69.55167 41.59776
#
# Poissons Ratio (x) = 0.30318 0.00762
# Poissons Ratio (y) = 0.32122 -0.05502
# Poissons Ratio (z) = 0.01349 -0.09199
#
# Static dielectric constant tensor:
#      x y z
#    x 2.145230 0.004550 0.048300 
#    y 0.004550 2.117790 -0.022000 
#    z 0.048300 -0.022000 2.232710 
# 
# From -- ./inp_files/419195.got.cif
#   From: 2010.05.17/outbox.cif.g08.bks.cpg/sg2_210_cif.got.tgz:419195.got - 2010.06.03 11:33:40.
