data_PCOD9056644
_publ_section_title
;
Structure prediction by ZEFSAII (Michael W. Deem and Ramdas Pophale) SiO2 
 PCOD9056644
Probable space group: P -1
;
_chemical_formula_sum "Si O2"
_cell_formula_units_Z 14
_cell_length_a 19.978748
_cell_length_b 15.458705
_cell_length_c 11.823246
_cell_angle_alpha 151.496800
_cell_angle_beta 36.590026
_cell_angle_gamma 159.885746
_cell_volume 593.708221
_symmetry_space_group_name_H-M "P -1"
_symmetry_group_IT_number 2
_symmetry_cell_setting 'triclinic'
loop_
_space_group_symop_operation_xyz
x,y,z
-x,-y,-z
loop_
_atom_site_type_symbol
_atom_site_label
_atom_site_fract_x
_atom_site_fract_y
_atom_site_fract_z
Si Si1 0.677555 0.378015 0.698665
Si Si2 0.943169 0.327269 0.556903
Si Si3 0.228061 0.309821 0.292270
Si Si4 0.843682 0.572064 0.921437
Si Si5 0.137057 0.590507 0.822709
Si Si6 0.458879 0.721823 0.848840
Si Si7 0.447912 0.342124 0.571527
O O1 0.656557 0.483405 0.741783
O O2 0.702509 0.472570 0.902891
O O3 0.895894 0.586719 0.619575
O O4 0.500000 0.000000 0.500000
O O5 0.870368 0.395312 0.657714
O O6 0.061641 0.566490 0.777887
O O7 0.755937 0.973800 0.453762
O O8 0.142687 0.380121 0.549888
O O9 0.377641 0.413954 0.294867
O O10 0.046772 0.945628 0.083904
O O11 0.736725 0.434455 0.029802
O O12 0.000000 0.500000 0.000000
O O13 0.356227 0.936788 0.953436
O O14 0.432132 0.493152 0.684622
O O15 0.496814 0.745249 0.692190
#
# Coordination Sequence:
#
# PCOD9056644 Si02
#       7
#     2   2   2   2   2   2   2
#     4  11  24  47  71  97 131 174 224 278 331 396
#     4  11  23  43  69  99 133 172 223 274 334 397
#     4  11  26  42  65  98 134 175 224 273 330 392
#     4  12  25  43  69 101 134 178 221 273 333 392
#     4  11  22  40  64  94 132 175 218 268 328 386
#     4  11  24  41  67  97 137 174 224 275 328 395
#     4  11  24  43  66 100 134 176 223 275 332 391
#
# _framework density 23.580608000000002
#
# number of rings (size 3 to 8) (size 9 to 14) (size 15 to 20)
#    0.000    0.857    1.429    6.857    4.000    1.714 
#    0.000    2.143    0.000    0.000    0.000    0.000 
#    0.000    0.000    0.000    0.000    0.000    0.000 
#
# Total GULP energy -78332.712151 kJ/mol
# GULP energy per Si atom -5595.193725 kJ/mol
# Density = 2.352694 g / cm^3
# Si number density = 23.580608 Si / 1000 Ang^3
#
#
#
# Elastic Constant Matrix: (Units=GPa)
#
#
# Indices 1 2 3 4 5 6 
#
# 1 71.1566 11.3274 -3.7627 11.6750 13.9680 -0.3848
# 2 11.3274 128.4354 28.5550 22.2789 1.6856 -5.2295
# 3 -3.7627 28.5550 58.8613 22.9479 8.6978 -5.0461
# 4 11.6750 22.2789 22.9479 57.4386 7.7314 7.6465
# 5 13.9680 1.6856 8.6978 7.7314 40.6669 2.5068
# 6 -0.3848 -5.2295 -5.0461 7.6465 2.5068 31.1896
#
#
#
# Elastic Compliance Matrix: (Units=1/GPa)
#
#
# Indices 1 2 3 4 5 6 
#
# 1 0.016349 -0.001570 0.004397 -0.003959 -0.005867 0.002092
# 2 -0.001570 0.009167 -0.003826 -0.002054 0.001288 0.001299
# 3 0.004397 -0.003826 0.023924 -0.009068 -0.005109 0.005917
# 4 -0.003959 -0.002054 -0.009068 0.023738 -0.000658 -0.007627
# 5 -0.005867 0.001288 -0.005109 -0.000658 0.027940 -0.002767
# 6 0.002092 0.001299 0.005917 -0.007627 -0.002767 0.035355
#
#
# Mechanical properties :
#
#
# Convention : Reuss Voigt Hill
#
# Bulk Modulus (GPa) = 21.07898 36.74365 28.91131
# Shear Modulus (GPa) = 32.40744 40.68126 36.54435
#
# Velocity S-wave (km/s) = 3.71121 4.15806 3.94097
# Velocity P-wave (km/s) = 5.22711 6.21841 5.74418
#
# Compressibility (1/GPa) = 0.04744063
#
# Stress axis : x y z
#
# Youngs Moduli (GPa) = 61.16736 109.08150 41.79990
#
# Poissons Ratio (x) = 0.17131 -0.18378
# Poissons Ratio (y) = 0.09606 0.15992
# Poissons Ratio (z) = -0.26894 0.41732
#
# Static dielectric constant tensor:
#      x y z
#    x 1.907650 -0.035870 -0.021040 
#    y -0.035870 1.892490 -0.089660 
#    z -0.021040 -0.089660 1.932810 
# 
# From -- ./inp_files/293931.got.cif
#   From: 2010.05.17/outbox.cif.g08.bks.cpg/sg2_147_cif.got.tgz:293931.got - 2010.06.03 11:33:40.
