data_PCOD9056185
_publ_section_title
;
Structure prediction by ZEFSAII (Michael W. Deem and Ramdas Pophale) SiO2 
 PCOD9056185
Probable space group: P -1
;
_chemical_formula_sum "Si O2"
_cell_formula_units_Z 16
_cell_length_a 11.417311
_cell_length_b 13.438675
_cell_length_c 6.069828
_cell_angle_alpha 128.780834
_cell_angle_beta 96.141156
_cell_angle_gamma 103.915677
_cell_volume 662.599279
_symmetry_space_group_name_H-M "P -1"
_symmetry_group_IT_number 2
_symmetry_cell_setting 'triclinic'
loop_
_space_group_symop_operation_xyz
x,y,z
-x,-y,-z
loop_
_atom_site_type_symbol
_atom_site_label
_atom_site_fract_x
_atom_site_fract_y
_atom_site_fract_z
Si Si1 0.372975 0.496174 0.079999
Si Si2 0.679444 0.270643 0.883012
Si Si3 0.520220 0.302156 0.269164
Si Si4 0.910437 0.769466 0.726538
Si Si5 0.831717 0.992522 0.751511
Si Si6 0.747889 0.769203 0.102298
Si Si7 0.940298 0.489722 0.223751
Si Si8 0.457741 0.077302 0.289844
O O1 0.334317 0.602711 0.081923
O O2 0.407172 0.545081 0.407799
O O3 0.500000 0.500000 0.000000
O O4 0.271013 0.340281 0.858721
O O5 0.576033 0.130980 0.560168
O O6 0.627889 0.269514 0.116920
O O7 0.831638 0.330046 0.985522
O O8 0.464990 0.215847 0.358729
O O9 0.398566 0.258962 0.027183
O O10 0.864433 0.879782 0.745868
O O11 0.908235 0.628179 0.422721
O O12 0.818961 0.730548 0.866468
O O13 0.055507 0.862414 0.966341
O O14 0.822205 0.927622 0.414754
O O15 0.689979 0.992385 0.761899
O O16 0.000000 0.500000 0.500000
O O17 0.000000 0.500000 0.000000
O O18 0.500000 0.000000 0.000000
#
# Coordination Sequence:
#
# PCOD9056185 Si02
#       8
#     2   2   2   2   2   2   2   2
#     4  11  22  34  67 104 141 173 221 301 369 444
#     4  11  25  45  70 100 138 194 238 302 384 440
#     4  11  22  39  64 103 139 176 239 291 373 443
#     4  11  27  46  76 100 150 202 247 316 370 468
#     4  11  24  47  70 109 145 195 253 303 388 451
#     4  12  21  40  67 107 141 182 242 299 376 443
#     4  12  32  54  75 112 152 205 265 320 387 464
#     4  11  25  44  72 105 147 189 244 315 372 456
#
# _framework density 24.147324000000001
#
# number of rings (size 3 to 8) (size 9 to 14) (size 15 to 20)
#    0.000    0.750    3.750    3.000   10.500    0.500 
#    2.250    0.000    0.000    0.000    0.000    0.000 
#    0.000    0.000    0.000    0.000    0.000    0.000 
#
# Total GULP energy -89242.674415 kJ/mol
# GULP energy per Si atom -5577.667151 kJ/mol
# Density = 2.409236 g / cm^3
# Si number density = 24.147324 Si / 1000 Ang^3
#
#
#
# Elastic Constant Matrix: (Units=GPa)
#
#
# Indices 1 2 3 4 5 6 
#
# 1 105.4158 29.6278 51.9094 -0.4295 -3.2046 18.1424
# 2 29.6278 70.0491 3.9165 0.0910 10.0991 7.6469
# 3 51.9094 3.9165 138.1076 10.7994 -12.8284 17.3251
# 4 -0.4295 0.0910 10.7994 41.3346 7.8744 3.4092
# 5 -3.2046 10.0991 -12.8284 7.8744 52.0405 -7.5433
# 6 18.1424 7.6469 17.3251 3.4092 -7.5433 52.1049
#
#
#
# Elastic Compliance Matrix: (Units=1/GPa)
#
#
# Indices 1 2 3 4 5 6 
#
# 1 0.013803 -0.005307 -0.004841 0.001612 0.000078 -0.002512
# 2 -0.005307 0.017148 0.001351 0.000381 -0.003621 -0.001667
# 3 -0.004841 0.001351 0.009589 -0.002850 0.002058 -0.001216
# 4 0.001612 0.000381 -0.002850 0.026064 -0.004924 -0.002088
# 5 0.000078 -0.003621 0.002058 -0.004924 0.021651 0.003276
# 6 -0.002512 -0.001667 -0.001216 -0.002088 0.003276 0.021327
#
#
# Mechanical properties :
#
#
# Convention : Reuss Voigt Hill
#
# Bulk Modulus (GPa) = 43.57920 53.83110 48.70515
# Shear Modulus (GPa) = 37.08586 44.30393 40.69490
#
# Velocity S-wave (km/s) = 3.92320 4.28803 4.10966
# Velocity P-wave (km/s) = 6.21357 6.84525 6.53704
#
# Compressibility (1/GPa) = 0.02294673
#
# Stress axis : x y z
#
# Youngs Moduli (GPa) = 72.44907 58.31534 104.28945
#
# Poissons Ratio (x) = 0.30945 0.50488
# Poissons Ratio (y) = 0.38445 -0.14092
# Poissons Ratio (z) = 0.35074 -0.07880
#
# Static dielectric constant tensor:
#      x y z
#    x 1.973310 -0.064060 0.074970 
#    y -0.064060 1.969810 0.002630 
#    z 0.074970 0.002630 1.990860 
# 
# From -- ./inp_files/70002.got.cif
#   From: 2010.05.17/outbox.cif.g08.bks.cpg/sg2_36_cif.got.tgz:70002.got - 2010.06.03 11:33:40.
