data_PCOD9056137
_publ_section_title
;
Structure prediction by ZEFSAII (Michael W. Deem and Ramdas Pophale) SiO2 
 PCOD9056137
Probable space group: P -1
;
_chemical_formula_sum "Si O2"
_cell_formula_units_Z 14
_cell_length_a 10.805078
_cell_length_b 8.879870
_cell_length_c 9.804708
_cell_angle_alpha 106.305710
_cell_angle_beta 64.208110
_cell_angle_gamma 59.120121
_cell_volume 550.992567
_symmetry_space_group_name_H-M "P -1"
_symmetry_group_IT_number 2
_symmetry_cell_setting 'triclinic'
loop_
_space_group_symop_operation_xyz
x,y,z
-x,-y,-z
loop_
_atom_site_type_symbol
_atom_site_label
_atom_site_fract_x
_atom_site_fract_y
_atom_site_fract_z
Si Si1 0.182936 0.469247 0.427729
Si Si2 0.980045 0.951767 0.652815
Si Si3 0.010059 0.749732 0.087576
Si Si4 0.767564 0.634845 0.918723
Si Si5 0.369042 0.936363 0.838444
Si Si6 0.404617 0.550562 0.709342
Si Si7 0.426300 0.711694 0.178001
O O1 0.110889 0.696039 0.576913
O O2 0.237944 0.456441 0.240861
O O3 0.389607 0.238842 0.341461
O O4 0.000000 0.500000 0.500000
O O5 0.422016 0.660201 0.324570
O O6 0.985201 0.096511 0.784925
O O7 0.000000 0.000000 0.500000
O O8 0.047244 0.572641 0.127931
O O9 0.788591 0.916827 0.172913
O O10 0.196069 0.624871 0.856951
O O11 0.582934 0.721092 0.113398
O O12 0.721960 0.853209 0.967254
O O13 0.352873 0.768612 0.842594
O O14 0.500000 0.500000 0.500000
O O15 0.758133 0.067769 0.763009
O O16 0.500000 0.500000 0.000000
#
# Coordination Sequence:
#
# PCOD9056137 Si02
#       7
#     2   2   2   2   2   2   2
#     4  12  28  44  72 111 148 194 251 316 371 437
#     4  12  23  44  79 106 146 194 260 299 358 458
#     4  11  26  48  75 108 149 204 244 304 378 452
#     4  11  24  49  73 102 143 202 249 301 376 447
#     4  12  27  46  71 105 156 190 241 317 378 436
#     4  11  26  44  73 115 148 190 248 311 379 439
#     4  11  21  46  77 102 140 200 256 300 366 450
#
# _framework density 25.408691999999999
#
# number of rings (size 3 to 8) (size 9 to 14) (size 15 to 20)
#    0.000    0.571    4.286    3.857    6.000    1.143 
#    0.000    3.571    0.000    0.000    0.000    0.000 
#    0.000    0.000    0.000    0.000    0.000    0.000 
#
# Total GULP energy -78176.478060 kJ/mol
# GULP energy per Si atom -5584.034147 kJ/mol
# Density = 2.535086 g / cm^3
# Si number density = 25.408692 Si / 1000 Ang^3
#
#
#
# Elastic Constant Matrix: (Units=GPa)
#
#
# Indices 1 2 3 4 5 6 
#
# 1 109.9866 40.8220 21.5712 6.2533 -27.0906 -36.3552
# 2 40.8220 128.5178 59.6158 13.2460 -8.9173 -14.3364
# 3 21.5712 59.6158 87.0345 -8.9285 4.7722 -13.9766
# 4 6.2533 13.2460 -8.9285 46.4168 -8.5350 -3.3938
# 5 -27.0906 -8.9173 4.7722 -8.5350 37.0452 7.6500
# 6 -36.3552 -14.3364 -13.9766 -3.3938 7.6500 56.5747
#
#
#
# Elastic Compliance Matrix: (Units=1/GPa)
#
#
# Indices 1 2 3 4 5 6 
#
# 1 0.015036 -0.002995 -0.000874 0.000872 0.009036 0.007518
# 2 -0.002995 0.013540 -0.009337 -0.005100 0.001363 -0.001290
# 3 -0.000874 -0.009337 0.019415 0.005875 -0.004622 0.002846
# 4 0.000872 -0.005100 0.005875 0.024877 0.004041 0.001665
# 5 0.009036 0.001363 -0.004622 0.004041 0.035359 0.000471
# 6 0.007518 -0.001290 0.002846 0.001665 0.000471 0.022919
#
#
# Mechanical properties :
#
#
# Convention : Reuss Voigt Hill
#
# Bulk Modulus (GPa) = 46.34172 63.28409 54.81291
# Shear Modulus (GPa) = 30.34881 41.57600 35.96241
#
# Velocity S-wave (km/s) = 3.45980 4.04950 3.76621
# Velocity P-wave (km/s) = 5.85136 6.84289 6.36645
#
# Compressibility (1/GPa) = 0.02157883
#
# Stress axis : x y z
#
# Youngs Moduli (GPa) = 66.50744 73.85550 51.50590
#
# Poissons Ratio (x) = 0.22119 0.04501
# Poissons Ratio (y) = 0.19918 0.48093
# Poissons Ratio (z) = 0.05812 0.68961
#
# Static dielectric constant tensor:
#      x y z
#    x 2.105280 -0.040580 -0.207990 
#    y -0.040580 2.232870 0.071060 
#    z -0.207990 0.071060 2.336220 
# 
# From -- ./inp_files/415390.got.cif
#   From: 2010.05.17/outbox.cif.g08.bks.cpg/sg2_208_cif.got.tgz:415390.got - 2010.06.03 11:33:40.
