data_PCOD9056357
_publ_section_title
;
Structure prediction by ZEFSAII (Michael W. Deem and Ramdas Pophale) SiO2 
 PCOD9056357
Probable space group: P -1
;
_chemical_formula_sum "Si O2"
_cell_formula_units_Z 16
_cell_length_a 10.433836
_cell_length_b 12.921894
_cell_length_c 11.916187
_cell_angle_alpha 146.032237
_cell_angle_beta 96.921850
_cell_angle_gamma 107.729436
_cell_volume 609.753300
_symmetry_space_group_name_H-M "P -1"
_symmetry_group_IT_number 2
_symmetry_cell_setting 'triclinic'
loop_
_space_group_symop_operation_xyz
x,y,z
-x,-y,-z
loop_
_atom_site_type_symbol
_atom_site_label
_atom_site_fract_x
_atom_site_fract_y
_atom_site_fract_z
Si Si1 0.169814 0.987123 0.938267
Si Si2 0.351896 0.452723 0.679822
Si Si3 0.735421 0.526086 0.543370
Si Si4 0.453812 0.086461 0.472163
Si Si5 0.774708 0.957425 0.258724
Si Si6 0.788042 0.394574 0.649651
Si Si7 0.223642 0.908884 0.097420
Si Si8 0.282345 0.250749 0.712327
O O1 0.296598 0.303796 0.252277
O O2 0.249824 0.919342 0.974522
O O3 0.125993 0.928541 0.749101
O O4 0.960339 0.774225 0.774267
O O5 0.340077 0.572927 0.679032
O O6 0.239996 0.347972 0.693294
O O7 0.291979 0.191212 0.385032
O O8 0.564626 0.683391 0.952034
O O9 0.699935 0.338406 0.466327
O O10 0.656741 0.369134 0.700252
O O11 0.304740 0.076888 0.496704
O O12 0.500000 0.000000 0.500000
O O13 0.349870 0.907431 0.187267
O O14 0.771977 0.167973 0.484801
O O15 0.831708 0.892718 0.313372
O O16 0.007902 0.669722 0.902953
O O17 0.500000 0.500000 0.000000
#
# Coordination Sequence:
#
# PCOD9056357 Si02
#       8
#     2   2   2   2   2   2   2   2
#     4   9  20  39  61  90 124 163 204 259 309 368
#     4   9  20  40  63  86 124 161 209 258 296 372
#     4   9  20  38  62  91 120 161 216 251 304 379
#     4  11  22  42  66  88 128 166 207 255 305 378
#     4  11  22  38  62  91 128 163 199 262 323 354
#     4  11  24  40  63  99 126 162 205 257 321 368
#     4   9  22  42  64  92 123 166 211 253 310 369
#     4   9  20  40  59  87 124 160 203 255 304 362
#
# _framework density 26.240120000000001
#
# number of rings (size 3 to 8) (size 9 to 14) (size 15 to 20)
#    0.000    2.250    1.250    0.750    7.000    4.000 
#    2.250    0.625    0.000    0.000    0.000    0.000 
#    0.000    0.000    0.000    0.000    0.000    0.000 
#
# Total GULP energy -89202.371186 kJ/mol
# GULP energy per Si atom -5575.148199 kJ/mol
# Density = 2.618040 g / cm^3
# Si number density = 26.240120 Si / 1000 Ang^3
#
#
#
# Elastic Constant Matrix: (Units=GPa)
#
#
# Indices 1 2 3 4 5 6 
#
# 1 19.7811 24.8993 17.8311 9.8864 11.7839 0.4095
# 2 24.8993 249.7295 20.2529 -9.7864 17.2645 -6.3863
# 3 17.8311 20.2529 63.6578 6.6295 8.2429 4.9872
# 4 9.8864 -9.7864 6.6295 35.9117 1.7037 15.2012
# 5 11.7839 17.2645 8.2429 1.7037 30.2674 0.5646
# 6 0.4095 -6.3863 4.9872 15.2012 0.5646 44.7333
#
#
#
# Elastic Compliance Matrix: (Units=1/GPa)
#
#
# Indices 1 2 3 4 5 6 
#
# 1 0.120325 -0.008778 -0.023919 -0.034829 -0.033599 0.012572
# 2 -0.008778 0.004961 0.000487 0.003922 0.000245 -0.000601
# 3 -0.023919 0.000487 0.021726 0.004071 0.002955 -0.003554
# 4 -0.034829 0.003922 0.004071 0.043489 0.008036 -0.014455
# 5 -0.033599 0.000245 0.002955 0.008036 0.044784 -0.003283
# 6 0.012572 -0.000601 -0.003554 -0.014455 -0.003283 0.027504
#
#
# Mechanical properties :
#
#
# Convention : Reuss Voigt Hill
#
# Bulk Modulus (GPa) = 12.10742 51.01501 31.56122
# Shear Modulus (GPa) = 14.09489 40.19482 27.14486
#
# Velocity S-wave (km/s) = 2.32016 3.91808 3.21982
# Velocity P-wave (km/s) = 3.43535 6.32078 5.08694
#
# Compressibility (1/GPa) = 0.08259395
#
# Stress axis : x y z
#
# Youngs Moduli (GPa) = 8.31081 201.55777 46.02854
#
# Poissons Ratio (x) = 1.76925 1.10093
# Poissons Ratio (y) = 0.07295 -0.02243
# Poissons Ratio (z) = 0.19878 -0.09821
#
# Static dielectric constant tensor:
#      x y z
#    x 1.786690 -0.175850 0.621620 
#    y -0.175850 2.071080 0.260640 
#    z 0.621620 0.260640 1.060010 
# 
# From -- ./inp_files/354386.got.cif
#   From: 2010.05.17/outbox.cif.g08.bks.cpg/sg2_178_cif.got.tgz:354386.got - 2010.06.03 11:33:40.
