data_PCOD9056417
_publ_section_title
;
Structure prediction by ZEFSAII (Michael W. Deem and Ramdas Pophale) SiO2 
 PCOD9056417
Probable space group: P -1
;
_chemical_formula_sum "Si O2"
_cell_formula_units_Z 12
_cell_length_a 13.069047
_cell_length_b 13.689726
_cell_length_c 7.100112
_cell_angle_alpha 75.210209
_cell_angle_beta 102.870271
_cell_angle_gamma 158.302810
_cell_volume 453.698658
_symmetry_space_group_name_H-M "P -1"
_symmetry_group_IT_number 2
_symmetry_cell_setting 'triclinic'
loop_
_space_group_symop_operation_xyz
x,y,z
-x,-y,-z
loop_
_atom_site_type_symbol
_atom_site_label
_atom_site_fract_x
_atom_site_fract_y
_atom_site_fract_z
Si Si1 0.296220 0.755892 0.398946
Si Si2 0.182787 0.809281 0.022094
Si Si3 0.419381 0.652886 0.944104
Si Si4 0.781865 0.061094 0.398589
Si Si5 0.077755 0.939927 0.237983
Si Si6 0.185810 0.091037 0.793939
O O1 0.269319 0.783239 0.169056
O O2 0.457147 0.794004 0.429641
O O3 0.000000 0.500000 0.500000
O O4 0.500000 0.000000 0.500000
O O5 0.883869 0.576798 0.088954
O O6 0.403486 0.090444 0.042181
O O7 0.145891 0.784400 0.793275
O O8 0.583746 0.750429 0.786944
O O9 0.493344 0.636445 0.143704
O O10 0.943386 0.183875 0.597216
O O11 0.841560 0.012538 0.331934
O O12 0.020695 0.905314 0.007501
O O13 0.916341 0.887741 0.292157
#
# Coordination Sequence:
#
# PCOD9056417 Si02
#       6
#     2   2   2   2   2   2
#     4  12  27  45  69  98 130 178 221 274 335 396
#     4  11  22  42  64  98 130 169 220 269 324 389
#     4   9  20  40  67  92 134 171 211 270 320 386
#     4  11  22  38  68  96 134 173 221 274 329 392
#     4   9  17  40  65  97 134 176 217 268 330 389
#     4   8  19  37  67  95 136 169 225 265 327 390
#
# _framework density 26.449275
#
# number of rings (size 3 to 8) (size 9 to 14) (size 15 to 20)
#    1.000    1.000    0.000    4.000    0.000    2.667 
#    0.000   17.500    0.000    0.000    0.000    0.000 
#    0.000    0.000    0.000    0.000    0.000    0.000 
#
# Total GULP energy -66960.137486 kJ/mol
# GULP energy per Si atom -5580.011457 kJ/mol
# Density = 2.638908 g / cm^3
# Si number density = 26.449275 Si / 1000 Ang^3
#
#
#
# Elastic Constant Matrix: (Units=GPa)
#
#
# Indices 1 2 3 4 5 6 
#
# 1 121.1811 52.7165 54.2894 2.7938 2.3370 46.4487
# 2 52.7165 139.6033 52.9142 -0.2073 4.5927 19.5475
# 3 54.2894 52.9142 135.0036 32.8364 17.8683 17.4059
# 4 2.7938 -0.2073 32.8364 38.0719 19.4124 6.6966
# 5 2.3370 4.5927 17.8683 19.4124 52.8223 13.1007
# 6 46.4487 19.5475 17.4059 6.6966 13.1007 37.4304
#
#
#
# Elastic Compliance Matrix: (Units=1/GPa)
#
#
# Indices 1 2 3 4 5 6 
#
# 1 0.022047 -0.002275 -0.006806 0.005848 0.005848 -0.026099
# 2 -0.002275 0.009517 -0.003520 0.003771 -0.000688 -0.000944
# 3 -0.006806 -0.003520 0.013744 -0.011853 -0.001289 0.006464
# 4 0.005848 0.003771 -0.011853 0.042723 -0.010360 -0.007732
# 5 0.005848 -0.000688 -0.001289 -0.010360 0.026367 -0.013674
# 6 -0.026099 -0.000944 0.006464 -0.007732 -0.013674 0.062760
#
#
# Mechanical properties :
#
#
# Convention : Reuss Voigt Hill
#
# Bulk Modulus (GPa) = 49.73474 79.51424 64.62449
# Shear Modulus (GPa) = 23.91653 41.38945 32.65299
#
# Velocity S-wave (km/s) = 3.01032 3.96012 3.51743
# Velocity P-wave (km/s) = 5.56124 7.14411 6.40178
#
# Compressibility (1/GPa) = 0.02010667
#
# Stress axis : x y z
#
# Youngs Moduli (GPa) = 45.35795 105.07810 72.76043
#
# Poissons Ratio (x) = 0.23905 0.49518
# Poissons Ratio (y) = 0.10319 0.25610
# Poissons Ratio (z) = 0.30869 0.36984
#
# Static dielectric constant tensor:
#      x y z
#    x 2.098620 -0.071190 -0.011650 
#    y -0.071190 2.096460 -0.045120 
#    z -0.011650 -0.045120 2.182220 
# 
# From -- ./inp_files/317040.got.cif
#   From: 2010.05.17/outbox.cif.g08.bks.cpg/sg2_159_cif.got.tgz:317040.got - 2010.06.03 11:33:40.
