data_PCOD9056289
_publ_section_title
;
Structure prediction by ZEFSAII (Michael W. Deem and Ramdas Pophale) SiO2 
 PCOD9056289
Probable space group: P -1
;
_chemical_formula_sum "Si O2"
_cell_formula_units_Z 16
_cell_length_a 8.004152
_cell_length_b 7.784584
_cell_length_c 25.492593
_cell_angle_alpha 43.429088
_cell_angle_beta 43.595536
_cell_angle_gamma 35.840315
_cell_volume 602.057868
_symmetry_space_group_name_H-M "P -1"
_symmetry_group_IT_number 2
_symmetry_cell_setting 'triclinic'
loop_
_space_group_symop_operation_xyz
x,y,z
-x,-y,-z
loop_
_atom_site_type_symbol
_atom_site_label
_atom_site_fract_x
_atom_site_fract_y
_atom_site_fract_z
Si Si1 0.777691 0.107680 0.306577
Si Si2 0.676974 0.470922 0.749194
Si Si3 0.690963 0.739208 0.084607
Si Si4 0.525930 0.480042 0.561364
Si Si5 0.779693 0.562313 0.824903
Si Si6 0.439341 0.240231 0.734796
Si Si7 0.653964 0.577593 0.007861
Si Si8 0.847765 0.878351 0.451133
O O1 0.453014 0.237159 0.324925
O O2 0.645884 0.437531 0.293605
O O3 0.923259 0.872172 0.374776
O O4 0.030467 0.871265 0.258000
O O5 0.392292 0.451204 0.821085
O O6 0.706742 0.554828 0.782194
O O7 0.675882 0.649220 0.048201
O O8 0.011577 0.672602 0.033301
O O9 0.452710 0.104245 0.066166
O O10 0.500000 0.500000 0.500000
O O11 0.499871 0.255640 0.656042
O O12 0.850694 0.399198 0.525340
O O13 0.223844 0.816414 0.571561
O O14 0.576944 0.508220 0.919050
O O15 0.132976 0.279971 0.809749
O O16 0.701353 0.903862 0.774238
O O17 0.500000 0.000000 0.500000
#
# Coordination Sequence:
#
# PCOD9056289 Si02
#       8
#     2   2   2   2   2   2   2   2
#     4  11  23  41  61  86 126 166 197 243 317 382
#     4  11  22  37  62  93 118 155 213 262 301 361
#     4   9  17  31  53  82 116 151 194 254 313 357
#     4  11  24  43  66  93 125 165 211 257 313 377
#     4  11  22  37  62  93 118 155 213 262 301 361
#     4  11  23  41  61  86 126 166 197 243 317 382
#     4   9  17  31  53  82 116 151 194 254 313 357
#     4  11  24  43  66  93 125 165 211 257 313 377
#
# _framework density 26.575520999999998
#
# number of rings (size 3 to 8) (size 9 to 14) (size 15 to 20)
#    0.000    1.500    0.000    6.750    0.000    7.000 
#    0.000    0.000    0.000   15.000    0.000    0.000 
#    0.000    0.000    0.000    0.000    0.000    0.000 
#
# Total GULP energy -89259.347980 kJ/mol
# GULP energy per Si atom -5578.709249 kJ/mol
# Density = 2.651503 g / cm^3
# Si number density = 26.575521 Si / 1000 Ang^3
#
#
#
# Elastic Constant Matrix: (Units=GPa)
#
#
# Indices 1 2 3 4 5 6 
#
# 1 85.9778 18.0621 5.1688 5.9145 18.7957 -4.0578
# 2 18.0621 139.5381 18.5123 1.8464 7.9745 -13.0385
# 3 5.1688 18.5123 62.3481 10.8782 -4.2296 9.7045
# 4 5.9145 1.8464 10.8782 33.3846 -8.7624 -5.7950
# 5 18.7957 7.9745 -4.2296 -8.7624 42.8792 6.6822
# 6 -4.0578 -13.0385 9.7045 -5.7950 6.6822 38.8358
#
#
#
# Elastic Compliance Matrix: (Units=1/GPa)
#
#
# Indices 1 2 3 4 5 6 
#
# 1 0.013771 -0.001013 -0.001014 -0.003535 -0.006986 0.002027
# 2 -0.001013 0.008185 -0.003251 0.000991 -0.001806 0.003913
# 3 -0.001014 -0.003251 0.019609 -0.006606 0.002812 -0.007567
# 4 -0.003535 0.000991 -0.006606 0.035526 0.007086 0.005696
# 5 -0.006986 -0.001806 0.002812 0.007086 0.029386 -0.006038
# 6 0.002027 0.003913 -0.007567 0.005696 -0.006038 0.031055
#
#
# Mechanical properties :
#
#
# Convention : Reuss Voigt Hill
#
# Bulk Modulus (GPa) = 32.24682 41.26115 36.75399
# Shear Modulus (GPa) = 31.56121 39.42796 35.49459
#
# Velocity S-wave (km/s) = 3.44990 3.85596 3.65857
# Velocity P-wave (km/s) = 5.29429 5.94847 5.63088
#
# Compressibility (1/GPa) = 0.03101081
#
# Stress axis : x y z
#
# Youngs Moduli (GPa) = 72.61818 122.18086 50.99616
#
# Poissons Ratio (x) = 0.12373 0.05169
# Poissons Ratio (y) = 0.07354 0.16577
# Poissons Ratio (z) = 0.07360 0.39718
#
# Static dielectric constant tensor:
#      x y z
#    x 2.197030 -0.049680 -0.021900 
#    y -0.049680 2.078160 -0.084220 
#    z -0.021900 -0.084220 2.374360 
# 
# From -- ./inp_files/223945.got.cif
#   From: 2010.05.17/outbox.cif.g08.bks.cpg/sg2_112_cif.got.tgz:223945.got - 2010.06.03 11:33:40.
