data_PCOD9056131
_publ_section_title
;
Structure prediction by ZEFSAII (Michael W. Deem and Ramdas Pophale) SiO2 
 PCOD9056131
Probable space group: P -1
;
_chemical_formula_sum "Si O2"
_cell_formula_units_Z 14
_cell_length_a 8.686939
_cell_length_b 13.257970
_cell_length_c 8.695252
_cell_angle_alpha 132.118689
_cell_angle_beta 51.102708
_cell_angle_gamma 116.455015
_cell_volume 577.606968
_symmetry_space_group_name_H-M "P -1"
_symmetry_group_IT_number 2
_symmetry_cell_setting 'triclinic'
loop_
_space_group_symop_operation_xyz
x,y,z
-x,-y,-z
loop_
_atom_site_type_symbol
_atom_site_label
_atom_site_fract_x
_atom_site_fract_y
_atom_site_fract_z
Si Si1 0.126058 0.588556 0.130835
Si Si2 0.436376 0.373022 0.671881
Si Si3 0.543419 0.923385 0.553915
Si Si4 0.827011 0.543567 0.546811
Si Si5 0.136761 0.972833 0.034884
Si Si6 0.233214 0.862737 0.164911
Si Si7 0.337507 0.236299 0.275837
O O1 0.318361 0.497935 0.944728
O O2 0.173061 0.735606 0.179835
O O3 0.000000 0.500000 0.000000
O O4 0.972524 0.592277 0.367958
O O5 0.423063 0.237452 0.645648
O O6 0.659832 0.422563 0.536350
O O7 0.344114 0.325458 0.517035
O O8 0.500000 0.000000 0.500000
O O9 0.718337 0.004257 0.622764
O O10 0.342666 0.931642 0.787407
O O11 0.692299 0.674493 0.767684
O O12 0.000000 0.500000 0.500000
O O13 0.098363 0.875021 0.107796
O O14 0.175690 0.115161 0.243914
O O15 0.000000 0.000000 0.000000
O O16 0.450020 0.828828 0.931166
#
# Coordination Sequence:
#
# PCOD9056131 Si02
#       7
#     2   2   2   2   2   2   2
#     4  12  27  44  79 114 142 199 263 299 373 465
#     4  12  24  51  78 103 158 199 248 316 377 450
#     4  11  26  46  75 107 146 203 251 309 389 444
#     4  12  29  45  75 115 154 197 251 315 389 447
#     4  11  25  44  75 107 148 196 254 315 381 456
#     4  11  23  49  76 105 150 204 255 309 383 459
#     4  11  21  46  74 104 142 206 243 305 387 440
#
# _framework density 24.237933999999999
#
# number of rings (size 3 to 8) (size 9 to 14) (size 15 to 20)
#    0.000    0.571    5.714    2.143    4.000    4.000 
#    0.000    2.143    0.000    0.000    0.000    0.000 
#    0.000    0.000    0.000    0.000    0.000    0.000 
#
# Total GULP energy -78124.162246 kJ/mol
# GULP energy per Si atom -5580.297303 kJ/mol
# Density = 2.418277 g / cm^3
# Si number density = 24.237934 Si / 1000 Ang^3
#
#
#
# Elastic Constant Matrix: (Units=GPa)
#
#
# Indices 1 2 3 4 5 6 
#
# 1 141.7454 67.4084 20.4331 -5.8327 -12.5134 -28.2566
# 2 67.4084 203.9454 35.3870 -0.2966 -6.6747 -21.5487
# 3 20.4331 35.3870 67.8443 -1.7156 -25.7260 -0.1159
# 4 -5.8327 -0.2966 -1.7156 31.3016 -4.3618 1.3996
# 5 -12.5134 -6.6747 -25.7260 -4.3618 20.1976 -1.6607
# 6 -28.2566 -21.5487 -0.1159 1.3996 -1.6607 50.3851
#
#
#
# Elastic Compliance Matrix: (Units=1/GPa)
#
#
# Indices 1 2 3 4 5 6 
#
# 1 0.009917 -0.002824 0.001784 0.002898 0.008484 0.004557
# 2 -0.002824 0.006609 -0.004977 -0.001644 -0.006171 0.001074
# 3 0.001784 -0.004977 0.033829 0.008313 0.044360 0.000181
# 4 0.002898 -0.001644 0.008313 0.035629 0.019584 0.000597
# 5 0.008484 -0.006171 0.044360 0.019584 0.113906 0.005431
# 6 0.004557 0.001074 0.000181 0.000597 0.005431 0.023025
#
#
# Mechanical properties :
#
#
# Convention : Reuss Voigt Hill
#
# Bulk Modulus (GPa) = 26.09359 73.33244 49.71301
# Shear Modulus (GPa) = 20.18380 39.73065 29.95722
#
# Velocity S-wave (km/s) = 2.88885 4.05309 3.51944
# Velocity P-wave (km/s) = 4.68148 7.22664 6.08853
#
# Compressibility (1/GPa) = 0.03832359
#
# Stress axis : x y z
#
# Youngs Moduli (GPa) = 100.83265 151.30227 29.56005
#
# Poissons Ratio (x) = 0.42730 -0.05275
# Poissons Ratio (y) = 0.28476 0.14711
# Poissons Ratio (z) = -0.17992 0.75296
#
# Static dielectric constant tensor:
#      x y z
#    x 1.957070 -0.063620 -0.005750 
#    y -0.063620 1.988880 0.022260 
#    z -0.005750 0.022260 1.961190 
# 
# From -- ./inp_files/189680.got.cif
#   From: 2010.05.17/outbox.cif.g08.bks.cpg/sg2_95_cif.got.tgz:189680.got - 2010.06.03 11:33:40.
