data_PCOD9056395
_publ_section_title
;
Structure prediction by ZEFSAII (Michael W. Deem and Ramdas Pophale) SiO2 
 PCOD9056395
Probable space group: P -1
;
_chemical_formula_sum "Si O2"
_cell_formula_units_Z 16
_cell_length_a 17.079190
_cell_length_b 7.886391
_cell_length_c 14.235623
_cell_angle_alpha 85.480872
_cell_angle_beta 154.855744
_cell_angle_gamma 102.145833
_cell_volume 767.159311
_symmetry_space_group_name_H-M "P -1"
_symmetry_group_IT_number 2
_symmetry_cell_setting 'triclinic'
loop_
_space_group_symop_operation_xyz
x,y,z
-x,-y,-z
loop_
_atom_site_type_symbol
_atom_site_label
_atom_site_fract_x
_atom_site_fract_y
_atom_site_fract_z
Si Si1 0.266817 0.584967 0.501881
Si Si2 0.688894 0.486760 0.653567
Si Si3 0.585895 0.539729 0.987194
Si Si4 0.845904 0.316512 0.002397
Si Si5 0.228039 0.955384 0.510094
Si Si6 0.646937 0.217880 0.976621
Si Si7 0.063917 0.112412 0.157452
Si Si8 0.114814 0.055481 0.719088
O O1 0.344060 0.619953 0.476489
O O2 0.410650 0.512454 0.722818
O O3 0.255905 0.764324 0.531173
O O4 0.047828 0.443597 0.262616
O O5 0.500000 0.500000 0.500000
O O6 0.813858 0.687095 0.749837
O O7 0.800088 0.408298 0.855023
O O8 0.691875 0.395382 0.081184
O O9 0.500000 0.500000 0.000000
O O10 0.726776 0.745295 0.123382
O O11 0.882717 0.134379 0.018125
O O12 0.678878 0.281053 0.900066
O O13 0.044338 0.942329 0.376029
O O14 0.425669 0.093747 0.760120
O O15 0.186378 0.029465 0.361557
O O16 0.782164 0.094129 0.142995
O O17 0.000000 0.000000 0.000000
O O18 0.000000 0.000000 0.500000
#
# Coordination Sequence:
#
# PCOD9056395 Si02
#       8
#     2   2   2   2   2   2   2   2
#     4  11  24  44  71 101 144 189 236 295 356 423
#     4  11  23  40  65  99 141 187 240 286 351 422
#     4  12  28  48  76 108 141 188 237 292 363 422
#     4  11  22  43  66 101 140 188 236 287 354 415
#     4  12  24  46  71 104 145 181 237 296 349 423
#     4  12  26  48  76 103 146 186 236 294 354 425
#     4  11  22  38  65  99 136 184 232 283 347 413
#     4  12  29  49  75 107 140 187 238 295 359 422
#
# _framework density 20.856162999999999
#
# number of rings (size 3 to 8) (size 9 to 14) (size 15 to 20)
#    0.000    0.500    2.500    7.500    3.500    3.500 
#    0.000    2.500    0.000    0.000    0.000    0.000 
#    0.000    0.000    0.000    0.000    0.000    0.000 
#
# Total GULP energy -89527.129557 kJ/mol
# GULP energy per Si atom -5595.445597 kJ/mol
# Density = 2.080869 g / cm^3
# Si number density = 20.856163 Si / 1000 Ang^3
#
#
#
# Elastic Constant Matrix: (Units=GPa)
#
#
# Indices 1 2 3 4 5 6 
#
# 1 138.2332 46.5960 29.2538 -2.5666 3.6013 -4.9166
# 2 46.5960 108.1509 19.9933 -3.0070 -0.5675 -20.0400
# 3 29.2538 19.9933 91.1095 -4.8516 -4.6960 6.1814
# 4 -2.5666 -3.0070 -4.8516 22.2205 -4.7693 -4.3621
# 5 3.6013 -0.5675 -4.6960 -4.7693 35.8254 -2.6364
# 6 -4.9166 -20.0400 6.1814 -4.3621 -2.6364 39.9944
#
#
#
# Elastic Compliance Matrix: (Units=1/GPa)
#
#
# Indices 1 2 3 4 5 6 
#
# 1 0.008889 -0.003538 -0.002128 -0.000288 -0.001301 -0.000468
# 2 -0.003538 0.012360 -0.001827 0.002350 0.001093 0.006369
# 3 -0.002128 -0.001827 0.012456 0.002093 0.001894 -0.002749
# 4 -0.000288 0.002350 0.002093 0.048607 0.007297 0.006601
# 5 -0.001301 0.001093 0.001894 0.007297 0.029490 0.002835
# 6 -0.000468 0.006369 -0.002749 0.006601 0.002835 0.029469
#
#
# Mechanical properties :
#
#
# Convention : Reuss Voigt Hill
#
# Bulk Modulus (GPa) = 53.42459 58.79775 56.11117
# Shear Modulus (GPa) = 30.77002 35.71809 33.24405
#
# Velocity S-wave (km/s) = 3.84519 4.14284 3.99678
# Velocity P-wave (km/s) = 6.73686 7.15104 6.94704
#
# Compressibility (1/GPa) = 0.01871797
#
# Stress axis : x y z
#
# Youngs Moduli (GPa) = 112.49798 80.90921 80.28465
#
# Poissons Ratio (x) = 0.28625 0.17088
# Poissons Ratio (y) = 0.39801 0.14667
# Poissons Ratio (z) = 0.23944 0.14781
#
# Static dielectric constant tensor:
#      x y z
#    x 1.714480 -0.033750 -0.193980 
#    y -0.033750 1.728160 -0.079220 
#    z -0.193980 -0.079220 0.757600 
# 
# From -- ./inp_files/447583.got.cif
#   From: 2010.05.17/outbox.cif.g08.bks.cpg/sg2_224_cif.got.tgz:447583.got - 2010.06.03 11:33:40.
