data_PCOD9056783
_publ_section_title
;
Structure prediction by ZEFSAII (Michael W. Deem and Ramdas Pophale) SiO2 
 PCOD9056783
Probable space group: P -1
;
_chemical_formula_sum "Si O2"
_cell_formula_units_Z 16
_cell_length_a 8.198886
_cell_length_b 10.787292
_cell_length_c 9.984668
_cell_angle_alpha 84.947218
_cell_angle_beta 129.210229
_cell_angle_gamma 87.666981
_cell_volume 676.245225
_symmetry_space_group_name_H-M "P -1"
_symmetry_group_IT_number 2
_symmetry_cell_setting 'triclinic'
loop_
_space_group_symop_operation_xyz
x,y,z
-x,-y,-z
loop_
_atom_site_type_symbol
_atom_site_label
_atom_site_fract_x
_atom_site_fract_y
_atom_site_fract_z
Si Si1 0.842546 0.448385 0.021436
Si Si2 0.356453 0.180740 0.812726
Si Si3 0.832064 0.182673 0.963963
Si Si4 0.328966 0.035363 0.564278
Si Si5 0.649217 0.185421 0.577743
Si Si6 0.718342 0.857149 0.914599
Si Si7 0.185682 0.474457 0.706290
Si Si8 0.506607 0.373645 0.263128
O O1 0.871173 0.514977 0.169548
O O2 0.879259 0.300437 0.064347
O O3 0.622839 0.488944 0.824372
O O4 0.000000 0.500000 0.000000
O O5 0.614273 0.147082 0.924902
O O6 0.236798 0.115585 0.636396
O O7 0.299823 0.331907 0.759726
O O8 0.284903 0.137025 0.925873
O O9 0.756204 0.213345 0.769408
O O10 0.070227 0.116277 0.057537
O O11 0.428910 0.133179 0.510285
O O12 0.228488 0.932047 0.432579
O O13 0.524741 0.947378 0.742508
O O14 0.605112 0.309473 0.453819
O O15 0.653161 0.719776 0.862443
O O16 0.310787 0.596970 0.744574
O O17 0.000000 0.500000 0.500000
#
# Coordination Sequence:
#
# PCOD9056783 Si02
#       8
#     2   2   2   2   2   2   2   2
#     4  12  23  41  65 100 136 181 222 272 347 417
#     4  11  22  42  69  97 134 183 226 278 346 410
#     4  11  23  40  70 102 134 178 232 278 344 410
#     4   9  21  44  65  96 137 179 224 289 343 391
#     4   9  22  40  65  96 135 173 230 286 331 399
#     4  11  22  42  71  98 136 178 231 286 336 412
#     4  12  27  44  67 103 145 175 226 289 339 417
#     4  11  22  40  69  92 137 180 215 280 343 396
#
# _framework density 23.660055
#
# number of rings (size 3 to 8) (size 9 to 14) (size 15 to 20)
#    0.000    1.250    3.750    1.500    3.500    4.500 
#    2.250    0.625    2.750    0.000    0.000    0.000 
#    0.000    0.000    0.000    0.000    0.000    0.000 
#
# Total GULP energy -89136.683611 kJ/mol
# GULP energy per Si atom -5571.042726 kJ/mol
# Density = 2.360620 g / cm^3
# Si number density = 23.660055 Si / 1000 Ang^3
#
#
#
# Elastic Constant Matrix: (Units=GPa)
#
#
# Indices 1 2 3 4 5 6 
#
# 1 72.1775 35.9423 2.8379 -10.5527 1.6788 -7.6072
# 2 35.9423 90.2796 39.3470 11.4827 -18.5819 -8.5053
# 3 2.8379 39.3470 61.5445 -12.7383 -3.3294 -20.1572
# 4 -10.5527 11.4827 -12.7383 35.5998 16.0171 -22.4091
# 5 1.6788 -18.5819 -3.3294 16.0171 1.1750 27.9190
# 6 -7.6072 -8.5053 -20.1572 -22.4091 27.9190 -5.6352
#
#
#
# Elastic Compliance Matrix: (Units=1/GPa)
#
#
# Indices 1 2 3 4 5 6 
#
# 1 0.017179 -0.008050 0.002571 0.002035 0.004218 -0.007429
# 2 -0.008050 0.019049 -0.007896 -0.002278 -0.001179 0.013578
# 3 0.002571 -0.007896 0.020807 0.001720 0.013791 -0.004495
# 4 0.002035 -0.002278 0.001720 0.017060 0.012425 -0.011744
# 5 0.004218 -0.001179 0.013791 0.012425 0.026408 0.028184
# 6 -0.007429 0.013578 -0.004495 -0.011744 0.028184 0.014499
#
#
# Mechanical properties :
#
#
# Convention : Reuss Voigt Hill
#
# Bulk Modulus (GPa) = 33.01988 42.25066 37.63527
# Shear Modulus (GPa) = 32.92756 15.95290 24.44023
#
# Velocity S-wave (km/s) = 3.73459 2.59946 3.21748
# Velocity P-wave (km/s) = 5.70810 5.18707 5.45381
#
# Compressibility (1/GPa) = 0.03028479
#
# Stress axis : x y z
#
# Youngs Moduli (GPa) = 58.21153 52.49589 48.05966
#
# Poissons Ratio (x) = 0.42260 -0.12354
# Poissons Ratio (y) = 0.46861 0.37947
# Poissons Ratio (z) = -0.14964 0.41450
#
# Static dielectric constant tensor:
#      x y z
#    x 2.350600 0.140510 0.065690 
#    y 0.140510 2.139440 0.073610 
#    z 0.065690 0.073610 1.869210 
# 
# From -- ./inp_files/178202.got.cif
#   From: 2010.05.17/outbox.cif.g08.bks.cpg/sg2_90_cif.got.tgz:178202.got - 2010.06.03 11:33:40.
