data_PCOD9056951
_publ_section_title
;
Structure prediction by ZEFSAII (Michael W. Deem and Ramdas Pophale) SiO2 
 PCOD9056951
Probable space group: P -1
;
_chemical_formula_sum "Si O2"
_cell_formula_units_Z 12
_cell_length_a 14.249980
_cell_length_b 14.156638
_cell_length_c 8.821926
_cell_angle_alpha 43.029211
_cell_angle_beta 154.292668
_cell_angle_gamma 142.378003
_cell_volume 470.237626
_symmetry_space_group_name_H-M "P -1"
_symmetry_group_IT_number 2
_symmetry_cell_setting 'triclinic'
loop_
_space_group_symop_operation_xyz
x,y,z
-x,-y,-z
loop_
_atom_site_type_symbol
_atom_site_label
_atom_site_fract_x
_atom_site_fract_y
_atom_site_fract_z
Si Si1 0.714973 0.084083 0.830718
Si Si2 0.225635 0.307867 0.286511
Si Si3 0.509941 0.875326 0.044621
Si Si4 0.416632 0.653931 0.684033
Si Si5 0.225190 0.369202 0.565705
Si Si6 0.900072 0.419822 0.255645
O O1 0.656952 0.222956 0.638059
O O2 0.500000 0.000000 0.500000
O O3 0.974266 0.168474 0.030245
O O4 0.702100 0.976784 0.078130
O O5 0.421325 0.244762 0.625104
O O6 0.203338 0.317383 0.425200
O O7 0.236587 0.472126 0.063488
O O8 0.274601 0.755959 0.744566
O O9 0.500000 0.000000 0.000000
O O10 0.425957 0.544043 0.692720
O O11 0.176489 0.538787 0.569907
O O12 0.665120 0.720304 0.062429
O O13 0.984451 0.376788 0.266129
#
# Coordination Sequence:
#
# PCOD9056951 Si02
#       6
#     2   2   2   2   2   2
#     4  11  24  43  64  92 128 169 211 256 318 381
#     4  11  22  41  66  89 123 179 213 249 306 399
#     4  12  26  40  61  98 134 161 206 271 324 357
#     4   8  19  37  67  91 122 167 214 250 305 383
#     4   9  17  38  71  90 119 163 229 246 300 375
#     4   9  20  39  62  94 122 162 211 262 306 366
#
# _framework density 25.519013000000001
#
# number of rings (size 3 to 8) (size 9 to 14) (size 15 to 20)
#    1.000    1.000    0.000    3.500    2.333    1.333 
#    0.000   12.500    0.000    0.000    0.000    0.000 
#    0.000    0.000    0.000    0.000    0.000    0.000 
#
# Total GULP energy -66882.699418 kJ/mol
# GULP energy per Si atom -5573.558285 kJ/mol
# Density = 2.546093 g / cm^3
# Si number density = 25.519013 Si / 1000 Ang^3
#
#
#
# Elastic Constant Matrix: (Units=GPa)
#
#
# Indices 1 2 3 4 5 6 
#
# 1 44.4714 25.6280 34.6872 -9.5723 14.3050 -9.3639
# 2 25.6280 133.3618 35.7147 4.3379 6.1817 3.1692
# 3 34.6872 35.7147 111.8463 -11.3594 12.6688 -9.6198
# 4 -9.5723 4.3379 -11.3594 45.6744 -7.1242 -1.4663
# 5 14.3050 6.1817 12.6688 -7.1242 36.3610 -6.4226
# 6 -9.3639 3.1692 -9.6198 -1.4663 -6.4226 32.5271
#
#
#
# Elastic Compliance Matrix: (Units=1/GPa)
#
#
# Indices 1 2 3 4 5 6 
#
# 1 0.036765 -0.004946 -0.007691 0.005149 -0.008642 0.007317
# 2 -0.004946 0.009101 -0.001883 -0.002457 0.000049 -0.002969
# 3 -0.007691 -0.001883 0.012267 0.001618 -0.000327 0.001605
# 4 0.005149 -0.002457 0.001618 0.024246 0.003275 0.003940
# 5 -0.008642 0.000049 -0.000327 0.003275 0.032346 0.003945
# 6 0.007317 -0.002969 0.001605 0.003940 0.003945 0.034571
#
#
# Mechanical properties :
#
#
# Convention : Reuss Voigt Hill
#
# Bulk Modulus (GPa) = 34.37313 53.52659 43.94986
# Shear Modulus (GPa) = 26.59105 35.82248 31.20677
#
# Velocity S-wave (km/s) = 3.23152 3.75074 3.50077
# Velocity P-wave (km/s) = 5.23665 6.30699 5.79658
#
# Compressibility (1/GPa) = 0.02909250
#
# Stress axis : x y z
#
# Youngs Moduli (GPa) = 27.20011 109.87508 81.52028
#
# Poissons Ratio (x) = 0.54344 0.62701
# Poissons Ratio (y) = 0.13453 0.15348
# Poissons Ratio (z) = 0.20921 0.20686
#
# Static dielectric constant tensor:
#      x y z
#    x 2.053780 0.050560 0.008500 
#    y 0.050560 2.103530 0.040510 
#    z 0.008500 0.040510 2.099520 
# 
# From -- ./inp_files/314539.got.cif
#   From: 2010.05.17/outbox.cif.g08.bks.cpg/sg2_158_cif.got.tgz:314539.got - 2010.06.03 11:33:40.
