data_PCOD9056366
_publ_section_title
;
Structure prediction by ZEFSAII (Michael W. Deem and Ramdas Pophale) SiO2 
 PCOD9056366
Probable space group: P -1
;
_chemical_formula_sum "Si O2"
_cell_formula_units_Z 14
_cell_length_a 8.233967
_cell_length_b 12.927370
_cell_length_c 7.783508
_cell_angle_alpha 41.582468
_cell_angle_beta 73.062328
_cell_angle_gamma 92.651959
_cell_volume 478.323221
_symmetry_space_group_name_H-M "P -1"
_symmetry_group_IT_number 2
_symmetry_cell_setting 'triclinic'
loop_
_space_group_symop_operation_xyz
x,y,z
-x,-y,-z
loop_
_atom_site_type_symbol
_atom_site_label
_atom_site_fract_x
_atom_site_fract_y
_atom_site_fract_z
Si Si1 0.813910 0.166240 0.636407
Si Si2 0.831378 0.588755 0.959673
Si Si3 0.149894 0.075889 0.609582
Si Si4 0.682503 0.716584 0.381791
Si Si5 0.509143 0.142297 0.017223
Si Si6 0.653802 0.380711 0.956232
Si Si7 0.005700 0.693381 0.117900
O O1 0.960369 0.336917 0.286645
O O2 0.711480 0.180930 0.823195
O O3 0.941756 0.060409 0.744773
O O4 0.635984 0.053180 0.716885
O O5 0.852496 0.582514 0.162752
O O6 0.790988 0.758220 0.735848
O O7 0.696388 0.434223 0.074809
O O8 0.285840 0.150637 0.637034
O O9 0.121873 0.892645 0.773141
O O10 0.576324 0.755471 0.208292
O O11 0.591755 0.520879 0.718764
O O12 0.887416 0.723283 0.269143
O O13 0.527609 0.199545 0.136903
O O14 0.854066 0.396087 0.803792
#
# Coordination Sequence:
#
# PCOD9056366 Si02
#       7
#     2   2   2   2   2   2   2
#     4   9  21  39  64  89 124 149 210 245 301 355
#     4   9  22  43  62  89 121 161 207 243 297 365
#     4   9  20  38  65  92 114 154 211 245 290 358
#     4  11  22  38  63  95 119 157 205 253 299 353
#     4  11  22  38  64  91 126 156 196 259 305 348
#     4  11  25  39  60  94 123 161 205 245 303 356
#     4  12  21  37  69  89 122 159 204 253 296 355
#
# _framework density 29.268909000000001
#
# number of rings (size 3 to 8) (size 9 to 14) (size 15 to 20)
#    0.857    0.857    1.429    3.000    6.000    0.000 
#    0.000    1.429    6.286    0.000    0.000    0.000 
#    0.000    0.000    0.000    0.000    0.000    0.000 
#
# Total GULP energy -78392.242136 kJ/mol
# GULP energy per Si atom -5599.445867 kJ/mol
# Density = 2.920229 g / cm^3
# Si number density = 29.268909 Si / 1000 Ang^3
#
#
#
# Elastic Constant Matrix: (Units=GPa)
#
#
# Indices 1 2 3 4 5 6 
#
# 1 143.7209 47.7967 29.7127 0.6169 -0.8460 -28.6570
# 2 47.7967 171.4094 20.8894 -20.1671 -9.4746 19.7947
# 3 29.7127 20.8894 83.4396 -28.8913 -1.5535 -4.0483
# 4 0.6169 -20.1671 -28.8913 34.2705 -9.4803 -7.5839
# 5 -0.8460 -9.4746 -1.5535 -9.4803 59.0994 -0.0144
# 6 -28.6570 19.7947 -4.0483 -7.5839 -0.0144 74.2476
#
#
#
# Elastic Compliance Matrix: (Units=1/GPa)
#
#
# Indices 1 2 3 4 5 6 
#
# 1 0.009744 -0.003337 -0.004300 -0.005282 -0.001355 0.003876
# 2 -0.003337 0.007709 0.001056 0.005462 0.002091 -0.002727
# 3 -0.004300 0.001056 0.019826 0.018646 0.003620 0.001045
# 4 -0.005282 0.005462 0.018646 0.051464 0.009546 0.002781
# 5 -0.001355 0.002091 0.003620 0.009546 0.018863 0.000096
# 6 0.003876 -0.002727 0.001045 0.002781 0.000096 0.016033
#
#
# Mechanical properties :
#
#
# Convention : Reuss Voigt Hill
#
# Bulk Modulus (GPa) = 41.46505 66.15196 53.80851
# Shear Modulus (GPa) = 34.52073 53.53490 44.02781
#
# Velocity S-wave (km/s) = 3.43801 4.28140 3.88268
# Velocity P-wave (km/s) = 5.47335 6.86229 6.20680
#
# Compressibility (1/GPa) = 0.02411669
#
# Stress axis : x y z
#
# Youngs Moduli (GPa) = 102.62286 129.71905 50.43914
#
# Poissons Ratio (x) = 0.43288 0.21691
# Poissons Ratio (y) = 0.34246 -0.05327
# Poissons Ratio (z) = 0.44132 -0.13701
#
# Static dielectric constant tensor:
#      x y z
#    x 2.323120 -0.021290 -0.049260 
#    y -0.021290 2.157890 0.022310 
#    z -0.049260 0.022310 2.367070 
# 
# From -- ./inp_files/174198.got.cif
#   From: 2010.05.17/outbox.cif.g08.bks.cpg/sg2_88_cif.got.tgz:174198.got - 2010.06.03 11:33:40.
