data_PCOD9056880
_publ_section_title
;
Structure prediction by ZEFSAII (Michael W. Deem and Ramdas Pophale) SiO2 
 PCOD9056880
Probable space group: P -1
;
_chemical_formula_sum "Si O2"
_cell_formula_units_Z 16
_cell_length_a 14.330989
_cell_length_b 8.847803
_cell_length_c 7.835113
_cell_angle_alpha 95.391984
_cell_angle_beta 40.338458
_cell_angle_gamma 87.735262
_cell_volume 630.638734
_symmetry_space_group_name_H-M "P -1"
_symmetry_group_IT_number 2
_symmetry_cell_setting 'triclinic'
loop_
_space_group_symop_operation_xyz
x,y,z
-x,-y,-z
loop_
_atom_site_type_symbol
_atom_site_label
_atom_site_fract_x
_atom_site_fract_y
_atom_site_fract_z
Si Si1 0.543070 0.154161 0.526186
Si Si2 0.904020 0.153008 0.369271
Si Si3 0.085165 0.188168 0.773005
Si Si4 0.780012 0.302580 0.100385
Si Si5 0.388951 0.295615 0.079591
Si Si6 0.292191 0.358382 0.711112
Si Si7 0.901427 0.668880 0.680842
Si Si8 0.359948 0.652632 0.069359
O O1 0.712758 0.166119 0.270795
O O2 0.451905 0.286535 0.548019
O O3 0.500000 0.000000 0.500000
O O4 0.481096 0.180682 0.804618
O O5 0.754127 0.272123 0.619112
O O6 0.007137 0.198387 0.382322
O O7 0.992746 0.174375 0.076084
O O8 0.873081 0.979901 0.386112
O O9 0.217593 0.267982 0.661967
O O10 0.954375 0.284240 0.854723
O O11 0.718907 0.462530 0.297500
O O12 0.719121 0.308285 0.994911
O O13 0.219280 0.282333 0.293619
O O14 0.389181 0.469486 0.031080
O O15 0.487693 0.286609 0.109892
O O16 0.193582 0.350948 0.018339
O O17 0.000000 0.500000 0.500000
#
# Coordination Sequence:
#
# PCOD9056880 Si02
#       8
#     2   2   2   2   2   2   2   2
#     4  11  25  42  71  93 129 172 220 268 325 389
#     4  10  21  40  64  95 130 173 213 266 323 389
#     4  10  24  38  68  95 129 170 221 265 327 384
#     4  12  23  43  65  97 129 172 213 278 326 375
#     4  10  22  39  65  93 128 174 216 255 316 396
#     4  10  22  41  63  97 129 161 220 269 318 389
#     4  10  17  36  63  94 124 168 214 256 311 391
#     4  11  22  40  63  94 134 170 216 263 322 385
#
# _framework density 25.371103000000002
#
# number of rings (size 3 to 8) (size 9 to 14) (size 15 to 20)
#    0.000    1.500    3.750    1.500    8.750    0.500 
#    0.000    3.125    0.000    0.000    0.000    0.000 
#    0.000    0.000    0.000    0.000    0.000    0.000 
#
# Total GULP energy -89619.694623 kJ/mol
# GULP energy per Si atom -5601.230914 kJ/mol
# Density = 2.531336 g / cm^3
# Si number density = 25.371103 Si / 1000 Ang^3
#
#
#
# Elastic Constant Matrix: (Units=GPa)
#
#
# Indices 1 2 3 4 5 6 
#
# 1 175.9511 18.3788 14.2548 -2.6476 -8.5866 46.9320
# 2 18.3788 96.1309 21.7619 10.5917 5.9521 45.2864
# 3 14.2548 21.7619 87.7283 -2.9656 -12.1378 25.1119
# 4 -2.6476 10.5917 -2.9656 37.0139 15.9318 0.1440
# 5 -8.5866 5.9521 -12.1378 15.9318 37.7268 -8.4405
# 6 46.9320 45.2864 25.1119 0.1440 -8.4405 50.0695
#
#
#
# Elastic Compliance Matrix: (Units=1/GPa)
#
#
# Indices 1 2 3 4 5 6 
#
# 1 0.008359 0.003928 0.000966 0.000091 -0.001144 -0.012065
# 2 0.003928 0.022104 -0.000082 -0.002982 -0.006907 -0.024789
# 3 0.000966 -0.000082 0.013749 -0.000108 0.003089 -0.007205
# 4 0.000091 -0.002982 -0.000108 0.033788 -0.013756 0.000250
# 5 -0.001144 -0.006907 0.003089 -0.013756 0.036827 0.012017
# 6 -0.012065 -0.024789 -0.007205 0.000250 0.012017 0.059341
#
#
# Mechanical properties :
#
#
# Convention : Reuss Voigt Hill
#
# Bulk Modulus (GPa) = 18.57556 52.06682 35.32119
# Shear Modulus (GPa) = 27.39897 45.32302 36.36100
#
# Velocity S-wave (km/s) = 3.28979 4.23117 3.78982
# Velocity P-wave (km/s) = 4.66559 6.66611 5.75347
#
# Compressibility (1/GPa) = 0.05383419
#
# Stress axis : x y z
#
# Youngs Moduli (GPa) = 119.63862 45.24074 72.73481
#
# Poissons Ratio (x) = -0.17770 -0.07025
# Poissons Ratio (y) = -0.46992 0.00597
# Poissons Ratio (z) = -0.11555 0.00371
#
# Static dielectric constant tensor:
#      x y z
#    x 2.039420 -0.038280 0.023120 
#    y -0.038280 1.949630 -0.044600 
#    z 0.023120 -0.044600 2.014190 
# 
# From -- ./inp_files/299043.got.cif
#   From: 2010.05.17/outbox.cif.g08.bks.cpg/sg2_150_cif.got.tgz:299043.got - 2010.06.03 11:33:40.
