data_PCOD9056558
_publ_section_title
;
Structure prediction by ZEFSAII (Michael W. Deem and Ramdas Pophale) SiO2 
 PCOD9056558
Probable space group: P -1
;
_chemical_formula_sum "Si O2"
_cell_formula_units_Z 14
_cell_length_a 8.200706
_cell_length_b 15.636003
_cell_length_c 11.321583
_cell_angle_alpha 119.006506
_cell_angle_beta 38.567199
_cell_angle_gamma 137.214482
_cell_volume 601.058310
_symmetry_space_group_name_H-M "P -1"
_symmetry_group_IT_number 2
_symmetry_cell_setting 'triclinic'
loop_
_space_group_symop_operation_xyz
x,y,z
-x,-y,-z
loop_
_atom_site_type_symbol
_atom_site_label
_atom_site_fract_x
_atom_site_fract_y
_atom_site_fract_z
Si Si1 0.114253 0.940443 0.708100
Si Si2 0.313530 0.342803 0.186260
Si Si3 0.593159 0.485368 0.567870
Si Si4 0.710959 0.971608 0.564865
Si Si5 0.396947 0.037741 0.968306
Si Si6 0.160306 0.671946 0.722380
Si Si7 0.842049 0.329417 0.989890
O O1 0.915314 0.809559 0.800298
O O2 0.500000 0.000000 0.500000
O O3 0.021920 0.919217 0.609250
O O4 0.997736 0.020817 0.862631
O O5 0.195193 0.381710 0.389715
O O6 0.207147 0.379462 0.155931
O O7 0.682938 0.386938 0.050115
O O8 0.500000 0.500000 0.500000
O O9 0.765739 0.421345 0.420880
O O10 0.232203 0.396147 0.782435
O O11 0.446252 0.815174 0.597415
O O12 0.502385 0.006081 0.770610
O O13 0.000000 0.000000 0.500000
O O14 0.617724 0.188384 0.964465
O O15 0.500000 0.000000 0.000000
O O16 0.187659 0.679180 0.855515
#
# Coordination Sequence:
#
# PCOD9056558 Si02
#       7
#     2   2   2   2   2   2   2
#     4  11  24  43  66 101 144 170 219 294 339 403
#     4  11  25  49  68 106 140 179 238 283 344 416
#     4  12  27  47  74  99 137 187 235 286 352 406
#     4  12  22  40  71 100 138 183 227 278 346 413
#     4  11  22  39  68 102 131 179 229 268 348 418
#     4  12  25  46  72 101 139 184 233 284 343 415
#     4  11  25  47  69 101 141 180 230 294 344 406
#
# _framework density 23.292251
#
# number of rings (size 3 to 8) (size 9 to 14) (size 15 to 20)
#    0.000    0.571    5.714    2.571    2.000    1.143 
#    2.571    0.000    0.000    0.000    0.000    0.000 
#    0.000    0.000    0.000    0.000    0.000    0.000 
#
# Total GULP energy -77936.938612 kJ/mol
# GULP energy per Si atom -5566.924187 kJ/mol
# Density = 2.323924 g / cm^3
# Si number density = 23.292251 Si / 1000 Ang^3
#
#
#
# Elastic Constant Matrix: (Units=GPa)
#
#
# Indices 1 2 3 4 5 6 
#
# 1 110.4243 14.8937 2.6414 9.4229 -27.8724 -16.1987
# 2 14.8937 70.5257 22.4608 27.7656 -4.1168 -16.5268
# 3 2.6414 22.4608 102.3569 23.3785 -15.9769 -18.2901
# 4 9.4229 27.7656 23.3785 40.7468 -2.5638 -3.6486
# 5 -27.8724 -4.1168 -15.9769 -2.5638 44.5452 13.9679
# 6 -16.1987 -16.5268 -18.2901 -3.6486 13.9679 34.4139
#
#
#
# Elastic Compliance Matrix: (Units=1/GPa)
#
#
# Indices 1 2 3 4 5 6 
#
# 1 0.011505 -0.001018 0.002087 -0.002467 0.006761 0.003030
# 2 -0.001018 0.022049 -0.000332 -0.013907 -0.002488 0.009468
# 3 0.002087 -0.000332 0.012941 -0.006956 0.003819 0.005413
# 4 -0.002467 -0.013907 -0.006956 0.037883 -0.000900 -0.007155
# 5 0.006761 -0.002488 0.003819 -0.000900 0.030408 -0.008420
# 6 0.003030 0.009468 0.005413 -0.007155 -0.008420 0.040567
#
#
# Mechanical properties :
#
#
# Convention : Reuss Voigt Hill
#
# Bulk Modulus (GPa) = 20.84741 40.36654 30.60697
# Shear Modulus (GPa) = 29.43460 40.16191 34.79825
#
# Velocity S-wave (km/s) = 3.55872 4.15693 3.86940
# Velocity P-wave (km/s) = 5.08486 6.35674 5.75604
#
# Compressibility (1/GPa) = 0.04796760
#
# Stress axis : x y z
#
# Youngs Moduli (GPa) = 86.91884 45.35420 77.27444
#
# Poissons Ratio (x) = 0.04618 -0.16126
# Poissons Ratio (y) = 0.08850 0.02566
# Poissons Ratio (z) = -0.18138 0.01506
#
# Static dielectric constant tensor:
#      x y z
#    x 1.946620 0.072000 -0.121970 
#    y 0.072000 1.902210 0.026120 
#    z -0.121970 0.026120 1.933790 
# 
# From -- ./inp_files/399370.got.cif
#   From: 2010.05.17/outbox.cif.g08.bks.cpg/sg2_200_cif.got.tgz:399370.got - 2010.06.03 11:33:40.
