data_PCOD9056697
_publ_section_title
;
Structure prediction by ZEFSAII (Michael W. Deem and Ramdas Pophale) SiO2 
 PCOD9056697
Probable space group: P -1
;
_chemical_formula_sum "Si O2"
_cell_formula_units_Z 16
_cell_length_a 9.576043
_cell_length_b 22.068609
_cell_length_c 9.121533
_cell_angle_alpha 49.283860
_cell_angle_beta 30.116109
_cell_angle_gamma 49.273735
_cell_volume 713.112679
_symmetry_space_group_name_H-M "P -1"
_symmetry_group_IT_number 2
_symmetry_cell_setting 'triclinic'
loop_
_space_group_symop_operation_xyz
x,y,z
-x,-y,-z
loop_
_atom_site_type_symbol
_atom_site_label
_atom_site_fract_x
_atom_site_fract_y
_atom_site_fract_z
Si Si1 0.605815 0.430644 0.388563
Si Si2 0.642713 0.646273 0.792344
Si Si3 0.327176 0.150556 0.273011
Si Si4 0.217390 0.539778 0.335115
Si Si5 0.241395 0.334872 0.010359
Si Si6 0.141012 0.916783 0.314454
Si Si7 0.618093 0.829299 0.461259
Si Si8 0.019908 0.897477 0.778177
O O1 0.500000 0.500000 0.500000
O O2 0.450579 0.473500 0.317303
O O3 0.473648 0.352035 0.659254
O O4 0.947652 0.401140 0.135587
O O5 0.598927 0.734739 0.618935
O O6 0.976138 0.600050 0.554958
O O7 0.421827 0.597475 0.000391
O O8 0.608572 0.655139 0.985020
O O9 0.362840 0.154021 0.409717
O O10 0.137830 0.085574 0.521039
O O11 0.183411 0.244519 0.209595
O O12 0.599405 0.125634 0.958373
O O13 0.000000 0.500000 0.500000
O O14 0.080330 0.874598 0.589116
O O15 0.159337 0.008582 0.195541
O O16 0.332900 0.889997 0.569272
O O17 0.869176 0.843192 0.105375
#
# Coordination Sequence:
#
# PCOD9056697 Si02
#       8
#     2   2   2   2   2   2   2   2
#     4  12  21  39  68  91 125 172 223 271 326 407
#     4  11  22  43  65  91 133 172 214 278 340 396
#     4  11  24  42  67 102 138 171 223 291 335 386
#     4  12  25  41  62  94 131 172 219 275 333 398
#     4  11  22  40  66  98 125 169 223 278 336 392
#     4  11  24  44  68  97 140 178 218 283 333 398
#     4  11  24  42  70 100 132 179 227 275 338 410
#     4  11  24  44  68  98 136 183 225 262 341 420
#
# _framework density 22.436848000000001
#
# number of rings (size 3 to 8) (size 9 to 14) (size 15 to 20)
#    0.000    0.750    2.500    5.250    0.000    9.000 
#    9.000    0.000    0.000    0.000    0.000    0.000 
#    0.000    0.000    0.000    0.000    0.000    0.000 
#
# Total GULP energy -89332.979977 kJ/mol
# GULP energy per Si atom -5583.311249 kJ/mol
# Density = 2.238578 g / cm^3
# Si number density = 22.436848 Si / 1000 Ang^3
#
#
#
# Elastic Constant Matrix: (Units=GPa)
#
#
# Indices 1 2 3 4 5 6 
#
# 1 96.8738 35.2809 30.2893 2.8646 -6.7487 7.0197
# 2 35.2809 79.3715 29.6402 12.1957 1.3472 -12.5273
# 3 30.2893 29.6402 94.3952 40.0590 -10.9716 13.4216
# 4 2.8646 12.1957 40.0590 8.1035 3.4103 -11.6769
# 5 -6.7487 1.3472 -10.9716 3.4103 37.2715 4.2165
# 6 7.0197 -12.5273 13.4216 -11.6769 4.2165 11.8026
#
#
#
# Elastic Compliance Matrix: (Units=1/GPa)
#
#
# Indices 1 2 3 4 5 6 
#
# 1 0.014848 -0.007964 -0.002809 0.005331 0.002771 -0.009805
# 2 -0.007964 0.019842 0.000838 -0.014768 -0.001791 0.010873
# 3 -0.002809 0.000838 0.001974 0.015346 -0.003247 0.016659
# 4 0.005331 -0.014768 0.015346 -0.009154 0.012489 -0.049815
# 5 0.002771 -0.001791 -0.003247 0.012489 0.024890 0.003607
# 6 -0.009805 0.010873 0.016659 -0.049815 0.003607 0.032583
#
#
# Mechanical properties :
#
#
# Convention : Reuss Voigt Hill
#
# Bulk Modulus (GPa) = 59.55257 51.22903 55.39080
# Shear Modulus (GPa) = 45.26887 23.13084 34.19985
#
# Velocity S-wave (km/s) = 4.49666 3.21429 3.90843
# Velocity P-wave (km/s) = 7.31846 6.05456 6.71631
#
# Compressibility (1/GPa) = 0.01679189
#
# Stress axis : x y z
#
# Youngs Moduli (GPa) = 67.35092 50.39853 506.66685
#
# Poissons Ratio (x) = 0.40139 1.42345
# Poissons Ratio (y) = 0.53641 -0.42468
# Poissons Ratio (z) = 0.18922 -0.04224
#
# Static dielectric constant tensor:
#      x y z
#    x 1.953660 0.048150 0.051080 
#    y 0.048150 1.823940 -0.019190 
#    z 0.051080 -0.019190 1.844630 
# 
# From -- ./inp_files/217599.got.cif
#   From: 2010.05.17/outbox.cif.g08.bks.cpg/sg2_109_cif.got.tgz:217599.got - 2010.06.03 11:33:40.
