data_PCOD9056912
_publ_section_title
;
Structure prediction by ZEFSAII (Michael W. Deem and Ramdas Pophale) SiO2 
 PCOD9056912
Probable space group: P -1
;
_chemical_formula_sum "Si O2"
_cell_formula_units_Z 16
_cell_length_a 19.675172
_cell_length_b 12.796135
_cell_length_c 16.546297
_cell_angle_alpha 155.017403
_cell_angle_beta 153.373458
_cell_angle_gamma 41.840296
_cell_volume 740.107445
_symmetry_space_group_name_H-M "P -1"
_symmetry_group_IT_number 2
_symmetry_cell_setting 'triclinic'
loop_
_space_group_symop_operation_xyz
x,y,z
-x,-y,-z
loop_
_atom_site_type_symbol
_atom_site_label
_atom_site_fract_x
_atom_site_fract_y
_atom_site_fract_z
Si Si1 0.593721 0.294316 0.274749
Si Si2 0.209998 0.961940 0.475633
Si Si3 0.657421 0.427840 0.607280
Si Si4 0.830965 0.359422 0.423583
Si Si5 0.369199 0.395641 0.715743
Si Si6 0.610958 0.467685 0.882017
Si Si7 0.951682 0.907242 0.292274
Si Si8 0.152831 0.824308 0.135804
O O1 0.692009 0.447642 0.562973
O O2 0.716405 0.307418 0.343336
O O3 0.465562 0.421285 0.195399
O O4 0.500000 0.000000 0.000000
O O5 0.358654 0.858880 0.577929
O O6 0.138250 0.845196 0.231760
O O7 0.092100 0.863707 0.357756
O O8 0.271988 0.276567 0.766571
O O9 0.500000 0.500000 0.500000
O O10 0.803640 0.639034 0.955330
O O11 0.717073 0.395194 0.255325
O O12 0.899012 0.119065 0.332560
O O13 0.982888 0.630944 0.785125
O O14 0.466478 0.340437 0.702883
O O15 0.226364 0.126277 0.397094
O O16 0.500000 0.500000 0.000000
O O17 0.712570 0.299548 0.836517
O O18 0.000000 0.000000 0.500000
#
# Coordination Sequence:
#
# PCOD9056912 Si02
#       8
#     2   2   2   2   2   2   2   2
#     4  11  22  41  64  97 143 182 230 289 345 419
#     4  12  24  43  69 101 141 183 235 286 349 421
#     4  12  25  38  67 102 136 187 236 281 345 420
#     4  11  25  43  71 102 139 185 236 289 352 421
#     4  11  25  47  74 103 138 182 236 304 358 418
#     4  11  24  44  71 102 138 185 230 292 358 421
#     4  12  26  45  67 104 149 188 230 283 358 426
#     4  12  24  47  72 100 136 181 242 293 356 415
#
# _framework density 21.618483000000001
#
# number of rings (size 3 to 8) (size 9 to 14) (size 15 to 20)
#    0.000    0.500    3.750    4.875    3.500    1.000 
#    0.000    3.750    0.000    0.000    0.000    0.000 
#    0.000    0.000    0.000    0.000    0.000    0.000 
#
# Total GULP energy -89476.055641 kJ/mol
# GULP energy per Si atom -5592.253478 kJ/mol
# Density = 2.156928 g / cm^3
# Si number density = 21.618483 Si / 1000 Ang^3
#
#
#
# Elastic Constant Matrix: (Units=GPa)
#
#
# Indices 1 2 3 4 5 6 
#
# 1 93.5737 36.3443 21.4540 -4.9331 3.3881 5.1755
# 2 36.3443 121.8612 11.2390 -5.5898 -6.3268 -0.3179
# 3 21.4540 11.2390 72.3735 3.2386 1.7363 10.9490
# 4 -4.9331 -5.5898 3.2386 32.6508 6.6552 -1.2614
# 5 3.3881 -6.3268 1.7363 6.6552 45.9867 -2.9550
# 6 5.1755 -0.3179 10.9490 -1.2614 -2.9550 33.9082
#
#
#
# Elastic Compliance Matrix: (Units=1/GPa)
#
#
# Indices 1 2 3 4 5 6 
#
# 1 0.013039 -0.003594 -0.003194 0.001975 -0.001689 -0.001066
# 2 -0.003594 0.009458 -0.000631 0.000866 0.001529 0.001006
# 3 -0.003194 -0.000631 0.015684 -0.002242 -0.000421 -0.004703
# 4 0.001975 0.000866 -0.002242 0.032268 -0.004532 0.001236
# 5 -0.001689 0.001529 -0.000421 -0.004532 0.022896 0.002235
# 6 -0.001066 0.001006 -0.004703 0.001236 0.002235 0.031423
#
#
# Mechanical properties :
#
#
# Convention : Reuss Voigt Hill
#
# Bulk Modulus (GPa) = 42.83885 47.32033 45.07959
# Shear Modulus (GPa) = 33.92455 37.09388 35.50922
#
# Velocity S-wave (km/s) = 3.96566 4.14677 4.05722
# Velocity P-wave (km/s) = 6.38964 6.69805 6.54566
#
# Compressibility (1/GPa) = 0.02334330
#
# Stress axis : x y z
#
# Youngs Moduli (GPa) = 76.69175 105.73125 63.76000
#
# Poissons Ratio (x) = 0.38002 0.20363
# Poissons Ratio (y) = 0.27565 0.04023
# Poissons Ratio (z) = 0.24493 0.06672
#
# Static dielectric constant tensor:
#      x y z
#    x 1.803340 -0.020290 -0.001350 
#    y -0.020290 1.839910 0.000190 
#    z -0.001350 0.000190 1.821260 
# 
# From -- ./inp_files/505591.got.cif
#   From: 2010.05.17/outbox.cif.g08.bks.cpg/sg2_253_cif.got.tgz:505591.got - 2010.06.03 11:33:40.
