data_PCOD9056446
_publ_section_title
;
Structure prediction by ZEFSAII (Michael W. Deem and Ramdas Pophale) SiO2 
 PCOD9056446
Probable space group: P -1
;
_chemical_formula_sum "Si O2"
_cell_formula_units_Z 16
_cell_length_a 13.741689
_cell_length_b 8.890589
_cell_length_c 13.722798
_cell_angle_alpha 116.118499
_cell_angle_beta 29.520446
_cell_angle_gamma 109.589308
_cell_volume 737.389421
_symmetry_space_group_name_H-M "P -1"
_symmetry_group_IT_number 2
_symmetry_cell_setting 'triclinic'
loop_
_space_group_symop_operation_xyz
x,y,z
-x,-y,-z
loop_
_atom_site_type_symbol
_atom_site_label
_atom_site_fract_x
_atom_site_fract_y
_atom_site_fract_z
Si Si1 0.505798 0.813078 0.823142
Si Si2 0.822568 0.981361 0.723131
Si Si3 0.926899 0.521115 0.957856
Si Si4 0.549059 0.611327 0.397864
Si Si5 0.779962 0.479645 0.461260
Si Si6 0.156389 0.104143 0.945558
Si Si7 0.946409 0.171397 0.344756
Si Si8 0.417738 0.059475 0.424458
O O1 0.651398 0.919984 0.788208
O O2 0.622774 0.627828 0.677862
O O3 0.515956 0.871274 0.718219
O O4 0.287255 0.860236 0.074383
O O5 0.927975 0.851781 0.673118
O O6 0.000000 0.000000 0.500000
O O7 0.699580 0.491963 0.164709
O O8 0.893986 0.711361 0.001715
O O9 0.000000 0.500000 0.000000
O O10 0.074107 0.442149 0.722821
O O11 0.500000 0.500000 0.500000
O O12 0.343797 0.647816 0.529350
O O13 0.633763 0.776337 0.415096
O O14 0.880234 0.364702 0.426798
O O15 0.388928 0.040679 0.721867
O O16 0.096331 0.104446 0.110302
O O17 0.000000 0.000000 0.000000
O O18 0.760053 0.057643 0.470964
#
# Coordination Sequence:
#
# PCOD9056446 Si02
#       8
#     2   2   2   2   2   2   2   2
#     4  11  24  44  72  98 130 169 229 280 340 400
#     4  11  24  47  73  98 125 175 229 284 339 398
#     4  11  22  39  59  87 134 176 218 260 319 388
#     4  12  23  38  62  96 139 179 219 267 321 398
#     4  11  25  44  63 102 136 176 217 280 333 398
#     4  11  24  38  62  98 133 179 220 268 323 395
#     4  11  24  43  70  96 137 173 225 279 339 391
#     4  12  22  42  67  97 135 182 223 272 328 404
#
# _framework density 21.698170000000001
#
# number of rings (size 3 to 8) (size 9 to 14) (size 15 to 20)
#    0.000    0.750    5.000    3.000    0.000    3.000 
#    2.250    0.625    0.000    0.000    0.000    0.000 
#    0.000    0.000    0.000    0.000    0.000    0.000 
#
# Total GULP energy -89257.641640 kJ/mol
# GULP energy per Si atom -5578.602603 kJ/mol
# Density = 2.164878 g / cm^3
# Si number density = 21.698170 Si / 1000 Ang^3
#
#
#
# Elastic Constant Matrix: (Units=GPa)
#
#
# Indices 1 2 3 4 5 6 
#
# 1 82.6650 -9.4155 21.6548 5.5990 7.2731 -32.1532
# 2 -9.4155 19.8935 24.2973 1.7329 10.4655 -13.1599
# 3 21.6548 24.2973 160.2635 -1.9939 3.3984 -9.9960
# 4 5.5990 1.7329 -1.9939 37.3214 -6.4235 -2.6925
# 5 7.2731 10.4655 3.3984 -6.4235 37.7033 -2.4510
# 6 -32.1532 -13.1599 -9.9960 -2.6925 -2.4510 38.7199
#
#
#
# Elastic Compliance Matrix: (Units=1/GPa)
#
#
# Indices 1 2 3 4 5 6 
#
# 1 -0.573663 -1.340066 0.221503 0.175328 0.438273 -0.834709
# 2 -1.340066 -3.031788 0.504681 0.401907 0.998102 -1.921808
# 3 0.221503 0.504681 -0.077524 -0.066319 -0.166304 0.320314
# 4 0.175328 0.401907 -0.066319 -0.025171 -0.127097 0.255275
# 5 0.438273 0.998102 -0.166304 -0.127097 -0.300624 0.632373
# 6 -0.834709 -1.921808 0.320314 0.255275 0.632373 -1.180021
#
#
# Mechanical properties :
#
#
# Convention : Reuss Voigt Hill
#
# Bulk Modulus (GPa) = -0.20364 37.32169 18.55903
# Shear Modulus (GPa) = -0.89319 37.83461 18.47071
#
# Velocity S-wave (km/s) = -0.64229 4.18027 2.92080
# Velocity P-wave (km/s) = 0.80256 6.36689 4.46616
#
# Compressibility (1/GPa) = -4.91073686
#
# Stress axis : x y z
#
# Youngs Moduli (GPa) = -1.74318 -0.32984 -12.89931
#
# Poissons Ratio (x) = -0.44201 2.85724
# Poissons Ratio (y) = -2.33598 6.51004
# Poissons Ratio (z) = 0.38612 0.16646
#
# Static dielectric constant tensor:
#      x y z
#    x 1.779350 0.038120 -0.021370 
#    y 0.038120 1.821070 -0.010790 
#    z -0.021370 -0.010790 1.928050 
# 
# From -- ./inp_files/528895.got.cif
#   From: 2010.05.17/outbox.cif.g08.bks.cpg/sg2_265_cif.got.tgz:528895.got - 2010.06.03 11:33:40.
