data_PCOD9056141
_publ_section_title
;
Structure prediction by ZEFSAII (Michael W. Deem and Ramdas Pophale) SiO2 
 PCOD9056141
Probable space group: P -1
;
_chemical_formula_sum "Si O2"
_cell_formula_units_Z 16
_cell_length_a 13.259277
_cell_length_b 14.912294
_cell_length_c 8.834852
_cell_angle_alpha 132.796099
_cell_angle_beta 100.076561
_cell_angle_gamma 44.069797
_cell_volume 703.964983
_symmetry_space_group_name_H-M "P -1"
_symmetry_group_IT_number 2
_symmetry_cell_setting 'triclinic'
loop_
_space_group_symop_operation_xyz
x,y,z
-x,-y,-z
loop_
_atom_site_type_symbol
_atom_site_label
_atom_site_fract_x
_atom_site_fract_y
_atom_site_fract_z
Si Si1 0.171368 0.084547 0.802038
Si Si2 0.420741 0.441604 0.899117
Si Si3 0.571590 0.108563 0.782658
Si Si4 0.847677 0.169448 0.525283
Si Si5 0.499575 0.050844 0.230098
Si Si6 0.036002 0.331378 0.742847
Si Si7 0.205206 0.536185 0.693461
Si Si8 0.745259 0.465083 0.645915
O O1 0.077060 0.208702 0.760062
O O2 0.240849 0.875797 0.571940
O O3 0.333548 0.018444 0.798762
O O4 0.007246 0.252467 0.073328
O O5 0.530034 0.216081 0.733062
O O6 0.316862 0.522513 0.809127
O O7 0.500000 0.500000 0.000000
O O8 0.266751 0.607916 0.176512
O O9 0.485873 0.065394 0.767918
O O10 0.787508 0.864076 0.544322
O O11 0.471792 0.301739 0.095908
O O12 0.859116 0.224936 0.430840
O O13 0.000000 0.000000 0.500000
O O14 0.305120 0.310457 0.500975
O O15 0.500000 0.000000 0.000000
O O16 0.861653 0.456479 0.748719
O O17 0.000000 0.500000 0.000000
O O18 0.241587 0.525194 0.517012
#
# Coordination Sequence:
#
# PCOD9056141 Si02
#       8
#     2   2   2   2   2   2   2   2
#     4  12  26  46  75 103 142 194 246 300 363 430
#     4  11  24  46  77 106 143 191 247 300 358 437
#     4  11  25  48  72 102 145 194 244 294 358 435
#     4  11  21  47  71 102 143 185 247 301 352 442
#     4  12  27  47  69 103 150 191 238 303 364 430
#     4  12  25  43  75 106 136 194 247 291 362 438
#     4  12  26  46  72 110 147 188 241 303 373 431
#     4  11  26  44  71 108 148 185 240 306 371 431
#
# _framework density 22.728404999999999
#
# number of rings (size 3 to 8) (size 9 to 14) (size 15 to 20)
#    0.000    0.500    3.750    4.500    1.750    4.500 
#    2.250    1.875    0.000    0.000    0.000    0.000 
#    0.000    0.000    0.000    0.000    0.000    0.000 
#
# Total GULP energy -89205.290868 kJ/mol
# GULP energy per Si atom -5575.330679 kJ/mol
# Density = 2.267667 g / cm^3
# Si number density = 22.728405 Si / 1000 Ang^3
#
#
#
# Elastic Constant Matrix: (Units=GPa)
#
#
# Indices 1 2 3 4 5 6 
#
# 1 138.9155 56.0405 35.8915 -0.7682 17.7608 5.2369
# 2 56.0405 82.2641 26.4835 1.9527 13.9721 19.9684
# 3 35.8915 26.4835 123.6639 7.1268 -7.2603 -1.6077
# 4 -0.7682 1.9527 7.1268 44.6767 4.8048 7.2478
# 5 17.7608 13.9721 -7.2603 4.8048 44.1750 4.1785
# 6 5.2369 19.9684 -1.6077 7.2478 4.1785 37.6163
#
#
#
# Elastic Compliance Matrix: (Units=1/GPa)
#
#
# Indices 1 2 3 4 5 6 
#
# 1 0.010670 -0.006769 -0.001820 0.000707 -0.002733 0.002197
# 2 -0.006769 0.020700 -0.002889 0.001449 -0.003507 -0.010059
# 3 -0.001820 -0.002889 0.009576 -0.002146 0.003240 0.002250
# 4 0.000707 0.001449 -0.002146 0.023862 -0.003199 -0.005202
# 5 -0.002733 -0.003507 0.003240 -0.003199 0.025712 0.000140
# 6 0.002197 -0.010059 0.002250 -0.005202 0.000140 0.032701
#
#
# Mechanical properties :
#
#
# Convention : Reuss Voigt Hill
#
# Bulk Modulus (GPa) = 55.58111 64.63051 60.10581
# Shear Modulus (GPa) = 32.85738 40.38881 36.62310
#
# Velocity S-wave (km/s) = 3.80630 4.22004 4.01850
# Velocity P-wave (km/s) = 6.62003 7.22792 6.93064
#
# Compressibility (1/GPa) = 0.01799173
#
# Stress axis : x y z
#
# Youngs Moduli (GPa) = 93.72162 48.30953 104.42376
#
# Poissons Ratio (x) = 0.32699 0.19003
# Poissons Ratio (y) = 0.63438 0.30164
# Poissons Ratio (z) = 0.17056 0.13955
#
# Static dielectric constant tensor:
#      x y z
#    x 2.155560 0.391090 -0.101570 
#    y 0.391090 2.363660 -0.049180 
#    z -0.101570 -0.049180 1.967500 
# 
# From -- ./inp_files/315926.got.cif
#   From: 2010.05.17/outbox.cif.g08.bks.cpg/sg2_158_cif.got.tgz:315926.got - 2010.06.03 11:33:40.
