data_PCOD9056380
_publ_section_title
;
Structure prediction by ZEFSAII (Michael W. Deem and Ramdas Pophale) SiO2 
 PCOD9056380
Probable space group: P -1
;
_chemical_formula_sum "Si O2"
_cell_formula_units_Z 16
_cell_length_a 9.177701
_cell_length_b 13.908166
_cell_length_c 22.681675
_cell_angle_alpha 160.591096
_cell_angle_beta 48.404481
_cell_angle_gamma 132.627401
_cell_volume 704.138342
_symmetry_space_group_name_H-M "P -1"
_symmetry_group_IT_number 2
_symmetry_cell_setting 'triclinic'
loop_
_space_group_symop_operation_xyz
x,y,z
-x,-y,-z
loop_
_atom_site_type_symbol
_atom_site_label
_atom_site_fract_x
_atom_site_fract_y
_atom_site_fract_z
Si Si1 0.830043 0.007721 0.100286
Si Si2 0.678609 0.703297 0.734298
Si Si3 0.915807 0.411356 0.597420
Si Si4 0.602781 0.325186 0.965818
Si Si5 0.529612 0.319746 0.705341
Si Si6 0.299354 0.618362 0.842821
Si Si7 0.873836 0.584784 0.953086
Si Si8 0.934194 0.044031 0.772097
O O1 0.592851 0.911312 0.096947
O O2 0.850223 0.784260 0.019006
O O3 0.888770 0.342527 0.301614
O O4 0.000000 0.000000 0.000000
O O5 0.795522 0.512285 0.632857
O O6 0.441688 0.581577 0.728783
O O7 0.786436 0.761635 0.677171
O O8 0.704269 0.033055 0.947359
O O9 0.766925 0.422432 0.698051
O O10 0.949839 0.087841 0.386216
O O11 0.794653 0.250674 0.903779
O O12 0.551024 0.629666 0.179830
O O13 0.676361 0.360218 0.898678
O O14 0.419589 0.515785 0.805632
O O15 0.500000 0.000000 0.500000
O O16 0.070510 0.454799 0.811092
O O17 0.937281 0.795127 0.115187
#
# Coordination Sequence:
#
# PCOD9056380 Si02
#       8
#     2   2   2   2   2   2   2   2
#     4  12  26  44  68  91 134 185 218 261 325 407
#     4   9  17  33  62  97 126 159 213 270 323 370
#     4  11  22  40  64 100 131 174 219 271 323 388
#     4  12  25  42  66 100 133 177 214 269 338 393
#     4  11  22  38  64  99 135 162 221 271 328 383
#     4   9  18  33  62  94 125 164 208 272 320 376
#     4  11  23  41  68  98 130 169 224 268 333 381
#     4  11  22  38  73  99 134 160 223 281 330 372
#
# _framework density 22.722808000000001
#
# number of rings (size 3 to 8) (size 9 to 14) (size 15 to 20)
#    0.000    1.250    6.250    1.875    3.500    0.500 
#    0.000    0.000    0.000    1.500    0.000    0.000 
#    0.000    0.000    0.000    0.000    0.000    0.000 
#
# Total GULP energy -89244.974564 kJ/mol
# GULP energy per Si atom -5577.810910 kJ/mol
# Density = 2.267109 g / cm^3
# Si number density = 22.722808 Si / 1000 Ang^3
#
#
#
# Elastic Constant Matrix: (Units=GPa)
#
#
# Indices 1 2 3 4 5 6 
#
# 1 59.2935 16.9982 22.6519 -3.6349 -8.7260 3.5225
# 2 16.9982 142.9878 11.5875 -16.8018 -2.9163 13.8498
# 3 22.6519 11.5875 75.7960 -4.6130 -12.1505 9.3886
# 4 -3.6349 -16.8018 -4.6130 28.0244 9.9217 -1.3953
# 5 -8.7260 -2.9163 -12.1505 9.9217 19.6616 -0.0887
# 6 3.5225 13.8498 9.3886 -1.3953 -0.0887 36.1960
#
#
#
# Elastic Compliance Matrix: (Units=1/GPa)
#
#
# Indices 1 2 3 4 5 6 
#
# 1 0.020137 -0.002081 -0.004755 -0.001744 0.006570 0.000019
# 2 -0.002081 0.008097 -0.000398 0.005336 -0.002674 -0.002593
# 3 -0.004755 -0.000398 0.016437 -0.001407 0.008682 -0.003681
# 4 -0.001744 0.005336 -0.001407 0.047165 -0.024651 0.000250
# 5 0.006570 -0.002674 0.008682 -0.024651 0.071173 -0.002644
# 6 0.000019 -0.002593 -0.003681 0.000250 -0.002644 0.029576
#
#
# Mechanical properties :
#
#
# Convention : Reuss Voigt Hill
#
# Bulk Modulus (GPa) = 33.11047 42.28359 37.69703
# Shear Modulus (GPa) = 23.02845 31.89904 27.46375
#
# Velocity S-wave (km/s) = 3.18693 3.75084 3.48032
# Velocity P-wave (km/s) = 5.30520 6.11615 5.72505
#
# Compressibility (1/GPa) = 0.03020193
#
# Stress axis : x y z
#
# Youngs Moduli (GPa) = 49.65881 123.50238 60.83667
#
# Poissons Ratio (x) = 0.25704 0.28929
# Poissons Ratio (y) = 0.10335 0.02424
# Poissons Ratio (z) = 0.23614 0.04921
#
# Static dielectric constant tensor:
#      x y z
#    x 1.883480 0.065150 0.033060 
#    y 0.065150 1.996200 0.039070 
#    z 0.033060 0.039070 1.820700 
# 
# From -- ./inp_files/608203.got.cif
#   From: 2010.05.17/outbox.cif.g08.bks.cpg/sg2_305_cif.got.tgz:608203.got - 2010.06.03 11:33:40.
