data_PCOD9056922
_publ_section_title
;
Structure prediction by ZEFSAII (Michael W. Deem and Ramdas Pophale) SiO2 
 PCOD9056922
Probable space group: P -1
;
_chemical_formula_sum "Si O2"
_cell_formula_units_Z 16
_cell_length_a 18.091382
_cell_length_b 5.109235
_cell_length_c 9.831978
_cell_angle_alpha 103.435260
_cell_angle_beta 75.828006
_cell_angle_gamma 117.828289
_cell_volume 771.816786
_symmetry_space_group_name_H-M "P -1"
_symmetry_group_IT_number 2
_symmetry_cell_setting 'triclinic'
loop_
_space_group_symop_operation_xyz
x,y,z
-x,-y,-z
loop_
_atom_site_type_symbol
_atom_site_label
_atom_site_fract_x
_atom_site_fract_y
_atom_site_fract_z
Si Si1 0.449420 0.639276 0.461033
Si Si2 0.242190 0.013227 0.123755
Si Si3 0.323980 0.091568 0.816011
Si Si4 0.316958 0.699150 0.248171
Si Si5 0.899774 0.341366 0.038399
Si Si6 0.275599 0.564587 0.568403
Si Si7 0.183940 0.219615 0.800514
Si Si8 0.483410 0.661540 0.158675
O O1 0.500000 0.500000 0.500000
O O2 0.359155 0.522508 0.555879
O O3 0.434749 0.501077 0.298872
O O4 0.500000 0.000000 0.500000
O O5 0.273631 0.886818 0.220081
O O6 0.145035 0.844037 0.100197
O O7 0.272914 0.363720 0.169652
O O8 0.290400 0.970409 0.965644
O O9 0.278513 0.309251 0.831902
O O10 0.423220 0.183191 0.797273
O O11 0.285833 0.848370 0.686329
O O12 0.291216 0.660900 0.415005
O O13 0.418507 0.813762 0.177551
O O14 0.862058 0.581524 0.104592
O O15 0.000000 0.500000 0.000000
O O16 0.869897 0.107312 0.149913
O O17 0.198572 0.283769 0.639116
O O18 0.500000 0.500000 0.000000
#
# Coordination Sequence:
#
# PCOD9056922 Si02
#       8
#     2   2   2   2   2   2   2   2
#     4  11  24  40  58  85 123 174 231 280 311 359
#     4  11  23  44  63  94 131 164 214 272 336 384
#     4  11  22  41  65  92 129 183 229 273 311 380
#     4  11  27  40  61  96 136 181 216 272 327 377
#     4  11  24  43  76 106 127 160 212 273 332 407
#     4  11  24  40  66  90 132 183 226 264 327 391
#     4  11  22  41  69 100 129 166 218 272 322 388
#     4  11  23  40  59  93 132 179 230 275 319 361
#
# _framework density 20.730311
#
# number of rings (size 3 to 8) (size 9 to 14) (size 15 to 20)
#    0.000    1.000    5.000    2.625    1.750    4.500 
#    2.250    0.000    0.000    4.500    0.000    0.000 
#    0.000    0.000    0.000    0.000    0.000    0.000 
#
# Total GULP energy -89091.261792 kJ/mol
# GULP energy per Si atom -5568.203862 kJ/mol
# Density = 2.068313 g / cm^3
# Si number density = 20.730311 Si / 1000 Ang^3
#
#
#
# Elastic Constant Matrix: (Units=GPa)
#
#
# Indices 1 2 3 4 5 6 
#
# 1 106.2638 39.1863 19.7991 -9.0256 -8.6180 14.9401
# 2 39.1863 90.1320 31.7515 -4.2851 -7.5057 -4.4661
# 3 19.7991 31.7515 132.8627 -4.5524 0.1477 4.0722
# 4 -9.0256 -4.2851 -4.5524 31.3592 -1.3188 0.6187
# 5 -8.6180 -7.5057 0.1477 -1.3188 21.1178 -7.0417
# 6 14.9401 -4.4661 4.0722 0.6187 -7.0417 34.9168
#
#
#
# Elastic Compliance Matrix: (Units=1/GPa)
#
#
# Indices 1 2 3 4 5 6 
#
# 1 0.012664 -0.005416 -0.000312 0.003037 0.001492 -0.005828
# 2 -0.005416 0.015222 -0.003003 0.000189 0.005114 0.005643
# 3 -0.000312 -0.003003 0.008364 0.000672 -0.001741 -0.001589
# 4 0.003037 0.000189 0.000672 0.033035 0.002914 -0.001351
# 5 0.001492 0.005114 -0.001741 0.002914 0.053637 0.010984
# 6 -0.005828 0.005643 -0.001589 -0.001351 0.010984 0.034279
#
#
# Mechanical properties :
#
#
# Convention : Reuss Voigt Hill
#
# Bulk Modulus (GPa) = 53.22320 56.74803 54.98561
# Shear Modulus (GPa) = 27.63546 33.38020 30.50783
#
# Velocity S-wave (km/s) = 3.65512 4.01710 3.84038
# Velocity P-wave (km/s) = 6.59871 6.99642 6.80048
#
# Compressibility (1/GPa) = 0.01878880
#
# Stress axis : x y z
#
# Youngs Moduli (GPa) = 78.96182 65.69452 119.55560
#
# Poissons Ratio (x) = 0.35583 0.03728
# Poissons Ratio (y) = 0.42769 0.35900
# Poissons Ratio (z) = 0.02462 0.19726
#
# Static dielectric constant tensor:
#      x y z
#    x 1.806680 -0.035120 0.016220 
#    y -0.035120 1.881900 0.009830 
#    z 0.016220 0.009830 1.789770 
# 
# From -- ./inp_files/322737.got.cif
#   From: 2010.05.17/outbox.cif.g08.bks.cpg/sg2_162_cif.got.tgz:322737.got - 2010.06.03 11:33:40.
