data_PCOD9056129
_publ_section_title
;
Structure prediction by ZEFSAII (Michael W. Deem and Ramdas Pophale) SiO2 
 PCOD9056129
Probable space group: P -1
;
_chemical_formula_sum "Si O2"
_cell_formula_units_Z 16
_cell_length_a 9.367383
_cell_length_b 9.591218
_cell_length_c 23.975695
_cell_angle_alpha 135.441406
_cell_angle_beta 152.763130
_cell_angle_gamma 48.803020
_cell_volume 689.598297
_symmetry_space_group_name_H-M "P -1"
_symmetry_group_IT_number 2
_symmetry_cell_setting 'triclinic'
loop_
_space_group_symop_operation_xyz
x,y,z
-x,-y,-z
loop_
_atom_site_type_symbol
_atom_site_label
_atom_site_fract_x
_atom_site_fract_y
_atom_site_fract_z
Si Si1 0.673898 0.793817 0.981850
Si Si2 0.892135 0.697070 0.406865
Si Si3 0.230016 0.821005 0.263888
Si Si4 0.818652 0.422590 0.712306
Si Si5 0.721629 0.718999 0.589646
Si Si6 0.054343 0.874432 0.038930
Si Si7 0.394075 0.426439 0.836875
Si Si8 0.445418 0.201201 0.318978
O O1 0.009514 0.762074 0.120004
O O2 0.750274 0.811236 0.948033
O O3 0.476899 0.619034 0.885821
O O4 0.500000 0.000000 0.000000
O O5 0.592597 0.761948 0.358671
O O6 0.767799 0.706676 0.303233
O O7 0.042673 0.467699 0.400636
O O8 0.181445 0.829448 0.556233
O O9 0.142311 0.699186 0.252593
O O10 0.176079 0.059368 0.321824
O O11 0.601723 0.302365 0.561403
O O12 0.633598 0.639667 0.712265
O O13 0.145515 0.463520 0.809720
O O14 0.661595 0.705254 0.631459
O O15 0.292387 0.681584 0.059835
O O16 0.239828 0.019243 0.184743
O O17 0.000000 0.000000 0.000000
#
# Coordination Sequence:
#
# PCOD9056129 Si02
#       8
#     2   2   2   2   2   2   2   2
#     4  12  27  48  71  98 144 203 238 294 367 430
#     4  11  23  44  79 105 140 196 236 296 368 433
#     4  12  27  44  70 108 149 187 246 298 362 432
#     4  11  25  43  71 108 142 187 237 303 357 428
#     4  11  21  46  73 107 146 187 235 300 366 432
#     4  12  29  47  72 112 141 188 247 305 355 437
#     4  12  24  46  73 100 142 192 245 293 359 435
#     4  11  22  46  75 102 147 185 239 296 366 432
#
# _framework density 23.201913999999999
#
# number of rings (size 3 to 8) (size 9 to 14) (size 15 to 20)
#    0.000    0.500    5.000    3.000    5.250    3.500 
#    2.250    0.000    0.000    0.000    0.000    0.000 
#    0.000    0.000    0.000    0.000    0.000    0.000 
#
# Total GULP energy -89596.240126 kJ/mol
# GULP energy per Si atom -5599.765008 kJ/mol
# Density = 2.314911 g / cm^3
# Si number density = 23.201914 Si / 1000 Ang^3
#
#
#
# Elastic Constant Matrix: (Units=GPa)
#
#
# Indices 1 2 3 4 5 6 
#
# 1 111.8029 49.4118 37.9175 -19.0000 14.5836 27.0035
# 2 49.4118 114.3258 24.8175 -8.7930 6.5080 22.0711
# 3 37.9175 24.8175 66.6423 7.9512 15.2399 4.4361
# 4 -19.0000 -8.7930 7.9512 39.9791 -1.6143 3.4197
# 5 14.5836 6.5080 15.2399 -1.6143 32.6660 -4.6985
# 6 27.0035 22.0711 4.4361 3.4197 -4.6985 47.0455
#
#
#
# Elastic Compliance Matrix: (Units=1/GPa)
#
#
# Indices 1 2 3 4 5 6 
#
# 1 0.017572 -0.003001 -0.008545 0.009997 -0.004062 -0.009005
# 2 -0.003001 0.011428 -0.002491 0.001879 -0.000194 -0.003559
# 3 -0.008545 -0.002491 0.023169 -0.009815 -0.006413 0.003961
# 4 0.009997 0.001879 -0.009815 0.032827 0.000204 -0.008060
# 5 -0.004062 -0.000194 -0.006413 0.000204 0.036423 0.006650
# 6 -0.009005 -0.003559 0.003961 -0.008060 0.006650 0.028971
#
#
# Mechanical properties :
#
#
# Convention : Reuss Voigt Hill
#
# Bulk Modulus (GPa) = 41.50341 57.45163 49.47752
# Shear Modulus (GPa) = 26.81023 35.97972 31.39497
#
# Velocity S-wave (km/s) = 3.40298 3.94219 3.68247
# Velocity P-wave (km/s) = 5.77643 6.74808 6.28107
#
# Compressibility (1/GPa) = 0.02409441
#
# Stress axis : x y z
#
# Youngs Moduli (GPa) = 56.90740 87.50775 43.16152
#
# Poissons Ratio (x) = 0.26265 0.36881
# Poissons Ratio (y) = 0.17080 0.10751
# Poissons Ratio (z) = 0.48627 0.21797
#
# Static dielectric constant tensor:
#      x y z
#    x 1.835790 -0.020210 -0.006490 
#    y -0.020210 1.896410 0.012400 
#    z -0.006490 0.012400 1.900100 
# 
# From -- ./inp_files/226552.got.cif
#   From: 2010.05.17/outbox.cif.g08.bks.cpg/sg2_114_cif.got.tgz:226552.got - 2010.06.03 11:33:40.
