data_PCOD9056611
_publ_section_title
;
Structure prediction by ZEFSAII (Michael W. Deem and Ramdas Pophale) SiO2 
 PCOD9056611
Probable space group: P -1
;
_chemical_formula_sum "Si O2"
_cell_formula_units_Z 16
_cell_length_a 8.476577
_cell_length_b 13.541925
_cell_length_c 13.794234
_cell_angle_alpha 149.866864
_cell_angle_beta 112.953062
_cell_angle_gamma 84.041653
_cell_volume 631.745648
_symmetry_space_group_name_H-M "P -1"
_symmetry_group_IT_number 2
_symmetry_cell_setting 'triclinic'
loop_
_space_group_symop_operation_xyz
x,y,z
-x,-y,-z
loop_
_atom_site_type_symbol
_atom_site_label
_atom_site_fract_x
_atom_site_fract_y
_atom_site_fract_z
Si Si1 0.826724 0.055755 0.275639
Si Si2 0.544566 0.449007 0.234705
Si Si3 0.056915 0.929643 0.077281
Si Si4 0.900512 0.315014 0.944005
Si Si5 0.661385 0.996318 0.464277
Si Si6 0.775685 0.650633 0.262195
Si Si7 0.680567 0.292143 0.551230
Si Si8 0.715968 0.631562 0.612945
O O1 0.730760 0.217273 0.397576
O O2 0.001048 0.161828 0.489335
O O3 0.939375 0.042588 0.196186
O O4 0.647432 0.798850 0.028276
O O5 0.656352 0.538866 0.237306
O O6 0.472307 0.621907 0.399362
O O7 0.692558 0.478252 0.383041
O O8 0.207343 0.110400 0.189972
O O9 0.154679 0.865076 0.134140
O O10 0.891999 0.699076 0.789664
O O11 0.784249 0.451983 0.038512
O O12 0.124586 0.500266 0.177871
O O13 0.865012 0.191613 0.728684
O O14 0.626162 0.073542 0.418891
O O15 0.500000 0.000000 0.500000
O O16 0.678368 0.772923 0.284726
O O17 0.500000 0.500000 0.500000
#
# Coordination Sequence:
#
# PCOD9056611 Si02
#       8
#     2   2   2   2   2   2   2   2
#     4  11  23  42  67  97 132 178 225 270 330 401
#     4  12  22  43  69  96 139 177 220 279 339 394
#     4  11  22  44  70  98 137 177 222 277 336 407
#     4  11  24  46  69  93 139 183 220 279 344 391
#     4  12  24  41  65 102 136 174 233 282 328 398
#     4  11  25  43  69  97 137 184 224 275 340 398
#     4  11  25  41  69  97 135 181 231 270 333 399
#     4  11  22  39  76 102 129 177 222 274 345 400
#
# _framework density 25.326647999999999
#
# number of rings (size 3 to 8) (size 9 to 14) (size 15 to 20)
#    0.000    0.750    6.250    0.375    1.750    3.500 
#    0.000    1.250    8.250    0.000    0.000    0.000 
#    0.000    0.000    0.000    0.000    0.000    0.000 
#
# Total GULP energy -89551.230504 kJ/mol
# GULP energy per Si atom -5596.951906 kJ/mol
# Density = 2.526900 g / cm^3
# Si number density = 25.326648 Si / 1000 Ang^3
#
#
#
# Elastic Constant Matrix: (Units=GPa)
#
#
# Indices 1 2 3 4 5 6 
#
# 1 85.7259 1.6976 35.9314 9.6330 -10.2743 0.8129
# 2 1.6976 91.7635 30.2909 7.4469 -5.4846 16.5350
# 3 35.9314 30.2909 142.9972 3.9014 10.2715 2.6610
# 4 9.6330 7.4469 3.9014 37.2253 2.1821 8.2141
# 5 -10.2743 -5.4846 10.2715 2.1821 54.1454 7.5000
# 6 0.8129 16.5350 2.6610 8.2141 7.5000 22.7007
#
#
#
# Elastic Compliance Matrix: (Units=1/GPa)
#
#
# Indices 1 2 3 4 5 6 
#
# 1 0.014264 0.001897 -0.004152 -0.003551 0.004031 -0.001453
# 2 0.001897 0.014366 -0.003584 -0.000761 0.004075 -0.011183
# 3 -0.004152 -0.003584 0.008966 0.000466 -0.003232 0.002607
# 4 -0.003551 -0.000761 0.000466 0.030145 -0.000660 -0.010063
# 5 0.004031 0.004075 -0.003232 -0.000660 0.021621 -0.009638
# 6 -0.001453 -0.011183 0.002607 -0.010063 -0.009638 0.058769
#
#
# Mechanical properties :
#
#
# Convention : Reuss Voigt Hill
#
# Bulk Modulus (GPa) = 38.58019 50.70292 44.64156
# Shear Modulus (GPa) = 29.68307 39.65206 34.66756
#
# Velocity S-wave (km/s) = 3.42718 3.96109 3.70377
# Velocity P-wave (km/s) = 5.56119 6.40183 5.99626
#
# Compressibility (1/GPa) = 0.02592004
#
# Stress axis : x y z
#
# Youngs Moduli (GPa) = 70.10885 69.60991 111.52782
#
# Poissons Ratio (x) = -0.13208 0.46302
# Poissons Ratio (y) = -0.13303 0.39968
# Poissons Ratio (z) = 0.29106 0.24946
#
# Static dielectric constant tensor:
#      x y z
#    x 2.035150 -0.009440 0.060660 
#    y -0.009440 2.060490 -0.016690 
#    z 0.060660 -0.016690 2.024840 
# 
# From -- ./inp_files/505921.got.cif
#   From: 2010.05.17/outbox.cif.g08.bks.cpg/sg2_253_cif.got.tgz:505921.got - 2010.06.03 11:33:40.
