data_PCOD9056581
_publ_section_title
;
Structure prediction by ZEFSAII (Michael W. Deem and Ramdas Pophale) SiO2 
 PCOD9056581
Probable space group: P -1
;
_chemical_formula_sum "Si O2"
_cell_formula_units_Z 16
_cell_length_a 7.929671
_cell_length_b 11.009436
_cell_length_c 19.085961
_cell_angle_alpha 35.256083
_cell_angle_beta 130.345527
_cell_angle_gamma 137.491247
_cell_volume 645.466494
_symmetry_space_group_name_H-M "P -1"
_symmetry_group_IT_number 2
_symmetry_cell_setting 'triclinic'
loop_
_space_group_symop_operation_xyz
x,y,z
-x,-y,-z
loop_
_atom_site_type_symbol
_atom_site_label
_atom_site_fract_x
_atom_site_fract_y
_atom_site_fract_z
Si Si1 0.272394 0.282672 0.001921
Si Si2 0.750553 0.551146 0.235518
Si Si3 0.183910 0.976925 0.631860
Si Si4 0.807712 0.223205 0.567886
Si Si5 0.092623 0.008764 0.838786
Si Si6 0.493255 0.932275 0.187486
Si Si7 0.344328 0.160222 0.401051
Si Si8 0.892143 0.588333 0.642167
O O1 0.056936 0.181983 0.050858
O O2 0.337341 0.077695 0.086415
O O3 0.500000 0.500000 0.000000
O O4 0.224434 0.384146 0.869610
O O5 0.505969 0.321778 0.304482
O O6 0.007579 0.540132 0.325589
O O7 0.741697 0.755771 0.182922
O O8 0.895141 0.811265 0.658028
O O9 0.157972 0.788935 0.653564
O O10 0.376173 0.025293 0.721636
O O11 0.206789 0.233137 0.497040
O O12 0.530811 0.205486 0.495692
O O13 0.000000 0.500000 0.500000
O O14 0.789174 0.104357 0.542854
O O15 0.897219 0.071974 0.713388
O O16 0.279715 0.969774 0.854801
O O17 0.319881 0.646535 0.265041
#
# Coordination Sequence:
#
# PCOD9056581 Si02
#       8
#     2   2   2   2   2   2   2   2
#     4  12  29  52  77 108 150 201 260 319 370 448
#     4  12  25  50  73 110 149 202 260 308 380 445
#     4  11  25  46  71 115 156 195 253 304 382 454
#     4  11  22  39  69 110 146 191 245 298 378 447
#     4  12  26  47  76 110 148 198 253 310 377 455
#     4  12  27  50  77 112 149 201 251 313 379 447
#     4  11  23  42  72 106 147 194 245 310 367 450
#     4  11  25  46  73 107 159 201 238 318 375 449
#
# _framework density 24.788271999999999
#
# number of rings (size 3 to 8) (size 9 to 14) (size 15 to 20)
#    0.000    0.500    3.750    4.500    0.000    3.000 
#    2.250    0.000    0.000    0.000    0.000    0.000 
#    0.000    0.000    0.000    0.000    0.000    0.000 
#
# Total GULP energy -89305.013035 kJ/mol
# GULP energy per Si atom -5581.563315 kJ/mol
# Density = 2.473185 g / cm^3
# Si number density = 24.788272 Si / 1000 Ang^3
#
#
#
# Elastic Constant Matrix: (Units=GPa)
#
#
# Indices 1 2 3 4 5 6 
#
# 1 117.8277 1.3153 32.6859 -19.7222 -21.6457 14.3550
# 2 1.3153 102.6879 2.6928 -6.0937 -13.9817 8.3037
# 3 32.6859 2.6928 100.0964 3.0007 -25.0467 19.9413
# 4 -19.7222 -6.0937 3.0007 37.7716 -1.8299 -4.5880
# 5 -21.6457 -13.9817 -25.0467 -1.8299 34.7481 -5.6260
# 6 14.3550 8.3037 19.9413 -4.5880 -5.6260 32.3809
#
#
#
# Elastic Compliance Matrix: (Units=1/GPa)
#
#
# Indices 1 2 3 4 5 6 
#
# 1 0.011515 0.001317 -0.001979 0.006415 0.006253 -0.002228
# 2 0.001317 0.010827 0.001192 0.002278 0.005706 -0.002780
# 3 -0.001979 0.001192 0.014123 -0.002425 0.008158 -0.007052
# 4 0.006415 0.002278 -0.002425 0.031056 0.005350 0.003395
# 5 0.006253 0.005706 0.008158 0.005350 0.040906 -0.001394
# 6 -0.002228 -0.002780 -0.007052 0.003395 -0.001394 0.037165
#
#
# Mechanical properties :
#
#
# Convention : Reuss Voigt Hill
#
# Bulk Modulus (GPa) = 26.64906 43.77778 35.21342
# Shear Modulus (GPa) = 31.83862 39.90799 35.87331
#
# Velocity S-wave (km/s) = 3.58777 4.01678 3.80832
# Velocity P-wave (km/s) = 5.28553 6.26192 5.79433
#
# Compressibility (1/GPa) = 0.03752477
#
# Stress axis : x y z
#
# Youngs Moduli (GPa) = 86.84117 92.36150 70.80412
#
# Poissons Ratio (x) = -0.12161 0.14014
# Poissons Ratio (y) = -0.11434 -0.08440
# Poissons Ratio (z) = 0.17188 -0.11010
#
# Static dielectric constant tensor:
#      x y z
#    x 2.237870 -0.074340 0.042030 
#    y -0.074340 1.991560 -0.025150 
#    z 0.042030 -0.025150 2.071370 
# 
# From -- ./inp_files/589396.got.cif
#   From: 2010.05.17/outbox.cif.g08.bks.cpg/sg2_295_cif.got.tgz:589396.got - 2010.06.03 11:33:40.
