data_PCOD9056032
_publ_section_title
;
Structure prediction by ZEFSAII (Michael W. Deem and Ramdas Pophale) SiO2 
 PCOD9056032
Probable space group: P -1
;
_chemical_formula_sum "Si O2"
_cell_formula_units_Z 15
_cell_length_a 9.856045
_cell_length_b 8.339781
_cell_length_c 12.761547
_cell_angle_alpha 53.055176
_cell_angle_beta 110.443398
_cell_angle_gamma 136.196526
_cell_volume 573.483160
_symmetry_space_group_name_H-M "P -1"
_symmetry_group_IT_number 2
_symmetry_cell_setting 'triclinic'
loop_
_space_group_symop_operation_xyz
x,y,z
-x,-y,-z
loop_
_atom_site_type_symbol
_atom_site_label
_atom_site_fract_x
_atom_site_fract_y
_atom_site_fract_z
Si Si1 0.647955 0.366943 0.832670
Si Si2 0.133959 0.433874 0.575410
Si Si3 0.291112 0.988838 0.751567
Si Si4 0.843323 0.131601 0.909274
Si Si5 0.954481 0.843942 0.839710
Si Si6 0.774681 0.718804 0.530094
Si Si7 0.500000 0.500000 0.000000
Si Si8 0.724866 0.405353 0.237948
O O1 0.418404 0.119116 0.841187
O O2 0.746792 0.247950 0.878510
O O3 0.698467 0.583728 0.675138
O O4 0.726452 0.543754 0.892636
O O5 0.222401 0.467382 0.472977
O O6 0.300781 0.630702 0.630468
O O7 0.000000 0.500000 0.500000
O O8 0.011566 0.116409 0.703375
O O9 0.326668 0.203270 0.595865
O O10 0.067117 0.801495 0.805543
O O11 0.333416 0.833488 0.757900
O O12 0.034969 0.363588 0.799549
O O13 0.948072 0.107704 0.041920
O O14 0.678212 0.847001 0.917058
O O15 0.000000 0.000000 0.500000
O O16 0.615557 0.492008 0.128779
#
# Coordination Sequence:
#
# PCOD9056032 Si02
#       8
#     2   2   2   2   2   2   1   2
#     4  12  23  42  73  98 135 179 231 284 339 403
#     4  11  23  42  71 100 134 182 226 277 349 407
#     4  11  24  42  71  99 134 179 229 281 338 405
#     4  12  25  47  68 102 136 186 225 280 348 403
#     4  11  25  44  68 102 138 175 231 284 337 407
#     4  11  21  45  69  98 137 176 226 286 339 402
#     4  12  26  44  68 100 142 178 230 274 344 418
#     4  12  25  47  71  98 144 183 223 284 345 408
#
# _framework density 26.155954999999999
#
# number of rings (size 3 to 8) (size 9 to 14) (size 15 to 20)
#    0.000    0.533    6.667    2.800    0.000    1.600 
#    0.000    0.667    0.000    0.000    0.000    0.000 
#    0.000    0.000    0.000    0.000    0.000    0.000 
#
# Total GULP energy -83839.233211 kJ/mol
# GULP energy per Si atom -5589.282214 kJ/mol
# Density = 2.609642 g / cm^3
# Si number density = 26.155955 Si / 1000 Ang^3
#
#
#
# Elastic Constant Matrix: (Units=GPa)
#
#
# Indices 1 2 3 4 5 6 
#
# 1 43.6213 17.2116 12.6500 1.6550 23.3709 -3.0826
# 2 17.2116 162.0989 23.5830 24.1337 6.4491 4.4865
# 3 12.6500 23.5830 89.0943 34.9818 16.3330 2.8473
# 4 1.6550 24.1337 34.9818 42.5608 2.8191 -3.0174
# 5 23.3709 6.4491 16.3330 2.8191 49.0851 2.1790
# 6 -3.0826 4.4865 2.8473 -3.0174 2.1790 45.2690
#
#
#
# Elastic Compliance Matrix: (Units=1/GPa)
#
#
# Indices 1 2 3 4 5 6 
#
# 1 0.033045 -0.003224 -0.002885 0.004157 -0.014755 0.003739
# 2 -0.003224 0.007113 0.000070 -0.004111 0.000869 -0.001245
# 3 -0.002885 0.000070 0.018165 -0.014763 -0.003737 -0.002150
# 4 0.004157 -0.004111 -0.014763 0.038017 0.001108 0.004100
# 5 -0.014755 0.000869 -0.003737 0.001108 0.028559 -0.002157
# 6 0.003739 -0.001245 -0.002150 0.004100 -0.002157 0.022980
#
#
# Mechanical properties :
#
#
# Convention : Reuss Voigt Hill
#
# Bulk Modulus (GPa) = 21.62446 44.63376 33.12911
# Shear Modulus (GPa) = 28.51041 43.47432 35.99237
#
# Velocity S-wave (km/s) = 3.30512 4.08133 3.71356
# Velocity P-wave (km/s) = 4.78023 6.26987 5.57502
#
# Compressibility (1/GPa) = 0.04624394
#
# Stress axis : x y z
#
# Youngs Moduli (GPa) = 30.26173 140.58249 55.04947
#
# Poissons Ratio (x) = 0.45328 0.15883
# Poissons Ratio (y) = 0.09757 -0.00383
# Poissons Ratio (z) = 0.08731 -0.00979
#
# Static dielectric constant tensor:
#      x y z
#    x -3.921250 1.416420 -0.140060 
#    y 1.416420 1.760520 -0.018020 
#    z -0.140060 -0.018020 1.974440 
# 
# From -- ./inp_files/302200.got.cif
#   From: 2010.05.17/outbox.cif.g08.bks.cpg/sg2_152_cif.got.tgz:302200.got - 2010.06.03 11:33:40.
