data_PCOD9056200
_publ_section_title
;
Structure prediction by ZEFSAII (Michael W. Deem and Ramdas Pophale) SiO2 
 PCOD9056200
Probable space group: P -1
;
_chemical_formula_sum "Si O2"
_cell_formula_units_Z 16
_cell_length_a 26.031222
_cell_length_b 8.299818
_cell_length_c 9.115203
_cell_angle_alpha 69.235867
_cell_angle_beta 138.789010
_cell_angle_gamma 136.638262
_cell_volume 806.249268
_symmetry_space_group_name_H-M "P -1"
_symmetry_group_IT_number 2
_symmetry_cell_setting 'triclinic'
loop_
_space_group_symop_operation_xyz
x,y,z
-x,-y,-z
loop_
_atom_site_type_symbol
_atom_site_label
_atom_site_fract_x
_atom_site_fract_y
_atom_site_fract_z
Si Si1 0.700589 0.034482 0.129432
Si Si2 0.491989 0.793768 0.980905
Si Si3 0.855102 0.380412 0.857273
Si Si4 0.367734 0.749967 0.238238
Si Si5 0.321028 0.101381 0.177535
Si Si6 0.462271 0.652403 0.280214
Si Si7 0.740036 0.568596 0.598708
Si Si8 0.134848 0.850856 0.323090
O O1 0.811664 0.153582 0.418097
O O2 0.709289 0.213736 0.983198
O O3 0.595322 0.899983 0.060281
O O4 0.674973 0.859737 0.999891
O O5 0.371533 0.586330 0.697353
O O6 0.493141 0.683096 0.167463
O O7 0.500000 0.000000 0.000000
O O8 0.801374 0.486749 0.709444
O O9 0.829593 0.221064 0.709764
O O10 0.800313 0.168971 0.935209
O O11 0.994470 0.627936 0.093092
O O12 0.386914 0.695199 0.138756
O O13 0.305258 0.539589 0.298507
O O14 0.500000 0.000000 0.500000
O O15 0.381496 0.376178 0.274886
O O16 0.416598 0.128588 0.441424
O O17 0.814551 0.869713 0.663636
#
# Coordination Sequence:
#
# PCOD9056200 Si02
#       8
#     2   2   2   2   2   2   2   2
#     4  12  23  40  61  95 127 163 205 259 322 375
#     4  12  22  36  64  97 135 165 207 259 321 384
#     4  11  24  47  68  88 127 172 219 268 325 370
#     4  12  20  39  61  91 131 166 201 253 323 390
#     4  11  22  39  61  90 130 164 208 260 322 381
#     4  11  22  35  60  97 127 166 204 255 322 391
#     4  12  23  43  69  94 128 172 216 261 322 390
#     4  11  27  44  67  94 124 169 225 272 311 378
#
# _framework density 19.84498
#
# number of rings (size 3 to 8) (size 9 to 14) (size 15 to 20)
#    0.000    0.500    5.000    4.125    0.000    4.500 
#    0.000    0.000    0.000    2.250    0.000    0.000 
#    0.000    0.000    0.000    0.000    0.000    0.000 
#
# Total GULP energy -89100.599520 kJ/mol
# GULP energy per Si atom -5568.787470 kJ/mol
# Density = 1.979981 g / cm^3
# Si number density = 19.844980 Si / 1000 Ang^3
#
#
#
# Elastic Constant Matrix: (Units=GPa)
#
#
# Indices 1 2 3 4 5 6 
#
# 1 86.3847 14.4691 35.7184 2.1208 -15.1600 13.3908
# 2 14.4691 96.7383 40.7330 11.8185 -15.1964 4.2799
# 3 35.7184 40.7330 108.9415 -6.6544 -14.9395 8.4478
# 4 2.1208 11.8185 -6.6544 32.2099 1.7678 -5.0372
# 5 -15.1600 -15.1964 -14.9395 1.7678 24.7418 -9.8635
# 6 13.3908 4.2799 8.4478 -5.0372 -9.8635 24.1448
#
#
#
# Elastic Compliance Matrix: (Units=1/GPa)
#
#
# Indices 1 2 3 4 5 6 
#
# 1 0.015096 0.001103 -0.004417 -0.003475 0.005280 -0.005591
# 2 0.001103 0.014236 -0.005167 -0.006729 0.006799 0.000046
# 3 -0.004417 -0.005167 0.013072 0.004874 0.001898 0.000584
# 4 -0.003475 -0.006729 0.004874 0.036126 -0.002786 0.007814
# 5 0.005280 0.006799 0.001898 -0.002786 0.056178 0.017571
# 6 -0.005591 0.000046 0.000584 0.007814 0.017571 0.053113
#
#
# Mechanical properties :
#
#
# Convention : Reuss Voigt Hill
#
# Bulk Modulus (GPa) = 39.30306 52.65617 45.97962
# Shear Modulus (GPa) = 23.44524 29.62891 26.53707
#
# Velocity S-wave (km/s) = 3.44091 3.86815 3.66077
# Velocity P-wave (km/s) = 5.96946 6.82213 6.40999
#
# Compressibility (1/GPa) = 0.02544331
#
# Stress axis : x y z
#
# Youngs Moduli (GPa) = 66.24222 70.24551 76.50028
#
# Poissons Ratio (x) = -0.07749 0.33788
# Poissons Ratio (y) = -0.07307 0.39525
# Poissons Ratio (z) = 0.29257 0.36293
#
# Static dielectric constant tensor:
#      x y z
#    x 1.841490 -0.088080 0.012070 
#    y -0.088080 1.768810 -0.028970 
#    z 0.012070 -0.028970 1.676470 
# 
# From -- ./inp_files/176729.got.cif
#   From: 2010.05.17/outbox.cif.g08.bks.cpg/sg2_89_cif.got.tgz:176729.got - 2010.06.03 11:33:40.
