data_PCOD9056036
_publ_section_title
;
Structure prediction by ZEFSAII (Michael W. Deem and Ramdas Pophale) SiO2 
 PCOD9056036
Probable space group: P -1
;
_chemical_formula_sum "Si O2"
_cell_formula_units_Z 14
_cell_length_a 15.203181
_cell_length_b 5.727484
_cell_length_c 15.150920
_cell_angle_alpha 79.758730
_cell_angle_beta 152.041315
_cell_angle_gamma 111.090827
_cell_volume 546.711177
_symmetry_space_group_name_H-M "P -1"
_symmetry_group_IT_number 2
_symmetry_cell_setting 'triclinic'
loop_
_space_group_symop_operation_xyz
x,y,z
-x,-y,-z
loop_
_atom_site_type_symbol
_atom_site_label
_atom_site_fract_x
_atom_site_fract_y
_atom_site_fract_z
Si Si1 0.451344 0.054812 0.352167
Si Si2 0.114137 0.489872 0.872600
Si Si3 0.045458 0.203265 0.404120
Si Si4 0.026315 0.732597 0.944785
Si Si5 0.226505 0.089738 0.393741
Si Si6 0.517654 0.389378 0.221298
Si Si7 0.592428 0.818091 0.044810
O O1 0.552226 0.304986 0.357322
O O2 0.500000 0.000000 0.500000
O O3 0.208672 0.986536 0.133405
O O4 0.537891 0.864271 0.394216
O O5 0.124682 0.691166 0.944312
O O6 0.325270 0.463188 0.050397
O O7 0.045930 0.589759 0.717753
O O8 0.922999 0.210365 0.748469
O O9 0.125412 0.110903 0.394053
O O10 0.265194 0.374877 0.633294
O O11 0.841892 0.956129 0.274506
O O12 0.000000 0.500000 0.000000
O O13 0.812253 0.732108 0.725621
O O14 0.451170 0.169355 0.100202
O O15 0.500000 0.500000 0.000000
O O16 0.500000 0.000000 0.000000
#
# Coordination Sequence:
#
# PCOD9056036 Si02
#       7
#     2   2   2   2   2   2   2
#     4  12  26  42  69 110 149 201 267 314 382 469
#     4  11  21  45  70 101 149 198 260 312 387 467
#     4  11  25  47  79 113 149 201 256 321 404 482
#     4  11  25  39  63  97 146 208 258 329 387 440
#     4  11  23  43  71 100 149 201 257 320 382 464
#     4  12  25  49  80 110 155 211 254 330 403 464
#     4  12  29  53  84 122 158 201 267 338 407 494
#
# _framework density 25.607671
#
# number of rings (size 3 to 8) (size 9 to 14) (size 15 to 20)
#    0.000    0.571    4.286    3.429    4.000    4.000 
#    0.000    0.000    0.000    0.000    0.000    0.000 
#    0.000    0.000    0.000    0.000    0.000    0.000 
#
# Total GULP energy -78213.404748 kJ/mol
# GULP energy per Si atom -5586.671768 kJ/mol
# Density = 2.554939 g / cm^3
# Si number density = 25.607671 Si / 1000 Ang^3
#
#
#
# Elastic Constant Matrix: (Units=GPa)
#
#
# Indices 1 2 3 4 5 6 
#
# 1 100.7610 29.0699 22.4914 1.8240 -2.4620 -8.2710
# 2 29.0699 85.1246 4.7718 -2.7716 -0.9884 22.2807
# 3 22.4914 4.7718 119.0669 3.5316 12.4974 -2.9943
# 4 1.8240 -2.7716 3.5316 47.3756 -4.3036 11.3936
# 5 -2.4620 -0.9884 12.4974 -4.3036 40.2351 -0.8136
# 6 -8.2710 22.2807 -2.9943 11.3936 -0.8136 55.9322
#
#
#
# Elastic Compliance Matrix: (Units=1/GPa)
#
#
# Indices 1 2 3 4 5 6 
#
# 1 0.012278 -0.005181 -0.002090 -0.001495 0.001196 0.004089
# 2 -0.005181 0.015594 0.000054 0.002948 0.000212 -0.007573
# 3 -0.002090 0.000054 0.009149 -0.000951 -0.003064 0.000309
# 4 -0.001495 0.002948 -0.000951 0.023119 0.002625 -0.006118
# 5 0.001196 0.000212 -0.003064 0.002625 0.026160 -0.000226
# 6 0.004089 -0.007573 0.000309 -0.006118 -0.000226 0.022760
#
#
# Mechanical properties :
#
#
# Convention : Reuss Voigt Hill
#
# Bulk Modulus (GPa) = 44.27438 46.40205 45.33822
# Shear Modulus (GPa) = 38.16153 45.28319 41.72236
#
# Velocity S-wave (km/s) = 3.86455 4.20973 4.04083
# Velocity P-wave (km/s) = 6.10246 6.46443 6.28605
#
# Compressibility (1/GPa) = 0.02258643
#
# Stress axis : x y z
#
# Youngs Moduli (GPa) = 81.44908 64.12621 109.30375
#
# Poissons Ratio (x) = 0.33222 0.22844
# Poissons Ratio (y) = 0.42197 -0.00586
# Poissons Ratio (z) = 0.17022 -0.00344
#
# Static dielectric constant tensor:
#      x y z
#    x 2.063340 0.022030 -0.063290 
#    y 0.022030 2.106870 0.054530 
#    z -0.063290 0.054530 2.032570 
# 
# From -- ./inp_files/97762.got.cif
#   From: 2010.05.17/outbox.cif.g08.bks.cpg/sg2_49_cif.got.tgz:97762.got - 2010.06.03 11:33:40.
