data_PCOD9056088
_publ_section_title
;
Structure prediction by ZEFSAII (Michael W. Deem and Ramdas Pophale) SiO2 
 PCOD9056088
Probable space group: P -1
;
_chemical_formula_sum "Si O2"
_cell_formula_units_Z 16
_cell_length_a 8.080362
_cell_length_b 12.359685
_cell_length_c 8.951940
_cell_angle_alpha 82.581306
_cell_angle_beta 112.220187
_cell_angle_gamma 135.834881
_cell_volume 562.463211
_symmetry_space_group_name_H-M "P -1"
_symmetry_group_IT_number 2
_symmetry_cell_setting 'triclinic'
loop_
_space_group_symop_operation_xyz
x,y,z
-x,-y,-z
loop_
_atom_site_type_symbol
_atom_site_label
_atom_site_fract_x
_atom_site_fract_y
_atom_site_fract_z
Si Si1 0.721060 0.577151 0.223638
Si Si2 0.207146 0.819522 0.939984
Si Si3 0.502861 0.765580 0.368641
Si Si4 0.689882 0.658459 0.638484
Si Si5 0.731649 0.996551 0.835520
Si Si6 0.240171 0.157276 0.855623
Si Si7 0.072876 0.547422 0.801730
Si Si8 0.226318 0.761202 0.540370
O O1 0.469340 0.413784 0.248067
O O2 0.826385 0.531091 0.155409
O O3 0.959386 0.695948 0.405053
O O4 0.341981 0.327345 0.861987
O O5 0.457363 0.913932 0.691371
O O6 0.192984 0.683260 0.939834
O O7 0.500000 0.000000 0.000000
O O8 0.127387 0.839971 0.064374
O O9 0.679825 0.766759 0.529229
O O10 0.659052 0.858906 0.254842
O O11 0.237593 0.584384 0.263644
O O12 0.378678 0.796165 0.435411
O O13 0.500000 0.500000 0.500000
O O14 0.986703 0.757475 0.756497
O O15 0.702761 0.887724 0.968254
O O16 0.928067 0.035834 0.774564
O O17 0.141946 0.624536 0.645803
#
# Coordination Sequence:
#
# PCOD9056088 Si02
#       8
#     2   2   2   2   2   2   2   2
#     4  11  22  44  83 121 151 197 281 345 386 465
#     4  12  26  48  78 108 164 223 254 318 425 498
#     4  11  22  43  83 119 151 201 287 339 384 473
#     4  12  21  41  83 119 153 201 280 336 388 473
#     4  11  29  53  72 106 175 224 261 324 431 490
#     4  11  27  50  73 115 161 220 273 332 404 489
#     4  11  21  45  78 123 154 202 260 344 405 471
#     4  11  22  46  82 117 160 208 259 343 408 474
#
# _framework density 28.446303
#
# number of rings (size 3 to 8) (size 9 to 14) (size 15 to 20)
#    0.000    0.750    6.250    0.750    3.500    1.000 
#    4.500    6.875    0.000    0.000    0.000    0.000 
#    0.000    0.000    0.000    0.250    0.000    0.000 
#
# Total GULP energy -89689.700392 kJ/mol
# GULP energy per Si atom -5605.606274 kJ/mol
# Density = 2.838156 g / cm^3
# Si number density = 28.446303 Si / 1000 Ang^3
#
#
#
# Elastic Constant Matrix: (Units=GPa)
#
#
# Indices 1 2 3 4 5 6 
#
# 1 128.3601 73.0566 71.6868 -2.0669 3.5962 5.9642
# 2 73.0566 137.7493 94.1332 -8.8910 11.0074 8.7852
# 3 71.6868 94.1332 162.9586 23.0944 2.9064 -1.9452
# 4 -2.0669 -8.8910 23.0944 74.9644 6.7625 2.7166
# 5 3.5962 11.0074 2.9064 6.7625 67.8547 0.8797
# 6 5.9642 8.7852 -1.9452 2.7166 0.8797 74.0038
#
#
#
# Elastic Compliance Matrix: (Units=1/GPa)
#
#
# Indices 1 2 3 4 5 6 
#
# 1 0.011844 -0.004254 -0.002863 0.000713 0.000121 -0.000553
# 2 -0.004254 0.015222 -0.007508 0.004276 -0.002325 -0.001791
# 3 -0.002863 -0.007508 0.012434 -0.004977 0.001312 0.001616
# 4 0.000713 0.004276 -0.004977 0.015631 -0.002060 -0.001245
# 5 0.000121 -0.002325 0.001312 -0.002060 0.015255 0.000195
# 6 -0.000553 -0.001791 0.001616 -0.001245 0.000195 0.013856
#
#
# Mechanical properties :
#
#
# Convention : Reuss Voigt Hill
#
# Bulk Modulus (GPa) = 97.54592 100.75791 99.15191
# Shear Modulus (GPa) = 42.76890 56.04402 49.40646
#
# Velocity S-wave (km/s) = 3.88170 4.44347 4.17205
# Velocity P-wave (km/s) = 7.37942 7.86277 7.62493
#
# Compressibility (1/GPa) = 0.01025158
#
# Stress axis : x y z
#
# Youngs Moduli (GPa) = 84.42891 65.69465 80.42408
#
# Poissons Ratio (x) = 0.27943 0.23027
# Poissons Ratio (y) = 0.35912 0.60380
# Poissons Ratio (z) = 0.24174 0.49321
#
# Static dielectric constant tensor:
#      x y z
#    x 2.216070 -0.002560 -0.055480 
#    y -0.002560 2.256840 -0.012500 
#    z -0.055480 -0.012500 2.234640 
# 
# From -- ./inp_files/218038.got.cif
#   From: 2010.05.17/outbox.cif.g08.bks.cpg/sg2_110_cif.got.tgz:218038.got - 2010.06.03 11:33:40.
