data_PCOD9056421
_publ_section_title
;
Structure prediction by ZEFSAII (Michael W. Deem and Ramdas Pophale) SiO2 
 PCOD9056421
Probable space group: P -1
;
_chemical_formula_sum "Si O2"
_cell_formula_units_Z 14
_cell_length_a 18.462840
_cell_length_b 10.829378
_cell_length_c 8.167123
_cell_angle_alpha 108.231393
_cell_angle_beta 131.499082
_cell_angle_gamma 33.571758
_cell_volume 552.077350
_symmetry_space_group_name_H-M "P -1"
_symmetry_group_IT_number 2
_symmetry_cell_setting 'triclinic'
loop_
_space_group_symop_operation_xyz
x,y,z
-x,-y,-z
loop_
_atom_site_type_symbol
_atom_site_label
_atom_site_fract_x
_atom_site_fract_y
_atom_site_fract_z
Si Si1 0.812710 0.631256 0.048880
Si Si2 0.147634 0.104472 0.168086
Si Si3 0.470123 0.189364 0.878261
Si Si4 0.346576 0.767370 0.776125
Si Si5 0.470792 0.213571 0.499338
Si Si6 0.988852 0.321454 0.669737
Si Si7 0.236226 0.745125 0.279310
O O1 0.658239 0.760061 0.732409
O O2 0.641615 0.874663 0.026548
O O3 0.932148 0.624501 0.200382
O O4 0.000926 0.306933 0.187791
O O5 0.304395 0.036762 0.344226
O O6 0.276604 0.818636 0.248856
O O7 0.005331 0.264288 0.861378
O O8 0.488693 0.210213 0.720413
O O9 0.234641 0.431999 0.635609
O O10 0.537222 0.236348 0.100301
O O11 0.276775 0.762476 0.520875
O O12 0.151058 0.042407 0.700845
O O13 0.500000 0.500000 0.000000
O O14 0.348863 0.475509 0.338545
O O15 0.000000 0.000000 0.000000
#
# Coordination Sequence:
#
# PCOD9056421 Si02
#       7
#     2   2   2   2   2   2   2
#     4  11  22  38  69 102 138 170 236 280 328 393
#     4  12  23  39  68 102 134 180 221 279 340 395
#     4  11  22  40  66 102 133 172 227 283 327 391
#     4  11  24  46  68  98 138 180 227 278 334 407
#     4  12  22  40  66 101 136 173 225 283 331 393
#     4  11  23  41  70 104 130 181 231 278 335 396
#     4  12  25  48  67 100 142 176 222 282 345 404
#
# _framework density 25.358765999999999
#
# number of rings (size 3 to 8) (size 9 to 14) (size 15 to 20)
#    0.000    0.571    7.143    2.143    0.000    0.571 
#    5.143    2.857    0.000    5.143    0.000    0.000 
#    0.000    0.000    0.000    0.000    0.000    0.000 
#
# Total GULP energy -78301.394947 kJ/mol
# GULP energy per Si atom -5592.956782 kJ/mol
# Density = 2.530105 g / cm^3
# Si number density = 25.358766 Si / 1000 Ang^3
#
#
#
# Elastic Constant Matrix: (Units=GPa)
#
#
# Indices 1 2 3 4 5 6 
#
# 1 61.0680 31.7586 36.4350 -15.3624 8.4828 -5.2340
# 2 31.7586 130.4336 55.2372 -22.3471 9.0431 4.2796
# 3 36.4350 55.2372 157.5623 -11.5842 27.0588 -7.5402
# 4 -15.3624 -22.3471 -11.5842 51.0807 4.3731 7.1596
# 5 8.4828 9.0431 27.0588 4.3731 46.4468 -13.1440
# 6 -5.2340 4.2796 -7.5402 7.1596 -13.1440 21.5553
#
#
#
# Elastic Compliance Matrix: (Units=1/GPa)
#
#
# Indices 1 2 3 4 5 6 
#
# 1 0.021324 -0.003161 -0.003226 0.004001 -0.001002 0.002737
# 2 -0.003161 0.010637 -0.002621 0.004216 -0.002217 -0.006549
# 3 -0.003226 -0.002621 0.008706 0.000138 -0.003881 0.000370
# 4 0.004001 0.004216 0.000138 0.025102 -0.007618 -0.012800
# 5 -0.001002 -0.002217 -0.003881 -0.007618 0.030830 0.020169
# 6 0.002737 -0.006549 0.000370 -0.012800 0.020169 0.065037
#
#
# Mechanical properties :
#
#
# Convention : Reuss Voigt Hill
#
# Bulk Modulus (GPa) = 44.14631 66.21393 55.18012
# Shear Modulus (GPa) = 26.70915 38.85878 32.78396
#
# Velocity S-wave (km/s) = 3.24890 3.91878 3.59946
# Velocity P-wave (km/s) = 5.61430 6.82960 6.25155
#
# Compressibility (1/GPa) = 0.02265195
#
# Stress axis : x y z
#
# Youngs Moduli (GPa) = 46.89615 94.00952 114.86766
#
# Poissons Ratio (x) = 0.29715 0.37052
# Poissons Ratio (y) = 0.14823 0.30105
# Poissons Ratio (z) = 0.15127 0.24638
#
# Static dielectric constant tensor:
#      x y z
#    x 2.100640 0.037330 -0.016060 
#    y 0.037330 2.026350 -0.007690 
#    z -0.016060 -0.007690 1.983150 
# 
# From -- ./inp_files/346298.got.cif
#   From: 2010.05.17/outbox.cif.g08.bks.cpg/sg2_174_cif.got.tgz:346298.got - 2010.06.03 11:33:40.
