data_PCOD9056833
_publ_section_title
;
Structure prediction by ZEFSAII (Michael W. Deem and Ramdas Pophale) SiO2 
 PCOD9056833
Probable space group: P -1
;
_chemical_formula_sum "Si O2"
_cell_formula_units_Z 16
_cell_length_a 11.598147
_cell_length_b 10.757862
_cell_length_c 11.594933
_cell_angle_alpha 46.913827
_cell_angle_beta 103.165053
_cell_angle_gamma 65.276063
_cell_volume 607.675972
_symmetry_space_group_name_H-M "P -1"
_symmetry_group_IT_number 2
_symmetry_cell_setting 'triclinic'
loop_
_space_group_symop_operation_xyz
x,y,z
-x,-y,-z
loop_
_atom_site_type_symbol
_atom_site_label
_atom_site_fract_x
_atom_site_fract_y
_atom_site_fract_z
Si Si1 0.872070 0.311970 0.942872
Si Si2 0.692084 0.527951 0.526373
Si Si3 0.795522 0.789043 0.337977
Si Si4 0.057546 0.608638 0.704036
Si Si5 0.258918 0.154412 0.363702
Si Si6 0.262012 0.042081 0.178510
Si Si7 0.449885 0.451590 0.132143
Si Si8 0.381198 0.448812 0.761456
O O1 0.808145 0.323798 0.793613
O O2 0.786487 0.602502 0.761627
O O3 0.773805 0.314398 0.019577
O O4 0.105909 0.073714 0.142619
O O5 0.718264 0.702223 0.429183
O O6 0.726734 0.452812 0.447416
O O7 0.463651 0.744407 0.358699
O O8 0.000000 0.500000 0.500000
O O9 0.881655 0.815375 0.438200
O O10 0.598303 0.099653 0.036386
O O11 0.227851 0.549608 0.758084
O O12 0.936661 0.732463 0.717832
O O13 0.166087 0.299215 0.913145
O O14 0.297506 0.092616 0.276594
O O15 0.446557 0.852007 0.661571
O O16 0.566465 0.418892 0.280022
O O17 0.500000 0.500000 0.000000
#
# Coordination Sequence:
#
# PCOD9056833 Si02
#       8
#     2   2   2   2   2   2   2   2
#     4  11  25  47  74 106 140 191 248 298 348 426
#     4  12  23  43  74 102 144 183 246 292 353 427
#     4  12  22  42  71 111 143 183 243 293 362 420
#     4  11  22  40  71 108 143 184 237 307 347 419
#     4  11  24  46  74 104 140 197 251 289 351 426
#     4  11  23  41  74 106 136 186 248 299 346 416
#     4  12  29  48  70 106 152 192 234 301 367 427
#     4  12  28  43  68 109 155 189 231 296 373 426
#
# _framework density 26.329823000000001
#
# number of rings (size 3 to 8) (size 9 to 14) (size 15 to 20)
#    0.000    0.500    6.250    3.750    3.500    1.000 
#    2.250    0.625    0.000    0.000    0.000    0.000 
#    0.000    0.000    0.000    0.000    0.000    0.000 
#
# Total GULP energy -89643.632526 kJ/mol
# GULP energy per Si atom -5602.727033 kJ/mol
# Density = 2.626990 g / cm^3
# Si number density = 26.329823 Si / 1000 Ang^3
#
#
#
# Elastic Constant Matrix: (Units=GPa)
#
#
# Indices 1 2 3 4 5 6 
#
# 1 163.5343 32.3751 34.5674 -14.1412 22.9146 -28.9069
# 2 32.3751 67.7405 8.7298 9.8567 -8.0362 -17.1436
# 3 34.5674 8.7298 80.2203 -0.7366 -5.8032 -6.8947
# 4 -14.1412 9.8567 -0.7366 44.3515 -4.4099 7.0089
# 5 22.9146 -8.0362 -5.8032 -4.4099 41.1013 -6.6024
# 6 -28.9069 -17.1436 -6.8947 7.0089 -6.6024 42.6579
#
#
#
# Elastic Compliance Matrix: (Units=1/GPa)
#
#
# Indices 1 2 3 4 5 6 
#
# 1 0.009296 -0.004443 -0.003702 0.002908 -0.005856 0.002532
# 2 -0.004443 0.020459 0.000787 -0.006428 0.007102 0.007494
# 3 -0.003702 0.000787 0.014359 -0.000836 0.004305 0.000932
# 4 0.002908 -0.006428 -0.000836 0.025591 -0.001073 -0.005119
# 5 -0.005856 0.007102 0.004305 -0.001073 0.030188 0.004431
# 6 0.002532 0.007494 0.000932 -0.005119 0.004431 0.029847
#
#
# Mechanical properties :
#
#
# Convention : Reuss Voigt Hill
#
# Bulk Modulus (GPa) = 34.01505 51.42663 42.72084
# Shear Modulus (GPa) = 32.41374 41.34366 36.87870
#
# Velocity S-wave (km/s) = 3.51246 3.96690 3.74658
# Velocity P-wave (km/s) = 5.42187 6.36835 5.91407
#
# Compressibility (1/GPa) = 0.02939875
#
# Stress axis : x y z
#
# Youngs Moduli (GPa) = 107.56850 48.87883 69.64277
#
# Poissons Ratio (x) = 0.21717 0.25779
# Poissons Ratio (y) = 0.47793 -0.05481
# Poissons Ratio (z) = 0.39818 -0.03847
#
# Static dielectric constant tensor:
#      x y z
#    x 2.013630 -0.012760 -0.013880 
#    y -0.012760 2.068370 0.008130 
#    z -0.013880 0.008130 2.108150 
# 
# From -- ./inp_files/427595.got.cif
#   From: 2010.05.17/outbox.cif.g08.bks.cpg/sg2_214_cif.got.tgz:427595.got - 2010.06.03 11:33:40.
