data_PCOD9056393
_publ_section_title
;
Structure prediction by ZEFSAII (Michael W. Deem and Ramdas Pophale) SiO2 
 PCOD9056393
Probable space group: P -1
;
_chemical_formula_sum "Si O2"
_cell_formula_units_Z 16
_cell_length_a 12.173016
_cell_length_b 14.847922
_cell_length_c 9.124940
_cell_angle_alpha 47.499959
_cell_angle_beta 39.431844
_cell_angle_gamma 70.142775
_cell_volume 711.527036
_symmetry_space_group_name_H-M "P -1"
_symmetry_group_IT_number 2
_symmetry_cell_setting 'triclinic'
loop_
_space_group_symop_operation_xyz
x,y,z
-x,-y,-z
loop_
_atom_site_type_symbol
_atom_site_label
_atom_site_fract_x
_atom_site_fract_y
_atom_site_fract_z
Si Si1 0.447077 0.516033 0.206889
Si Si2 0.901846 0.111728 0.141476
Si Si3 0.876427 0.067436 0.870946
Si Si4 0.811795 0.467840 0.145206
Si Si5 0.504534 0.025419 0.793777
Si Si6 0.982210 0.573058 0.292575
Si Si7 0.255466 0.279441 0.124644
Si Si8 0.456085 0.272149 0.660997
O O1 0.232791 0.501220 0.454021
O O2 0.449278 0.392257 0.438046
O O3 0.500000 0.500000 0.000000
O O4 0.590255 0.653973 0.979815
O O5 0.703053 0.037153 0.510598
O O6 0.860053 0.077617 0.050932
O O7 0.060618 0.056862 0.086270
O O8 0.973610 0.270275 0.913076
O O9 0.058216 0.192093 0.494418
O O10 0.688464 0.064582 0.989141
O O11 0.636621 0.337631 0.509430
O O12 0.755181 0.591119 0.080894
O O13 0.000000 0.500000 0.000000
O O14 0.866669 0.445536 0.949566
O O15 0.493116 0.168894 0.633239
O O16 0.500000 0.000000 0.000000
O O17 0.000000 0.500000 0.500000
O O18 0.296675 0.208213 0.017596
#
# Coordination Sequence:
#
# PCOD9056393 Si02
#       8
#     2   2   2   2   2   2   2   2
#     4  11  23  41  68 101 137 183 230 284 354 417
#     4  11  25  50  71 102 142 186 239 295 354 418
#     4  11  26  48  73  99 142 191 238 290 353 424
#     4  11  22  38  65  96 134 175 217 283 343 403
#     4  12  27  45  73 105 141 189 242 291 350 420
#     4  12  23  42  68 103 135 173 226 288 350 412
#     4  11  24  44  66 100 139 181 232 276 352 420
#     4  11  23  44  64  98 139 178 230 286 347 415
#
# _framework density 22.486844999999999
#
# number of rings (size 3 to 8) (size 9 to 14) (size 15 to 20)
#    0.000    0.750    1.250    7.875    1.750    4.000 
#    6.750    0.000    0.000    0.000    0.000    0.000 
#    0.000    0.000    0.000    0.000    0.000    0.000 
#
# Total GULP energy -89415.850299 kJ/mol
# GULP energy per Si atom -5588.490644 kJ/mol
# Density = 2.243566 g / cm^3
# Si number density = 22.486845 Si / 1000 Ang^3
#
#
#
# Elastic Constant Matrix: (Units=GPa)
#
#
# Indices 1 2 3 4 5 6 
#
# 1 95.1673 -23.7932 23.4420 5.4380 -12.5973 4.1496
# 2 -23.7932 33.4871 -1.7769 13.8408 9.7445 6.8337
# 3 23.4420 -1.7769 113.7903 19.7930 0.8641 11.5015
# 4 5.4380 13.8408 19.7930 44.1878 9.5343 1.7717
# 5 -12.5973 9.7445 0.8641 9.5343 36.9184 11.2377
# 6 4.1496 6.8337 11.5015 1.7717 11.2377 21.6817
#
#
#
# Elastic Compliance Matrix: (Units=1/GPa)
#
#
# Indices 1 2 3 4 5 6 
#
# 1 0.016036 0.014408 -0.000886 -0.007105 0.006555 -0.009957
# 2 0.014408 0.051626 0.003196 -0.019063 0.002342 -0.020380
# 3 -0.000886 0.003196 0.010771 -0.005932 0.002352 -0.007286
# 4 -0.007105 -0.019063 -0.005932 0.033751 -0.009892 0.012884
# 5 0.006555 0.002342 0.002352 -0.009892 0.037929 -0.022091
# 6 -0.009957 -0.020380 -0.007286 0.012884 -0.022091 0.068713
#
#
# Mechanical properties :
#
#
# Convention : Reuss Voigt Hill
#
# Bulk Modulus (GPa) = 8.93906 26.46537 17.70222
# Shear Modulus (GPa) = 22.45376 36.86244 29.65810
#
# Velocity S-wave (km/s) = 3.16338 4.05321 3.63562
# Velocity P-wave (km/s) = 4.16251 5.80512 5.05104
#
# Compressibility (1/GPa) = 0.11186854
#
# Stress axis : x y z
#
# Youngs Moduli (GPa) = 62.35917 19.37019 92.84259
#
# Poissons Ratio (x) = -0.27908 0.08227
# Poissons Ratio (y) = -0.89846 -0.29674
# Poissons Ratio (z) = 0.05526 -0.06191
#
# Static dielectric constant tensor:
#      x y z
#    x 1.743450 -0.116320 -0.024530 
#    y -0.116320 1.736130 -0.065630 
#    z -0.024530 -0.065630 1.781650 
# 
# From -- ./inp_files/271731.got.cif
#   From: 2010.05.17/outbox.cif.g08.bks.cpg/sg2_136_cif.got.tgz:271731.got - 2010.06.03 11:33:40.
