data_PCOD9056272
_publ_section_title
;
Structure prediction by ZEFSAII (Michael W. Deem and Ramdas Pophale) SiO2 
 PCOD9056272
Probable space group: P -1
;
_chemical_formula_sum "Si O2"
_cell_formula_units_Z 16
_cell_length_a 11.340844
_cell_length_b 26.454128
_cell_length_c 26.229228
_cell_angle_alpha 10.816126
_cell_angle_beta 30.800497
_cell_angle_gamma 30.939499
_cell_volume 748.056358
_symmetry_space_group_name_H-M "P -1"
_symmetry_group_IT_number 2
_symmetry_cell_setting 'triclinic'
loop_
_space_group_symop_operation_xyz
x,y,z
-x,-y,-z
loop_
_atom_site_type_symbol
_atom_site_label
_atom_site_fract_x
_atom_site_fract_y
_atom_site_fract_z
Si Si1 0.107847 0.077218 0.662486
Si Si2 0.884167 0.381335 0.808670
Si Si3 0.062628 0.809799 0.498853
Si Si4 0.668629 0.725136 0.017602
Si Si5 0.604388 0.385473 0.222218
Si Si6 0.438048 0.321995 0.152158
Si Si7 0.219297 0.153029 0.260562
Si Si8 0.883652 0.277123 0.793820
O O1 0.104086 0.332542 0.449740
O O2 0.970536 0.186228 0.554230
O O3 0.351048 0.908721 0.716209
O O4 0.020861 0.849982 0.956663
O O5 0.605492 0.410700 0.876972
O O6 0.953401 0.312728 0.792446
O O7 0.799328 0.806460 0.622525
O O8 0.210751 0.051688 0.216906
O O9 0.210939 0.552689 0.726174
O O10 0.736106 0.792072 0.868732
O O11 0.392128 0.710827 0.128477
O O12 0.601807 0.088975 0.539291
O O13 0.584963 0.433777 0.122362
O O14 0.807870 0.561957 0.982937
O O15 0.500000 0.500000 0.000000
O O16 0.000000 0.000000 0.500000
O O17 0.000000 0.500000 0.500000
O O18 0.000000 0.000000 0.000000
#
# Coordination Sequence:
#
# PCOD9056272 Si02
#       8
#     2   2   2   2   2   2   2   2
#     4  11  24  41  70 101 141 196 234 287 332 403
#     4  11  23  44  71  99 134 171 236 290 355 420
#     4  12  24  42  67 100 149 192 238 283 344 409
#     4  12  26  44  69 102 145 182 234 294 360 435
#     4  11  22  37  59  86 134 176 225 280 321 386
#     4  11  23  41  63 103 144 201 258 281 318 400
#     4  12  23  38  58  91 135 187 220 258 340 410
#     4  12  27  49  80 106 132 175 236 309 378 435
#
# _framework density 21.388763999999998
#
# number of rings (size 3 to 8) (size 9 to 14) (size 15 to 20)
#    0.000    0.500    1.250    9.000    1.750    3.000 
#    0.000    0.000    0.000   15.000    0.000    0.000 
#    0.000    0.000    0.000    0.000    0.000    0.000 
#
# Total GULP energy -89146.253536 kJ/mol
# GULP energy per Si atom -5571.640846 kJ/mol
# Density = 2.134008 g / cm^3
# Si number density = 21.388764 Si / 1000 Ang^3
#
#
#
# Elastic Constant Matrix: (Units=GPa)
#
#
# Indices 1 2 3 4 5 6 
#
# 1 164.5138 61.1429 49.7564 -5.0571 12.8512 33.5298
# 2 61.1429 91.4103 43.2262 11.6545 1.9691 17.7825
# 3 49.7564 43.2262 150.6873 -3.2352 -3.5433 13.1587
# 4 -5.0571 11.6545 -3.2352 30.7669 3.9263 -2.4928
# 5 12.8512 1.9691 -3.5433 3.9263 52.3017 0.8870
# 6 33.5298 17.7825 13.1587 -2.4928 0.8870 39.3462
#
#
#
# Elastic Compliance Matrix: (Units=1/GPa)
#
#
# Indices 1 2 3 4 5 6 
#
# 1 0.009799 -0.005327 -0.001233 0.003386 -0.002456 -0.005261
# 2 -0.005327 0.017603 -0.003189 -0.008254 0.001099 -0.002897
# 3 -0.001233 -0.003189 0.008024 0.001734 0.000838 -0.000100
# 4 0.003386 -0.008254 0.001734 0.036997 -0.003227 0.002682
# 5 -0.002456 0.001099 0.000838 -0.003227 0.019970 0.000661
# 6 -0.005261 -0.002897 -0.000100 0.002682 0.000661 0.031397
#
#
# Mechanical properties :
#
#
# Convention : Reuss Voigt Hill
#
# Bulk Modulus (GPa) = 62.78210 79.42916 71.10563
# Shear Modulus (GPa) = 33.64783 41.31533 37.48158
#
# Velocity S-wave (km/s) = 3.97060 4.39981 4.19070
# Velocity P-wave (km/s) = 7.10194 7.93899 7.53210
#
# Compressibility (1/GPa) = 0.01592811
#
# Stress axis : x y z
#
# Youngs Moduli (GPa) = 102.04617 56.80810 124.62591
#
# Poissons Ratio (x) = 0.30261 0.15370
# Poissons Ratio (y) = 0.54358 0.39744
# Poissons Ratio (z) = 0.12586 0.18117
#
# Static dielectric constant tensor:
#      x y z
#    x 1.972440 -0.129550 0.011480 
#    y -0.129550 1.859920 0.012410 
#    z 0.011480 0.012410 1.806800 
# 
# From -- ./inp_files/618844.got.cif
#   From: 2010.05.17/outbox.cif.g08.bks.cpg/sg2_310_cif.got.tgz:618844.got - 2010.06.03 11:33:40.
