data_PCOD9056500
_publ_section_title
;
Structure prediction by ZEFSAII (Michael W. Deem and Ramdas Pophale) SiO2 
 PCOD9056500
Probable space group: P -1
;
_chemical_formula_sum "Si O2"
_cell_formula_units_Z 16
_cell_length_a 8.953484
_cell_length_b 15.224195
_cell_length_c 15.916161
_cell_angle_alpha 45.341514
_cell_angle_beta 108.956402
_cell_angle_gamma 142.139114
_cell_volume 804.926177
_symmetry_space_group_name_H-M "P -1"
_symmetry_group_IT_number 2
_symmetry_cell_setting 'triclinic'
loop_
_space_group_symop_operation_xyz
x,y,z
-x,-y,-z
loop_
_atom_site_type_symbol
_atom_site_label
_atom_site_fract_x
_atom_site_fract_y
_atom_site_fract_z
Si Si1 0.147608 0.724362 0.349788
Si Si2 0.168682 0.175163 0.189660
Si Si3 0.817959 0.187186 0.180511
Si Si4 0.819410 0.242843 0.866762
Si Si5 0.660988 0.576506 0.109868
Si Si6 0.323902 0.237371 0.873253
Si Si7 0.150247 0.571081 0.110443
Si Si8 0.779371 0.718088 0.352890
O O1 0.160895 0.736082 0.243203
O O2 0.000000 0.500000 0.500000
O O3 0.960450 0.718713 0.351999
O O4 0.478273 0.946274 0.291530
O O5 0.431439 0.331639 0.196396
O O6 0.980139 0.168316 0.193190
O O7 0.306884 0.300305 0.040211
O O8 0.979794 0.932805 0.303491
O O9 0.965794 0.344841 0.183527
O O10 0.859138 0.315996 0.027749
O O11 0.928161 0.435936 0.805613
O O12 0.028331 0.274380 0.917925
O O13 0.500000 0.000000 0.000000
O O14 0.567523 0.572916 0.183030
O O15 0.524821 0.261631 0.929251
O O16 0.320518 0.263415 0.756979
O O17 0.000000 0.000000 0.000000
O O18 0.500000 0.500000 0.500000
#
# Coordination Sequence:
#
# PCOD9056500 Si02
#       8
#     2   2   2   2   2   2   2   2
#     4  12  27  46  68  94 133 174 219 271 330 392
#     4  11  23  40  66  97 139 170 214 268 330 385
#     4  11  23  42  62 101 137 171 213 268 330 386
#     4  12  23  42  68 102 130 171 221 274 320 388
#     4  11  22  39  65 101 133 169 216 272 326 380
#     4  12  22  41  67 100 129 169 226 269 318 387
#     4  11  24  37  69 100 135 169 213 272 329 380
#     4  12  28  45  68  95 131 177 219 270 330 391
#
# _framework density 19.877600000000001
#
# number of rings (size 3 to 8) (size 9 to 14) (size 15 to 20)
#    0.000    0.500    6.250    2.250    5.250    0.000 
#    0.000    2.500    0.000    0.000    0.000    0.000 
#    0.000    0.000    0.000    0.000    0.000    0.000 
#
# Total GULP energy -89425.051420 kJ/mol
# GULP energy per Si atom -5589.065714 kJ/mol
# Density = 1.983236 g / cm^3
# Si number density = 19.877600 Si / 1000 Ang^3
#
#
#
# Elastic Constant Matrix: (Units=GPa)
#
#
# Indices 1 2 3 4 5 6 
#
# 1 106.4944 49.1322 21.7744 -4.1290 -5.7505 -9.1484
# 2 49.1322 151.0688 55.4954 -15.4340 -1.2019 -9.4606
# 3 21.7744 55.4954 103.2234 -13.1009 -8.2596 -10.7270
# 4 -4.1290 -15.4340 -13.1009 27.2662 -3.9868 3.5735
# 5 -5.7505 -1.2019 -8.2596 -3.9868 25.2354 -2.6224
# 6 -9.1484 -9.4606 -10.7270 3.5735 -2.6224 44.5391
#
#
#
# Elastic Compliance Matrix: (Units=1/GPa)
#
#
# Indices 1 2 3 4 5 6 
#
# 1 0.011319 -0.003523 -0.000141 -0.000205 0.002510 0.001707
# 2 -0.003523 0.009557 -0.004154 0.002691 -0.001281 0.000014
# 3 -0.000141 -0.004154 0.013134 0.004380 0.004989 0.002194
# 4 -0.000205 0.002691 0.004380 0.041603 0.007954 -0.001285
# 5 0.002510 -0.001281 0.004989 0.007954 0.043376 0.003361
# 6 0.001707 0.000014 0.002194 -0.001285 0.003361 0.023635
#
#
# Mechanical properties :
#
#
# Convention : Reuss Voigt Hill
#
# Bulk Modulus (GPa) = 54.43026 68.17674 61.30350
# Shear Modulus (GPa) = 30.41600 35.03379 32.72489
#
# Velocity S-wave (km/s) = 3.91598 4.20274 4.06189
# Velocity P-wave (km/s) = 6.92016 7.61074 7.27365
#
# Compressibility (1/GPa) = 0.01837213
#
# Stress axis : x y z
#
# Youngs Moduli (GPa) = 88.34835 104.63321 76.13821
#
# Poissons Ratio (x) = 0.36867 0.01075
# Poissons Ratio (y) = 0.31129 0.31631
# Poissons Ratio (z) = 0.01247 0.43468
#
# Static dielectric constant tensor:
#      x y z
#    x -2.046130 0.013600 -7.814260 
#    y 0.013600 1.720870 0.084120 
#    z -7.814260 0.084120 -14.279700 
# 
# From -- ./inp_files/207779.got.cif
#   From: 2010.05.17/outbox.cif.g08.bks.cpg/sg2_104_cif.got.tgz:207779.got - 2010.06.03 11:33:40.
