data_PCOD9056430
_publ_section_title
;
Structure prediction by ZEFSAII (Michael W. Deem and Ramdas Pophale) SiO2 
 PCOD9056430
Probable space group: P -1
;
_chemical_formula_sum "Si O2"
_cell_formula_units_Z 16
_cell_length_a 18.013029
_cell_length_b 20.366929
_cell_length_c 11.957656
_cell_angle_alpha 21.743359
_cell_angle_beta 31.974673
_cell_angle_gamma 30.165261
_cell_volume 792.164025
_symmetry_space_group_name_H-M "P -1"
_symmetry_group_IT_number 2
_symmetry_cell_setting 'triclinic'
loop_
_space_group_symop_operation_xyz
x,y,z
-x,-y,-z
loop_
_atom_site_type_symbol
_atom_site_label
_atom_site_fract_x
_atom_site_fract_y
_atom_site_fract_z
Si Si1 0.878685 0.912843 0.261999
Si Si2 0.755662 0.753423 0.130950
Si Si3 0.461100 0.672321 0.688605
Si Si4 0.340532 0.541288 0.832890
Si Si5 0.614809 0.129219 0.865789
Si Si6 0.033500 0.471714 0.369754
Si Si7 0.707993 0.879821 0.743918
Si Si8 0.402521 0.877560 0.852103
O O1 0.941392 0.742610 0.361329
O O2 0.824520 0.832039 0.568536
O O3 0.730562 0.077921 0.137141
O O4 0.000000 0.000000 0.000000
O O5 0.618790 0.678644 0.432578
O O6 0.897972 0.615890 0.238315
O O7 0.780532 0.786213 0.917201
O O8 0.692484 0.961257 0.942961
O O9 0.369334 0.628318 0.774911
O O10 0.366399 0.886568 0.518214
O O11 0.500000 0.500000 0.000000
O O12 0.340526 0.692961 0.499720
O O13 0.187634 0.503269 0.096302
O O14 0.483057 0.342731 0.944310
O O15 0.433717 0.180541 0.006119
O O16 0.661601 0.058840 0.042863
O O17 0.000000 0.500000 0.500000
O O18 0.500000 0.000000 0.500000
#
# Coordination Sequence:
#
# PCOD9056430 Si02
#       8
#     2   2   2   2   2   2   2   2
#     4  12  29  45  69 103 140 182 230 282 349 413
#     4  11  24  43  70  98 143 183 219 292 347 405
#     4  11  22  38  71 103 129 180 233 279 336 406
#     4  12  24  42  70 101 131 179 234 276 346 406
#     4  11  22  44  71 102 136 177 234 279 343 416
#     4  12  28  46  67 104 144 180 230 287 346 412
#     4  11  22  46  68 101 143 173 233 289 336 414
#     4  12  24  45  70  98 135 181 225 292 340 401
#
# _framework density 20.197838999999998
#
# number of rings (size 3 to 8) (size 9 to 14) (size 15 to 20)
#    0.000    0.500    5.000    3.375    7.000    2.000 
#    0.000    0.000    0.000    0.000    0.000    0.000 
#    0.000    0.000    0.000    0.000    0.000    0.000 
#
# Total GULP energy -89546.907625 kJ/mol
# GULP energy per Si atom -5596.681727 kJ/mol
# Density = 2.015187 g / cm^3
# Si number density = 20.197839 Si / 1000 Ang^3
#
#
#
# Elastic Constant Matrix: (Units=GPa)
#
#
# Indices 1 2 3 4 5 6 
#
# 1 130.0133 35.7864 50.3537 17.2154 5.4859 -6.2188
# 2 35.7864 65.1746 23.4998 5.6395 -5.7752 -1.9702
# 3 50.3537 23.4998 98.0173 -3.1455 -0.0440 -0.5402
# 4 17.2154 5.6395 -3.1455 24.8146 2.0172 2.8212
# 5 5.4859 -5.7752 -0.0440 2.0172 53.8357 6.0421
# 6 -6.2188 -1.9702 -0.5402 2.8212 6.0421 43.2740
#
#
#
# Elastic Compliance Matrix: (Units=1/GPa)
#
#
# Indices 1 2 3 4 5 6 
#
# 1 0.012268 -0.004069 -0.005585 -0.008421 -0.001632 0.002285
# 2 -0.004069 0.018873 -0.002497 -0.001989 0.002509 0.000023
# 3 -0.005585 -0.002497 0.013866 0.006318 0.000209 -0.001184
# 4 -0.008421 -0.001989 0.006318 0.047932 -0.000669 -0.004253
# 5 -0.001632 0.002509 0.000209 -0.000669 0.019347 -0.002775
# 6 0.002285 0.000023 -0.001184 -0.004253 -0.002775 0.024088
#
#
# Mechanical properties :
#
#
# Convention : Reuss Voigt Hill
#
# Bulk Modulus (GPa) = 48.29764 56.94278 52.62021
# Shear Modulus (GPa) = 29.83665 36.62254 33.22960
#
# Velocity S-wave (km/s) = 3.84763 4.26278 4.06051
# Velocity P-wave (km/s) = 6.61084 7.24445 6.93489
#
# Compressibility (1/GPa) = 0.02070494
#
# Stress axis : x y z
#
# Youngs Moduli (GPa) = 81.51367 52.98510 72.11656
#
# Poissons Ratio (x) = 0.21561 0.40278
# Poissons Ratio (y) = 0.33169 0.18008
# Poissons Ratio (z) = 0.45526 0.13231
#
# Static dielectric constant tensor:
#      x y z
#    x 1.710750 0.013060 0.023810 
#    y 0.013060 1.717950 -0.015350 
#    z 0.023810 -0.015350 1.710550 
# 
# From -- ./inp_files/223457.got.cif
#   From: 2010.05.17/outbox.cif.g08.bks.cpg/sg2_112_cif.got.tgz:223457.got - 2010.06.03 11:33:40.
