data_PCOD9056979
_publ_section_title
;
Structure prediction by ZEFSAII (Michael W. Deem and Ramdas Pophale) SiO2 
 PCOD9056979
Probable space group: P -1
;
_chemical_formula_sum "Si O2"
_cell_formula_units_Z 12
_cell_length_a 6.704616
_cell_length_b 13.699699
_cell_length_c 16.633724
_cell_angle_alpha 23.723383
_cell_angle_beta 100.735096
_cell_angle_gamma 108.794135
_cell_volume 557.713227
_symmetry_space_group_name_H-M "P -1"
_symmetry_group_IT_number 2
_symmetry_cell_setting 'triclinic'
loop_
_space_group_symop_operation_xyz
x,y,z
-x,-y,-z
loop_
_atom_site_type_symbol
_atom_site_label
_atom_site_fract_x
_atom_site_fract_y
_atom_site_fract_z
Si Si1 0.917868 0.031912 0.059218
Si Si2 0.981705 0.793836 0.404997
Si Si3 0.005166 0.211942 0.222850
Si Si4 0.646067 0.847812 0.595232
Si Si5 0.516408 0.366807 0.685530
Si Si6 0.287898 0.545132 0.679101
O O1 0.652346 0.937768 0.110699
O O2 0.980696 0.860411 0.260375
O O3 0.072239 0.328898 0.865925
O O4 0.000000 0.000000 0.000000
O O5 0.201764 0.764610 0.475175
O O6 0.775373 0.513053 0.613792
O O7 0.956176 0.030970 0.275427
O O8 0.237205 0.237544 0.259246
O O9 0.827064 0.040115 0.403836
O O10 0.000000 0.500000 0.000000
O O11 0.480022 0.616530 0.704185
O O12 0.500000 0.000000 0.500000
O O13 0.500000 0.500000 0.500000
O O14 0.385338 0.453712 0.678141
#
# Coordination Sequence:
#
# PCOD9056979 Si02
#       6
#     2   2   2   2   2   2
#     4   9  22  39  62  95 127 163 217 260 316 389
#     4  11  22  41  67  92 130 174 211 266 329 383
#     4  11  26  43  67  97 131 172 222 268 326 396
#     4  11  24  44  66  97 132 169 217 277 327 386
#     4   9  20  41  61  91 131 165 212 262 319 382
#     4  11  22  41  67  94 130 169 213 265 329 387
#
# _framework density 21.516434
#
# number of rings (size 3 to 8) (size 9 to 14) (size 15 to 20)
#    0.000    1.667    3.333    0.000    2.333    8.667 
#    0.000    3.333    0.000    0.000    0.000    0.000 
#    0.000    0.000    0.000    0.000    0.000    0.000 
#
# Total GULP energy -66889.671105 kJ/mol
# GULP energy per Si atom -5574.139259 kJ/mol
# Density = 2.146746 g / cm^3
# Si number density = 21.516434 Si / 1000 Ang^3
#
#
#
# Elastic Constant Matrix: (Units=GPa)
#
#
# Indices 1 2 3 4 5 6 
#
# 1 83.6865 24.9858 24.8187 7.4749 -3.0598 32.9480
# 2 24.9858 93.1490 29.3529 3.5849 -17.0278 23.0723
# 3 24.8187 29.3529 94.6701 3.5294 -14.4025 23.0550
# 4 7.4749 3.5849 3.5294 26.8590 1.9284 -6.9727
# 5 -3.0598 -17.0278 -14.4025 1.9284 27.0746 0.2026
# 6 32.9480 23.0723 23.0550 -6.9727 0.2026 40.6024
#
#
#
# Elastic Compliance Matrix: (Units=1/GPa)
#
#
# Indices 1 2 3 4 5 6 
#
# 1 0.020177 0.000116 0.000020 -0.010615 0.003256 -0.018289
# 2 0.000116 0.015171 -0.000880 -0.004992 0.009510 -0.009120
# 3 0.000020 -0.000880 0.014148 -0.004443 0.007354 -0.008349
# 4 -0.010615 -0.004992 -0.004443 0.047953 -0.010284 0.022259
# 5 0.003256 0.009510 0.007354 -0.010284 0.048035 -0.014228
# 6 -0.018289 -0.009120 -0.008349 0.022259 -0.014228 0.053287
#
#
# Mechanical properties :
#
#
# Convention : Reuss Voigt Hill
#
# Bulk Modulus (GPa) = 20.83067 47.75783 34.29425
# Shear Modulus (GPa) = 23.11993 31.73041 27.42517
#
# Velocity S-wave (km/s) = 3.28155 3.84436 3.57405
# Velocity P-wave (km/s) = 4.90514 6.47685 5.74500
#
# Compressibility (1/GPa) = 0.04800614
#
# Stress axis : x y z
#
# Youngs Moduli (GPa) = 49.56205 65.91365 70.67896
#
# Poissons Ratio (x) = -0.00761 -0.00139
# Poissons Ratio (y) = -0.00572 0.06223
# Poissons Ratio (z) = -0.00098 0.05803
#
# Static dielectric constant tensor:
#      x y z
#    x 1.786670 0.056940 -0.017050 
#    y 0.056940 1.764370 -0.039240 
#    z -0.017050 -0.039240 1.806450 
# 
# From -- ./inp_files/8289.got.cif
#   From: 2010.05.17/outbox.cif.g08.bks.cpg/sg2_5_cif.got.tgz:8289.got - 2010.06.03 11:33:40.
