data_PCOD9056584
_publ_section_title
;
Structure prediction by ZEFSAII (Michael W. Deem and Ramdas Pophale) SiO2 
 PCOD9056584
Probable space group: P -1
;
_chemical_formula_sum "Si O2"
_cell_formula_units_Z 14
_cell_length_a 24.482573
_cell_length_b 8.871941
_cell_length_c 18.055408
_cell_angle_alpha 38.957718
_cell_angle_beta 161.393118
_cell_angle_gamma 150.232166
_cell_volume 595.606301
_symmetry_space_group_name_H-M "P -1"
_symmetry_group_IT_number 2
_symmetry_cell_setting 'triclinic'
loop_
_space_group_symop_operation_xyz
x,y,z
-x,-y,-z
loop_
_atom_site_type_symbol
_atom_site_label
_atom_site_fract_x
_atom_site_fract_y
_atom_site_fract_z
Si Si1 0.845368 0.165675 0.888432
Si Si2 0.740701 0.707110 0.189968
Si Si3 0.075509 0.409284 0.395844
Si Si4 0.096877 0.919699 0.292582
Si Si5 0.325974 0.095699 0.647432
Si Si6 0.392475 0.663715 0.578275
Si Si7 0.226985 0.547223 0.821709
O O1 0.710682 0.185744 0.644669
O O2 0.655144 0.902114 0.802776
O O3 0.000000 0.500000 0.000000
O O4 0.997775 0.087295 0.084304
O O5 0.893376 0.668681 0.451950
O O6 0.715674 0.569046 0.129868
O O7 0.500000 0.500000 0.000000
O O8 0.875102 0.081234 0.223614
O O9 0.041740 0.661814 0.263449
O O10 0.308427 0.576859 0.587229
O O11 0.990329 0.751855 0.300411
O O12 0.344604 0.117104 0.572022
O O13 0.281874 0.331164 0.524279
O O14 0.214636 0.800904 0.674755
O O15 0.584417 0.284942 0.936360
#
# Coordination Sequence:
#
# PCOD9056584 Si02
#       7
#     2   2   2   2   2   2   2
#     4  11  25  45  75  96 124 182 238 283 336 396
#     4  11  25  41  65 100 145 186 220 267 341 410
#     4  11  27  42  65 103 142 175 222 281 343 403
#     4  12  24  43  68 102 137 177 227 282 333 405
#     4  11  22  39  69  96 135 173 226 269 335 400
#     4  11  24  46  70  98 134 175 232 284 334 407
#     4  11  24  39  65 102 138 182 218 274 334 409
#
# _framework density 23.505461
#
# number of rings (size 3 to 8) (size 9 to 14) (size 15 to 20)
#    0.000    0.857    4.286    2.143    8.000    0.571 
#    0.000    0.714    0.000    0.000    0.000    0.000 
#    0.000    0.000    0.000    0.000    0.000    0.000 
#
# Total GULP energy -78194.429320 kJ/mol
# GULP energy per Si atom -5585.316380 kJ/mol
# Density = 2.345196 g / cm^3
# Si number density = 23.505461 Si / 1000 Ang^3
#
#
#
# Elastic Constant Matrix: (Units=GPa)
#
#
# Indices 1 2 3 4 5 6 
#
# 1 71.8025 28.4417 -6.6449 11.9196 14.4754 -4.2332
# 2 28.4417 132.9286 16.4101 -11.6802 13.6532 -25.9208
# 3 -6.6449 16.4101 49.4507 -19.4275 -5.5116 -1.3262
# 4 11.9196 -11.6802 -19.4275 32.1203 6.4432 -0.8112
# 5 14.4754 13.6532 -5.5116 6.4432 25.8673 -10.5344
# 6 -4.2332 -25.9208 -1.3262 -0.8112 -10.5344 28.2746
#
#
#
# Elastic Compliance Matrix: (Units=1/GPa)
#
#
# Indices 1 2 3 4 5 6 
#
# 1 0.018236 -0.004631 0.000314 -0.006796 -0.007888 -0.004635
# 2 -0.004631 0.011124 -0.002307 0.004856 -0.001294 0.009053
# 3 0.000314 -0.002307 0.027290 0.014864 0.003545 0.000959
# 4 -0.006796 0.004856 0.014864 0.045617 -0.005588 0.003359
# 5 -0.007888 -0.001294 0.003545 -0.005588 0.052980 0.017378
# 6 -0.004635 0.009053 0.000959 0.003359 0.017378 0.049589
#
#
# Mechanical properties :
#
#
# Convention : Reuss Voigt Hill
#
# Bulk Modulus (GPa) = 23.04125 36.73286 29.88705
# Shear Modulus (GPa) = 21.50057 31.65075 26.57566
#
# Velocity S-wave (km/s) = 3.02769 3.67349 3.36611
# Velocity P-wave (km/s) = 4.69535 5.80120 5.27732
#
# Compressibility (1/GPa) = 0.04340043
#
# Stress axis : x y z
#
# Youngs Moduli (GPa) = 54.83711 89.89960 36.64303
#
# Poissons Ratio (x) = 0.41635 -0.01150
# Poissons Ratio (y) = 0.25396 0.08454
# Poissons Ratio (z) = -0.01721 0.20742
#
# Static dielectric constant tensor:
#      x y z
#    x 1.872990 -0.010080 -0.054740 
#    y -0.010080 1.942130 0.094050 
#    z -0.054740 0.094050 2.101540 
# 
# From -- ./inp_files/579052.got.cif
#   From: 2010.05.17/outbox.cif.g08.bks.cpg/sg2_290_cif.got.tgz:579052.got - 2010.06.03 11:33:40.
