data_PCOD9056599
_publ_section_title
;
Structure prediction by ZEFSAII (Michael W. Deem and Ramdas Pophale) SiO2 
 PCOD9056599
Probable space group: P -1
;
_chemical_formula_sum "Si O2"
_cell_formula_units_Z 14
_cell_length_a 9.951107
_cell_length_b 13.548488
_cell_length_c 8.958837
_cell_angle_alpha 51.249974
_cell_angle_beta 135.392191
_cell_angle_gamma 119.574173
_cell_volume 658.970327
_symmetry_space_group_name_H-M "P -1"
_symmetry_group_IT_number 2
_symmetry_cell_setting 'triclinic'
loop_
_space_group_symop_operation_xyz
x,y,z
-x,-y,-z
loop_
_atom_site_type_symbol
_atom_site_label
_atom_site_fract_x
_atom_site_fract_y
_atom_site_fract_z
Si Si1 0.356000 0.627523 0.701730
Si Si2 0.770963 0.760369 0.833499
Si Si3 0.905747 0.389358 0.926242
Si Si4 0.668783 0.025056 0.486156
Si Si5 0.746684 0.584003 0.396559
Si Si6 0.969991 0.213056 0.704751
Si Si7 0.615714 0.273266 0.038254
O O1 0.569482 0.677150 0.774421
O O2 0.296352 0.486917 0.729024
O O3 0.205925 0.718993 0.426904
O O4 0.337437 0.648259 0.844851
O O5 0.719903 0.890295 0.591706
O O6 0.927050 0.682189 0.950793
O O7 0.866587 0.803898 0.027821
O O8 0.780226 0.467920 0.640634
O O9 0.774378 0.295590 0.016260
O O10 0.000000 0.500000 0.000000
O O11 0.862698 0.092896 0.651320
O O12 0.597979 0.127735 0.217112
O O13 0.500000 0.000000 0.500000
O O14 0.930779 0.683484 0.429095
O O15 0.574850 0.667094 0.225210
#
# Coordination Sequence:
#
# PCOD9056599 Si02
#       7
#     2   2   2   2   2   2   2
#     4  11  22  41  73 101 137 177 236 285 336 402
#     4  12  24  43  72 101 139 188 226 287 336 409
#     4  12  27  43  65 103 149 180 225 282 358 411
#     4  11  22  45  71 100 135 177 241 288 330 404
#     4  12  23  43  70 102 141 181 232 286 344 412
#     4  11  22  39  71 106 130 176 237 286 338 397
#     4  11  24  41  67 103 136 181 225 287 339 404
#
# _framework density 21.245263999999999
#
# number of rings (size 3 to 8) (size 9 to 14) (size 15 to 20)
#    0.000    0.571    5.714    4.286    2.000    0.571 
#    0.000    0.000    0.000    5.143    0.000    0.000 
#    0.000    0.000    0.000    0.000    0.000    0.000 
#
# Total GULP energy -78239.832709 kJ/mol
# GULP energy per Si atom -5588.559479 kJ/mol
# Density = 2.119691 g / cm^3
# Si number density = 21.245264 Si / 1000 Ang^3
#
#
#
# Elastic Constant Matrix: (Units=GPa)
#
#
# Indices 1 2 3 4 5 6 
#
# 1 99.9566 10.2100 29.1580 0.9123 6.9375 30.2364
# 2 10.2100 70.8389 2.5586 0.3278 -2.7741 21.3521
# 3 29.1580 2.5586 89.4789 -18.8059 9.1456 9.1607
# 4 0.9123 0.3278 -18.8059 35.0521 8.4464 3.6998
# 5 6.9375 -2.7741 9.1456 8.4464 35.8905 -3.6770
# 6 30.2364 21.3521 9.1607 3.6998 -3.6770 37.2771
#
#
#
# Elastic Compliance Matrix: (Units=1/GPa)
#
#
# Indices 1 2 3 4 5 6 
#
# 1 0.014765 0.001601 -0.003290 -0.000101 -0.003137 -0.012385
# 2 0.001601 0.017319 0.000538 0.001458 -0.000635 -0.011558
# 3 -0.003290 0.000538 0.015228 0.009972 -0.005852 -0.002949
# 4 -0.000101 0.001458 0.009972 0.037643 -0.012101 -0.008133
# 5 -0.003137 -0.000635 -0.005852 -0.012101 0.033667 0.008868
# 6 -0.012385 -0.011558 -0.002949 -0.008133 0.008868 0.045899
#
#
# Mechanical properties :
#
#
# Convention : Reuss Voigt Hill
#
# Bulk Modulus (GPa) = 22.21725 38.23639 30.22682
# Shear Modulus (GPa) = 27.49870 36.20046 31.84958
#
# Velocity S-wave (km/s) = 3.60160 4.13235 3.87607
# Velocity P-wave (km/s) = 5.27026 6.38789 5.85580
#
# Compressibility (1/GPa) = 0.04501007
#
# Stress axis : x y z
#
# Youngs Moduli (GPa) = 67.72562 57.74146 65.66675
#
# Poissons Ratio (x) = -0.09246 0.21605
# Poissons Ratio (y) = -0.10845 -0.03530
# Poissons Ratio (z) = 0.22282 -0.03104
#
# Static dielectric constant tensor:
#      x y z
#    x 1.760690 -0.005230 -0.014260 
#    y -0.005230 1.767530 0.020550 
#    z -0.014260 0.020550 1.883640 
# 
# From -- ./inp_files/199955.got.cif
#   From: 2010.05.17/outbox.cif.g08.bks.cpg/sg2_100_cif.got.tgz:199955.got - 2010.06.03 11:33:40.
