data_PCOD9056746
_publ_section_title
;
Structure prediction by ZEFSAII (Michael W. Deem and Ramdas Pophale) SiO2 
 PCOD9056746
Probable space group: P -1
;
_chemical_formula_sum "Si O2"
_cell_formula_units_Z 15
_cell_length_a 11.933778
_cell_length_b 17.654602
_cell_length_c 11.341157
_cell_angle_alpha 148.283760
_cell_angle_beta 149.767342
_cell_angle_gamma 37.622480
_cell_volume 617.602929
_symmetry_space_group_name_H-M "P -1"
_symmetry_group_IT_number 2
_symmetry_cell_setting 'triclinic'
loop_
_space_group_symop_operation_xyz
x,y,z
-x,-y,-z
loop_
_atom_site_type_symbol
_atom_site_label
_atom_site_fract_x
_atom_site_fract_y
_atom_site_fract_z
Si Si1 0.656998 0.492831 0.248420
Si Si2 0.954960 0.010340 0.174405
Si Si3 0.775861 0.062582 0.454150
Si Si4 0.189291 0.260694 0.662709
Si Si5 0.590415 0.373629 0.576987
Si Si6 0.000000 0.500000 0.000000
Si Si7 0.509290 0.815343 0.945241
Si Si8 0.873964 0.721026 0.626532
O O1 0.534669 0.511866 0.288639
O O2 0.779530 0.631654 0.524926
O O3 0.858056 0.348524 0.235884
O O4 0.500000 0.500000 0.000000
O O5 0.140108 0.921162 0.315068
O O6 0.757002 0.118246 0.209797
O O7 0.838480 0.892615 0.849433
O O8 0.075007 0.119192 0.355089
O O9 0.649967 0.217506 0.492836
O O10 0.000000 0.000000 0.500000
O O11 0.632071 0.935778 0.160134
O O12 0.235273 0.307720 0.635787
O O13 0.026591 0.383040 0.755977
O O14 0.405058 0.211534 0.879363
O O15 0.432510 0.338579 0.277979
O O16 0.815745 0.415988 0.787761
#
# Coordination Sequence:
#
# PCOD9056746 Si02
#       8
#     2   2   2   2   2   1   2   2
#     4  11  26  48  71 108 139 196 245 293 364 432
#     4  11  23  45  70 106 142 186 241 297 363 428
#     4  11  22  40  68 107 145 179 236 300 359 427
#     4  11  26  45  68 107 145 189 240 298 360 435
#     4  12  24  45  76 105 148 188 241 305 364 436
#     4  12  26  48  70 106 150 188 242 300 368 432
#     4  11  24  43  71 111 138 187 242 294 375 427
#     4  11  26  47  74 102 149 192 241 296 358 436
#
# _framework density 24.287448000000001
#
# number of rings (size 3 to 8) (size 9 to 14) (size 15 to 20)
#    0.000    0.800    2.667    4.000    3.733    5.333 
#    0.000    0.000    0.000    0.000    0.000    0.000 
#    0.000    0.000    0.000    0.000    0.000    0.000 
#
# Total GULP energy -83777.697325 kJ/mol
# GULP energy per Si atom -5585.179822 kJ/mol
# Density = 2.423217 g / cm^3
# Si number density = 24.287448 Si / 1000 Ang^3
#
#
#
# Elastic Constant Matrix: (Units=GPa)
#
#
# Indices 1 2 3 4 5 6 
#
# 1 106.5340 1.5406 32.6332 13.0444 6.7749 6.4747
# 2 1.5406 65.6629 8.3706 8.9971 -2.3619 9.7722
# 3 32.6332 8.3706 103.8790 17.5495 -1.5506 -0.4946
# 4 13.0444 8.9971 17.5495 37.0169 0.3839 -6.9254
# 5 6.7749 -2.3619 -1.5506 0.3839 39.1782 6.5569
# 6 6.4747 9.7722 -0.4946 -6.9254 6.5569 29.5718
#
#
#
# Elastic Compliance Matrix: (Units=1/GPa)
#
#
# Indices 1 2 3 4 5 6 
#
# 1 0.010982 0.001010 -0.003013 -0.003281 -0.001381 -0.003251
# 2 0.001010 0.017317 -0.000757 -0.005683 0.002196 -0.007774
# 3 -0.003013 -0.000757 0.011352 -0.004164 0.000981 -0.000093
# 4 -0.003281 -0.005683 -0.004164 0.033578 -0.002085 0.010853
# 5 -0.001381 0.002196 0.000981 -0.002085 0.027111 -0.006906
# 6 -0.003251 -0.007774 -0.000093 0.010853 -0.006906 0.041168
#
#
# Mechanical properties :
#
#
# Convention : Reuss Voigt Hill
#
# Bulk Modulus (GPa) = 29.29892 40.12940 34.71416
# Shear Modulus (GPa) = 31.56469 36.72213 34.14341
#
# Velocity S-wave (km/s) = 3.60895 3.89264 3.75347
# Velocity P-wave (km/s) = 5.42730 6.06317 5.75403
#
# Compressibility (1/GPa) = 0.03413095
#
# Stress axis : x y z
#
# Youngs Moduli (GPa) = 91.05636 57.74744 88.09194
#
# Poissons Ratio (x) = -0.05833 0.26544
# Poissons Ratio (y) = -0.09198 0.06667
# Poissons Ratio (z) = 0.27437 0.04370
#
# Static dielectric constant tensor:
#      x y z
#    x 1.930030 0.005750 -0.012810 
#    y 0.005750 1.948700 -0.046960 
#    z -0.012810 -0.046960 1.949530 
# 
# From -- ./inp_files/67674.got.cif
#   From: 2010.05.17/outbox.cif.g08.bks.cpg/sg2_34_cif.got.tgz:67674.got - 2010.06.03 11:33:40.
