data_PCOD9056123
_publ_section_title
;
Structure prediction by ZEFSAII (Michael W. Deem and Ramdas Pophale) SiO2 
 PCOD9056123
Probable space group: P -1
;
_chemical_formula_sum "Si O2"
_cell_formula_units_Z 14
_cell_length_a 9.619864
_cell_length_b 14.037958
_cell_length_c 9.796726
_cell_angle_alpha 51.834603
_cell_angle_beta 134.504961
_cell_angle_gamma 127.625840
_cell_volume 703.755428
_symmetry_space_group_name_H-M "P -1"
_symmetry_group_IT_number 2
_symmetry_cell_setting 'triclinic'
loop_
_space_group_symop_operation_xyz
x,y,z
-x,-y,-z
loop_
_atom_site_type_symbol
_atom_site_label
_atom_site_fract_x
_atom_site_fract_y
_atom_site_fract_z
Si Si1 0.524124 0.143812 0.136473
Si Si2 0.178628 0.444651 0.717743
Si Si3 0.214148 0.895161 0.257132
Si Si4 0.848638 0.791726 0.289508
Si Si5 0.040622 0.863103 0.644002
Si Si6 0.445436 0.717167 0.701688
Si Si7 0.092624 0.238901 0.063378
O O1 0.718242 0.117421 0.227115
O O2 0.598547 0.261242 0.189547
O O3 0.396649 0.024698 0.247304
O O4 0.355914 0.168189 0.898508
O O5 0.190275 0.337313 0.712010
O O6 0.378301 0.567934 0.753517
O O7 0.000000 0.500000 0.500000
O O8 0.124639 0.373608 0.889207
O O9 0.313755 0.786559 0.462863
O O10 0.043826 0.891290 0.258108
O O11 0.086752 0.857904 0.063031
O O12 0.919231 0.788458 0.495176
O O13 0.966033 0.782832 0.800854
O O14 0.000000 0.000000 0.500000
O O15 0.686678 0.780589 0.786846
#
# Coordination Sequence:
#
# PCOD9056123 Si02
#       7
#     2   2   2   2   2   2   2
#     4  12  24  40  71 100 134 177 222 273 340 391
#     4  11  21  46  72  96 131 173 233 278 315 393
#     4  11  22  40  69 101 129 170 230 276 319 396
#     4  11  24  42  67  98 137 171 224 276 328 393
#     4  12  27  45  63 101 146 174 213 275 345 401
#     4  12  22  41  75  98 126 177 226 275 329 389
#     4  11  25  41  68 100 130 176 221 275 333 385
#
# _framework density 19.893276
#
# number of rings (size 3 to 8) (size 9 to 14) (size 15 to 20)
#    0.000    0.571    7.143    3.000    2.000    3.429 
#    0.000    3.571    0.000    0.000    0.000    0.000 
#    0.000    0.000    0.000    0.000    0.000    0.000 
#
# Total GULP energy -78253.101000 kJ/mol
# GULP energy per Si atom -5589.507214 kJ/mol
# Density = 1.984800 g / cm^3
# Si number density = 19.893276 Si / 1000 Ang^3
#
#
#
# Elastic Constant Matrix: (Units=GPa)
#
#
# Indices 1 2 3 4 5 6 
#
# 1 135.3498 32.2289 83.1529 -0.0272 9.8665 -4.9269
# 2 32.2289 76.3777 40.5344 -13.3934 -3.5674 8.9753
# 3 83.1529 40.5344 168.6662 1.1220 2.0654 -3.2669
# 4 -0.0272 -13.3934 1.1220 16.7451 -8.8224 0.7145
# 5 9.8665 -3.5674 2.0654 -8.8224 54.7299 3.3255
# 6 -4.9269 8.9753 -3.2669 0.7145 3.3255 11.9462
#
#
#
# Elastic Compliance Matrix: (Units=1/GPa)
#
#
# Indices 1 2 3 4 5 6 
#
# 1 0.011868 -0.004937 -0.004407 -0.006012 -0.003800 0.008816
# 2 -0.004937 0.025815 -0.004570 0.026649 0.008662 -0.026686
# 3 -0.004407 -0.004570 0.009337 -0.004990 -0.000948 0.004732
# 4 -0.006012 0.026649 -0.004990 0.093506 0.020214 -0.035085
# 5 -0.003800 0.008662 -0.000948 0.020214 0.023798 -0.016168
# 6 0.008816 -0.026686 0.004732 -0.035085 -0.016168 0.115288
#
#
# Mechanical properties :
#
#
# Convention : Reuss Voigt Hill
#
# Bulk Modulus (GPa) = 52.10786 76.91402 64.51094
# Shear Modulus (GPa) = 15.93184 31.64940 23.79062
#
# Velocity S-wave (km/s) = 2.83303 3.99301 3.46195
# Velocity P-wave (km/s) = 6.07881 7.74636 6.96269
#
# Compressibility (1/GPa) = 0.01919096
#
# Stress axis : x y z
#
# Youngs Moduli (GPa) = 84.25929 38.73682 107.10612
#
# Poissons Ratio (x) = 0.19123 0.47205
# Poissons Ratio (y) = 0.41596 0.48953
# Poissons Ratio (z) = 0.37136 0.17705
#
# Static dielectric constant tensor:
#      x y z
#    x 1.675420 -0.000960 0.014610 
#    y -0.000960 1.738720 0.006660 
#    z 0.014610 0.006660 1.718260 
# 
# From -- ./inp_files/178546.got.cif
#   From: 2010.05.17/outbox.cif.g08.bks.cpg/sg2_90_cif.got.tgz:178546.got - 2010.06.03 11:33:40.
