data_PCOD9056087
_publ_section_title
;
Structure prediction by ZEFSAII (Michael W. Deem and Ramdas Pophale) SiO2 
 PCOD9056087
Probable space group: P -1
;
_chemical_formula_sum "Si O2"
_cell_formula_units_Z 14
_cell_length_a 10.684768
_cell_length_b 20.504804
_cell_length_c 11.547526
_cell_angle_alpha 24.893699
_cell_angle_beta 137.736946
_cell_angle_gamma 148.003945
_cell_volume 559.406053
_symmetry_space_group_name_H-M "P -1"
_symmetry_group_IT_number 2
_symmetry_cell_setting 'triclinic'
loop_
_space_group_symop_operation_xyz
x,y,z
-x,-y,-z
loop_
_atom_site_type_symbol
_atom_site_label
_atom_site_fract_x
_atom_site_fract_y
_atom_site_fract_z
Si Si1 0.707915 0.687692 0.267739
Si Si2 0.257313 0.645783 0.496660
Si Si3 0.989410 0.210395 0.278144
Si Si4 0.189967 0.918640 0.375046
Si Si5 0.755490 0.975329 0.271490
Si Si6 0.318816 0.679822 0.734105
Si Si7 0.244254 0.317456 0.950699
O O1 0.500000 0.500000 0.500000
O O2 0.720001 0.615815 0.265397
O O3 0.683271 0.858051 0.943962
O O4 0.945598 0.790689 0.339135
O O5 0.478932 0.830047 0.281771
O O6 0.259892 0.721067 0.502575
O O7 0.309704 0.491402 0.798881
O O8 0.000000 0.500000 0.500000
O O9 0.173796 0.169602 0.434428
O O10 0.120576 0.444073 0.000597
O O11 0.886372 0.120496 0.479499
O O12 0.801890 0.094684 0.230167
O O13 0.683602 0.178471 0.408461
O O14 0.963989 0.137974 0.065993
O O15 0.571368 0.723854 0.832362
#
# Coordination Sequence:
#
# PCOD9056087 Si02
#       7
#     2   2   2   2   2   2   2
#     4  11  26  49  73 108 151 209 254 313 383 453
#     4  12  27  47  73 111 157 202 252 316 383 464
#     4  11  21  45  78 115 153 202 255 319 378 453
#     4  11  26  47  73 111 159 200 256 315 385 456
#     4  11  24  45  77 110 147 200 253 312 386 444
#     4  12  24  46  74 117 154 201 258 318 380 452
#     4  12  24  49  80 107 155 200 258 321 377 451
#
# _framework density 25.026543
#
# number of rings (size 3 to 8) (size 9 to 14) (size 15 to 20)
#    0.000    0.571    4.286    4.286    0.000    1.143 
#    5.143    0.000    0.000    0.000    0.000    0.000 
#    0.000    0.000    0.000    0.000    0.000    0.000 
#
# Total GULP energy -78366.769463 kJ/mol
# GULP energy per Si atom -5597.626390 kJ/mol
# Density = 2.496958 g / cm^3
# Si number density = 25.026543 Si / 1000 Ang^3
#
#
#
# Elastic Constant Matrix: (Units=GPa)
#
#
# Indices 1 2 3 4 5 6 
#
# 1 139.1522 60.0853 57.0199 -5.3200 -2.6428 -14.1888
# 2 60.0853 150.0272 52.8499 -11.7290 -24.0245 15.5272
# 3 57.0199 52.8499 150.3747 -30.1647 -15.5787 16.4541
# 4 -5.3200 -11.7290 -30.1647 54.7359 -7.2514 -5.8496
# 5 -2.6428 -24.0245 -15.5787 -7.2514 55.9445 -2.7946
# 6 -14.1888 15.5272 16.4541 -5.8496 -2.7946 41.7847
#
#
#
# Elastic Compliance Matrix: (Units=1/GPa)
#
#
# Indices 1 2 3 4 5 6 
#
# 1 0.011263 -0.004263 -0.004070 -0.001661 -0.002317 0.006624
# 2 -0.004263 0.009772 -0.000682 0.001334 0.003760 -0.004372
# 3 -0.004070 -0.000682 0.010188 0.004987 0.002786 -0.004256
# 4 -0.001661 0.001334 0.004987 0.021805 0.004727 0.000345
# 5 -0.002317 0.003760 0.002786 0.004727 0.020707 -0.001234
# 6 0.006624 -0.004372 -0.004256 0.000345 -0.001234 0.029448
#
#
# Mechanical properties :
#
#
# Convention : Reuss Voigt Hill
#
# Bulk Modulus (GPa) = 75.80930 86.60713 81.20822
# Shear Modulus (GPa) = 39.80492 48.46629 44.13560
#
# Velocity S-wave (km/s) = 3.99244 4.40545 4.20402
# Velocity P-wave (km/s) = 7.18402 7.78194 7.48895
#
# Compressibility (1/GPa) = 0.01319099
#
# Stress axis : x y z
#
# Youngs Moduli (GPa) = 88.78484 102.33173 98.15526
#
# Poissons Ratio (x) = 0.43628 0.39954
# Poissons Ratio (y) = 0.37852 0.06697
# Poissons Ratio (z) = 0.36140 0.06982
#
# Static dielectric constant tensor:
#      x y z
#    x 1.972880 0.049600 0.058480 
#    y 0.049600 1.987990 0.023940 
#    z 0.058480 0.023940 2.044070 
# 
# From -- ./inp_files/254409.got.cif
#   From: 2010.05.17/outbox.cif.g08.bks.cpg/sg2_128_cif.got.tgz:254409.got - 2010.06.03 11:33:40.
