data_PCOD9056897
_publ_section_title
;
Structure prediction by ZEFSAII (Michael W. Deem and Ramdas Pophale) SiO2 
 PCOD9056897
Probable space group: P -1
;
_chemical_formula_sum "Si O2"
_cell_formula_units_Z 16
_cell_length_a 11.739138
_cell_length_b 15.057326
_cell_length_c 9.380869
_cell_angle_alpha 114.566437
_cell_angle_beta 74.678172
_cell_angle_gamma 148.572897
_cell_volume 771.867253
_symmetry_space_group_name_H-M "P -1"
_symmetry_group_IT_number 2
_symmetry_cell_setting 'triclinic'
loop_
_space_group_symop_operation_xyz
x,y,z
-x,-y,-z
loop_
_atom_site_type_symbol
_atom_site_label
_atom_site_fract_x
_atom_site_fract_y
_atom_site_fract_z
Si Si1 0.654994 0.223273 0.688796
Si Si2 0.196105 0.876674 0.469659
Si Si3 0.411073 0.840914 0.999565
Si Si4 0.971133 0.614477 0.890008
Si Si5 0.993771 0.789660 0.774179
Si Si6 0.463480 0.453628 0.312394
Si Si7 0.754726 0.912242 0.889402
Si Si8 0.065156 0.230964 0.782601
O O1 0.825737 0.255747 0.619738
O O2 0.763421 0.404680 0.774020
O O3 0.455754 0.077473 0.545320
O O4 0.570299 0.144078 0.825304
O O5 0.070762 0.831596 0.616297
O O6 0.101895 0.858751 0.348312
O O7 0.554228 0.850658 0.902188
O O8 0.151535 0.665260 0.927093
O O9 0.500000 0.000000 0.000000
O O10 0.057336 0.739080 0.812029
O O11 0.912966 0.655986 0.053280
O O12 0.727760 0.613646 0.739677
O O13 0.117106 0.967505 0.927076
O O14 0.500000 0.500000 0.500000
O O15 0.358324 0.271798 0.206821
O O16 0.696510 0.627401 0.268554
O O17 0.941977 0.064073 0.808779
#
# Coordination Sequence:
#
# PCOD9056897 Si02
#       8
#     2   2   2   2   2   2   2   2
#     4  11  23  37  66 100 135 176 216 268 339 404
#     4  11  22  41  63  97 142 171 212 277 338 395
#     4  12  19  40  68 100 134 169 214 271 335 397
#     4  11  24  40  69  99 131 175 225 272 325 411
#     4  11  24  47  63  95 135 176 224 273 333 387
#     4  12  27  46  71  96 134 177 228 284 327 386
#     4  11  25  44  73  98 133 180 220 274 337 395
#     4  11  24  45  68 100 130 173 229 273 332 397
#
# _framework density 20.728952
#
# number of rings (size 3 to 8) (size 9 to 14) (size 15 to 20)
#    0.000    0.750    6.250    1.500    1.750    5.000 
#    2.250    0.000    0.000    0.000    0.000    0.000 
#    0.000    0.000    0.000    0.000    0.000    0.000 
#
# Total GULP energy -89434.906420 kJ/mol
# GULP energy per Si atom -5589.681651 kJ/mol
# Density = 2.068177 g / cm^3
# Si number density = 20.728952 Si / 1000 Ang^3
#
#
#
# Elastic Constant Matrix: (Units=GPa)
#
#
# Indices 1 2 3 4 5 6 
#
# 1 50.5922 18.5605 1.0055 5.1420 9.3648 10.9001
# 2 18.5605 43.4017 8.2597 4.0227 -23.7359 -1.4072
# 3 1.0055 8.2597 71.4299 4.5751 -2.9908 -20.7028
# 4 5.1420 4.0227 4.5751 23.2513 11.4744 -1.5624
# 5 9.3648 -23.7359 -2.9908 11.4744 17.1856 5.0829
# 6 10.9001 -1.4072 -20.7028 -1.5624 5.0829 35.4630
#
#
#
# Elastic Compliance Matrix: (Units=1/GPa)
#
#
# Indices 1 2 3 4 5 6 
#
# 1 0.011267 0.017470 -0.002102 -0.023850 0.036591 -0.010292
# 2 0.017470 -0.025018 -0.001223 0.035030 -0.068962 0.004351
# 3 -0.002102 -0.001223 0.017426 -0.002600 0.001121 0.010495
# 4 -0.023850 0.035030 -0.002600 0.019278 0.047695 0.001216
# 5 0.036591 -0.068962 0.001121 0.047695 -0.089104 0.001544
# 6 -0.010292 0.004351 0.010495 0.001216 0.001544 0.037494
#
#
# Mechanical properties :
#
#
# Convention : Reuss Voigt Hill
#
# Bulk Modulus (GPa) = 31.28470 24.56392 27.92431
# Shear Modulus (GPa) = -108.01036 24.35318 -41.82859
#
# Velocity S-wave (km/s) = -7.22628 3.43131 -4.49696
# Velocity P-wave (km/s) = 7.38245 5.25112 3.66921
#
# Compressibility (1/GPa) = 0.03196450
#
# Stress axis : x y z
#
# Youngs Moduli (GPa) = 88.75578 -39.97116 57.38487
#
# Poissons Ratio (x) = 0.69829 0.12063
# Poissons Ratio (y) = -1.55055 0.07018
# Poissons Ratio (z) = 0.18658 -0.04889
#
# Static dielectric constant tensor:
#      x y z
#    x 1.778910 0.048340 0.001680 
#    y 0.048340 1.754340 0.010550 
#    z 0.001680 0.010550 1.720560 
# 
# From -- ./inp_files/187938.got.cif
#   From: 2010.05.17/outbox.cif.g08.bks.cpg/sg2_94_cif.got.tgz:187938.got - 2010.06.03 11:33:40.
