data_PCOD9056595
_publ_section_title
;
Structure prediction by ZEFSAII (Michael W. Deem and Ramdas Pophale) SiO2 
 PCOD9056595
Probable space group: P -1
;
_chemical_formula_sum "Si O2"
_cell_formula_units_Z 15
_cell_length_a 11.407585
_cell_length_b 9.086879
_cell_length_c 8.488907
_cell_angle_alpha 74.078269
_cell_angle_beta 65.331162
_cell_angle_gamma 59.795250
_cell_volume 688.756784
_symmetry_space_group_name_H-M "P -1"
_symmetry_group_IT_number 2
_symmetry_cell_setting 'triclinic'
loop_
_space_group_symop_operation_xyz
x,y,z
-x,-y,-z
loop_
_atom_site_type_symbol
_atom_site_label
_atom_site_fract_x
_atom_site_fract_y
_atom_site_fract_z
Si Si1 0.489746 0.274802 0.183032
Si Si2 0.930632 0.136963 0.863034
Si Si3 0.213998 0.394637 0.497311
Si Si4 0.696116 0.440987 0.052814
Si Si5 0.500000 0.000000 0.000000
Si Si6 0.025904 0.247401 0.488036
Si Si7 0.163513 0.377341 0.889862
Si Si8 0.783697 0.951274 0.835220
O O1 0.379171 0.304313 0.379832
O O2 0.616104 0.321450 0.159884
O O3 0.528707 0.104809 0.107699
O O4 0.396121 0.420951 0.065574
O O5 0.035503 0.134733 0.667302
O O6 0.809773 0.095501 0.864028
O O7 0.852690 0.322123 0.928526
O O8 0.000000 0.000000 0.000000
O O9 0.128776 0.338299 0.433380
O O10 0.179528 0.347995 0.703392
O O11 0.136261 0.601913 0.477848
O O12 0.729984 0.539729 0.145805
O O13 0.371902 0.980581 0.174570
O O14 0.084251 0.137007 0.332829
O O15 0.212449 0.201514 0.010269
O O16 0.000000 0.500000 0.000000
#
# Coordination Sequence:
#
# PCOD9056595 Si02
#       8
#     2   2   2   2   1   2   2   2
#     4  11  23  44  71  93 130 179 226 270 321 410
#     4  12  25  41  64 101 137 168 215 281 339 386
#     4  11  22  39  70  99 127 172 224 277 329 389
#     4  11  23  42  67  96 130 179 222 266 333 394
#     4  12  22  44  68  92 130 178 220 262 330 398
#     4  11  22  41  65  99 131 168 228 271 327 404
#     4  12  23  41  69  99 133 171 219 283 334 385
#     4  12  24  43  67  95 132 177 219 270 337 393
#
# _framework density 21.778372000000001
#
# number of rings (size 3 to 8) (size 9 to 14) (size 15 to 20)
#    0.000    0.533    6.667    2.800    0.000    0.533 
#    0.000    2.000    0.000    0.000    0.000    0.000 
#    0.000    0.000    0.000    0.000    0.000    0.000 
#
# Total GULP energy -83537.669281 kJ/mol
# GULP energy per Si atom -5569.177952 kJ/mol
# Density = 2.172880 g / cm^3
# Si number density = 21.778372 Si / 1000 Ang^3
#
#
#
# Elastic Constant Matrix: (Units=GPa)
#
#
# Indices 1 2 3 4 5 6 
#
# 1 58.0030 6.4135 2.4021 -3.9503 -13.6851 15.9666
# 2 6.4135 56.3134 25.8736 9.8279 -1.4193 10.0389
# 3 2.4021 25.8736 106.7011 7.0211 -9.7365 -4.4554
# 4 -3.9503 9.8279 7.0211 28.7232 -2.5542 -4.9446
# 5 -13.6851 -1.4193 -9.7365 -2.5542 31.3515 -0.3462
# 6 15.9666 10.0389 -4.4554 -4.9446 -0.3462 18.7222
#
#
#
# Elastic Compliance Matrix: (Units=1/GPa)
#
#
# Indices 1 2 3 4 5 6 
#
# 1 0.026051 0.001898 -0.001033 0.000154 0.010892 -0.023238
# 2 0.001898 0.025908 -0.006564 -0.010519 -0.001114 -0.019871
# 3 -0.001033 -0.006564 0.011514 0.000831 0.002977 0.007415
# 4 0.000154 -0.010519 0.000831 0.041411 0.003407 0.016706
# 5 0.010892 -0.001114 0.002977 0.003407 0.037732 -0.006386
# 6 -0.023238 -0.019871 0.007415 0.016706 -0.006386 0.089944
#
#
# Mechanical properties :
#
#
# Convention : Reuss Voigt Hill
#
# Bulk Modulus (GPa) = 19.20380 32.26621 25.73501
# Shear Modulus (GPa) = 19.13394 28.18126 23.65760
#
# Velocity S-wave (km/s) = 2.96729 3.60113 3.29946
# Velocity P-wave (km/s) = 4.53616 5.66910 5.13398
#
# Compressibility (1/GPa) = 0.05207301
#
# Stress axis : x y z
#
# Youngs Moduli (GPa) = 38.38690 38.59859 86.85392
#
# Poissons Ratio (x) = -0.07326 0.08974
# Poissons Ratio (y) = -0.07286 0.57013
# Poissons Ratio (z) = 0.03966 0.25337
#
# Static dielectric constant tensor:
#      x y z
#    x 1.906280 -0.090360 -0.008290 
#    y -0.090360 1.869090 -0.007040 
#    z -0.008290 -0.007040 1.792270 
# 
# From -- ./inp_files/174837.got.cif
#   From: 2010.05.17/outbox.cif.g08.bks.cpg/sg2_88_cif.got.tgz:174837.got - 2010.06.03 11:33:40.
