data_PCOD9056136
_publ_section_title
;
Structure prediction by ZEFSAII (Michael W. Deem and Ramdas Pophale) SiO2 
 PCOD9056136
Probable space group: P -1
;
_chemical_formula_sum "Si O2"
_cell_formula_units_Z 16
_cell_length_a 16.338681
_cell_length_b 8.521271
_cell_length_c 11.511792
_cell_angle_alpha 90.524157
_cell_angle_beta 123.131360
_cell_angle_gamma 43.687945
_cell_volume 690.348629
_symmetry_space_group_name_H-M "P -1"
_symmetry_group_IT_number 2
_symmetry_cell_setting 'triclinic'
loop_
_space_group_symop_operation_xyz
x,y,z
-x,-y,-z
loop_
_atom_site_type_symbol
_atom_site_label
_atom_site_fract_x
_atom_site_fract_y
_atom_site_fract_z
Si Si1 0.401878 0.320474 0.071933
Si Si2 0.417067 0.257451 0.716515
Si Si3 0.924682 0.422714 0.257421
Si Si4 0.502922 0.810833 0.483614
Si Si5 0.979767 0.850020 0.442393
Si Si6 0.682125 0.061336 0.104366
Si Si7 0.211369 0.762736 0.133080
Si Si8 0.112929 0.216230 0.161139
O O1 0.292417 0.586688 0.074673
O O2 0.479143 0.054830 0.191106
O O3 0.569674 0.176317 0.135463
O O4 0.252508 0.452331 0.866201
O O5 0.455737 0.271039 0.619706
O O6 0.192664 0.527873 0.556461
O O7 0.522127 0.237769 0.884382
O O8 0.845176 0.706874 0.208140
O O9 0.053966 0.204540 0.466181
O O10 0.997840 0.303180 0.181324
O O11 0.653350 0.505196 0.669992
O O12 0.500000 0.000000 0.500000
O O13 0.294192 0.044977 0.358721
O O14 0.806011 0.048371 0.221465
O O15 0.000000 0.000000 0.500000
O O16 0.195556 0.970190 0.138261
O O17 0.000000 0.000000 0.000000
O O18 0.000000 0.500000 0.000000
#
# Coordination Sequence:
#
# PCOD9056136 Si02
#       8
#     2   2   2   2   2   2   2   2
#     4  11  21  46  76 106 148 197 257 316 384 458
#     4  11  24  49  72 112 154 194 259 315 382 468
#     4  11  23  47  75 107 147 194 254 313 384 469
#     4  12  27  47  75 110 156 203 253 317 386 466
#     4  12  28  44  72 116 153 197 251 317 387 465
#     4  11  24  46  79 104 143 206 246 311 389 451
#     4  12  26  47  74 108 149 204 254 322 387 453
#     4  12  27  49  73 113 151 203 261 314 392 468
#
# _framework density 23.176694000000001
#
# number of rings (size 3 to 8) (size 9 to 14) (size 15 to 20)
#    0.000    0.500    5.000    3.750    5.250    1.500 
#    6.750    0.000    0.000    0.000    0.000    0.000 
#    0.000    0.000    0.000    0.000    0.000    0.000 
#
# Total GULP energy -89467.885531 kJ/mol
# GULP energy per Si atom -5591.742846 kJ/mol
# Density = 2.312394 g / cm^3
# Si number density = 23.176694 Si / 1000 Ang^3
#
#
#
# Elastic Constant Matrix: (Units=GPa)
#
#
# Indices 1 2 3 4 5 6 
#
# 1 63.0790 10.5808 43.0316 4.3444 10.2459 2.1177
# 2 10.5808 110.7591 13.8009 3.0758 5.9447 18.8503
# 3 43.0316 13.8009 127.3678 -5.8137 10.2377 10.0529
# 4 4.3444 3.0758 -5.8137 35.4823 6.7481 -0.7771
# 5 10.2459 5.9447 10.2377 6.7481 49.7455 8.9696
# 6 2.1177 18.8503 10.0529 -0.7771 8.9696 39.3800
#
#
#
# Elastic Compliance Matrix: (Units=1/GPa)
#
#
# Indices 1 2 3 4 5 6 
#
# 1 0.021591 -0.001240 -0.007232 -0.003165 -0.002712 0.001834
# 2 -0.001240 0.010005 -0.000345 -0.000892 0.000094 -0.004674
# 3 -0.007232 -0.000345 0.010667 0.002750 -0.000685 -0.001959
# 4 -0.003165 -0.000892 0.002750 0.029914 -0.004122 0.001424
# 5 -0.002712 0.000094 -0.000685 -0.004122 0.022228 -0.004869
# 6 0.001834 -0.004674 -0.001959 0.001424 -0.004869 0.029169
#
#
# Mechanical properties :
#
#
# Convention : Reuss Voigt Hill
#
# Bulk Modulus (GPa) = 40.59938 48.44806 44.52372
# Shear Modulus (GPa) = 33.46339 40.50773 36.98556
#
# Velocity S-wave (km/s) = 3.80391 4.18518 3.99909
# Velocity P-wave (km/s) = 6.07028 6.65609 6.36992
#
# Compressibility (1/GPa) = 0.02463092
#
# Stress axis : x y z
#
# Youngs Moduli (GPa) = 46.31485 99.94859 93.74708
#
# Poissons Ratio (x) = 0.12396 0.67794
# Poissons Ratio (y) = 0.05744 0.03230
# Poissons Ratio (z) = 0.33493 0.03444
#
# Static dielectric constant tensor:
#      x y z
#    x 1.823360 0.024570 0.000440 
#    y 0.024570 1.872270 0.014350 
#    z 0.000440 0.014350 1.903390 
# 
# From -- ./inp_files/462236.got.cif
#   From: 2010.05.17/outbox.cif.g08.bks.cpg/sg2_232_cif.got.tgz:462236.got - 2010.06.03 11:33:40.
