data_PCOD9056044
_publ_section_title
;
Structure prediction by ZEFSAII (Michael W. Deem and Ramdas Pophale) SiO2 
 PCOD9056044
Probable space group: P -1
;
_chemical_formula_sum "Si O2"
_cell_formula_units_Z 16
_cell_length_a 10.942529
_cell_length_b 10.999809
_cell_length_c 11.651310
_cell_angle_alpha 58.208042
_cell_angle_beta 130.685488
_cell_angle_gamma 84.865799
_cell_volume 669.621549
_symmetry_space_group_name_H-M "P -1"
_symmetry_group_IT_number 2
_symmetry_cell_setting 'triclinic'
loop_
_space_group_symop_operation_xyz
x,y,z
-x,-y,-z
loop_
_atom_site_type_symbol
_atom_site_label
_atom_site_fract_x
_atom_site_fract_y
_atom_site_fract_z
Si Si1 0.588427 0.095868 0.218321
Si Si2 0.255442 0.584274 0.326228
Si Si3 0.550334 0.796502 0.407820
Si Si4 0.103541 0.714896 0.414256
Si Si5 0.296082 0.513687 0.873805
Si Si6 0.325449 0.898848 0.982152
Si Si7 0.150286 0.017854 0.225270
Si Si8 0.008834 0.843920 0.713691
O O1 0.553863 0.124549 0.046692
O O2 0.617874 0.916375 0.362811
O O3 0.394697 0.297601 0.058156
O O4 0.819703 0.029482 0.428186
O O5 0.500000 0.500000 0.500000
O O6 0.265162 0.430200 0.337853
O O7 0.185451 0.593013 0.409809
O O8 0.071719 0.809236 0.064242
O O9 0.357005 0.917066 0.321729
O O10 0.458968 0.794366 0.230263
O O11 0.193259 0.593649 0.645333
O O12 0.168426 0.843221 0.368293
O O13 0.846832 0.878698 0.194303
O O14 0.134059 0.658411 0.802495
O O15 0.500000 0.500000 0.000000
O O16 0.189217 0.842116 0.881360
O O17 0.125364 0.126342 0.270999
#
# Coordination Sequence:
#
# PCOD9056044 Si02
#       8
#     2   2   2   2   2   2   2   2
#     4  12  26  47  70 102 144 183 223 287 350 410
#     4  12  23  41  70 102 136 184 233 276 343 410
#     4  12  27  46  68 104 146 181 224 282 355 415
#     4  11  22  40  71 102 135 172 236 288 332 395
#     4  12  24  42  72 104 130 182 235 279 341 408
#     4  11  21  45  71 100 140 176 225 295 335 397
#     4  11  25  43  67 102 140 177 226 292 338 399
#     4  11  25  44  72 100 136 178 239 285 331 406
#
# _framework density 23.894093999999999
#
# number of rings (size 3 to 8) (size 9 to 14) (size 15 to 20)
#    0.000    0.500    5.000    4.875    1.750    2.500 
#    0.000    2.500    0.000    0.000    0.000    0.000 
#    0.000    0.000    0.000    0.000    0.000    0.000 
#
# Total GULP energy -89433.432228 kJ/mol
# GULP energy per Si atom -5589.589514 kJ/mol
# Density = 2.383971 g / cm^3
# Si number density = 23.894094 Si / 1000 Ang^3
#
#
#
# Elastic Constant Matrix: (Units=GPa)
#
#
# Indices 1 2 3 4 5 6 
#
# 1 79.1980 60.3443 1.7427 -9.1393 1.9593 -25.9240
# 2 60.3443 125.9308 50.9348 -31.2672 0.7327 -40.5619
# 3 1.7427 50.9348 71.5009 -18.3760 5.9974 -7.6677
# 4 -9.1393 -31.2672 -18.3760 54.2952 -12.0170 1.1007
# 5 1.9593 0.7327 5.9974 -12.0170 20.0842 -13.7683
# 6 -25.9240 -40.5619 -7.6677 1.1007 -13.7683 58.0627
#
#
#
# Elastic Compliance Matrix: (Units=1/GPa)
#
#
# Indices 1 2 3 4 5 6 
#
# 1 0.026196 -0.019826 0.012788 -0.004968 -0.010601 -0.002885
# 2 -0.019826 0.037749 -0.022253 0.017707 0.032911 0.022048
# 3 0.012788 -0.022253 0.028732 -0.004972 -0.019186 -0.010497
# 4 -0.004968 0.017707 -0.004972 0.032924 0.032365 0.016546
# 5 -0.010601 0.032911 -0.019186 0.032365 0.101592 0.039201
# 6 -0.002885 0.022048 -0.010497 0.016546 0.039201 0.038933
#
#
# Mechanical properties :
#
#
# Convention : Reuss Voigt Hill
#
# Bulk Modulus (GPa) = 29.32967 55.85256 42.59112
# Shear Modulus (GPa) = 14.87772 37.39564 26.13668
#
# Velocity S-wave (km/s) = 2.49801 3.96037 3.31094
# Velocity P-wave (km/s) = 4.54110 6.65872 5.69913
#
# Compressibility (1/GPa) = 0.03409517
#
# Stress axis : x y z
#
# Youngs Moduli (GPa) = 38.17332 26.49107 34.80406
#
# Poissons Ratio (x) = 0.52522 -0.44508
# Poissons Ratio (y) = 0.75683 0.77449
# Poissons Ratio (z) = -0.48817 0.58950
#
# Static dielectric constant tensor:
#      x y z
#    x 1.942520 0.050380 -0.032800 
#    y 0.050380 1.960190 0.014520 
#    z -0.032800 0.014520 2.014690 
# 
# From -- ./inp_files/427893.got.cif
#   From: 2010.05.17/outbox.cif.g08.bks.cpg/sg2_214_cif.got.tgz:427893.got - 2010.06.03 11:33:40.
