data_PCOD9056050
_publ_section_title
;
Structure prediction by ZEFSAII (Michael W. Deem and Ramdas Pophale) SiO2 
 PCOD9056050
Probable space group: P -1
;
_chemical_formula_sum "Si O2"
_cell_formula_units_Z 16
_cell_length_a 8.170627
_cell_length_b 23.731557
_cell_length_c 8.690475
_cell_angle_alpha 148.584891
_cell_angle_beta 129.033414
_cell_angle_gamma 49.702678
_cell_volume 656.940283
_symmetry_space_group_name_H-M "P -1"
_symmetry_group_IT_number 2
_symmetry_cell_setting 'triclinic'
loop_
_space_group_symop_operation_xyz
x,y,z
-x,-y,-z
loop_
_atom_site_type_symbol
_atom_site_label
_atom_site_fract_x
_atom_site_fract_y
_atom_site_fract_z
Si Si1 0.016174 0.384616 0.827465
Si Si2 0.437907 0.620460 0.316122
Si Si3 0.898993 0.843692 0.223504
Si Si4 0.594803 0.098507 0.599482
Si Si5 0.218909 0.023532 0.120181
Si Si6 0.036577 0.805808 0.867009
Si Si7 0.626771 0.171073 0.434038
Si Si8 0.820087 0.608830 0.730369
O O1 0.811850 0.358409 0.734669
O O2 0.031233 0.295391 0.491627
O O3 0.000000 0.500000 0.000000
O O4 0.172574 0.389559 0.076257
O O5 0.479578 0.706951 0.414856
O O6 0.586034 0.608933 0.526689
O O7 0.500000 0.500000 0.000000
O O8 0.113443 0.844502 0.449240
O O9 0.748543 0.971943 0.420720
O O10 0.836110 0.732246 0.978667
O O11 0.986383 0.810989 0.027163
O O12 0.346390 0.090521 0.461890
O O13 0.578919 0.140808 0.509657
O O14 0.717264 0.175351 0.950129
O O15 0.131529 0.090121 0.069711
O O16 0.401526 0.914669 0.914674
O O17 0.000000 0.000000 0.000000
O O18 0.000000 0.500000 0.500000
#
# Coordination Sequence:
#
# PCOD9056050 Si02
#       8
#     2   2   2   2   2   2   2   2
#     4  12  28  50  74 109 150 189 242 311 381 437
#     4  12  26  46  77 108 142 195 251 305 366 442
#     4  11  21  45  77 107 146 197 251 297 359 445
#     4  11  24  44  74 108 145 204 245 296 366 441
#     4  12  25  40  67 106 155 191 239 299 372 434
#     4  11  25  44  70 108 150 187 243 309 370 428
#     4  11  21  45  71 109 145 189 256 297 356 445
#     4  12  25  47  76 107 143 196 248 304 365 441
#
# _framework density 24.355332000000001
#
# number of rings (size 3 to 8) (size 9 to 14) (size 15 to 20)
#    0.000    0.500    5.000    3.375    1.750    3.000 
#    0.000    0.000    0.000    0.000    0.000    0.000 
#    0.000    0.000    0.000    0.000    0.000    0.000 
#
# Total GULP energy -89362.895988 kJ/mol
# GULP energy per Si atom -5585.180999 kJ/mol
# Density = 2.429990 g / cm^3
# Si number density = 24.355332 Si / 1000 Ang^3
#
#
#
# Elastic Constant Matrix: (Units=GPa)
#
#
# Indices 1 2 3 4 5 6 
#
# 1 52.8458 28.1542 25.6717 -0.3653 13.4470 9.1713
# 2 28.1542 145.7803 72.1057 -10.5069 10.7571 23.1459
# 3 25.6717 72.1057 182.0307 -7.4803 5.2169 10.9630
# 4 -0.3653 -10.5069 -7.4803 60.4388 -7.0001 14.3263
# 5 13.4470 10.7571 5.2169 -7.0001 40.0722 -8.4828
# 6 9.1713 23.1459 10.9630 14.3263 -8.4828 39.2318
#
#
#
# Elastic Compliance Matrix: (Units=1/GPa)
#
#
# Indices 1 2 3 4 5 6 
#
# 1 0.024172 -0.002192 -0.001966 -0.000135 -0.008474 -0.005591
# 2 -0.002192 0.010178 -0.003186 0.002514 -0.002422 -0.006044
# 3 -0.001966 -0.003186 0.006996 0.000282 0.000747 0.000443
# 4 -0.000135 0.002514 0.000282 0.019091 0.000910 -0.008305
# 5 -0.008474 -0.002422 0.000747 0.000910 0.030514 0.009467
# 6 -0.005591 -0.006044 0.000443 -0.008305 0.009467 0.035318
#
#
# Mechanical properties :
#
#
# Convention : Reuss Voigt Hill
#
# Bulk Modulus (GPa) = 37.51343 70.28002 53.89673
# Shear Modulus (GPa) = 33.36773 44.93023 39.14898
#
# Velocity S-wave (km/s) = 3.70542 4.29975 4.01360
# Velocity P-wave (km/s) = 5.80886 7.31910 6.60727
#
# Compressibility (1/GPa) = 0.02665712
#
# Stress axis : x y z
#
# Youngs Moduli (GPa) = 41.37046 98.24720 142.93062
#
# Poissons Ratio (x) = 0.21539 0.28107
# Poissons Ratio (y) = 0.09070 0.45537
# Poissons Ratio (z) = 0.08135 0.31301
#
# Static dielectric constant tensor:
#      x y z
#    x 2.062090 -0.040690 0.017860 
#    y -0.040690 1.905190 0.012490 
#    z 0.017860 0.012490 1.861860 
# 
# From -- ./inp_files/226841.got.cif
#   From: 2010.05.17/outbox.cif.g08.bks.cpg/sg2_114_cif.got.tgz:226841.got - 2010.06.03 11:33:40.
