data_PCOD9056911
_publ_section_title
;
Structure prediction by ZEFSAII (Michael W. Deem and Ramdas Pophale) SiO2 
 PCOD9056911
Probable space group: P -1
;
_chemical_formula_sum "Si O2"
_cell_formula_units_Z 16
_cell_length_a 14.227717
_cell_length_b 23.258060
_cell_length_c 9.959878
_cell_angle_alpha 147.756172
_cell_angle_beta 130.109232
_cell_angle_gamma 27.225149
_cell_volume 721.672057
_symmetry_space_group_name_H-M "P -1"
_symmetry_group_IT_number 2
_symmetry_cell_setting 'triclinic'
loop_
_space_group_symop_operation_xyz
x,y,z
-x,-y,-z
loop_
_atom_site_type_symbol
_atom_site_label
_atom_site_fract_x
_atom_site_fract_y
_atom_site_fract_z
Si Si1 0.191707 0.322295 0.931977
Si Si2 0.657051 0.422832 0.192503
Si Si3 0.963529 0.448500 0.241558
Si Si4 0.974598 0.832546 0.209509
Si Si5 0.542518 0.255320 0.729821
Si Si6 0.806166 0.201546 0.418587
Si Si7 0.654262 0.040005 0.679531
Si Si8 0.090509 0.803144 0.772665
O O1 0.424812 0.211742 0.895949
O O2 0.267647 0.140326 0.634725
O O3 0.000000 0.500000 0.000000
O O4 0.075784 0.422364 0.165869
O O5 0.424419 0.663984 0.453540
O O6 0.784719 0.359178 0.322116
O O7 0.833162 0.301078 0.992054
O O8 0.563342 0.368014 0.998794
O O9 0.703299 0.602823 0.271459
O O10 0.000000 0.500000 0.500000
O O11 0.092289 0.241767 0.984116
O O12 0.081749 0.793589 0.371551
O O13 0.748747 0.071383 0.455188
O O14 0.595605 0.150473 0.709319
O O15 0.750292 0.284774 0.381078
O O16 0.997443 0.971313 0.108535
O O17 0.864245 0.929196 0.740111
#
# Coordination Sequence:
#
# PCOD9056911 Si02
#       8
#     2   2   2   2   2   2   2   2
#     4  11  24  47  73  97 134 182 238 281 353 406
#     4  12  26  40  72 104 137 192 227 273 350 419
#     4  12  28  46  70 104 135 182 238 292 341 409
#     4  12  25  47  68  98 145 183 231 282 347 425
#     4  12  23  45  74  97 138 187 223 287 355 404
#     4  11  22  41  64  97 143 178 227 273 345 408
#     4  11  24  43  73 101 134 182 229 292 344 406
#     4  11  23  41  66 103 139 172 229 289 332 414
#
# _framework density 22.170736000000002
#
# number of rings (size 3 to 8) (size 9 to 14) (size 15 to 20)
#    0.000    0.500    6.250    1.875    0.000    4.500 
#    0.000    0.000    0.000    0.000    0.000    0.000 
#    0.000    0.000    0.000    0.000    0.000    0.000 
#
# Total GULP energy -89437.037858 kJ/mol
# GULP energy per Si atom -5589.814866 kJ/mol
# Density = 2.212027 g / cm^3
# Si number density = 22.170736 Si / 1000 Ang^3
#
#
#
# Elastic Constant Matrix: (Units=GPa)
#
#
# Indices 1 2 3 4 5 6 
#
# 1 97.0974 29.4678 24.7383 1.5403 -33.8745 0.4262
# 2 29.4678 103.6995 29.0374 -3.9314 -13.7145 -5.8903
# 3 24.7383 29.0374 71.4104 -4.7665 -36.4352 2.1846
# 4 1.5403 -3.9314 -4.7665 33.5696 -5.8954 -6.4522
# 5 -33.8745 -13.7145 -36.4352 -5.8954 43.5218 9.6988
# 6 0.4262 -5.8903 2.1846 -6.4522 9.6988 36.8216
#
#
#
# Elastic Compliance Matrix: (Units=1/GPa)
#
#
# Indices 1 2 3 4 5 6 
#
# 1 0.016082 -0.003952 0.004767 0.001388 0.016617 -0.005235
# 2 -0.003952 0.012078 -0.006394 0.000480 -0.005420 0.003869
# 3 0.004767 -0.006394 0.031835 0.007168 0.031551 -0.010021
# 4 0.001388 0.000480 0.007168 0.033245 0.011174 0.002518
# 5 0.016617 -0.005420 0.031551 0.011174 0.066235 -0.018420
# 6 -0.005235 0.003869 -0.010021 0.002518 -0.018420 0.033725
#
#
# Mechanical properties :
#
#
# Convention : Reuss Voigt Hill
#
# Bulk Modulus (GPa) = 20.47584 48.74380 34.60982
# Shear Modulus (GPa) = 22.66169 35.38020 29.02095
#
# Velocity S-wave (km/s) = 3.20057 3.99909 3.62190
# Velocity P-wave (km/s) = 4.78683 6.58460 5.75633
#
# Compressibility (1/GPa) = 0.04883803
#
# Stress axis : x y z
#
# Youngs Moduli (GPa) = 62.18117 82.79703 31.41181
#
# Poissons Ratio (x) = 0.32720 -0.14975
# Poissons Ratio (y) = 0.24573 0.20084
# Poissons Ratio (z) = -0.29643 0.52938
#
# Static dielectric constant tensor:
#      x y z
#    x 1.857210 0.012720 -0.001810 
#    y 0.012720 1.809600 0.023910 
#    z -0.001810 0.023910 1.829390 
# 
# From -- ./inp_files/320361.got.cif
#   From: 2010.05.17/outbox.cif.g08.bks.cpg/sg2_161_cif.got.tgz:320361.got - 2010.06.03 11:33:40.
