data_PCOD9056549
_publ_section_title
;
Structure prediction by ZEFSAII (Michael W. Deem and Ramdas Pophale) SiO2 
 PCOD9056549
Probable space group: P -1
;
_chemical_formula_sum "Si O2"
_cell_formula_units_Z 12
_cell_length_a 9.700520
_cell_length_b 8.988772
_cell_length_c 14.503063
_cell_angle_alpha 139.603668
_cell_angle_beta 48.738514
_cell_angle_gamma 109.230937
_cell_volume 575.967063
_symmetry_space_group_name_H-M "P -1"
_symmetry_group_IT_number 2
_symmetry_cell_setting 'triclinic'
loop_
_space_group_symop_operation_xyz
x,y,z
-x,-y,-z
loop_
_atom_site_type_symbol
_atom_site_label
_atom_site_fract_x
_atom_site_fract_y
_atom_site_fract_z
Si Si1 0.090688 0.161568 0.976538
Si Si2 0.496675 0.226238 0.856056
Si Si3 0.505847 0.363532 0.714780
Si Si4 0.658489 0.062075 0.897778
Si Si5 0.907082 0.091633 0.339206
Si Si6 0.868231 0.641522 0.212271
O O1 0.285919 0.196531 0.944288
O O2 0.130966 0.024347 0.794817
O O3 0.934596 0.437010 0.164445
O O4 0.000000 0.000000 0.000000
O O5 0.541265 0.203502 0.716997
O O6 0.627417 0.055328 0.798010
O O7 0.500000 0.500000 0.000000
O O8 0.715735 0.321745 0.557085
O O9 0.358561 0.289169 0.679575
O O10 0.386145 0.649527 0.924529
O O11 0.878036 0.895812 0.751523
O O12 0.500000 0.000000 0.000000
O O13 0.921132 0.883376 0.311806
O O14 0.000000 0.500000 0.000000
#
# Coordination Sequence:
#
# PCOD9056549 Si02
#       6
#     2   2   2   2   2   2
#     4  11  21  38  64  91 121 163 206 251 311 365
#     4  10  21  37  60  89 121 160 205 251 299 364
#     4  11  21  39  64  92 117 156 214 251 297 360
#     4  11  23  41  61  86 129 166 194 249 315 365
#     4  11  22  39  67  88 117 163 208 253 298 359
#     4  10  17  36  62  87 115 155 200 251 298 349
#
# _framework density 20.834524999999999
#
# number of rings (size 3 to 8) (size 9 to 14) (size 15 to 20)
#    0.000    1.333    6.667    2.500    0.000    1.333 
#    0.000    2.500    0.000    0.000    0.000    0.000 
#    0.000    0.000    0.000    0.000    0.000    0.000 
#
# Total GULP energy -66909.872014 kJ/mol
# GULP energy per Si atom -5575.822668 kJ/mol
# Density = 2.078710 g / cm^3
# Si number density = 20.834525 Si / 1000 Ang^3
#
#
#
# Elastic Constant Matrix: (Units=GPa)
#
#
# Indices 1 2 3 4 5 6 
#
# 1 106.7893 9.3106 22.3571 -13.3498 -20.2827 26.9462
# 2 9.3106 89.5085 -2.0386 -10.1404 -3.6723 20.6482
# 3 22.3571 -2.0386 67.8068 -16.7290 -26.1934 9.6617
# 4 -13.3498 -10.1404 -16.7290 18.5965 12.6756 -10.7826
# 5 -20.2827 -3.6723 -26.1934 12.6756 26.4439 -10.1380
# 6 26.9462 20.6482 9.6617 -10.7826 -10.1380 30.6184
#
#
#
# Elastic Compliance Matrix: (Units=1/GPa)
#
#
# Indices 1 2 3 4 5 6 
#
# 1 0.013045 0.001188 -0.000694 -0.000549 0.005782 -0.010342
# 2 0.001188 0.013914 0.002327 0.005929 -0.001343 -0.009520
# 3 -0.000694 0.002327 0.025302 0.010505 0.020397 0.001510
# 4 -0.000549 0.005929 0.010505 0.095420 -0.028253 0.017418
# 5 0.005782 -0.001343 0.020397 -0.028253 0.077802 0.005192
# 6 -0.010342 -0.009520 0.001510 0.017418 0.005192 0.055558
#
#
# Mechanical properties :
#
#
# Convention : Reuss Voigt Hill
#
# Bulk Modulus (GPa) = 17.27010 35.92920 26.59965
# Shear Modulus (GPa) = 16.96639 30.76345 23.86492
#
# Velocity S-wave (km/s) = 2.85676 3.84677 3.38812
# Velocity P-wave (km/s) = 4.38048 6.08381 5.30100
#
# Compressibility (1/GPa) = 0.05790355
#
# Stress axis : x y z
#
# Youngs Moduli (GPa) = 76.65825 71.86883 39.52187
#
# Poissons Ratio (x) = -0.08537 0.02742
# Poissons Ratio (y) = -0.09106 -0.09197
# Poissons Ratio (z) = 0.05319 -0.16724
#
# Static dielectric constant tensor:
#      x y z
#    x 1.818560 0.011140 0.022430 
#    y 0.011140 1.788490 0.010760 
#    z 0.022430 0.010760 1.778470 
# 
# From -- ./inp_files/149101.got.cif
#   From: 2010.05.17/outbox.cif.g08.bks.cpg/sg2_75_cif.got.tgz:149101.got - 2010.06.03 11:33:40.
