data_PCOD9056791
_publ_section_title
;
Structure prediction by ZEFSAII (Michael W. Deem and Ramdas Pophale) SiO2 
 PCOD9056791
Probable space group: P -1
;
_chemical_formula_sum "Si O2"
_cell_formula_units_Z 12
_cell_length_a 9.027320
_cell_length_b 12.119869
_cell_length_c 7.089533
_cell_angle_alpha 128.573594
_cell_angle_beta 106.768552
_cell_angle_gamma 66.115353
_cell_volume 553.783550
_symmetry_space_group_name_H-M "P -1"
_symmetry_group_IT_number 2
_symmetry_cell_setting 'triclinic'
loop_
_space_group_symop_operation_xyz
x,y,z
-x,-y,-z
loop_
_atom_site_type_symbol
_atom_site_label
_atom_site_fract_x
_atom_site_fract_y
_atom_site_fract_z
Si Si1 0.200264 0.079233 0.810791
Si Si2 0.109791 0.801869 0.354766
Si Si3 0.842084 0.126605 0.990697
Si Si4 0.200310 0.303601 0.365070
Si Si5 0.860541 0.398091 0.530951
Si Si6 0.557179 0.978550 0.711931
O O1 0.167665 0.920216 0.624830
O O2 0.391285 0.047739 0.836410
O O3 0.086994 0.153981 0.671805
O O4 0.144984 0.197753 0.083909
O O5 0.169168 0.644576 0.311346
O O6 0.150075 0.831802 0.185329
O O7 0.815098 0.277847 0.255629
O O8 0.691845 0.060536 0.885105
O O9 0.000000 0.000000 0.000000
O O10 0.226164 0.437794 0.397637
O O11 0.052900 0.368783 0.526302
O O12 0.358854 0.194644 0.401604
O O13 0.500000 0.000000 0.500000
#
# Coordination Sequence:
#
# PCOD9056791 Si02
#       6
#     2   2   2   2   2   2
#     4  11  22  40  69  99 128 170 229 274 322 393
#     4  11  22  41  70 102 124 176 231 267 331 394
#     4  12  22  45  70  98 133 175 225 270 327 396
#     4  11  24  42  63  98 137 175 219 275 337 385
#     4  11  24  43  65  96 139 176 217 273 332 401
#     4  12  23  42  68 100 132 171 228 277 324 393
#
# _framework density 21.669115000000001
#
# number of rings (size 3 to 8) (size 9 to 14) (size 15 to 20)
#    0.000    0.667    5.000    4.500    0.000    0.667 
#    3.000    4.167    0.000    0.000    0.000    0.000 
#    0.000    0.000    0.000    0.000    0.000    0.000 
#
# Total GULP energy -66984.014105 kJ/mol
# GULP energy per Si atom -5582.001175 kJ/mol
# Density = 2.161980 g / cm^3
# Si number density = 21.669115 Si / 1000 Ang^3
#
#
#
# Elastic Constant Matrix: (Units=GPa)
#
#
# Indices 1 2 3 4 5 6 
#
# 1 102.6691 55.4083 19.2952 -5.9899 14.1018 -2.7120
# 2 55.4083 197.7491 50.7495 14.1087 14.6300 30.8197
# 3 19.2952 50.7495 63.0426 -3.9043 15.4467 6.7361
# 4 -5.9899 14.1087 -3.9043 30.1971 1.7946 3.6420
# 5 14.1018 14.6300 15.4467 1.7946 35.0608 -6.7244
# 6 -2.7120 30.8197 6.7361 3.6420 -6.7244 41.4726
#
#
#
# Elastic Compliance Matrix: (Units=1/GPa)
#
#
# Indices 1 2 3 4 5 6 
#
# 1 0.012703 -0.004145 0.000150 0.004296 -0.003089 0.003008
# 2 -0.004145 0.008891 -0.005486 -0.004981 -0.000449 -0.005623
# 3 0.000150 -0.005486 0.022856 0.006237 -0.008456 -0.001544
# 4 0.004296 -0.004981 0.006237 0.037498 -0.004520 -0.001056
# 5 -0.003089 -0.000449 -0.008456 -0.004520 0.035373 0.007638
# 6 0.003008 -0.005623 -0.001544 -0.001056 0.007638 0.030069
#
#
# Mechanical properties :
#
#
# Convention : Reuss Voigt Hill
#
# Bulk Modulus (GPa) = 39.23399 68.26298 53.74848
# Shear Modulus (GPa) = 28.59609 37.21329 32.90469
#
# Velocity S-wave (km/s) = 3.63667 4.14858 3.90103
# Velocity P-wave (km/s) = 5.98156 7.38366 6.71928
#
# Compressibility (1/GPa) = 0.02548810
#
# Stress axis : x y z
#
# Youngs Moduli (GPa) = 78.72151 112.47121 43.75176
#
# Poissons Ratio (x) = 0.46616 -0.00656
# Poissons Ratio (y) = 0.32627 0.24004
# Poissons Ratio (z) = -0.01181 0.61707
#
# Static dielectric constant tensor:
#      x y z
#    x 1.952950 0.057180 -0.070500 
#    y 0.057180 1.817000 -0.044760 
#    z -0.070500 -0.044760 1.797440 
# 
# From -- ./inp_files/190938.got.cif
#   From: 2010.05.17/outbox.cif.g08.bks.cpg/sg2_96_cif.got.tgz:190938.got - 2010.06.03 11:33:40.
