data_PCOD9056347
_publ_section_title
;
Structure prediction by ZEFSAII (Michael W. Deem and Ramdas Pophale) SiO2 
 PCOD9056347
Probable space group: P -1
;
_chemical_formula_sum "Si O2"
_cell_formula_units_Z 16
_cell_length_a 15.536231
_cell_length_b 12.094892
_cell_length_c 9.222083
_cell_angle_alpha 140.680605
_cell_angle_beta 130.711148
_cell_angle_gamma 52.601190
_cell_volume 813.054022
_symmetry_space_group_name_H-M "P -1"
_symmetry_group_IT_number 2
_symmetry_cell_setting 'triclinic'
loop_
_space_group_symop_operation_xyz
x,y,z
-x,-y,-z
loop_
_atom_site_type_symbol
_atom_site_label
_atom_site_fract_x
_atom_site_fract_y
_atom_site_fract_z
Si Si1 0.321241 0.333674 0.476997
Si Si2 0.864714 0.498530 0.335322
Si Si3 0.294385 0.929633 0.995660
Si Si4 0.375430 0.946593 0.780523
Si Si5 0.507593 0.415733 0.580350
Si Si6 0.734104 0.844543 0.378287
Si Si7 0.865825 0.096765 0.960663
Si Si8 0.529577 0.708773 0.125492
O O1 0.203152 0.440897 0.526932
O O2 0.377128 0.399747 0.464415
O O3 0.420140 0.344119 0.715773
O O4 0.308182 0.131937 0.239059
O O5 0.805012 0.647408 0.303185
O O6 0.000000 0.500000 0.500000
O O7 0.850246 0.297980 0.089837
O O8 0.177665 0.905914 0.922776
O O9 0.395289 0.797387 0.060177
O O10 0.321745 0.894965 0.820268
O O11 0.408918 0.778132 0.538606
O O12 0.284703 0.101494 0.755214
O O13 0.500000 0.000000 0.000000
O O14 0.500000 0.500000 0.500000
O O15 0.552135 0.545158 0.872801
O O16 0.603272 0.850861 0.296509
O O17 0.792615 0.982352 0.670327
O O18 0.000000 0.000000 0.000000
#
# Coordination Sequence:
#
# PCOD9056347 Si02
#       8
#     2   2   2   2   2   2   2   2
#     4  11  23  37  64  97 136 175 222 286 330 401
#     4  11  23  45  71  99 128 171 234 286 334 386
#     4  12  22  42  66  97 139 180 220 274 346 400
#     4  12  24  42  64  97 149 185 212 272 340 422
#     4  12  23  38  59  98 144 182 219 262 347 414
#     4  11  24  43  67 104 132 180 221 279 338 403
#     4  12  25  46  74  97 132 178 232 291 334 389
#     4  11  22  38  61 102 137 168 228 279 335 402
#
# _framework density 19.678888000000001
#
# number of rings (size 3 to 8) (size 9 to 14) (size 15 to 20)
#    0.000    0.500    7.500    1.500    5.250    0.000 
#    0.000    0.625    0.000    1.500    0.000    0.000 
#    0.000    0.000    0.000    0.000    0.000    0.000 
#
# Total GULP energy -89407.275309 kJ/mol
# GULP energy per Si atom -5587.954707 kJ/mol
# Density = 1.963410 g / cm^3
# Si number density = 19.678888 Si / 1000 Ang^3
#
#
#
# Elastic Constant Matrix: (Units=GPa)
#
#
# Indices 1 2 3 4 5 6 
#
# 1 150.1301 51.3452 21.7515 -5.2983 5.4853 -6.2030
# 2 51.3452 99.6391 26.1050 16.3247 2.0323 2.5857
# 3 21.7515 26.1050 94.7880 31.7368 9.1862 -2.0810
# 4 -5.2983 16.3247 31.7368 32.2501 1.3941 -1.7978
# 5 5.4853 2.0323 9.1862 1.3941 20.3692 7.2195
# 6 -6.2030 2.5857 -2.0810 -1.7978 7.2195 36.3447
#
#
#
# Elastic Compliance Matrix: (Units=1/GPa)
#
#
# Indices 1 2 3 4 5 6 
#
# 1 0.009311 -0.005260 -0.002848 0.007230 -0.002106 0.002576
# 2 -0.005260 0.014155 -0.000212 -0.008036 0.001581 -0.002629
# 3 -0.002848 -0.000212 0.017762 -0.017513 -0.006358 0.000943
# 4 0.007230 -0.008036 -0.017513 0.053581 0.002003 0.003055
# 5 -0.002106 0.001581 -0.006358 0.002003 0.056470 -0.011954
# 6 0.002576 -0.002629 0.000943 0.003055 -0.011954 0.030721
#
#
# Mechanical properties :
#
#
# Convention : Reuss Voigt Hill
#
# Bulk Modulus (GPa) = 40.66934 60.32894 50.49914
# Shear Modulus (GPa) = 24.17370 34.14984 29.16177
#
# Velocity S-wave (km/s) = 3.50867 4.17028 3.85370
# Velocity P-wave (km/s) = 6.09308 7.34245 6.74675
#
# Compressibility (1/GPa) = 0.02458855
#
# Stress axis : x y z
#
# Youngs Moduli (GPa) = 107.39837 70.64665 56.29948
#
# Poissons Ratio (x) = 0.37163 0.16034
# Poissons Ratio (y) = 0.56496 0.01191
# Poissons Ratio (z) = 0.30586 0.01494
#
# Static dielectric constant tensor:
#      x y z
#    x 1.743800 0.050560 -0.023320 
#    y 0.050560 1.746140 0.025440 
#    z -0.023320 0.025440 1.707090 
# 
# From -- ./inp_files/308896.got.cif
#   From: 2010.05.17/outbox.cif.g08.bks.cpg/sg2_155_cif.got.tgz:308896.got - 2010.06.03 11:33:40.
