data_PCOD9056149
_publ_section_title
;
Structure prediction by ZEFSAII (Michael W. Deem and Ramdas Pophale) SiO2 
 PCOD9056149
Probable space group: P -1
;
_chemical_formula_sum "Si O2"
_cell_formula_units_Z 14
_cell_length_a 16.256017
_cell_length_b 11.736140
_cell_length_c 13.503913
_cell_angle_alpha 44.031392
_cell_angle_beta 154.075854
_cell_angle_gamma 144.943485
_cell_volume 645.408726
_symmetry_space_group_name_H-M "P -1"
_symmetry_group_IT_number 2
_symmetry_cell_setting 'triclinic'
loop_
_space_group_symop_operation_xyz
x,y,z
-x,-y,-z
loop_
_atom_site_type_symbol
_atom_site_label
_atom_site_fract_x
_atom_site_fract_y
_atom_site_fract_z
Si Si1 0.258808 0.821627 0.812533
Si Si2 0.218303 0.324496 0.603221
Si Si3 0.499393 0.421756 0.437817
Si Si4 0.931638 0.630541 0.078443
Si Si5 0.802235 0.282561 0.880082
Si Si6 0.824594 0.386448 0.472487
Si Si7 0.536667 0.859413 0.915720
O O1 0.190636 0.609418 0.913822
O O2 0.321129 0.823203 0.765274
O O3 0.052053 0.843490 0.592664
O O4 0.500000 0.000000 0.000000
O O5 0.317136 0.417805 0.543606
O O6 0.210029 0.476343 0.575271
O O7 0.371541 0.259444 0.858596
O O8 0.500000 0.500000 0.500000
O O9 0.571484 0.271830 0.628329
O O10 0.260675 0.334019 0.179609
O O11 0.119446 0.731043 0.134675
O O12 0.052699 0.689508 0.278666
O O13 0.741349 0.090879 0.994188
O O14 0.000000 0.500000 0.000000
O O15 0.574756 0.225955 0.258446
O O16 0.000000 0.500000 0.500000
#
# Coordination Sequence:
#
# PCOD9056149 Si02
#       7
#     2   2   2   2   2   2   2
#     4  11  23  40  68 101 140 177 232 290 343 413
#     4  11  24  45  73 103 137 185 234 290 349 412
#     4  12  24  43  73 100 139 192 227 281 363 412
#     4  11  23  44  66  96 144 182 227 287 348 400
#     4  12  26  46  66 104 146 183 230 293 350 416
#     4  11  21  47  74 100 142 179 238 294 341 415
#     4  12  26  42  75 106 136 189 237 283 354 417
#
# _framework density 21.691680000000002
#
# number of rings (size 3 to 8) (size 9 to 14) (size 15 to 20)
#    0.000    0.571    8.571    1.286    0.000    3.429 
#    0.000    0.714    0.000    0.000    0.000    0.000 
#    0.000    0.000    0.000    0.000    0.000    0.000 
#
# Total GULP energy -78165.081925 kJ/mol
# GULP energy per Si atom -5583.220138 kJ/mol
# Density = 2.164231 g / cm^3
# Si number density = 21.691680 Si / 1000 Ang^3
#
#
#
# Elastic Constant Matrix: (Units=GPa)
#
#
# Indices 1 2 3 4 5 6 
#
# 1 141.2575 19.5795 35.4952 1.9814 -0.7850 22.0350
# 2 19.5795 61.3051 13.5085 4.5064 -7.2582 2.5319
# 3 35.4952 13.5085 138.3332 4.8100 -10.0597 -12.7803
# 4 1.9814 4.5064 4.8100 33.6123 -0.8172 -5.6129
# 5 -0.7850 -7.2582 -10.0597 -0.8172 36.7697 -0.5272
# 6 22.0350 2.5319 -12.7803 -5.6129 -0.5272 16.7780
#
#
#
# Elastic Compliance Matrix: (Units=1/GPa)
#
#
# Indices 1 2 3 4 5 6 
#
# 1 0.011572 -0.001853 -0.004610 -0.003074 -0.001728 -0.019512
# 2 -0.001853 0.017760 -0.001118 -0.002335 0.003083 -0.001783
# 3 -0.004610 -0.001118 0.009994 0.001462 0.002654 0.014408
# 4 -0.003074 -0.002335 0.001462 0.032813 0.000839 0.016507
# 5 -0.001728 0.003083 0.002654 0.000839 0.028584 0.005005
# 6 -0.019512 -0.001783 0.014408 0.016507 0.005005 0.102151
#
#
# Mechanical properties :
#
#
# Convention : Reuss Voigt Hill
#
# Bulk Modulus (GPa) = 41.38262 53.11804 47.25033
# Shear Modulus (GPa) = 22.11501 35.58617 28.85059
#
# Velocity S-wave (km/s) = 3.19645 4.05476 3.65091
# Velocity P-wave (km/s) = 5.72207 6.81633 6.29303
#
# Compressibility (1/GPa) = 0.02416473
#
# Stress axis : x y z
#
# Youngs Moduli (GPa) = 86.41849 56.30558 100.05768
#
# Poissons Ratio (x) = 0.10432 0.46123
# Poissons Ratio (y) = 0.16011 0.11189
# Poissons Ratio (z) = 0.39836 0.06297
#
# Static dielectric constant tensor:
#      x y z
#    x 1.846280 -0.035490 -0.040180 
#    y -0.035490 1.850110 0.032080 
#    z -0.040180 0.032080 1.837970 
# 
# From -- ./inp_files/451179.got.cif
#   From: 2010.05.17/outbox.cif.g08.bks.cpg/sg2_226_cif.got.tgz:451179.got - 2010.06.03 11:33:40.
