data_PCOD9056056
_publ_section_title
;
Structure prediction by ZEFSAII (Michael W. Deem and Ramdas Pophale) SiO2 
 PCOD9056056
Probable space group: P -1
;
_chemical_formula_sum "Si O2"
_cell_formula_units_Z 16
_cell_length_a 8.175926
_cell_length_b 8.857973
_cell_length_c 25.259100
_cell_angle_alpha 43.586923
_cell_angle_beta 140.199921
_cell_angle_gamma 108.705311
_cell_volume 682.444032
_symmetry_space_group_name_H-M "P -1"
_symmetry_group_IT_number 2
_symmetry_cell_setting 'triclinic'
loop_
_space_group_symop_operation_xyz
x,y,z
-x,-y,-z
loop_
_atom_site_type_symbol
_atom_site_label
_atom_site_fract_x
_atom_site_fract_y
_atom_site_fract_z
Si Si1 0.900624 0.701361 0.232738
Si Si2 0.413627 0.604158 0.776220
Si Si3 0.943486 0.194122 0.529199
Si Si4 0.065248 0.339046 0.633763
Si Si5 0.055959 0.399815 0.153294
Si Si6 0.156273 0.800906 0.940029
Si Si7 0.671718 0.716466 0.640258
Si Si8 0.783394 0.958839 0.916738
O O1 0.680225 0.595849 0.213677
O O2 0.044210 0.682490 0.330404
O O3 0.137330 0.504123 0.299017
O O4 0.752693 0.991605 0.101299
O O5 0.653136 0.608466 0.796555
O O6 0.133481 0.894140 0.637847
O O7 0.576197 0.483296 0.903294
O O8 0.053951 0.362547 0.484771
O O9 0.596908 0.313869 0.398180
O O10 0.969064 0.230757 0.588718
O O11 0.431878 0.177131 0.767831
O O12 0.989803 0.231960 0.140294
O O13 0.120627 0.309927 0.252410
O O14 0.800114 0.702891 0.007830
O O15 0.932145 0.901733 0.909524
O O16 0.500000 0.000000 0.500000
O O17 0.000000 0.000000 0.000000
#
# Coordination Sequence:
#
# PCOD9056056 Si02
#       8
#     2   2   2   2   2   2   2   2
#     4  12  26  43  67 101 139 173 230 282 350 393
#     4  11  23  44  72 101 134 179 226 277 334 418
#     4  11  24  46  68  95 141 178 235 269 342 408
#     4  11  25  42  70 104 131 183 224 287 327 413
#     4  11  25  44  73  97 137 186 229 279 336 411
#     4  11  24  43  71 108 138 172 225 287 345 400
#     4  12  27  46  65  95 136 182 226 280 347 402
#     4  11  21  45  72 104 139 181 229 273 341 409
#
# _framework density 23.445145
#
# number of rings (size 3 to 8) (size 9 to 14) (size 15 to 20)
#    0.000    0.750    1.250    7.875    3.500    3.500 
#    0.000    1.875    0.000    0.000    0.000    0.000 
#    0.000    0.000    0.000    0.000    0.000    0.000 
#
# Total GULP energy -89593.078071 kJ/mol
# GULP energy per Si atom -5599.567379 kJ/mol
# Density = 2.339178 g / cm^3
# Si number density = 23.445145 Si / 1000 Ang^3
#
#
#
# Elastic Constant Matrix: (Units=GPa)
#
#
# Indices 1 2 3 4 5 6 
#
# 1 35.5001 21.7405 28.0020 -3.1814 -11.7888 -15.4697
# 2 21.7405 106.4564 58.6113 -0.2708 -15.8411 -11.2132
# 3 28.0020 58.6113 70.1951 12.5480 -12.3677 -15.4315
# 4 -3.1814 -0.2708 12.5480 28.2815 -2.4944 -17.9790
# 5 -11.7888 -15.8411 -12.3677 -2.4944 41.8384 7.9261
# 6 -15.4697 -11.2132 -15.4315 -17.9790 7.9261 37.4966
#
#
#
# Elastic Compliance Matrix: (Units=1/GPa)
#
#
# Indices 1 2 3 4 5 6 
#
# 1 0.082247 0.012898 -0.042010 0.058357 0.010349 0.046294
# 2 0.012898 0.021379 -0.023413 0.018961 0.003981 0.010328
# 3 -0.042010 -0.023413 0.052676 -0.042940 -0.003424 -0.022520
# 4 0.058357 0.018961 -0.042940 0.098628 0.005795 0.058140
# 5 0.010349 0.003981 -0.003424 0.005795 0.027464 0.001024
# 6 0.046294 0.010328 -0.022520 0.058140 0.001024 0.067250
#
#
# Mechanical properties :
#
#
# Convention : Reuss Voigt Hill
#
# Bulk Modulus (GPa) = 19.51228 47.65102 33.58165
# Shear Modulus (GPa) = 10.59821 28.44315 19.52068
#
# Velocity S-wave (km/s) = 2.12844 3.48685 2.88863
# Velocity P-wave (km/s) = 3.79222 6.04809 5.04779
#
# Compressibility (1/GPa) = 0.05124977
#
# Stress axis : x y z
#
# Youngs Moduli (GPa) = 12.15851 46.77582 18.98413
#
# Poissons Ratio (x) = -0.60329 0.79753
# Poissons Ratio (y) = -0.15681 0.44447
# Poissons Ratio (z) = 0.51078 1.09516
#
# Static dielectric constant tensor:
#      x y z
#    x 1.899710 0.011660 0.004680 
#    y 0.011660 1.887790 0.026880 
#    z 0.004680 0.026880 1.875510 
# 
# From -- ./inp_files/226123.got.cif
#   From: 2010.05.17/outbox.cif.g08.bks.cpg/sg2_114_cif.got.tgz:226123.got - 2010.06.03 11:33:40.
