data_PCOD9056226
_publ_section_title
;
Structure prediction by ZEFSAII (Michael W. Deem and Ramdas Pophale) SiO2 
 PCOD9056226
Probable space group: P -1
;
_chemical_formula_sum "Si O2"
_cell_formula_units_Z 12
_cell_length_a 12.445577
_cell_length_b 13.830665
_cell_length_c 7.896984
_cell_angle_alpha 45.124841
_cell_angle_beta 76.379492
_cell_angle_gamma 42.661664
_cell_volume 527.029132
_symmetry_space_group_name_H-M "P -1"
_symmetry_group_IT_number 2
_symmetry_cell_setting 'triclinic'
loop_
_space_group_symop_operation_xyz
x,y,z
-x,-y,-z
loop_
_atom_site_type_symbol
_atom_site_label
_atom_site_fract_x
_atom_site_fract_y
_atom_site_fract_z
Si Si1 0.109493 0.707307 0.772721
Si Si2 0.211465 0.337972 0.050625
Si Si3 0.678001 0.068700 0.510148
Si Si4 0.838133 0.023984 0.181076
Si Si5 0.306278 0.559053 0.201261
Si Si6 0.934610 0.420814 0.552540
O O1 0.247844 0.434728 0.029431
O O2 0.216488 0.692835 0.885001
O O3 0.903323 0.866468 0.733294
O O4 0.035593 0.836410 0.458169
O O5 0.179967 0.425770 0.766089
O O6 0.000000 0.500000 0.000000
O O7 0.348670 0.066924 0.325479
O O8 0.681947 0.120688 0.252308
O O9 0.530293 0.296246 0.406271
O O10 0.755584 0.256179 0.879045
O O11 0.890267 0.860616 0.221624
O O12 0.201571 0.527659 0.337332
O O13 0.000000 0.500000 0.500000
#
# Coordination Sequence:
#
# PCOD9056226 Si02
#       6
#     2   2   2   2   2   2
#     4   8  19  35  60  81 118 151 189 227 286 339
#     4   9  16  38  55  77 115 154 182 233 283 331
#     4   9  20  35  63  82 121 145 195 236 278 341
#     4   9  21  40  58  82 124 152 183 240 285 342
#     4  12  21  35  63  92 111 149 197 232 291 340
#     4  11  22  36  62  85 115 156 189 241 290 332
#
# _framework density 22.769137000000001
#
# number of rings (size 3 to 8) (size 9 to 14) (size 15 to 20)
#    1.000    1.333    1.667    3.500    0.000    1.333 
#    0.000    0.000    3.667    5.000    0.000    0.000 
#    0.000    0.000    0.000    0.000    0.000    0.000 
#
# Total GULP energy -66905.280318 kJ/mol
# GULP energy per Si atom -5575.440027 kJ/mol
# Density = 2.271731 g / cm^3
# Si number density = 22.769137 Si / 1000 Ang^3
#
#
#
# Elastic Constant Matrix: (Units=GPa)
#
#
# Indices 1 2 3 4 5 6 
#
# 1 64.9091 39.9962 32.1942 -22.2046 -22.1504 16.6441
# 2 39.9962 89.8963 41.8599 -15.4546 -3.8732 8.7247
# 3 32.1942 41.8599 72.8106 -28.5026 -18.4666 2.5526
# 4 -22.2046 -15.4546 -28.5026 41.4795 4.8463 -14.4457
# 5 -22.1504 -3.8732 -18.4666 4.8463 27.6877 -7.2134
# 6 16.6441 8.7247 2.5526 -14.4457 -7.2134 38.8047
#
#
#
# Elastic Compliance Matrix: (Units=1/GPa)
#
#
# Indices 1 2 3 4 5 6 
#
# 1 0.036789 -0.014658 0.004227 0.012956 0.027181 -0.002886
# 2 -0.014658 0.022372 -0.014064 -0.008616 -0.017587 -0.004295
# 3 0.004227 -0.014064 0.033894 0.021596 0.023230 0.011477
# 4 0.012956 -0.008616 0.021596 0.045839 0.019623 0.015671
# 5 0.027181 -0.017587 0.023230 0.019623 0.070366 0.011153
# 6 -0.002886 -0.004295 0.011477 0.015671 0.011153 0.035126
#
#
# Mechanical properties :
#
#
# Convention : Reuss Voigt Hill
#
# Bulk Modulus (GPa) = 22.69306 50.63521 36.66413
# Shear Modulus (GPa) = 16.23039 29.16543 22.69791
#
# Velocity S-wave (km/s) = 2.67277 3.58288 3.16075
# Velocity P-wave (km/s) = 4.41737 6.27717 5.42752
#
# Compressibility (1/GPa) = 0.04406634
#
# Stress axis : x y z
#
# Youngs Moduli (GPa) = 27.18181 44.69892 29.50358
#
# Poissons Ratio (x) = 0.65518 -0.12470
# Poissons Ratio (y) = 0.39842 0.41493
# Poissons Ratio (z) = -0.11489 0.62863
#
# Static dielectric constant tensor:
#      x y z
#    x 2.853190 -0.098350 -0.366280 
#    y -0.098350 1.884020 0.049600 
#    z -0.366280 0.049600 2.034010 
# 
# From -- ./inp_files/309248.got.cif
#   From: 2010.05.17/outbox.cif.g08.bks.cpg/sg2_155_cif.got.tgz:309248.got - 2010.06.03 11:33:40.
