data_PCOD9056598
_publ_section_title
;
Structure prediction by ZEFSAII (Michael W. Deem and Ramdas Pophale) SiO2 
 PCOD9056598
Probable space group: P -1
;
_chemical_formula_sum "Si O2"
_cell_formula_units_Z 14
_cell_length_a 12.211186
_cell_length_b 11.599672
_cell_length_c 11.771160
_cell_angle_alpha 137.148973
_cell_angle_beta 145.279325
_cell_angle_gamma 62.924378
_cell_volume 597.269694
_symmetry_space_group_name_H-M "P -1"
_symmetry_group_IT_number 2
_symmetry_cell_setting 'triclinic'
loop_
_space_group_symop_operation_xyz
x,y,z
-x,-y,-z
loop_
_atom_site_type_symbol
_atom_site_label
_atom_site_fract_x
_atom_site_fract_y
_atom_site_fract_z
Si Si1 0.657093 0.855586 0.591134
Si Si2 0.717457 0.458039 0.082325
Si Si3 0.468901 0.928278 0.719656
Si Si4 0.562372 0.658295 0.762797
Si Si5 0.023293 0.755005 0.926698
Si Si6 0.996902 0.700766 0.128571
Si Si7 0.454698 0.651387 0.910127
O O1 0.485224 0.713253 0.261231
O O2 0.546365 0.869250 0.625204
O O3 0.771877 0.057916 0.782785
O O4 0.842474 0.785961 0.724770
O O5 0.911644 0.414333 0.173451
O O6 0.707566 0.453533 0.206458
O O7 0.667802 0.629299 0.117986
O O8 0.545866 0.836536 0.821474
O O9 0.220715 0.843346 0.455108
O O10 0.539609 0.144541 0.937683
O O11 0.500000 0.500000 0.500000
O O12 0.427340 0.591364 0.712376
O O13 0.800864 0.704904 0.031668
O O14 0.965258 0.736831 0.995981
O O15 0.000000 0.500000 0.000000
#
# Coordination Sequence:
#
# PCOD9056598 Si02
#       7
#     2   2   2   2   2   2   2
#     4  11  22  41  74 101 130 180 230 280 335 403
#     4  11  22  45  67  98 140 179 225 278 343 402
#     4  12  23  45  70 102 143 174 229 285 335 405
#     4  12  25  47  69  97 136 184 233 277 336 412
#     4  11  22  39  71 104 129 173 238 275 330 405
#     4  12  24  39  71 104 129 181 228 270 336 406
#     4  11  26  43  68 100 141 183 220 286 348 393
#
# _framework density 23.439997000000002
#
# number of rings (size 3 to 8) (size 9 to 14) (size 15 to 20)
#    0.000    0.571    5.714    3.429    0.000    0.571 
#    0.000    5.714    0.000    0.000    0.000    0.000 
#    0.000    0.000    0.000    0.000    0.000    0.000 
#
# Total GULP energy -78414.488919 kJ/mol
# GULP energy per Si atom -5601.034923 kJ/mol
# Density = 2.338665 g / cm^3
# Si number density = 23.439997 Si / 1000 Ang^3
#
#
#
# Elastic Constant Matrix: (Units=GPa)
#
#
# Indices 1 2 3 4 5 6 
#
# 1 110.7198 11.0581 14.9248 -1.2166 -10.9598 4.2966
# 2 11.0581 146.4817 5.2229 6.1678 -7.8889 -3.1015
# 3 14.9248 5.2229 48.7951 -6.3325 -0.8098 -6.2854
# 4 -1.2166 6.1678 -6.3325 31.3886 -5.6382 6.7378
# 5 -10.9598 -7.8889 -0.8098 -5.6382 34.6304 -4.2280
# 6 4.2966 -3.1015 -6.2854 6.7378 -4.2280 53.6474
#
#
#
# Elastic Compliance Matrix: (Units=1/GPa)
#
#
# Indices 1 2 3 4 5 6 
#
# 1 0.009814 -0.000528 -0.002946 0.000627 0.002895 -0.001012
# 2 -0.000528 0.007034 -0.000675 -0.001452 0.001263 0.000652
# 3 -0.002946 -0.000675 0.022304 0.004088 0.000385 0.002327
# 4 0.000627 -0.001452 0.004088 0.034696 0.005172 -0.003605
# 5 0.002895 0.001263 0.000385 0.005172 0.031138 0.001691
# 6 -0.001012 0.000652 0.002327 -0.003605 0.001691 0.019618
#
#
# Mechanical properties :
#
#
# Convention : Reuss Voigt Hill
#
# Bulk Modulus (GPa) = 32.41090 40.93427 36.67258
# Shear Modulus (GPa) = 34.91956 42.25268 38.58612
#
# Velocity S-wave (km/s) = 3.86391 4.25030 4.06170
# Velocity P-wave (km/s) = 5.81064 6.44888 6.13806
#
# Compressibility (1/GPa) = 0.03085382
#
# Stress axis : x y z
#
# Youngs Moduli (GPa) = 101.89031 142.17421 44.83513
#
# Poissons Ratio (x) = 0.07503 0.13210
# Poissons Ratio (y) = 0.05377 0.03026
# Poissons Ratio (z) = 0.30021 0.09596
#
# Static dielectric constant tensor:
#      x y z
#    x 1.829390 -0.036850 -0.018930 
#    y -0.036850 1.861420 -0.025420 
#    z -0.018930 -0.025420 1.879650 
# 
# From -- ./inp_files/260849.got.cif
#   From: 2010.05.17/outbox.cif.g08.bks.cpg/sg2_131_cif.got.tgz:260849.got - 2010.06.03 11:33:40.
