data_PCOD9056184
_publ_section_title
;
Structure prediction by ZEFSAII (Michael W. Deem and Ramdas Pophale) SiO2 
 PCOD9056184
Probable space group: P -1
;
_chemical_formula_sum "Si O2"
_cell_formula_units_Z 16
_cell_length_a 14.159135
_cell_length_b 9.678445
_cell_length_c 14.888819
_cell_angle_alpha 125.349946
_cell_angle_beta 142.229027
_cell_angle_gamma 30.174895
_cell_volume 590.659191
_symmetry_space_group_name_H-M "P -1"
_symmetry_group_IT_number 2
_symmetry_cell_setting 'triclinic'
loop_
_space_group_symop_operation_xyz
x,y,z
-x,-y,-z
loop_
_atom_site_type_symbol
_atom_site_label
_atom_site_fract_x
_atom_site_fract_y
_atom_site_fract_z
Si Si1 0.811761 0.535149 0.919784
Si Si2 0.212596 0.629354 0.415262
Si Si3 0.981834 0.006908 0.133794
Si Si4 0.109875 0.512169 0.468773
Si Si5 0.362755 0.885252 0.593661
Si Si6 0.280762 0.311621 0.896459
Si Si7 0.306366 0.789874 0.838671
Si Si8 0.396001 0.772831 0.227248
O O1 0.855018 0.305682 0.831909
O O2 0.514655 0.835266 0.773453
O O3 0.863465 0.490172 0.047513
O O4 0.000000 0.500000 0.000000
O O5 0.174777 0.595961 0.473395
O O6 0.284561 0.762668 0.513053
O O7 0.433019 0.320398 0.412565
O O8 0.919307 0.885978 0.248750
O O9 0.189670 0.945230 0.219594
O O10 0.826773 0.198848 0.177980
O O11 0.775989 0.112454 0.947706
O O12 0.409594 0.238168 0.631938
O O13 0.940748 0.538982 0.287516
O O14 0.905439 0.765739 0.485254
O O15 0.459846 0.299689 0.984581
O O16 0.500000 0.000000 0.000000
O O17 0.428044 0.558026 0.768931
#
# Coordination Sequence:
#
# PCOD9056184 Si02
#       8
#     2   2   2   2   2   2   2   2
#     4  12  22  40  67  96 135 175 212 272 333 393
#     4  11  22  34  61 101 129 164 216 278 327 382
#     4  11  25  46  70  94 127 175 232 264 321 390
#     4  12  24  39  62  97 136 170 211 272 331 385
#     4  11  22  35  60  96 132 162 211 273 334 375
#     4  12  23  38  61 102 136 168 214 264 338 394
#     4  12  22  42  68  95 131 173 221 272 322 392
#     4  11  26  46  69  92 130 181 222 269 317 395
#
# _framework density 27.088380000000001
#
# number of rings (size 3 to 8) (size 9 to 14) (size 15 to 20)
#    0.000    0.500    6.250    3.000    1.750    0.000 
#    0.000    1.250    0.000    0.000    0.000    0.000 
#    0.000    0.000    0.000    0.000    0.000    0.000 
#
# Total GULP energy -89514.062065 kJ/mol
# GULP energy per Si atom -5594.628879 kJ/mol
# Density = 2.702673 g / cm^3
# Si number density = 27.088380 Si / 1000 Ang^3
#
#
#
# Elastic Constant Matrix: (Units=GPa)
#
#
# Indices 1 2 3 4 5 6 
#
# 1 62.3098 23.3085 21.2280 -10.2075 20.3178 -18.8414
# 2 23.3085 83.1436 25.8197 -4.1622 8.1496 -14.9867
# 3 21.2280 25.8197 213.0759 7.6613 38.3733 -23.9957
# 4 -10.2075 -4.1622 7.6613 28.7744 -2.8087 6.6380
# 5 20.3178 8.1496 38.3733 -2.8087 43.4013 -5.3432
# 6 -18.8414 -14.9867 -23.9957 6.6380 -5.3432 29.4546
#
#
#
# Elastic Compliance Matrix: (Units=1/GPa)
#
#
# Indices 1 2 3 4 5 6 
#
# 1 0.024703 -0.003906 0.000993 0.004224 -0.009975 0.011862
# 2 -0.003906 0.014088 -0.000969 0.000047 0.000531 0.003966
# 3 0.000993 -0.000969 0.006391 -0.003197 -0.005516 0.005068
# 4 0.004224 0.000047 -0.003197 0.039254 0.002360 -0.008297
# 5 -0.009975 0.000531 -0.005516 0.002360 0.031984 -0.005334
# 6 0.011862 0.003966 0.005068 -0.008297 -0.005334 0.048588
#
#
# Mechanical properties :
#
#
# Convention : Reuss Voigt Hill
#
# Bulk Modulus (GPa) = 26.72518 55.47129 41.09824
# Shear Modulus (GPa) = 26.99122 39.53761 33.26441
#
# Velocity S-wave (km/s) = 3.16003 3.82459 3.50808
# Velocity P-wave (km/s) = 4.81681 6.32658 5.62260
#
# Compressibility (1/GPa) = 0.03741789
#
# Stress axis : x y z
#
# Youngs Moduli (GPa) = 40.48042 70.97991 156.47480
#
# Poissons Ratio (x) = 0.27727 -0.15532
# Poissons Ratio (y) = 0.15813 0.15158
# Poissons Ratio (z) = -0.04018 0.06876
#
# Static dielectric constant tensor:
#      x y z
#    x 2.050010 0.027570 -0.027600 
#    y 0.027570 2.252410 -0.104230 
#    z -0.027600 -0.104230 2.244760 
# 
# From -- ./inp_files/425242.got.cif
#   From: 2010.05.17/outbox.cif.g08.bks.cpg/sg2_213_cif.got.tgz:425242.got - 2010.06.03 11:33:40.
