data_PCOD9056896
_publ_section_title
;
Structure prediction by ZEFSAII (Michael W. Deem and Ramdas Pophale) SiO2 
 PCOD9056896
Probable space group: P -1
;
_chemical_formula_sum "Si O2"
_cell_formula_units_Z 16
_cell_length_a 8.831721
_cell_length_b 18.138558
_cell_length_c 6.317086
_cell_angle_alpha 96.080479
_cell_angle_beta 88.919244
_cell_angle_gamma 47.208407
_cell_volume 732.689154
_symmetry_space_group_name_H-M "P -1"
_symmetry_group_IT_number 2
_symmetry_cell_setting 'triclinic'
loop_
_space_group_symop_operation_xyz
x,y,z
-x,-y,-z
loop_
_atom_site_type_symbol
_atom_site_label
_atom_site_fract_x
_atom_site_fract_y
_atom_site_fract_z
Si Si1 0.381670 0.085890 0.845900
Si Si2 0.268253 0.259062 0.196891
Si Si3 0.159718 0.795257 0.748850
Si Si4 0.460884 0.569770 0.211357
Si Si5 0.816554 0.380377 0.405528
Si Si6 0.382646 0.843001 0.510728
Si Si7 0.451721 0.735462 0.067788
Si Si8 0.214458 0.041298 0.491613
O O1 0.218576 0.094889 0.708376
O O2 0.562088 0.040003 0.654889
O O3 0.280376 0.189304 0.001434
O O4 0.500000 0.000000 0.000000
O O5 0.435409 0.186858 0.354951
O O6 0.043235 0.335975 0.334073
O O7 0.357162 0.304511 0.101477
O O8 0.197825 0.695024 0.731549
O O9 0.313803 0.786371 0.584335
O O10 0.940596 0.882424 0.667111
O O11 0.231663 0.807612 0.970320
O O12 0.643705 0.493859 0.353639
O O13 0.247132 0.619652 0.352894
O O14 0.473944 0.647840 0.144482
O O15 0.500000 0.500000 0.000000
O O16 0.445658 0.801432 0.260998
O O17 0.196569 0.964501 0.560706
#
# Coordination Sequence:
#
# PCOD9056896 Si02
#       8
#     2   2   2   2   2   2   2   2
#     4  11  22  41  63  95 143 183 226 287 334 392
#     4  11  25  43  69 103 141 180 227 281 344 408
#     4  11  24  41  67 101 135 180 238 278 336 404
#     4  11  24  48  74 100 135 172 226 289 355 410
#     4  11  25  44  73 107 128 174 232 287 342 421
#     4  11  23  44  63  98 144 183 226 286 336 400
#     4  11  24  46  70  97 142 183 223 289 348 406
#     4  11  24  39  65 100 137 188 236 277 329 400
#
# _framework density 21.837364999999998
#
# number of rings (size 3 to 8) (size 9 to 14) (size 15 to 20)
#    0.000    1.000    5.000    1.125    1.750    5.000 
#    0.000    1.250    0.000    0.000    0.000    0.000 
#    0.000    0.000    0.000    0.000    0.000    0.000 
#
# Total GULP energy -89299.895623 kJ/mol
# GULP energy per Si atom -5581.243476 kJ/mol
# Density = 2.178766 g / cm^3
# Si number density = 21.837365 Si / 1000 Ang^3
#
#
#
# Elastic Constant Matrix: (Units=GPa)
#
#
# Indices 1 2 3 4 5 6 
#
# 1 118.1581 51.7958 65.6324 -1.8261 -1.3975 -6.8728
# 2 51.7958 99.7172 39.9734 -20.6469 5.5060 6.2626
# 3 65.6324 39.9734 117.9764 4.3005 3.2015 5.7900
# 4 -1.8261 -20.6469 4.3005 34.9277 6.6976 -5.9548
# 5 -1.3975 5.5060 3.2015 6.6976 23.4461 6.7205
# 6 -6.8728 6.2626 5.7900 -5.9548 6.7205 30.2840
#
#
#
# Elastic Compliance Matrix: (Units=1/GPa)
#
#
# Indices 1 2 3 4 5 6 
#
# 1 0.015022 -0.005876 -0.006625 -0.001398 0.002103 0.005149
# 2 -0.005876 0.016895 -0.002648 0.011257 -0.007014 -0.000551
# 3 -0.006625 -0.002648 0.013425 -0.004554 0.001026 -0.004646
# 4 -0.001398 0.011257 -0.004554 0.040631 -0.016545 0.009887
# 5 0.002103 -0.007014 0.001026 -0.016545 0.052805 -0.013240
# 6 0.005149 -0.000551 -0.004646 0.009887 -0.013240 0.040074
#
#
# Mechanical properties :
#
#
# Convention : Reuss Voigt Hill
#
# Bulk Modulus (GPa) = 66.47417 72.29501 69.38459
# Shear Modulus (GPa) = 23.34666 29.62823 26.48745
#
# Velocity S-wave (km/s) = 3.27328 3.68743 3.48651
# Velocity P-wave (km/s) = 6.69272 7.16292 6.93181
#
# Compressibility (1/GPa) = 0.01504344
#
# Stress axis : x y z
#
# Youngs Moduli (GPa) = 66.57109 59.18961 74.48677
#
# Poissons Ratio (x) = 0.34779 0.49345
# Poissons Ratio (y) = 0.39117 0.19728
# Poissons Ratio (z) = 0.44101 0.15676
#
# Static dielectric constant tensor:
#      x y z
#    x 1.858550 0.018760 -0.031600 
#    y 0.018760 1.793450 -0.031800 
#    z -0.031600 -0.031800 1.835170 
# 
# From -- ./inp_files/48266.got.cif
#   From: 2010.05.17/outbox.cif.g08.bks.cpg/sg2_25_cif.got.tgz:48266.got - 2010.06.03 11:33:40.
