data_PCOD9056245
_publ_section_title
;
Structure prediction by ZEFSAII (Michael W. Deem and Ramdas Pophale) SiO2 
 PCOD9056245
Probable space group: P -1
;
_chemical_formula_sum "Si O2"
_cell_formula_units_Z 16
_cell_length_a 9.026258
_cell_length_b 7.978682
_cell_length_c 15.192473
_cell_angle_alpha 46.374979
_cell_angle_beta 87.492088
_cell_angle_gamma 115.664823
_cell_volume 607.553012
_symmetry_space_group_name_H-M "P -1"
_symmetry_group_IT_number 2
_symmetry_cell_setting 'triclinic'
loop_
_space_group_symop_operation_xyz
x,y,z
-x,-y,-z
loop_
_atom_site_type_symbol
_atom_site_label
_atom_site_fract_x
_atom_site_fract_y
_atom_site_fract_z
Si Si1 0.574997 0.334844 0.889189
Si Si2 0.578304 0.752772 0.623257
Si Si3 0.797580 0.000420 0.871739
Si Si4 0.052332 0.643101 0.596526
Si Si5 0.554623 0.957359 0.738053
Si Si6 0.793530 0.331430 0.025909
Si Si7 0.824016 0.615519 0.463874
Si Si8 0.799779 0.831282 0.225324
O O1 0.632100 0.549859 0.728563
O O2 0.754933 0.477753 0.898298
O O3 0.500000 0.000000 0.000000
O O4 0.386116 0.254273 0.972924
O O5 0.549153 0.866362 0.672494
O O6 0.373576 0.520021 0.665739
O O7 0.762738 0.067851 0.463389
O O8 0.894815 0.349318 0.765113
O O9 0.982995 0.018684 0.864810
O O10 0.705133 0.957820 0.792939
O O11 0.105327 0.496476 0.574239
O O12 0.963134 0.747419 0.496210
O O13 0.352411 0.739732 0.868949
O O14 0.628831 0.296795 0.616367
O O15 0.742711 0.015919 0.116346
O O16 0.000000 0.500000 0.000000
O O17 0.804530 0.830420 0.332044
#
# Coordination Sequence:
#
# PCOD9056245 Si02
#       8
#     2   2   2   2   2   2   2   2
#     4  11  24  44  59  83 127 161 189 247 306 347
#     4  11  22  36  65  89 121 154 200 241 300 346
#     4   9  21  39  66  85 118 159 203 234 292 360
#     4   8  16  35  59  92 111 154 198 243 283 357
#     4   9  21  41  62  88 116 159 195 242 293 359
#     4  11  26  40  59  87 123 152 204 245 291 347
#     4   8  16  34  62  84 120 150 197 236 294 349
#     4  11  22  37  61  93 120 152 193 252 292 343
#
# _framework density 26.335149000000001
#
# number of rings (size 3 to 8) (size 9 to 14) (size 15 to 20)
#    0.000    2.250    1.250    2.250    5.250    7.500 
#    0.000    0.625    0.000    0.000    0.000    0.000 
#    0.000    0.000    0.000    0.000    0.000    0.000 
#
# Total GULP energy -89460.298327 kJ/mol
# GULP energy per Si atom -5591.268645 kJ/mol
# Density = 2.627521 g / cm^3
# Si number density = 26.335149 Si / 1000 Ang^3
#
#
#
# Elastic Constant Matrix: (Units=GPa)
#
#
# Indices 1 2 3 4 5 6 
#
# 1 121.8562 41.0297 25.4267 -8.8789 6.5759 17.9112
# 2 41.0297 69.0036 14.3052 -21.6540 -19.5780 25.6398
# 3 25.4267 14.3052 77.2596 -13.7652 10.1508 11.1591
# 4 -8.8789 -21.6540 -13.7652 35.6910 10.4227 -12.4702
# 5 6.5759 -19.5780 10.1508 10.4227 42.2470 -5.1710
# 6 17.9112 25.6398 11.1591 -12.4702 -5.1710 32.1167
#
#
#
# Elastic Compliance Matrix: (Units=1/GPa)
#
#
# Indices 1 2 3 4 5 6 
#
# 1 0.011565 -0.008075 -0.001858 -0.001602 -0.004792 -0.000751
# 2 -0.008075 0.030869 -0.001171 0.007525 0.012169 -0.014852
# 3 -0.001858 -0.001171 0.015899 0.005882 -0.005794 -0.002202
# 4 -0.001602 0.007525 0.005882 0.038711 -0.006389 0.006844
# 5 -0.004792 0.012169 -0.005794 -0.006389 0.032750 -0.002237
# 6 -0.000751 -0.014852 -0.002202 0.006844 -0.002237 0.046475
#
#
# Mechanical properties :
#
#
# Convention : Reuss Voigt Hill
#
# Bulk Modulus (GPa) = 27.68162 47.73807 37.70985
# Shear Modulus (GPa) = 23.75085 34.50145 29.12615
#
# Velocity S-wave (km/s) = 3.00637 3.62344 3.32924
# Velocity P-wave (km/s) = 4.75238 5.97263 5.39710
#
# Compressibility (1/GPa) = 0.03612505
#
# Stress axis : x y z
#
# Youngs Moduli (GPa) = 86.46565 32.39537 62.89675
#
# Poissons Ratio (x) = 0.26158 0.11688
# Poissons Ratio (y) = 0.69817 0.07366
# Poissons Ratio (z) = 0.16068 0.03794
#
# Static dielectric constant tensor:
#      x y z
#    x 2.141110 -0.063610 0.035670 
#    y -0.063610 2.168510 -0.092950 
#    z 0.035670 -0.092950 2.122970 
# 
# From -- ./inp_files/279942.got.cif
#   From: 2010.05.17/outbox.cif.g08.bks.cpg/sg2_140_cif.got.tgz:279942.got - 2010.06.03 11:33:40.
