data_PCOD9056835
_publ_section_title
;
Structure prediction by ZEFSAII (Michael W. Deem and Ramdas Pophale) SiO2 
 PCOD9056835
Probable space group: P -1
;
_chemical_formula_sum "Si O2"
_cell_formula_units_Z 15
_cell_length_a 14.171157
_cell_length_b 11.561030
_cell_length_c 12.969421
_cell_angle_alpha 42.984036
_cell_angle_beta 147.657587
_cell_angle_gamma 147.977686
_cell_volume 601.882369
_symmetry_space_group_name_H-M "P -1"
_symmetry_group_IT_number 2
_symmetry_cell_setting 'triclinic'
loop_
_space_group_symop_operation_xyz
x,y,z
-x,-y,-z
loop_
_atom_site_type_symbol
_atom_site_label
_atom_site_fract_x
_atom_site_fract_y
_atom_site_fract_z
Si Si1 0.364008 0.186975 0.651353
Si Si2 0.112587 0.477977 0.021968
Si Si3 0.371278 0.318710 0.093503
Si Si4 0.154701 0.892583 0.258464
Si Si5 0.326302 0.273475 0.776964
Si Si6 0.734144 0.260121 0.202374
Si Si7 0.114058 0.098494 0.277855
Si Si8 0.000000 0.500000 0.500000
O O1 0.623658 0.365922 0.805657
O O2 0.245048 0.193469 0.638000
O O3 0.287190 0.222371 0.451112
O O4 0.317984 0.961370 0.737163
O O5 0.034683 0.239496 0.087912
O O6 0.096248 0.565242 0.842292
O O7 0.000000 0.500000 0.000000
O O8 0.533464 0.472037 0.237204
O O9 0.309392 0.080103 0.192154
O O10 0.500000 0.500000 0.000000
O O11 0.118713 0.245231 0.920822
O O12 0.160115 0.706310 0.428103
O O13 0.206529 0.047646 0.302157
O O14 0.502615 0.230771 0.998614
O O15 0.106184 0.136702 0.733613
O O16 0.837636 0.338044 0.360176
#
# Coordination Sequence:
#
# PCOD9056835 Si02
#       8
#     2   2   2   2   2   2   2   1
#     4  11  23  42  65  99 137 180 231 291 358 416
#     4  11  24  43  68 102 139 183 233 289 361 433
#     4  11  23  43  70  98 133 184 242 289 354 428
#     4  11  24  43  69 101 137 188 235 300 352 422
#     4  11  22  40  71  96 139 180 236 289 359 425
#     4  11  23  43  67  95 139 189 225 293 359 422
#     4  12  23  41  71 102 134 181 236 298 351 421
#     4  12  24  44  70  98 146 184 238 298 362 412
#
# _framework density 24.921813
#
# number of rings (size 3 to 8) (size 9 to 14) (size 15 to 20)
#    0.000    0.800    4.000    5.600    1.867    0.000 
#    0.000    2.000    0.000    0.000    0.000    0.000 
#    0.000    0.000    0.000    0.000    0.000    0.000 
#
# Total GULP energy -83640.836707 kJ/mol
# GULP energy per Si atom -5576.055780 kJ/mol
# Density = 2.486509 g / cm^3
# Si number density = 24.921813 Si / 1000 Ang^3
#
#
#
# Elastic Constant Matrix: (Units=GPa)
#
#
# Indices 1 2 3 4 5 6 
#
# 1 61.3639 12.8607 30.9334 5.9300 -18.2623 10.7241
# 2 12.8607 158.7539 41.9635 2.0754 -10.1503 8.7694
# 3 30.9334 41.9635 85.5236 16.3776 -36.5276 -1.1548
# 4 5.9300 2.0754 16.3776 53.2064 -14.2051 -9.5419
# 5 -18.2623 -10.1503 -36.5276 -14.2051 35.7242 5.9075
# 6 10.7241 8.7694 -1.1548 -9.5419 5.9075 43.0052
#
#
#
# Elastic Compliance Matrix: (Units=1/GPa)
#
#
# Indices 1 2 3 4 5 6 
#
# 1 0.022176 0.000419 -0.005224 -0.000184 0.007162 -0.006780
# 2 0.000419 0.007481 -0.004883 0.000302 -0.002305 -0.001377
# 3 -0.005224 -0.004883 0.025368 -0.001376 0.021377 -0.000262
# 4 -0.000184 0.000302 -0.001376 0.021671 0.006565 0.003854
# 5 0.007162 -0.002305 0.021377 0.006565 0.056635 -0.007065
# 6 -0.006780 -0.001377 -0.000262 0.003854 -0.007065 0.027043
#
#
# Mechanical properties :
#
#
# Convention : Reuss Voigt Hill
#
# Bulk Modulus (GPa) = 28.05112 53.01741 40.53426
# Shear Modulus (GPa) = 26.09151 41.04608 33.56879
#
# Velocity S-wave (km/s) = 3.23915 4.06272 3.67408
# Velocity P-wave (km/s) = 5.02688 6.58235 5.85648
#
# Compressibility (1/GPa) = 0.03564920
#
# Stress axis : x y z
#
# Youngs Moduli (GPa) = 45.09388 133.67890 39.41903
#
# Poissons Ratio (x) = -0.05605 0.20592
# Poissons Ratio (y) = -0.01891 0.19249
# Poissons Ratio (z) = 0.23557 0.65278
#
# Static dielectric constant tensor:
#      x y z
#    x 2.164370 0.060070 -0.067340 
#    y 0.060070 1.953970 -0.081870 
#    z -0.067340 -0.081870 2.085600 
# 
# From -- ./inp_files/451153.got.cif
#   From: 2010.05.17/outbox.cif.g08.bks.cpg/sg2_226_cif.got.tgz:451153.got - 2010.06.03 11:33:40.
