data_PCOD9056232
_publ_section_title
;
Structure prediction by ZEFSAII (Michael W. Deem and Ramdas Pophale) SiO2 
 PCOD9056232
Probable space group: P -1
;
_chemical_formula_sum "Si O2"
_cell_formula_units_Z 16
_cell_length_a 10.083824
_cell_length_b 8.350570
_cell_length_c 12.857736
_cell_angle_alpha 43.583876
_cell_angle_beta 72.515417
_cell_angle_gamma 64.001125
_cell_volume 670.635258
_symmetry_space_group_name_H-M "P -1"
_symmetry_group_IT_number 2
_symmetry_cell_setting 'triclinic'
loop_
_space_group_symop_operation_xyz
x,y,z
-x,-y,-z
loop_
_atom_site_type_symbol
_atom_site_label
_atom_site_fract_x
_atom_site_fract_y
_atom_site_fract_z
Si Si1 0.468548 0.698301 0.006491
Si Si2 0.805261 0.768872 0.706069
Si Si3 0.133565 0.619077 0.703883
Si Si4 0.586285 0.275857 0.509392
Si Si5 0.331950 0.451831 0.333545
Si Si6 0.905366 0.064924 0.825592
Si Si7 0.208688 0.361685 0.018968
Si Si8 0.826939 0.918055 0.138866
O O1 0.413098 0.580709 0.173418
O O2 0.500000 0.500000 0.000000
O O3 0.615872 0.745499 0.984810
O O4 0.346347 0.941890 0.876421
O O5 0.753139 0.689014 0.648610
O O6 0.822322 0.562441 0.888917
O O7 0.965006 0.794517 0.645946
O O8 0.671809 0.008042 0.662903
O O9 0.274662 0.679727 0.601496
O O10 0.139219 0.365616 0.764573
O O11 0.154637 0.563474 0.847917
O O12 0.500000 0.500000 0.500000
O O13 0.457452 0.277417 0.459115
O O14 0.205694 0.677458 0.312961
O O15 0.073245 0.056703 0.799874
O O16 0.868523 0.842079 0.886459
O O17 0.864239 0.045696 0.965981
#
# Coordination Sequence:
#
# PCOD9056232 Si02
#       8
#     2   2   2   2   2   2   2   2
#     4  11  22  36  63 105 140 170 216 279 338 399
#     4  12  25  45  69 102 138 176 223 277 339 402
#     4  11  24  45  71  99 135 178 223 280 337 395
#     4  12  28  47  70  96 134 182 232 276 330 401
#     4  11  22  43  68  93 136 179 220 275 337 396
#     4   9  19  37  61  96 129 172 218 267 329 394
#     4  11  23  39  72 105 135 173 222 276 336 401
#     4   9  20  35  62  92 135 173 214 270 337 386
#
# _framework density 23.857975
#
# number of rings (size 3 to 8) (size 9 to 14) (size 15 to 20)
#    0.000    1.250    3.750    1.875    5.250    2.500 
#    0.000    0.625    0.000    0.000    0.000    0.000 
#    0.000    0.000    0.000    0.000    0.000    0.000 
#
# Total GULP energy -89481.245982 kJ/mol
# GULP energy per Si atom -5592.577874 kJ/mol
# Density = 2.380367 g / cm^3
# Si number density = 23.857975 Si / 1000 Ang^3
#
#
#
# Elastic Constant Matrix: (Units=GPa)
#
#
# Indices 1 2 3 4 5 6 
#
# 1 193.4603 26.4373 38.7083 7.3894 34.1595 -16.2717
# 2 26.4373 70.5723 9.2007 -1.5467 15.8466 -10.3123
# 3 38.7083 9.2007 60.4046 0.1516 13.1074 -3.8175
# 4 7.3894 -1.5467 0.1516 19.4613 -2.8807 10.3003
# 5 34.1595 15.8466 13.1074 -2.8807 26.8683 -3.3302
# 6 -16.2717 -10.3123 -3.8175 10.3003 -3.3302 38.8681
#
#
#
# Elastic Compliance Matrix: (Units=1/GPa)
#
#
# Indices 1 2 3 4 5 6 
#
# 1 0.007874 -0.000193 -0.002868 -0.006332 -0.008694 0.003897
# 2 -0.000193 0.016930 -0.000150 -0.002175 -0.009383 0.004169
# 3 -0.002868 -0.000150 0.019699 -0.000053 -0.005856 0.000207
# 4 -0.006332 -0.002175 -0.000053 0.066027 0.014017 -0.019530
# 5 -0.008694 -0.009383 -0.005856 0.014017 0.057484 -0.005494
# 6 0.003897 0.004169 0.000207 -0.019530 -0.005494 0.033190
#
#
# Mechanical properties :
#
#
# Convention : Reuss Voigt Hill
#
# Bulk Modulus (GPa) = 26.25921 52.56998 39.41459
# Shear Modulus (GPa) = 22.69419 33.71225 28.20322
#
# Velocity S-wave (km/s) = 3.08753 3.76312 3.44194
# Velocity P-wave (km/s) = 4.87246 6.40030 5.68791
#
# Compressibility (1/GPa) = 0.03808188
#
# Stress axis : x y z
#
# Youngs Moduli (GPa) = 127.00358 59.06614 50.76292
#
# Poissons Ratio (x) = 0.01140 0.14557
# Poissons Ratio (y) = 0.02452 0.00762
# Poissons Ratio (z) = 0.36420 0.00886
#
# Static dielectric constant tensor:
#      x y z
#    x 1.927060 -0.024290 0.006790 
#    y -0.024290 1.926010 -0.012740 
#    z 0.006790 -0.012740 1.918350 
# 
# From -- ./inp_files/494239.got.cif
#   From: 2010.05.17/outbox.cif.g08.bks.cpg/sg2_248_cif.got.tgz:494239.got - 2010.06.03 11:33:40.
