data_PCOD9056192
_publ_section_title
;
Structure prediction by ZEFSAII (Michael W. Deem and Ramdas Pophale) SiO2 
 PCOD9056192
Probable space group: P -1
;
_chemical_formula_sum "Si O2"
_cell_formula_units_Z 12
_cell_length_a 13.634862
_cell_length_b 14.376566
_cell_length_c 9.377320
_cell_angle_alpha 26.144273
_cell_angle_beta 141.863436
_cell_angle_gamma 137.145234
_cell_volume 497.708171
_symmetry_space_group_name_H-M "P -1"
_symmetry_group_IT_number 2
_symmetry_cell_setting 'triclinic'
loop_
_space_group_symop_operation_xyz
x,y,z
-x,-y,-z
loop_
_atom_site_type_symbol
_atom_site_label
_atom_site_fract_x
_atom_site_fract_y
_atom_site_fract_z
Si Si1 0.587713 0.325314 0.007354
Si Si2 0.646525 0.806495 0.302080
Si Si3 0.702309 0.673044 0.109708
Si Si4 0.946497 0.722996 0.573308
Si Si5 0.176511 0.524157 0.725801
Si Si6 0.753413 0.934776 0.534852
O O1 0.619103 0.557794 0.654486
O O2 0.508585 0.170513 0.007769
O O3 0.447341 0.340469 0.940056
O O4 0.747561 0.304531 0.311129
O O5 0.810407 0.820155 0.379907
O O6 0.662168 0.957301 0.249884
O O7 0.860289 0.696147 0.357336
O O8 0.712287 0.471458 0.294522
O O9 0.693305 0.860821 0.726272
O O10 0.106116 0.880941 0.540040
O O11 0.000000 0.500000 0.000000
O O12 0.000000 0.500000 0.500000
O O13 0.180070 0.291080 0.118356
#
# Coordination Sequence:
#
# PCOD9056192 Si02
#       6
#     2   2   2   2   2   2
#     4   9  17  35  57  86 115 158 189 225 299 355
#     4   9  19  33  58  82 118 158 187 233 292 350
#     4   9  20  34  59  85 118 156 190 238 289 343
#     4  11  22  35  57  89 119 155 197 245 288 339
#     4   9  19  32  61  90 116 147 192 241 284 343
#     4   9  20  36  59  87 118 152 200 235 289 338
#
# _framework density 24.110513999999998
#
# number of rings (size 3 to 8) (size 9 to 14) (size 15 to 20)
#    1.000    1.667    0.000    1.500    4.667    0.000 
#    0.000    0.000    0.000   38.000    0.000    0.000 
#    0.000    0.000    0.000    0.000    0.000    0.000 
#
# Total GULP energy -66849.073732 kJ/mol
# GULP energy per Si atom -5570.756144 kJ/mol
# Density = 2.405564 g / cm^3
# Si number density = 24.110514 Si / 1000 Ang^3
#
#
#
# Elastic Constant Matrix: (Units=GPa)
#
#
# Indices 1 2 3 4 5 6 
#
# 1 236.5351 350.4513 186.4070 4.4696 -85.1000 46.4917
# 2 350.4513 782.2024 398.9902 40.7620 -129.1673 116.5011
# 3 186.4070 398.9902 285.8647 29.6890 -77.4850 72.5260
# 4 4.4696 40.7620 29.6890 50.4704 2.4207 -13.2788
# 5 -85.1000 -129.1673 -77.4850 2.4207 48.9126 -27.0448
# 6 46.4917 116.5011 72.5260 -13.2788 -27.0448 72.8191
#
#
#
# Elastic Compliance Matrix: (Units=1/GPa)
#
#
# Indices 1 2 3 4 5 6 
#
# 1 0.021195 -0.006999 -0.000678 0.005022 0.020965 0.007043
# 2 -0.006999 0.007196 -0.005062 -0.003041 -0.003090 -0.003705
# 3 -0.000678 -0.005062 0.014432 -0.005860 0.006020 -0.004675
# 4 0.005022 -0.003041 -0.005860 0.028422 -0.003742 0.011289
# 5 0.020965 -0.003090 0.006020 -0.003742 0.063074 0.008306
# 6 0.007043 -0.003705 -0.004675 0.011289 0.008306 0.024964
#
#
# Mechanical properties :
#
#
# Convention : Reuss Voigt Hill
#
# Bulk Modulus (GPa) = 57.65124 352.92214 205.28669
# Shear Modulus (GPa) = 26.24079 59.02401 42.63240
#
# Velocity S-wave (km/s) = 3.30260 4.95316 4.20957
# Velocity P-wave (km/s) = 6.20532 13.39426 10.43821
#
# Compressibility (1/GPa) = 0.01734568
#
# Stress axis : x y z
#
# Youngs Moduli (GPa) = 47.18042 138.96465 69.29109
#
# Poissons Ratio (x) = 0.97258 0.04699
# Poissons Ratio (y) = 0.33020 0.35073
# Poissons Ratio (z) = 0.03200 0.70341
#
# Static dielectric constant tensor:
#      x y z
#    x 2.129510 -0.182530 -0.039150 
#    y -0.182530 2.072710 0.198320 
#    z -0.039150 0.198320 2.140380 
# 
# From -- ./inp_files/300469.got.cif
#   From: 2010.05.17/outbox.cif.g08.bks.cpg/sg2_151_cif.got.tgz:300469.got - 2010.06.03 11:33:40.
