data_PCOD9056292
_publ_section_title
;
Structure prediction by ZEFSAII (Michael W. Deem and Ramdas Pophale) SiO2 
 PCOD9056292
Probable space group: P -1
;
_chemical_formula_sum "Si O2"
_cell_formula_units_Z 16
_cell_length_a 4.838051
_cell_length_b 22.422869
_cell_length_c 12.912056
_cell_angle_alpha 153.756152
_cell_angle_beta 86.393416
_cell_angle_gamma 89.933465
_cell_volume 612.884513
_symmetry_space_group_name_H-M "P -1"
_symmetry_group_IT_number 2
_symmetry_cell_setting 'triclinic'
loop_
_space_group_symop_operation_xyz
x,y,z
-x,-y,-z
loop_
_atom_site_type_symbol
_atom_site_label
_atom_site_fract_x
_atom_site_fract_y
_atom_site_fract_z
Si Si1 0.220852 0.269236 0.210466
Si Si2 0.033686 0.293013 0.035040
Si Si3 0.615212 0.145686 0.727311
Si Si4 0.689557 0.543754 0.317406
Si Si5 0.788235 0.361576 0.657389
Si Si6 0.185574 0.879559 0.864397
Si Si7 0.917049 0.180141 0.557160
Si Si8 0.488478 0.003800 0.225528
O O1 0.373165 0.360529 0.429093
O O2 0.995446 0.201315 0.178318
O O3 0.070287 0.341225 0.226659
O O4 0.424890 0.145291 0.959485
O O5 0.860602 0.163786 0.832275
O O6 0.338600 0.252356 0.916501
O O7 0.850949 0.407886 0.151621
O O8 0.774218 0.175175 0.663553
O O9 0.242091 0.115638 0.448288
O O10 0.500000 0.000000 0.500000
O O11 0.440720 0.526284 0.215480
O O12 0.913941 0.611212 0.349361
O O13 0.698680 0.230952 0.395404
O O14 0.837307 0.319650 0.711036
O O15 0.404572 0.953528 0.037747
O O16 0.000000 0.000000 0.000000
O O17 0.767392 0.070764 0.327773
#
# Coordination Sequence:
#
# PCOD9056292 Si02
#       8
#     2   2   2   2   2   2   2   2
#     4  11  25  40  70 104 144 184 223 275 348 417
#     4  12  28  50  73  98 138 184 236 288 337 402
#     4  12  29  50  74 100 133 181 239 289 345 400
#     4  11  25  46  70 105 139 182 230 279 341 420
#     4  11  23  42  68 102 144 182 223 284 343 408
#     4  11  22  37  63 105 146 179 221 271 349 424
#     4  12  26  43  69 101 143 179 234 286 345 396
#     4  12  22  39  66 104 143 179 219 276 351 413
#
# _framework density 26.106058999999998
#
# number of rings (size 3 to 8) (size 9 to 14) (size 15 to 20)
#    0.000    0.500    3.750    3.750    5.250    1.000 
#    0.000    6.875    0.000    0.000    0.000    0.000 
#    0.000    0.000    0.000    0.000    0.000    0.000 
#
# Total GULP energy -89548.647381 kJ/mol
# GULP energy per Si atom -5596.790461 kJ/mol
# Density = 2.604664 g / cm^3
# Si number density = 26.106059 Si / 1000 Ang^3
#
#
#
# Elastic Constant Matrix: (Units=GPa)
#
#
# Indices 1 2 3 4 5 6 
#
# 1 115.8375 21.8800 7.4872 -4.5481 -13.9046 -12.0643
# 2 21.8800 143.9248 19.9034 1.8859 -29.6171 -0.7880
# 3 7.4872 19.9034 55.8603 2.9920 -10.5427 4.9130
# 4 -4.5481 1.8859 2.9920 27.4482 -5.8301 -11.2255
# 5 -13.9046 -29.6171 -10.5427 -5.8301 38.0831 1.1004
# 6 -12.0643 -0.7880 4.9130 -11.2255 1.1004 41.5792
#
#
#
# Elastic Compliance Matrix: (Units=1/GPa)
#
#
# Indices 1 2 3 4 5 6 
#
# 1 0.009798 -0.000711 -0.001014 0.004098 0.003256 0.003969
# 2 -0.000711 0.008539 -0.001887 0.000878 0.005985 0.000257
# 3 -0.001014 -0.001887 0.019803 -0.002950 0.003295 -0.003554
# 4 0.004098 0.000878 -0.002950 0.044490 0.007787 0.013360
# 5 0.003256 0.005985 0.003295 0.007787 0.034152 0.001867
# 6 0.003969 0.000257 -0.003554 0.013360 0.001867 0.029184
#
#
# Mechanical properties :
#
#
# Convention : Reuss Voigt Hill
#
# Bulk Modulus (GPa) = 32.34691 46.01820 39.18256
# Shear Modulus (GPa) = 30.58194 39.17891 34.88043
#
# Velocity S-wave (km/s) = 3.42636 3.87817 3.65924
# Velocity P-wave (km/s) = 5.29818 6.14160 5.73541
#
# Compressibility (1/GPa) = 0.03091485
#
# Stress axis : x y z
#
# Youngs Moduli (GPa) = 102.06388 117.11318 50.49848
#
# Poissons Ratio (x) = 0.08329 0.05120
# Poissons Ratio (y) = 0.07259 0.09529
# Poissons Ratio (z) = 0.10348 0.22100
#
# Static dielectric constant tensor:
#      x y z
#    x 2.043540 -0.072210 -0.025270 
#    y -0.072210 2.191240 0.023180 
#    z -0.025270 0.023180 2.146130 
# 
# From -- ./inp_files/370549.got.cif
#   From: 2010.05.17/outbox.cif.g08.bks.cpg/sg2_186_cif.got.tgz:370549.got - 2010.06.03 11:33:40.
