data_PCOD9056386
_publ_section_title
;
Structure prediction by ZEFSAII (Michael W. Deem and Ramdas Pophale) SiO2 
 PCOD9056386
Probable space group: P -1
;
_chemical_formula_sum "Si O2"
_cell_formula_units_Z 14
_cell_length_a 10.713947
_cell_length_b 28.041668
_cell_length_c 13.505467
_cell_angle_alpha 20.219364
_cell_angle_beta 33.995653
_cell_angle_gamma 22.718928
_cell_volume 520.973514
_symmetry_space_group_name_H-M "P -1"
_symmetry_group_IT_number 2
_symmetry_cell_setting 'triclinic'
loop_
_space_group_symop_operation_xyz
x,y,z
-x,-y,-z
loop_
_atom_site_type_symbol
_atom_site_label
_atom_site_fract_x
_atom_site_fract_y
_atom_site_fract_z
Si Si1 0.851707 0.947262 0.769768
Si Si2 0.743886 0.344627 0.265544
Si Si3 0.751191 0.594566 0.651892
Si Si4 0.277715 0.692077 0.181412
Si Si5 0.357595 0.028037 0.803519
Si Si6 0.553912 0.088806 0.376297
Si Si7 0.503389 0.663002 0.359506
O O1 0.694545 0.900210 0.895263
O O2 0.127689 0.776899 0.001074
O O3 0.523654 0.161800 0.622300
O O4 0.000000 0.000000 0.500000
O O5 0.406675 0.442565 0.247092
O O6 0.707029 0.314501 0.460388
O O7 0.795660 0.481507 0.942318
O O8 0.053158 0.120091 0.450404
O O9 0.100012 0.491521 0.585482
O O10 0.478448 0.740906 0.969824
O O11 0.487074 0.453749 0.506007
O O12 0.946590 0.837962 0.181786
O O13 0.343912 0.153682 0.485829
O O14 0.366974 0.881434 0.021109
O O15 0.500000 0.000000 0.500000
#
# Coordination Sequence:
#
# PCOD9056386 Si02
#       7
#     2   2   2   2   2   2   2
#     4  12  22  40  68 107 150 181 222 281 357 428
#     4  11  23  41  65 104 141 179 232 281 349 413
#     4  11  22  38  65 105 145 177 215 286 356 422
#     4  12  26  44  69 109 139 184 233 283 354 418
#     4  12  25  45  70 102 145 180 229 288 351 420
#     4  12  27  51  73  94 138 195 243 288 338 404
#     4  12  25  39  71 104 142 176 220 285 357 423
#
# _framework density 26.872768000000001
#
# number of rings (size 3 to 8) (size 9 to 14) (size 15 to 20)
#    0.000    0.286    7.143    1.714    6.000    0.571 
#    0.000    1.429    0.000    0.000    0.000    0.000 
#    0.000    0.000    0.000    0.000    0.000    0.000 
#
# Total GULP energy -78542.498696 kJ/mol
# GULP energy per Si atom -5610.178478 kJ/mol
# Density = 2.681160 g / cm^3
# Si number density = 26.872768 Si / 1000 Ang^3
#
#
#
# Elastic Constant Matrix: (Units=GPa)
#
#
# Indices 1 2 3 4 5 6 
#
# 1 108.8707 30.8836 29.1905 17.3031 -29.7121 -10.0481
# 2 30.8836 116.1346 34.7070 27.0366 1.4048 14.4701
# 3 29.1905 34.7070 152.4088 23.6386 -19.6486 12.5833
# 4 17.3031 27.0366 23.6386 43.1575 3.4074 5.8322
# 5 -29.7121 1.4048 -19.6486 3.4074 47.8530 -2.1170
# 6 -10.0481 14.4701 12.5833 5.8322 -2.1170 47.8296
#
#
#
# Elastic Compliance Matrix: (Units=1/GPa)
#
#
# Indices 1 2 3 4 5 6 
#
# 1 0.013905 -0.003198 -0.000440 -0.004723 0.009104 0.004983
# 2 -0.003198 0.011343 -0.001360 -0.004415 -0.002710 -0.003327
# 3 -0.000440 -0.001360 0.008010 -0.003450 0.003247 -0.001224
# 4 -0.004723 -0.004415 -0.003450 0.030609 -0.006521 -0.002770
# 5 0.009104 -0.002710 0.003247 -0.006521 0.028601 0.003939
# 6 0.004983 -0.003327 -0.001224 -0.002770 0.003939 0.023795
#
#
# Mechanical properties :
#
#
# Convention : Reuss Voigt Hill
#
# Bulk Modulus (GPa) = 42.99010 62.99736 52.99373
# Shear Modulus (GPa) = 37.30932 46.61022 41.95977
#
# Velocity S-wave (km/s) = 3.73012 4.16922 3.95577
# Velocity P-wave (km/s) = 5.88083 6.83157 6.37395
#
# Compressibility (1/GPa) = 0.02326117
#
# Stress axis : x y z
#
# Youngs Moduli (GPa) = 71.91405 88.16136 124.84209
#
# Poissons Ratio (x) = 0.28193 0.05497
# Poissons Ratio (y) = 0.22997 0.16984
# Poissons Ratio (z) = 0.03167 0.11994
#
# Static dielectric constant tensor:
#      x y z
#    x 2.249790 -0.008950 0.060410 
#    y -0.008950 2.000930 -0.011310 
#    z 0.060410 -0.011310 2.118350 
# 
# From -- ./inp_files/307051.got.cif
#   From: 2010.05.17/outbox.cif.g08.bks.cpg/sg2_154_cif.got.tgz:307051.got - 2010.06.03 11:33:40.
