data_PCOD9056492
_publ_section_title
;
Structure prediction by ZEFSAII (Michael W. Deem and Ramdas Pophale) SiO2 
 PCOD9056492
Probable space group: P -1
;
_chemical_formula_sum "Si O2"
_cell_formula_units_Z 16
_cell_length_a 7.719388
_cell_length_b 18.409096
_cell_length_c 13.970984
_cell_angle_alpha 158.410353
_cell_angle_beta 116.060545
_cell_angle_gamma 61.940526
_cell_volume 644.653112
_symmetry_space_group_name_H-M "P -1"
_symmetry_group_IT_number 2
_symmetry_cell_setting 'triclinic'
loop_
_space_group_symop_operation_xyz
x,y,z
-x,-y,-z
loop_
_atom_site_type_symbol
_atom_site_label
_atom_site_fract_x
_atom_site_fract_y
_atom_site_fract_z
Si Si1 0.337506 0.269862 0.417276
Si Si2 0.294719 0.330570 0.031560
Si Si3 0.442668 0.810583 0.919177
Si Si4 0.856525 0.807206 0.904429
Si Si5 0.254557 0.734258 0.600897
Si Si6 0.029978 0.829698 0.167579
Si Si7 0.314123 0.457733 0.844749
Si Si8 0.706555 0.847899 0.381360
O O1 0.541766 0.265347 0.405596
O O2 0.339291 0.408847 0.679084
O O3 0.346095 0.043841 0.182011
O O4 0.164377 0.303759 0.337176
O O5 0.502533 0.283800 0.079691
O O6 0.293612 0.321173 0.906876
O O7 0.188229 0.149578 0.817907
O O8 0.181605 0.542501 0.305577
O O9 0.648843 0.799106 0.897628
O O10 0.307518 0.701272 0.685171
O O11 0.015403 0.754886 0.962636
O O12 0.861578 0.040644 0.165986
O O13 0.121474 0.026790 0.434477
O O14 0.156227 0.661749 0.058806
O O15 0.267698 0.262197 0.646384
O O16 0.500000 0.500000 0.000000
O O17 0.500000 0.000000 0.500000
#
# Coordination Sequence:
#
# PCOD9056492 Si02
#       8
#     2   2   2   2   2   2   2   2
#     4   9  18  38  64  93 128 170 207 258 317 374
#     4  11  22  39  64  96 127 167 211 265 317 366
#     4   8  16  33  61  94 127 161 209 260 311 377
#     4   8  18  38  62  92 130 162 203 267 323 365
#     4   9  17  33  66  98 123 163 213 258 312 381
#     4  11  26  44  64  94 132 163 212 271 316 373
#     4  12  25  43  66  92 127 171 220 256 308 387
#     4  12  26  46  65  90 130 169 215 259 314 383
#
# _framework density 24.819552000000002
#
# number of rings (size 3 to 8) (size 9 to 14) (size 15 to 20)
#    0.000    2.000    1.250    3.750    1.750    1.000 
#    4.500    0.625    2.750    0.000    0.000    0.000 
#    0.000    0.000    0.000    0.000    0.000    0.000 
#
# Total GULP energy -89451.045042 kJ/mol
# GULP energy per Si atom -5590.690315 kJ/mol
# Density = 2.476306 g / cm^3
# Si number density = 24.819552 Si / 1000 Ang^3
#
#
#
# Elastic Constant Matrix: (Units=GPa)
#
#
# Indices 1 2 3 4 5 6 
#
# 1 32.7354 18.2719 18.9566 -7.3697 12.6628 7.1108
# 2 18.2719 150.1897 23.5843 -21.1382 0.7667 -0.8082
# 3 18.9566 23.5843 103.5862 -29.2747 14.4658 0.1836
# 4 -7.3697 -21.1382 -29.2747 50.8168 12.4489 -1.6013
# 5 12.6628 0.7667 14.4658 12.4489 24.4581 0.9092
# 6 7.1108 -0.8082 0.1836 -1.6013 0.9092 21.8466
#
#
#
# Elastic Compliance Matrix: (Units=1/GPa)
#
#
# Indices 1 2 3 4 5 6 
#
# 1 0.051945 -0.004346 -0.000176 0.013202 -0.032826 -0.014733
# 2 -0.004346 0.007549 -0.000566 0.001921 0.001304 0.001785
# 3 -0.000176 -0.000566 0.015513 0.012518 -0.015493 0.001468
# 4 0.013202 0.001921 0.012518 0.037815 -0.033540 -0.000164
# 5 -0.032826 0.001304 -0.015493 -0.033540 0.083892 0.004913
# 6 -0.014733 0.001785 0.001468 -0.000164 0.004913 0.050406
#
#
# Mechanical properties :
#
#
# Convention : Reuss Voigt Hill
#
# Bulk Modulus (GPa) = 15.42412 45.34852 30.38632
# Shear Modulus (GPa) = 17.92715 34.47088 26.19901
#
# Velocity S-wave (km/s) = 2.69048 3.73078 3.25249
# Velocity P-wave (km/s) = 3.98492 6.07201 5.13560
#
# Compressibility (1/GPa) = 0.06483352
#
# Stress axis : x y z
#
# Youngs Moduli (GPa) = 19.25100 132.46645 64.46041
#
# Poissons Ratio (x) = 0.57566 0.01132
# Poissons Ratio (y) = 0.08366 0.03648
# Poissons Ratio (z) = 0.00338 0.07497
#
# Static dielectric constant tensor:
#      x y z
#    x 2.004320 0.006580 -0.002990 
#    y 0.006580 1.941760 -0.006870 
#    z -0.002990 -0.006870 1.999380 
# 
# From -- ./inp_files/508216.got.cif
#   From: 2010.05.17/outbox.cif.g08.bks.cpg/sg2_255_cif.got.tgz:508216.got - 2010.06.03 11:33:40.
