data_PCOD9056169
_publ_section_title
;
Structure prediction by ZEFSAII (Michael W. Deem and Ramdas Pophale) SiO2 
 PCOD9056169
Probable space group: P -1
;
_chemical_formula_sum "Si O2"
_cell_formula_units_Z 16
_cell_length_a 9.140979
_cell_length_b 10.986744
_cell_length_c 17.063736
_cell_angle_alpha 135.058210
_cell_angle_beta 44.930519
_cell_angle_gamma 101.622453
_cell_volume 683.540880
_symmetry_space_group_name_H-M "P -1"
_symmetry_group_IT_number 2
_symmetry_cell_setting 'triclinic'
loop_
_space_group_symop_operation_xyz
x,y,z
-x,-y,-z
loop_
_atom_site_type_symbol
_atom_site_label
_atom_site_fract_x
_atom_site_fract_y
_atom_site_fract_z
Si Si1 0.855060 0.430952 0.878037
Si Si2 0.869942 0.396893 0.330370
Si Si3 0.539944 0.887795 0.015120
Si Si4 0.818650 0.835601 0.578407
Si Si5 0.766194 0.577979 0.182201
Si Si6 0.384259 0.036509 0.455012
Si Si7 0.490325 0.618828 0.435474
Si Si8 0.376327 0.532817 0.187689
O O1 0.719607 0.479949 0.868546
O O2 0.030540 0.510729 0.859413
O O3 0.097538 0.177256 0.667978
O O4 0.636785 0.510208 0.062671
O O5 0.833562 0.619353 0.465303
O O6 0.690168 0.448474 0.347330
O O7 0.776198 0.330252 0.409743
O O8 0.168378 0.215485 0.115326
O O9 0.537245 0.686611 0.906715
O O10 0.666924 0.964196 0.771965
O O11 0.500000 0.000000 0.000000
O O12 0.670347 0.981244 0.623647
O O13 0.119613 0.743556 0.417915
O O14 0.573568 0.536838 0.276775
O O15 0.569554 0.823231 0.337147
O O16 0.000000 0.500000 0.000000
O O17 0.499158 0.175643 0.471815
#
# Coordination Sequence:
#
# PCOD9056169 Si02
#       8
#     2   2   2   2   2   2   2   2
#     4   9  18  39  58  81 116 155 186 233 289 341
#     4   9  20  39  61  82 116 154 192 238 284 341
#     4  11  23  37  58  82 110 154 193 243 292 331
#     4   9  20  40  60  84 113 152 195 242 287 351
#     4  11  22  33  55  93 120 146 185 243 292 343
#     4   9  19  35  61  82 117 154 185 234 297 350
#     4   9  18  39  58  81 116 155 186 233 289 341
#     4   9  20  39  61  82 116 154 192 238 284 341
#
# _framework density 23.407526000000001
#
# number of rings (size 3 to 8) (size 9 to 14) (size 15 to 20)
#    0.000    2.500    0.000    3.750    3.500    4.000 
#    9.000    3.750    0.000    0.000    0.000    0.000 
#    0.000    0.000    0.000    0.000    0.000    0.000 
#
# Total GULP energy -89101.559608 kJ/mol
# GULP energy per Si atom -5568.847475 kJ/mol
# Density = 2.335425 g / cm^3
# Si number density = 23.407526 Si / 1000 Ang^3
#
#
#
# Elastic Constant Matrix: (Units=GPa)
#
#
# Indices 1 2 3 4 5 6 
#
# 1 42.5272 18.9151 25.7111 1.2295 -14.2957 -0.0223
# 2 18.9151 130.4016 78.4506 -19.3314 -12.2211 -11.2848
# 3 25.7111 78.4506 177.8454 -41.3651 -2.2248 -6.0702
# 4 1.2295 -19.3314 -41.3651 46.8291 -4.0876 -3.5824
# 5 -14.2957 -12.2211 -2.2248 -4.0876 34.3331 -7.7794
# 6 -0.0223 -11.2848 -6.0702 -3.5824 -7.7794 23.4025
#
#
#
# Elastic Compliance Matrix: (Units=1/GPa)
#
#
# Indices 1 2 3 4 5 6 
#
# 1 0.031095 -0.000926 -0.004881 -0.004317 0.012173 0.001703
# 2 -0.000926 0.011748 -0.004277 0.002062 0.005265 0.006620
# 3 -0.004881 -0.004277 0.009843 0.006964 -0.001877 0.000928
# 4 -0.004317 0.002062 0.006964 0.029588 0.004943 0.008969
# 5 0.012173 0.005265 -0.001877 0.004943 0.040203 0.016184
# 6 0.001703 0.006620 0.000928 0.008969 0.016184 0.052918
#
#
# Mechanical properties :
#
#
# Convention : Reuss Voigt Hill
#
# Bulk Modulus (GPa) = 30.75128 66.32530 48.53829
# Shear Modulus (GPa) = 24.22463 36.09278 30.15870
#
# Velocity S-wave (km/s) = 3.22049 3.93100 3.59335
# Velocity P-wave (km/s) = 5.19563 7.00002 6.16420
#
# Compressibility (1/GPa) = 0.03251897
#
# Stress axis : x y z
#
# Youngs Moduli (GPa) = 32.15989 85.12115 101.59395
#
# Poissons Ratio (x) = 0.07881 0.49584
# Poissons Ratio (y) = 0.02978 0.43451
# Poissons Ratio (z) = 0.15696 0.36406
#
# Static dielectric constant tensor:
#      x y z
#    x 2.151710 -0.037190 0.124800 
#    y -0.037190 1.757520 -0.032880 
#    z 0.124800 -0.032880 1.963660 
# 
# From -- ./inp_files/568095.got.cif
#   From: 2010.05.17/outbox.cif.g08.bks.cpg/sg2_285_cif.got.tgz:568095.got - 2010.06.03 11:33:40.
