data_PCOD9056360
_publ_section_title
;
Structure prediction by ZEFSAII (Michael W. Deem and Ramdas Pophale) SiO2 
 PCOD9056360
Probable space group: P -1
;
_chemical_formula_sum "Si O2"
_cell_formula_units_Z 16
_cell_length_a 14.051860
_cell_length_b 10.421787
_cell_length_c 7.069807
_cell_angle_alpha 61.630277
_cell_angle_beta 111.403520
_cell_angle_gamma 121.864668
_cell_volume 764.636980
_symmetry_space_group_name_H-M "P -1"
_symmetry_group_IT_number 2
_symmetry_cell_setting 'triclinic'
loop_
_space_group_symop_operation_xyz
x,y,z
-x,-y,-z
loop_
_atom_site_type_symbol
_atom_site_label
_atom_site_fract_x
_atom_site_fract_y
_atom_site_fract_z
Si Si1 0.366049 0.000729 0.539659
Si Si2 0.991805 0.329006 0.549252
Si Si3 0.653456 0.773232 0.916744
Si Si4 0.429211 0.724267 0.650309
Si Si5 0.189491 0.260785 0.258321
Si Si6 0.150354 0.934100 0.651372
Si Si7 0.245705 0.382377 0.620965
Si Si8 0.968090 0.128648 0.999104
O O1 0.384570 0.841618 0.637542
O O2 0.279738 0.977673 0.661924
O O3 0.322854 0.049581 0.275923
O O4 0.486376 0.159466 0.533078
O O5 0.117394 0.337038 0.623007
O O6 0.000000 0.500000 0.500000
O O7 0.927162 0.241092 0.373387
O O8 0.923630 0.207544 0.751465
O O9 0.517178 0.688881 0.870638
O O10 0.712429 0.713450 0.837267
O O11 0.705684 0.737131 0.168501
O O12 0.329379 0.561147 0.622606
O O13 0.239579 0.369558 0.399889
O O14 0.084430 0.268019 0.070435
O O15 0.132984 0.075929 0.427813
O O16 0.115365 0.936825 0.839484
O O17 0.000000 0.000000 0.000000
#
# Coordination Sequence:
#
# PCOD9056360 Si02
#       8
#     2   2   2   2   2   2   2   2
#     4   8  19  40  67  94 126 169 216 260 315 389
#     4  12  26  41  64  95 135 172 205 266 332 383
#     4   9  20  38  65  91 119 172 212 261 317 371
#     4   9  19  40  67  91 128 171 212 265 324 375
#     4  11  22  38  62  97 127 160 218 267 311 379
#     4  11  22  41  66  98 129 166 217 260 320 393
#     4  12  22  38  64  94 129 164 214 266 316 379
#     4  12  23  41  69  92 127 175 215 266 319 385
#
# _framework density 20.924962000000001
#
# number of rings (size 3 to 8) (size 9 to 14) (size 15 to 20)
#    0.750    0.750    3.750    2.250    0.000    1.000 
#    0.000    0.000    0.000    8.250    0.000    0.000 
#    0.000    0.000    0.000    0.000    0.000    0.000 
#
# Total GULP energy -89220.292876 kJ/mol
# GULP energy per Si atom -5576.268305 kJ/mol
# Density = 2.087734 g / cm^3
# Si number density = 20.924962 Si / 1000 Ang^3
#
#
#
# Elastic Constant Matrix: (Units=GPa)
#
#
# Indices 1 2 3 4 5 6 
#
# 1 100.6430 17.3362 21.1210 3.6368 -16.2995 11.4544
# 2 17.3362 84.1473 12.3263 1.5445 -9.7403 4.5318
# 3 21.1210 12.3263 64.0021 8.7967 -21.0165 -1.2201
# 4 3.6368 1.5445 8.7967 21.1947 -1.4102 5.9612
# 5 -16.2995 -9.7403 -21.0165 -1.4102 21.9618 -2.0525
# 6 11.4544 4.5318 -1.2201 5.9612 -2.0525 24.8832
#
#
#
# Elastic Compliance Matrix: (Units=1/GPa)
#
#
# Indices 1 2 3 4 5 6 
#
# 1 0.012106 -0.001237 -0.001918 0.000651 0.006167 -0.005089
# 2 -0.001237 0.012785 -0.000892 0.000345 0.003773 -0.001574
# 3 -0.001918 -0.000892 0.025353 -0.010510 0.022389 0.006653
# 4 0.000651 0.000345 -0.010510 0.055048 -0.007257 -0.014664
# 5 0.006167 0.003773 0.022389 -0.007257 0.073243 0.005352
# 6 -0.005089 -0.001574 0.006653 -0.014664 0.005352 0.047098
#
#
# Mechanical properties :
#
#
# Convention : Reuss Voigt Hill
#
# Bulk Modulus (GPa) = 23.72612 38.92885 31.32748
# Shear Modulus (GPa) = 20.17939 26.80854 23.49396
#
# Velocity S-wave (km/s) = 3.10880 3.58323 3.35441
# Velocity P-wave (km/s) = 4.92437 5.98029 5.47783
#
# Compressibility (1/GPa) = 0.04214765
#
# Stress axis : x y z
#
# Youngs Moduli (GPa) = 82.60268 78.21839 39.44369
#
# Poissons Ratio (x) = 0.09677 0.07566
# Poissons Ratio (y) = 0.10220 0.03520
# Poissons Ratio (z) = 0.15846 0.06980
#
# Static dielectric constant tensor:
#      x y z
#    x 1.764180 0.023380 0.026980 
#    y 0.023380 1.785540 -0.002720 
#    z 0.026980 -0.002720 1.780870 
# 
# From -- ./inp_files/94677.got.cif
#   From: 2010.05.17/outbox.cif.g08.bks.cpg/sg2_48_cif.got.tgz:94677.got - 2010.06.03 11:33:40.
