data_PCOD9056195
_publ_section_title
;
Structure prediction by ZEFSAII (Michael W. Deem and Ramdas Pophale) SiO2 
 PCOD9056195
Probable space group: P -1
;
_chemical_formula_sum "Si O2"
_cell_formula_units_Z 16
_cell_length_a 18.633335
_cell_length_b 8.260184
_cell_length_c 14.491538
_cell_angle_alpha 112.688248
_cell_angle_beta 30.534179
_cell_angle_gamma 91.037283
_cell_volume 775.997458
_symmetry_space_group_name_H-M "P -1"
_symmetry_group_IT_number 2
_symmetry_cell_setting 'triclinic'
loop_
_space_group_symop_operation_xyz
x,y,z
-x,-y,-z
loop_
_atom_site_type_symbol
_atom_site_label
_atom_site_fract_x
_atom_site_fract_y
_atom_site_fract_z
Si Si1 0.386612 0.300055 0.476809
Si Si2 0.359188 0.280557 0.712778
Si Si3 0.091125 0.319599 0.496071
Si Si4 0.990383 0.938055 0.350737
Si Si5 0.412188 0.582590 0.829060
Si Si6 0.085579 0.348463 0.706459
Si Si7 0.280382 0.217117 0.077518
Si Si8 0.642938 0.444457 0.906801
O O1 0.372120 0.352407 0.612171
O O2 0.424854 0.439817 0.403931
O O3 0.202915 0.346144 0.654526
O O4 0.568182 0.024306 0.196858
O O5 0.416058 0.377303 0.746871
O O6 0.500000 0.000000 0.500000
O O7 0.137030 0.415636 0.000768
O O8 0.009799 0.198239 0.592036
O O9 0.175432 0.317632 0.499283
O O10 0.233157 0.183092 0.224056
O O11 0.918346 0.586108 0.712518
O O12 0.847610 0.210664 0.591474
O O13 0.918700 0.862244 0.333929
O O14 0.205425 0.818042 0.072119
O O15 0.406451 0.598148 0.948972
O O16 0.361834 0.343690 0.030360
O O17 0.500000 0.500000 0.000000
#
# Coordination Sequence:
#
# PCOD9056195 Si02
#       8
#     2   2   2   2   2   2   2   2
#     4  12  24  38  66  92 124 161 204 260 307 355
#     4  11  23  46  69  85 117 164 215 254 298 369
#     4   9  20  38  59  83 126 163 208 241 303 367
#     4   9  20  40  59  80 126 169 196 239 305 373
#     4  11  24  41  60  91 124 161 208 245 309 371
#     4   9  21  41  63  87 121 159 204 245 316 358
#     4  11  22  35  59  95 124 158 215 243 301 369
#     4  12  23  35  59  93 128 162 200 256 308 355
#
# _framework density 20.618625000000002
#
# number of rings (size 3 to 8) (size 9 to 14) (size 15 to 20)
#    0.750    0.750    1.250    4.125    5.250    0.500 
#    0.000    0.625    0.000    0.000    0.000    0.000 
#    0.000    0.000    0.000    0.000    0.000    0.000 
#
# Total GULP energy -89358.221894 kJ/mol
# GULP energy per Si atom -5584.888868 kJ/mol
# Density = 2.057170 g / cm^3
# Si number density = 20.618625 Si / 1000 Ang^3
#
#
#
# Elastic Constant Matrix: (Units=GPa)
#
#
# Indices 1 2 3 4 5 6 
#
# 1 86.8858 6.2989 10.1217 -5.0244 2.3604 11.4752
# 2 6.2989 47.9208 10.2348 -4.6985 -2.4917 9.7849
# 3 10.1217 10.2348 61.6748 2.6543 12.6295 6.9961
# 4 -5.0244 -4.6985 2.6543 36.1545 1.0371 6.8440
# 5 2.3604 -2.4917 12.6295 1.0371 21.5929 -6.2782
# 6 11.4752 9.7849 6.9961 6.8440 -6.2782 17.6976
#
#
#
# Elastic Compliance Matrix: (Units=1/GPa)
#
#
# Indices 1 2 3 4 5 6 
#
# 1 0.013580 0.001072 -0.000018 0.004663 -0.005384 -0.013104
# 2 0.001072 0.025289 -0.002623 0.006784 -0.000802 -0.016548
# 3 -0.000018 -0.002623 0.021601 0.001113 -0.016916 -0.013508
# 4 0.004663 0.006784 0.001113 0.033790 -0.008806 -0.023405
# 5 -0.005384 -0.000802 -0.016916 -0.008806 0.068241 0.038235
# 6 -0.013104 -0.016548 -0.013508 -0.023405 0.038235 0.102106
#
#
# Mechanical properties :
#
#
# Convention : Reuss Voigt Hill
#
# Bulk Modulus (GPa) = 17.44250 27.75468 22.59859
# Shear Modulus (GPa) = 17.43024 26.41073 21.92049
#
# Velocity S-wave (km/s) = 2.91067 3.58287 3.26412
# Velocity P-wave (km/s) = 4.44679 5.53228 5.01897
#
# Compressibility (1/GPa) = 0.05733124
#
# Stress axis : x y z
#
# Youngs Moduli (GPa) = 73.63546 39.54215 46.29475
#
# Poissons Ratio (x) = -0.04238 0.00084
# Poissons Ratio (y) = -0.07892 0.12144
# Poissons Ratio (z) = 0.00134 0.10373
#
# Static dielectric constant tensor:
#      x y z
#    x 1.750910 0.000040 -0.003270 
#    y 0.000040 1.748550 -0.004660 
#    z -0.003270 -0.004660 1.727670 
# 
# From -- ./inp_files/537500.got.cif
#   From: 2010.05.17/outbox.cif.g08.bks.cpg/sg2_269_cif.got.tgz:537500.got - 2010.06.03 11:33:40.
