data_PCOD9056478
_publ_section_title
;
Structure prediction by ZEFSAII (Michael W. Deem and Ramdas Pophale) SiO2 
 PCOD9056478
Probable space group: P -1
;
_chemical_formula_sum "Si O2"
_cell_formula_units_Z 10
_cell_length_a 11.605218
_cell_length_b 6.979258
_cell_length_c 10.097634
_cell_angle_alpha 48.811923
_cell_angle_beta 65.308795
_cell_angle_gamma 90.504610
_cell_volume 508.733164
_symmetry_space_group_name_H-M "P -1"
_symmetry_group_IT_number 2
_symmetry_cell_setting 'triclinic'
loop_
_space_group_symop_operation_xyz
x,y,z
-x,-y,-z
loop_
_atom_site_type_symbol
_atom_site_label
_atom_site_fract_x
_atom_site_fract_y
_atom_site_fract_z
Si Si1 0.210580 0.279955 0.738445
Si Si2 0.326030 0.143076 0.018218
Si Si3 0.845699 0.760667 0.703103
Si Si4 0.036612 0.642177 0.060110
Si Si5 0.351791 0.557386 0.283664
O O1 0.274911 0.225118 0.868115
O O2 0.320741 0.458652 0.495235
O O3 0.104598 0.418494 0.763621
O O4 0.116890 0.975818 0.860458
O O5 0.486905 0.352879 0.868720
O O6 0.230100 0.162086 0.174679
O O7 0.321902 0.833364 0.154958
O O8 0.868195 0.484824 0.855922
O O9 0.750288 0.684828 0.653091
O O10 0.000000 0.000000 0.500000
O O11 0.000000 0.500000 0.000000
#
# Coordination Sequence:
#
# PCOD9056478 Si02
#       5
#     2   2   2   2   2
#     4  11  23  41  67  92 127 168 210 261 314 373
#     4  11  24  45  65  92 133 167 209 263 313 379
#     4  12  24  41  68  95 129 167 211 265 317 369
#     4  11  22  39  63  95 129 160 210 263 313 370
#     4  11  25  43  65  96 127 170 213 255 318 379
#
# _framework density 19.656669999999998
#
# number of rings (size 3 to 8) (size 9 to 14) (size 15 to 20)
#    0.000    0.800    4.000    3.600    2.800    1.600 
#    0.000    1.000    0.000    0.000    0.000    0.000 
#    0.000    0.000    0.000    0.000    0.000    0.000 
#
# Total GULP energy -55925.082745 kJ/mol
# GULP energy per Si atom -5592.508274 kJ/mol
# Density = 1.961193 g / cm^3
# Si number density = 19.656670 Si / 1000 Ang^3
#
#
#
# Elastic Constant Matrix: (Units=GPa)
#
#
# Indices 1 2 3 4 5 6 
#
# 1 100.4177 56.8555 49.0268 24.4196 -15.4552 5.0597
# 2 56.8555 96.1359 38.4617 23.1228 -18.1952 16.7558
# 3 49.0268 38.4617 121.4780 31.3236 -23.7198 7.1181
# 4 24.4196 23.1228 31.3236 26.6170 1.3916 -3.6411
# 5 -15.4552 -18.1952 -23.7198 1.3916 41.1736 1.1706
# 6 5.0597 16.7558 7.1181 -3.6411 1.1706 36.1158
#
#
#
# Elastic Compliance Matrix: (Units=1/GPa)
#
#
# Indices 1 2 3 4 5 6 
#
# 1 0.017214 -0.007449 -0.002727 -0.006081 0.001778 0.000911
# 2 -0.007449 0.021720 0.003407 -0.018174 0.009716 -0.011852
# 3 -0.002727 0.003407 0.016142 -0.020949 0.010684 -0.006839
# 4 -0.006081 -0.018174 -0.020949 0.088116 -0.026018 0.023139
# 5 0.001778 0.009716 0.010684 -0.026018 0.036586 -0.010672
# 6 0.000911 -0.011852 -0.006839 0.023139 -0.010672 0.037086
#
#
# Mechanical properties :
#
#
# Convention : Reuss Voigt Hill
#
# Bulk Modulus (GPa) = 24.07390 67.41328 45.74359
# Shear Modulus (GPa) = 20.47092 32.36045 26.41569
#
# Velocity S-wave (km/s) = 3.23061 4.06184 3.66984
# Velocity P-wave (km/s) = 5.11757 7.50786 6.42485
#
# Compressibility (1/GPa) = 0.04153877
#
# Stress axis : x y z
#
# Youngs Moduli (GPa) = 58.09248 46.04017 61.94872
#
# Poissons Ratio (x) = 0.34296 0.16894
# Poissons Ratio (y) = 0.43274 -0.21108
# Poissons Ratio (z) = 0.15842 -0.15688
#
# Static dielectric constant tensor:
#      x y z
#    x 1.691910 0.011330 0.007240 
#    y 0.011330 1.670210 -0.013240 
#    z 0.007240 -0.013240 1.676540 
# 
# From -- ./inp_files/15104.got.cif
#   From: 2010.05.17/outbox.cif.g08.bks.cpg/sg2_8_cif.got.tgz:15104.got - 2010.06.03 11:33:40.
