data_PCOD9056543
_publ_section_title
;
Structure prediction by ZEFSAII (Michael W. Deem and Ramdas Pophale) SiO2 
 PCOD9056543
Probable space group: P -1
;
_chemical_formula_sum "Si O2"
_cell_formula_units_Z 16
_cell_length_a 11.041695
_cell_length_b 8.049496
_cell_length_c 18.859940
_cell_angle_alpha 46.423633
_cell_angle_beta 37.161395
_cell_angle_gamma 72.453925
_cell_volume 604.545743
_symmetry_space_group_name_H-M "P -1"
_symmetry_group_IT_number 2
_symmetry_cell_setting 'triclinic'
loop_
_space_group_symop_operation_xyz
x,y,z
-x,-y,-z
loop_
_atom_site_type_symbol
_atom_site_label
_atom_site_fract_x
_atom_site_fract_y
_atom_site_fract_z
Si Si1 0.507934 0.817373 0.485928
Si Si2 0.137889 0.152142 0.234667
Si Si3 0.651793 0.211160 0.732403
Si Si4 0.055542 0.032249 0.145860
Si Si5 0.077011 0.556767 0.329818
Si Si6 0.684813 0.275084 0.055156
Si Si7 0.870483 0.708931 0.107159
Si Si8 0.251059 0.965265 0.451793
O O1 0.771608 0.912416 0.309183
O O2 0.364860 0.826787 0.482879
O O3 0.500000 0.000000 0.500000
O O4 0.367087 0.514008 0.674005
O O5 0.875323 0.967377 0.448565
O O6 0.272306 0.008247 0.233947
O O7 0.255679 0.476723 0.098544
O O8 0.128844 0.151263 0.154859
O O9 0.688874 0.318830 0.764540
O O10 0.853789 0.469395 0.514201
O O11 0.410926 0.014168 0.856705
O O12 0.099432 0.786159 0.198962
O O13 0.181061 0.258775 0.959149
O O14 0.972049 0.267472 0.424440
O O15 0.932561 0.369367 0.953094
O O16 0.467714 0.197578 0.233713
O O17 0.000000 0.000000 0.000000
#
# Coordination Sequence:
#
# PCOD9056543 Si02
#       8
#     2   2   2   2   2   2   2   2
#     4  12  24  41  66  99 134 178 215 266 328 402
#     4  11  23  42  67  97 129 169 217 272 318 395
#     4   9  21  43  66  90 128 172 219 266 330 374
#     4  11  24  41  69  95 134 171 214 267 333 387
#     4   9  21  41  65  93 126 170 215 272 316 390
#     4  11  23  40  67  94 132 168 214 272 323 383
#     4  12  27  41  66 101 137 171 220 269 329 400
#     4  11  22  39  67  95 130 167 217 260 333 381
#
# _framework density 26.466152000000001
#
# number of rings (size 3 to 8) (size 9 to 14) (size 15 to 20)
#    0.000    1.250    3.750    1.125    5.250    4.000 
#    0.000    0.625    2.750    0.000    0.000    0.000 
#    0.000    0.000    0.000    0.000    0.000    0.000 
#
# Total GULP energy -89639.564319 kJ/mol
# GULP energy per Si atom -5602.472770 kJ/mol
# Density = 2.640591 g / cm^3
# Si number density = 26.466152 Si / 1000 Ang^3
#
#
#
# Elastic Constant Matrix: (Units=GPa)
#
#
# Indices 1 2 3 4 5 6 
#
# 1 117.7689 -8.6524 17.2419 3.5554 17.9772 -0.8381
# 2 -8.6524 60.7508 10.0512 -2.9348 0.3848 -4.5764
# 3 17.2419 10.0512 123.1144 6.2835 24.5096 -3.8921
# 4 3.5554 -2.9348 6.2835 42.3397 1.9019 3.2330
# 5 17.9772 0.3848 24.5096 1.9019 39.6133 -4.0936
# 6 -0.8381 -4.5764 -3.8921 3.2330 -4.0936 34.2950
#
#
#
# Elastic Compliance Matrix: (Units=1/GPa)
#
#
# Indices 1 2 3 4 5 6 
#
# 1 0.009284 0.001427 -0.000638 -0.000409 -0.003821 -0.000073
# 2 0.001427 0.017149 -0.001668 0.001141 0.000377 0.002071
# 3 -0.000638 -0.001668 0.009514 -0.001251 -0.005490 0.000304
# 4 -0.000409 0.001141 -0.001251 0.024115 -0.000450 -0.002327
# 5 -0.003821 0.000377 -0.005490 -0.000450 0.030707 0.003042
# 6 -0.000073 0.002071 0.000304 -0.002327 0.003042 0.030050
#
#
# Mechanical properties :
#
#
# Convention : Reuss Voigt Hill
#
# Bulk Modulus (GPa) = 29.24790 37.65727 33.45258
# Shear Modulus (GPa) = 37.32081 42.11584 39.71832
#
# Velocity S-wave (km/s) = 3.75925 3.99345 3.87812
# Velocity P-wave (km/s) = 5.46970 5.96011 5.72016
#
# Compressibility (1/GPa) = 0.03419049
#
# Stress axis : x y z
#
# Youngs Moduli (GPa) = 107.70735 58.31381 105.10497
#
# Poissons Ratio (x) = -0.08320 0.06701
# Poissons Ratio (y) = -0.15368 0.17528
# Poissons Ratio (z) = 0.06867 0.09725
#
# Static dielectric constant tensor:
#      x y z
#    x 2.142720 0.024570 -0.008140 
#    y 0.024570 2.109590 -0.019810 
#    z -0.008140 -0.019810 2.138090 
# 
# From -- ./inp_files/447280.got.cif
#   From: 2010.05.17/outbox.cif.g08.bks.cpg/sg2_224_cif.got.tgz:447280.got - 2010.06.03 11:33:40.
