data_PCOD9056764
_publ_section_title
;
Structure prediction by ZEFSAII (Michael W. Deem and Ramdas Pophale) SiO2 
 PCOD9056764
Probable space group: P -1
;
_chemical_formula_sum "Si O2"
_cell_formula_units_Z 16
_cell_length_a 13.170353
_cell_length_b 9.438393
_cell_length_c 18.014710
_cell_angle_alpha 149.850184
_cell_angle_beta 43.090674
_cell_angle_gamma 135.689782
_cell_volume 744.942910
_symmetry_space_group_name_H-M "P -1"
_symmetry_group_IT_number 2
_symmetry_cell_setting 'triclinic'
loop_
_space_group_symop_operation_xyz
x,y,z
-x,-y,-z
loop_
_atom_site_type_symbol
_atom_site_label
_atom_site_fract_x
_atom_site_fract_y
_atom_site_fract_z
Si Si1 0.403732 0.804728 0.648717
Si Si2 0.192051 0.836082 0.653600
Si Si3 0.098193 0.741080 0.257330
Si Si4 0.352361 0.790098 0.401070
Si Si5 0.462588 0.656428 0.847356
Si Si6 0.958877 0.273597 0.548357
Si Si7 0.104890 0.385557 0.949838
Si Si8 0.419722 0.201616 0.312210
O O1 0.265356 0.896802 0.723612
O O2 0.367768 0.455188 0.500685
O O3 0.454402 0.888451 0.743304
O O4 0.547201 0.961014 0.591877
O O5 0.320600 0.898449 0.549310
O O6 0.106819 0.500396 0.540471
O O7 0.077863 0.041166 0.798074
O O8 0.060738 0.646347 0.319030
O O9 0.273151 0.940574 0.255210
O O10 0.078555 0.488971 0.093390
O O11 0.990498 0.954378 0.388037
O O12 0.434847 0.525291 0.245716
O O13 0.187453 0.705715 0.411396
O O14 0.284517 0.517698 0.895639
O O15 0.505158 0.650281 0.735529
O O16 0.500000 0.000000 0.000000
O O17 0.000000 0.500000 0.000000
#
# Coordination Sequence:
#
# PCOD9056764 Si02
#       8
#     2   2   2   2   2   2   2   2
#     4  11  22  40  69 101 129 174 225 279 325 391
#     4  12  24  43  68 101 136 175 229 284 323 399
#     4  11  23  47  65 101 142 173 225 276 339 403
#     4  12  23  44  70 102 131 176 237 271 332 401
#     4  12  25  43  70  98 136 177 221 282 334 397
#     4  11  25  42  74  96 133 185 221 280 334 398
#     4  12  28  45  67 100 139 177 220 279 346 397
#     4  11  22  42  70  99 138 171 227 274 336 397
#
# _framework density 21.478155999999998
#
# number of rings (size 3 to 8) (size 9 to 14) (size 15 to 20)
#    0.000    0.500    6.250    2.250    1.750    1.500 
#    2.250    1.875    0.000    0.000    0.000    0.000 
#    0.000    0.000    0.000    0.000    0.000    0.000 
#
# Total GULP energy -89485.283652 kJ/mol
# GULP energy per Si atom -5592.830228 kJ/mol
# Density = 2.142927 g / cm^3
# Si number density = 21.478156 Si / 1000 Ang^3
#
#
#
# Elastic Constant Matrix: (Units=GPa)
#
#
# Indices 1 2 3 4 5 6 
#
# 1 136.0188 1.5000 16.7358 -0.7045 -27.4615 -7.7659
# 2 1.5000 54.0085 -10.7046 -2.1112 2.0035 -7.3091
# 3 16.7358 -10.7046 75.0909 3.7294 -6.3376 -6.9061
# 4 -0.7045 -2.1112 3.7294 26.6868 -1.9521 -1.5755
# 5 -27.4615 2.0035 -6.3376 -1.9521 30.6807 0.2693
# 6 -7.7659 -7.3091 -6.9061 -1.5755 0.2693 29.4071
#
#
#
# Elastic Compliance Matrix: (Units=1/GPa)
#
#
# Indices 1 2 3 4 5 6 
#
# 1 0.009279 -0.000508 -0.001327 0.001102 0.008117 0.001997
# 2 -0.000508 0.020058 0.003343 0.001368 -0.001037 0.005719
# 3 -0.001327 0.003343 0.014641 -0.001482 0.001491 0.003826
# 4 0.001102 0.001368 -0.001482 0.038171 0.002999 0.002301
# 5 0.008117 -0.001037 0.001491 0.002999 0.040408 0.002027
# 6 0.001997 0.005719 0.003826 0.002301 0.002027 0.036958
#
#
# Mechanical properties :
#
#
# Convention : Reuss Voigt Hill
#
# Bulk Modulus (GPa) = 21.27889 31.13116 26.20502
# Shear Modulus (GPa) = 29.04211 34.52739 31.78475
#
# Velocity S-wave (km/s) = 3.68118 4.01379 3.85107
# Velocity P-wave (km/s) = 5.29120 6.00054 5.65700
#
# Compressibility (1/GPa) = 0.04699494
#
# Stress axis : x y z
#
# Youngs Moduli (GPa) = 107.76601 49.85472 68.30271
#
# Poissons Ratio (x) = 0.02535 0.09060
# Poissons Ratio (y) = 0.05479 -0.22835
# Poissons Ratio (z) = 0.14295 -0.16667
#
# Static dielectric constant tensor:
#      x y z
#    x 1.802950 0.004150 0.001090 
#    y 0.004150 1.769440 0.002770 
#    z 0.001090 0.002770 1.781700 
# 
# From -- ./inp_files/205324.got.cif
#   From: 2010.05.17/outbox.cif.g08.bks.cpg/sg2_103_cif.got.tgz:205324.got - 2010.06.03 11:33:40.
