data_PCOD9056592
_publ_section_title
;
Structure prediction by ZEFSAII (Michael W. Deem and Ramdas Pophale) SiO2 
 PCOD9056592
Probable space group: P -1
;
_chemical_formula_sum "Si O2"
_cell_formula_units_Z 14
_cell_length_a 11.767265
_cell_length_b 21.356582
_cell_length_c 14.668452
_cell_angle_alpha 30.025604
_cell_angle_beta 19.154795
_cell_angle_gamma 30.178120
_cell_volume 580.357308
_symmetry_space_group_name_H-M "P -1"
_symmetry_group_IT_number 2
_symmetry_cell_setting 'triclinic'
loop_
_space_group_symop_operation_xyz
x,y,z
-x,-y,-z
loop_
_atom_site_type_symbol
_atom_site_label
_atom_site_fract_x
_atom_site_fract_y
_atom_site_fract_z
Si Si1 0.519387 0.217437 0.922486
Si Si2 0.775221 0.691330 0.165166
Si Si3 0.862977 0.102064 0.555585
Si Si4 0.731337 0.564899 0.809990
Si Si5 0.186706 0.867729 0.699750
Si Si6 0.740682 0.292269 0.842856
Si Si7 0.066139 0.069935 0.993973
O O1 0.439739 0.284526 0.798560
O O2 0.555504 0.308113 0.864441
O O3 0.163639 0.171659 0.264042
O O4 0.850604 0.084132 0.852877
O O5 0.499686 0.785813 0.323998
O O6 0.926821 0.547040 0.268262
O O7 0.108208 0.755278 0.838669
O O8 0.000000 0.000000 0.500000
O O9 0.855224 0.000487 0.769121
O O10 0.898611 0.662553 0.502571
O O11 0.500000 0.500000 0.000000
O O12 0.501014 0.625922 0.996648
O O13 0.549782 0.901010 0.352116
O O14 0.146510 0.849078 0.860876
O O15 0.831033 0.140387 0.997231
#
# Coordination Sequence:
#
# PCOD9056592 Si02
#       7
#     2   2   2   2   2   2   2
#     4  11  26  42  73 108 145 184 231 297 369 416
#     4  12  24  43  71 104 146 183 242 292 355 417
#     4  11  22  41  68 111 149 180 232 291 358 421
#     4  12  30  52  76  99 139 194 248 290 346 424
#     4  11  22  39  70 108 136 181 234 296 350 411
#     4  12  28  50  71 105 144 191 239 290 353 428
#     4  11  23  44  71 103 144 183 234 291 358 417
#
# _framework density 24.123070999999999
#
# number of rings (size 3 to 8) (size 9 to 14) (size 15 to 20)
#    0.000    0.571    2.857    5.571    4.000    1.143 
#    0.000    3.571    0.000    0.000    0.000    0.000 
#    0.000    0.000    0.000    0.000    0.000    0.000 
#
# Total GULP energy -78230.882385 kJ/mol
# GULP energy per Si atom -5587.920170 kJ/mol
# Density = 2.406817 g / cm^3
# Si number density = 24.123071 Si / 1000 Ang^3
#
#
#
# Elastic Constant Matrix: (Units=GPa)
#
#
# Indices 1 2 3 4 5 6 
#
# 1 157.2954 54.3410 9.5136 4.2156 20.4899 9.5895
# 2 54.3410 121.6131 25.7954 10.2900 19.9699 -8.9171
# 3 9.5136 25.7954 66.1845 10.4401 14.9174 13.9188
# 4 4.2156 10.2900 10.4401 30.8939 4.2845 8.1618
# 5 20.4899 19.9699 14.9174 4.2845 37.2730 -3.9459
# 6 9.5895 -8.9171 13.9188 8.1618 -3.9459 49.4078
#
#
#
# Elastic Compliance Matrix: (Units=1/GPa)
#
#
# Indices 1 2 3 4 5 6 
#
# 1 0.008177 -0.003711 0.001596 0.000908 -0.003583 -0.003143
# 2 -0.003711 0.011583 -0.004029 -0.002875 -0.001770 0.004279
# 3 0.001596 -0.004029 0.019911 -0.002842 -0.007075 -0.006741
# 4 0.000908 -0.002875 -0.002842 0.036130 -0.002617 -0.006072
# 5 -0.003583 -0.001770 -0.007075 -0.002617 0.033459 0.005473
# 6 -0.003143 0.004279 -0.006741 -0.006072 0.005473 0.024961
#
#
# Mechanical properties :
#
#
# Convention : Reuss Voigt Hill
#
# Bulk Modulus (GPa) = 36.51803 58.26590 47.39197
# Shear Modulus (GPa) = 32.12613 40.54446 36.33530
#
# Velocity S-wave (km/s) = 3.65329 4.10412 3.88525
# Velocity P-wave (km/s) = 5.74164 6.83114 6.30995
#
# Compressibility (1/GPa) = 0.02738373
#
# Stress axis : x y z
#
# Youngs Moduli (GPa) = 122.29396 86.33056 50.22431
#
# Poissons Ratio (x) = 0.32040 -0.08017
# Poissons Ratio (y) = 0.45387 0.20233
# Poissons Ratio (z) = -0.19521 0.34779
#
# Static dielectric constant tensor:
#      x y z
#    x 2.028190 -0.081740 0.083350 
#    y -0.081740 2.010440 -0.155850 
#    z 0.083350 -0.155850 2.318230 
# 
# From -- ./inp_files/524028.got.cif
#   From: 2010.05.17/outbox.cif.g08.bks.cpg/sg2_263_cif.got.tgz:524028.got - 2010.06.03 11:33:40.
