data_PCOD9056653
_publ_section_title
;
Structure prediction by ZEFSAII (Michael W. Deem and Ramdas Pophale) SiO2 
 PCOD9056653
Probable space group: P -1
;
_chemical_formula_sum "Si O2"
_cell_formula_units_Z 16
_cell_length_a 21.384932
_cell_length_b 11.952600
_cell_length_c 12.801247
_cell_angle_alpha 141.270670
_cell_angle_beta 27.915657
_cell_angle_gamma 150.236807
_cell_volume 759.257291
_symmetry_space_group_name_H-M "P -1"
_symmetry_group_IT_number 2
_symmetry_cell_setting 'triclinic'
loop_
_space_group_symop_operation_xyz
x,y,z
-x,-y,-z
loop_
_atom_site_type_symbol
_atom_site_label
_atom_site_fract_x
_atom_site_fract_y
_atom_site_fract_z
Si Si1 0.475507 0.499580 0.914687
Si Si2 0.917286 0.448019 0.197720
Si Si3 0.214658 0.683183 0.093256
Si Si4 0.838189 0.785427 0.523240
Si Si5 0.695733 0.853922 0.605510
Si Si6 0.335643 0.620131 0.058941
Si Si7 0.623967 0.970574 0.357586
Si Si8 0.574096 0.923988 0.644805
O O1 0.660924 0.727561 0.777763
O O2 0.431514 0.272951 0.766880
O O3 0.500000 0.500000 0.000000
O O4 0.324492 0.498602 0.092765
O O5 0.826714 0.567711 0.411871
O O6 0.801366 0.185714 0.208045
O O7 0.057400 0.570825 0.169190
O O8 0.000000 0.500000 0.000000
O O9 0.198180 0.538975 0.113159
O O10 0.252047 0.911562 0.250789
O O11 0.374893 0.745013 0.834103
O O12 0.821356 0.813019 0.443674
O O13 0.000000 0.000000 0.500000
O O14 0.680837 0.864800 0.510198
O O15 0.499201 0.668193 0.794364
O O16 0.381163 0.853258 0.202699
O O17 0.500000 0.000000 0.500000
O O18 0.610683 0.970242 0.502375
#
# Coordination Sequence:
#
# PCOD9056653 Si02
#       8
#     2   2   2   2   2   2   2   2
#     4  11  24  41  63  89 120 161 204 252 298 360
#     4  12  26  40  59  89 126 166 196 250 309 356
#     4   9  17  37  62  88 120 160 200 241 301 362
#     4  11  22  40  65  92 119 155 211 243 293 364
#     4   8  16  35  63  91 117 154 202 247 292 360
#     4   8  17  35  62  88 117 159 202 240 296 364
#     4  12  24  41  58  89 125 156 204 249 306 356
#     4   9  18  37  66  90 116 154 201 255 299 351
#
# _framework density 21.073225000000001
#
# number of rings (size 3 to 8) (size 9 to 14) (size 15 to 20)
#    0.000    2.000    2.500    3.000    1.750    0.000 
#    2.250    6.250    0.000    0.000    0.000    0.000 
#    0.000    0.000    0.000    0.000    0.000    0.000 
#
# Total GULP energy -89126.576988 kJ/mol
# GULP energy per Si atom -5570.411062 kJ/mol
# Density = 2.102526 g / cm^3
# Si number density = 21.073225 Si / 1000 Ang^3
#
#
#
# Elastic Constant Matrix: (Units=GPa)
#
#
# Indices 1 2 3 4 5 6 
#
# 1 229.7764 28.6987 30.5415 -4.8821 -4.9508 -7.5858
# 2 28.6987 62.8060 2.8241 -4.0656 -1.7792 3.1294
# 3 30.5415 2.8241 16.9414 -6.4108 8.4484 2.8227
# 4 -4.8821 -4.0656 -6.4108 14.2632 -9.0467 0.2661
# 5 -4.9508 -1.7792 8.4484 -9.0467 38.0403 0.6026
# 6 -7.5858 3.1294 2.8227 0.2661 0.6026 24.7170
#
#
#
# Elastic Compliance Matrix: (Units=1/GPa)
#
#
# Indices 1 2 3 4 5 6 
#
# 1 0.006929 -0.002796 -0.015711 -0.003422 0.003379 0.004229
# 2 -0.002796 0.017656 0.004821 0.007023 0.001121 -0.003747
# 3 -0.015711 0.004821 0.111867 0.035195 -0.018006 -0.018147
# 4 -0.003422 0.007023 0.035195 0.096495 0.015132 -0.007367
# 5 0.003379 0.001121 -0.018006 0.015132 0.034347 0.001951
# 6 0.004229 -0.003747 -0.018147 -0.007367 0.001951 0.044335
#
#
# Mechanical properties :
#
#
# Convention : Reuss Voigt Hill
#
# Bulk Modulus (GPa) = 9.16752 48.18360 28.67556
# Shear Modulus (GPa) = 13.32049 31.90140 22.61094
#
# Velocity S-wave (km/s) = 2.51690 3.89502 3.27918
# Velocity P-wave (km/s) = 3.57856 6.56832 5.28909
#
# Compressibility (1/GPa) = 0.10908076
#
# Stress axis : x y z
#
# Youngs Moduli (GPa) = 144.31511 56.63754 8.93917
#
# Poissons Ratio (x) = 0.15838 0.14044
# Poissons Ratio (y) = 0.40356 -0.04310
# Poissons Ratio (z) = 2.26728 -0.27306
#
# Static dielectric constant tensor:
#      x y z
#    x 1.870020 -0.086030 0.023270 
#    y -0.086030 1.806690 -0.028920 
#    z 0.023270 -0.028920 1.807860 
# 
# From -- ./inp_files/279401.got.cif
#   From: 2010.05.17/outbox.cif.g08.bks.cpg/sg2_140_cif.got.tgz:279401.got - 2010.06.03 11:33:40.
