data_PCOD9056074
_publ_section_title
;
Structure prediction by ZEFSAII (Michael W. Deem and Ramdas Pophale) SiO2 
 PCOD9056074
Probable space group: P -1
;
_chemical_formula_sum "Si O2"
_cell_formula_units_Z 14
_cell_length_a 9.709797
_cell_length_b 12.666624
_cell_length_c 18.326319
_cell_angle_alpha 155.931059
_cell_angle_beta 43.664072
_cell_angle_gamma 141.364396
_cell_volume 573.485541
_symmetry_space_group_name_H-M "P -1"
_symmetry_group_IT_number 2
_symmetry_cell_setting 'triclinic'
loop_
_space_group_symop_operation_xyz
x,y,z
-x,-y,-z
loop_
_atom_site_type_symbol
_atom_site_label
_atom_site_fract_x
_atom_site_fract_y
_atom_site_fract_z
Si Si1 0.096846 0.529102 0.562681
Si Si2 0.739534 0.017456 0.429589
Si Si3 0.027591 0.248698 0.940214
Si Si4 0.749320 0.815446 0.457756
Si Si5 0.408970 0.210524 0.241583
Si Si6 0.373454 0.833617 0.157162
Si Si7 0.805427 0.856480 0.041765
O O1 0.266572 0.391917 0.423329
O O2 0.201474 0.860978 0.744320
O O3 0.000000 0.500000 0.500000
O O4 0.900387 0.355721 0.584464
O O5 0.847436 0.902885 0.251908
O O6 0.731515 0.854367 0.403621
O O7 0.500000 0.000000 0.500000
O O8 0.115693 0.282243 0.010664
O O9 0.130395 0.572687 0.075749
O O10 0.764577 0.041075 0.903627
O O11 0.641441 0.474389 0.299031
O O12 0.637900 0.982596 0.653189
O O13 0.000000 0.000000 0.500000
O O14 0.431402 0.042962 0.197636
O O15 0.554669 0.701668 0.010766
O O16 0.000000 0.000000 0.000000
#
# Coordination Sequence:
#
# PCOD9056074 Si02
#       7
#     2   2   2   2   2   2   2
#     4  11  21  45  74  99 137 189 237 288 345 427
#     4  11  24  40  72 101 137 183 244 281 342 428
#     4  11  26  49  69 103 145 192 232 289 359 424
#     4  12  26  43  72 108 136 182 237 291 353 416
#     4  11  24  48  75  97 143 191 233 285 358 418
#     4  12  27  47  72 107 151 178 235 307 352 411
#     4  12  27  43  73 105 144 186 235 293 360 408
#
# _framework density 24.412125
#
# number of rings (size 3 to 8) (size 9 to 14) (size 15 to 20)
#    0.000    0.571    4.286    4.714    6.000    0.000 
#    0.000    2.143    0.000    0.000    0.000    0.000 
#    0.000    0.000    0.000    0.000    0.000    0.000 
#
# Total GULP energy -78249.001976 kJ/mol
# GULP energy per Si atom -5589.214427 kJ/mol
# Density = 2.435656 g / cm^3
# Si number density = 24.412125 Si / 1000 Ang^3
#
#
#
# Elastic Constant Matrix: (Units=GPa)
#
#
# Indices 1 2 3 4 5 6 
#
# 1 109.5308 67.3210 9.6188 -11.7089 7.7162 -7.1228
# 2 67.3210 158.4671 32.9849 41.2152 10.1408 -2.9057
# 3 9.6188 32.9849 58.8421 14.9077 2.4355 13.2917
# 4 -11.7089 41.2152 14.9077 53.0717 2.9395 1.1874
# 5 7.7162 10.1408 2.4355 2.9395 17.3081 6.9207
# 6 -7.1228 -2.9057 13.2917 1.1874 6.9207 58.9290
#
#
#
# Elastic Compliance Matrix: (Units=1/GPa)
#
#
# Indices 1 2 3 4 5 6 
#
# 1 0.016868 -0.009772 -0.000489 0.011652 -0.004489 0.001960
# 2 -0.009772 0.014551 -0.003527 -0.012379 -0.001892 0.000803
# 3 -0.000489 -0.003527 0.020950 -0.003247 0.001935 -0.005120
# 4 0.011652 -0.012379 -0.003247 0.032101 -0.003452 0.001289
# 5 -0.004489 -0.001892 0.001935 -0.003452 0.064636 -0.008594
# 6 0.001960 0.000803 -0.005120 0.001289 -0.008594 0.019384
#
#
# Mechanical properties :
#
#
# Convention : Reuss Voigt Hill
#
# Bulk Modulus (GPa) = 40.32928 60.74324 50.53626
# Shear Modulus (GPa) = 24.47031 40.32280 32.39655
#
# Velocity S-wave (km/s) = 3.16948 4.06859 3.64685
# Velocity P-wave (km/s) = 5.47268 6.85621 6.20314
#
# Compressibility (1/GPa) = 0.02479588
#
# Stress axis : x y z
#
# Youngs Moduli (GPa) = 59.28400 68.72336 47.73178
#
# Poissons Ratio (x) = 0.67154 0.02332
# Poissons Ratio (y) = 0.57930 0.16833
# Poissons Ratio (z) = 0.02897 0.24235
#
# Static dielectric constant tensor:
#      x y z
#    x 2.289120 0.117850 0.086720 
#    y 0.117850 1.927900 0.016130 
#    z 0.086720 0.016130 1.992330 
# 
# From -- ./inp_files/560142.got.cif
#   From: 2010.05.17/outbox.cif.g08.bks.cpg/sg2_281_cif.got.tgz:560142.got - 2010.06.03 11:33:40.
