data_PCOD9056790
_publ_section_title
;
Structure prediction by ZEFSAII (Michael W. Deem and Ramdas Pophale) SiO2 
 PCOD9056790
Probable space group: P -1
;
_chemical_formula_sum "Si O2"
_cell_formula_units_Z 16
_cell_length_a 8.753992
_cell_length_b 8.140117
_cell_length_c 11.800747
_cell_angle_alpha 90.936241
_cell_angle_beta 63.925871
_cell_angle_gamma 106.320283
_cell_volume 719.262724
_symmetry_space_group_name_H-M "P -1"
_symmetry_group_IT_number 2
_symmetry_cell_setting 'triclinic'
loop_
_space_group_symop_operation_xyz
x,y,z
-x,-y,-z
loop_
_atom_site_type_symbol
_atom_site_label
_atom_site_fract_x
_atom_site_fract_y
_atom_site_fract_z
Si Si1 0.637005 0.487351 0.598715
Si Si2 0.075827 0.342698 0.949189
Si Si3 0.253169 0.303237 0.656459
Si Si4 0.717628 0.133705 0.005918
Si Si5 0.378127 0.267006 0.986099
Si Si6 0.419607 0.256070 0.210342
Si Si7 0.062991 0.965410 0.356301
Si Si8 0.271809 0.698509 0.239049
O O1 0.463142 0.329987 0.613954
O O2 0.740670 0.574020 0.453073
O O3 0.555578 0.627328 0.685955
O O4 0.765871 0.449169 0.653319
O O5 0.169361 0.358776 0.796592
O O6 0.214743 0.321961 0.995431
O O7 0.000000 0.500000 0.000000
O O8 0.905892 0.173861 0.005121
O O9 0.111996 0.118900 0.664951
O O10 0.569689 0.160416 0.141246
O O11 0.664811 0.939247 0.975879
O O12 0.753702 0.269337 0.888833
O O13 0.517890 0.279057 0.840102
O O14 0.441283 0.359040 0.086372
O O15 0.213758 0.139928 0.274372
O O16 0.178098 0.831601 0.320364
O O17 0.000000 0.000000 0.500000
#
# Coordination Sequence:
#
# PCOD9056790 Si02
#       8
#     2   2   2   2   2   2   2   2
#     4  11  25  43  70  94 141 184 225 281 346 404
#     4  12  25  42  67 104 139 178 227 283 340 406
#     4  11  24  46  67  95 141 182 224 281 342 400
#     4  11  22  40  69  98 140 176 224 287 339 401
#     4  11  22  41  70  97 137 180 225 281 344 397
#     4  11  22  42  71 106 131 177 233 278 340 410
#     4  12  23  45  71  98 135 177 230 283 330 413
#     4  11  22  42  69  99 134 178 224 279 346 397
#
# _framework density 22.245000999999998
#
# number of rings (size 3 to 8) (size 9 to 14) (size 15 to 20)
#    0.000    0.750    6.250    1.875    1.750    1.500 
#    2.250    0.625    5.500    0.000    0.000    0.000 
#    0.000    0.000    0.000    0.000    0.000    0.000 
#
# Total GULP energy -89128.986856 kJ/mol
# GULP energy per Si atom -5570.561678 kJ/mol
# Density = 2.219437 g / cm^3
# Si number density = 22.245001 Si / 1000 Ang^3
#
#
#
# Elastic Constant Matrix: (Units=GPa)
#
#
# Indices 1 2 3 4 5 6 
#
# 1 76.5029 10.2484 2.9292 -0.3638 -5.0710 -0.3416
# 2 10.2484 44.4666 9.3208 6.0245 -2.5869 5.6969
# 3 2.9292 9.3208 112.4027 9.4874 -0.7133 -2.0682
# 4 -0.3638 6.0245 9.4874 37.1507 1.0813 -7.5360
# 5 -5.0710 -2.5869 -0.7133 1.0813 34.9636 -6.3046
# 6 -0.3416 5.6969 -2.0682 -7.5360 -6.3046 41.0218
#
#
#
# Elastic Compliance Matrix: (Units=1/GPa)
#
#
# Indices 1 2 3 4 5 6 
#
# 1 0.013646 -0.003251 -0.000127 0.000842 0.001891 0.001004
# 2 -0.003251 0.024787 -0.001664 -0.004514 0.000697 -0.004275
# 3 -0.000127 -0.001664 0.009216 -0.002019 0.000172 0.000350
# 4 0.000842 -0.004514 -0.002019 0.029376 -0.000095 0.005914
# 5 0.001891 0.000697 0.000172 -0.000095 0.029741 0.004481
# 6 0.001004 -0.004275 0.000350 0.005914 0.004481 0.026772
#
#
# Mechanical properties :
#
#
# Convention : Reuss Voigt Hill
#
# Bulk Modulus (GPa) = 26.62058 30.92990 28.77524
# Shear Modulus (GPa) = 32.02208 36.68547 34.35377
#
# Velocity S-wave (km/s) = 3.79821 4.06539 3.93407
# Velocity P-wave (km/s) = 5.58822 5.99757 5.79651
#
# Compressibility (1/GPa) = 0.03756492
#
# Stress axis : x y z
#
# Youngs Moduli (GPa) = 73.28374 40.34418 108.50926
#
# Poissons Ratio (x) = 0.13116 0.01374
# Poissons Ratio (y) = 0.23825 0.18055
# Poissons Ratio (z) = 0.00928 0.06713
#
# Static dielectric constant tensor:
#      x y z
#    x 1.880120 0.045820 0.021210 
#    y 0.045820 1.934130 -0.074620 
#    z 0.021210 -0.074620 1.864360 
# 
# From -- ./inp_files/379050.got.cif
#   From: 2010.05.17/outbox.cif.g08.bks.cpg/sg2_190_cif.got.tgz:379050.got - 2010.06.03 11:33:40.
