data_PCOD9056675
_publ_section_title
;
Structure prediction by ZEFSAII (Michael W. Deem and Ramdas Pophale) SiO2 
 PCOD9056675
Probable space group: P -1
;
_chemical_formula_sum "Si O2"
_cell_formula_units_Z 16
_cell_length_a 13.073506
_cell_length_b 11.448906
_cell_length_c 11.208952
_cell_angle_alpha 38.262463
_cell_angle_beta 95.312317
_cell_angle_gamma 67.078294
_cell_volume 684.795280
_symmetry_space_group_name_H-M "P -1"
_symmetry_group_IT_number 2
_symmetry_cell_setting 'triclinic'
loop_
_space_group_symop_operation_xyz
x,y,z
-x,-y,-z
loop_
_atom_site_type_symbol
_atom_site_label
_atom_site_fract_x
_atom_site_fract_y
_atom_site_fract_z
Si Si1 0.743976 0.635554 0.980274
Si Si2 0.583588 0.367745 0.741863
Si Si3 0.695106 0.932130 0.527042
Si Si4 0.014861 0.869403 0.778898
Si Si5 0.172115 0.265453 0.655238
Si Si6 0.965180 0.717739 0.603477
Si Si7 0.345004 0.639337 0.713525
Si Si8 0.249277 0.464677 0.330592
O O1 0.875720 0.385212 0.100845
O O2 0.656472 0.570729 0.066060
O O3 0.851627 0.581114 0.137398
O O4 0.653907 0.906763 0.672766
O O5 0.500000 0.500000 0.500000
O O6 0.465136 0.489499 0.739303
O O7 0.666518 0.452446 0.712490
O O8 0.705136 0.026583 0.025413
O O9 0.877846 0.730399 0.690083
O O10 0.665293 0.809427 0.524903
O O11 0.628988 0.234806 0.284483
O O12 0.038068 0.053674 0.593092
O O13 0.088650 0.726723 0.030880
O O14 0.831437 0.086739 0.574927
O O15 0.143843 0.196254 0.584085
O O16 0.224277 0.400258 0.508049
O O17 0.000000 0.500000 0.500000
#
# Coordination Sequence:
#
# PCOD9056675 Si02
#       8
#     2   2   2   2   2   2   2   2
#     4  10  19  33  65 106 145 182 225 272 340 429
#     4  12  30  52  69  98 146 187 239 303 360 409
#     4  10  20  35  67 108 145 179 220 283 349 425
#     4  10  18  38  70 108 140 181 230 273 343 425
#     4  11  27  47  75 101 131 186 249 299 343 414
#     4  10  17  36  63 101 141 169 230 284 335 409
#     4  11  23  39  68 103 145 188 224 284 357 414
#     4  10  25  44  73 103 141 182 237 291 346 429
#
# _framework density 23.364647999999999
#
# number of rings (size 3 to 8) (size 9 to 14) (size 15 to 20)
#    0.000    1.500    3.750    1.125    5.250    4.500 
#    0.000    8.750    0.000    0.000    0.000    0.000 
#    0.000    0.000    0.000    0.000    0.000    0.000 
#
# Total GULP energy -89306.096249 kJ/mol
# GULP energy per Si atom -5581.631016 kJ/mol
# Density = 2.331147 g / cm^3
# Si number density = 23.364648 Si / 1000 Ang^3
#
#
#
# Elastic Constant Matrix: (Units=GPa)
#
#
# Indices 1 2 3 4 5 6 
#
# 1 164.1719 31.2422 72.7500 -8.5352 -23.1168 -22.5546
# 2 31.2422 30.1062 29.9336 -5.6020 -5.3975 -13.8366
# 3 72.7500 29.9336 131.7902 6.4475 -14.6348 -13.9906
# 4 -8.5352 -5.6020 6.4475 25.8704 -9.6845 4.6367
# 5 -23.1168 -5.3975 -14.6348 -9.6845 29.4627 5.6390
# 6 -22.5546 -13.8366 -13.9906 4.6367 5.6390 30.5964
#
#
#
# Elastic Compliance Matrix: (Units=1/GPa)
#
#
# Indices 1 2 3 4 5 6 
#
# 1 0.010065 -0.003058 -0.004183 0.005901 0.006821 0.001972
# 2 -0.003058 0.056330 -0.009522 0.012172 0.004078 0.016270
# 3 -0.004183 -0.009522 0.012210 -0.006786 -0.001081 -0.000579
# 4 0.005901 0.012172 -0.006786 0.054328 0.022421 -0.005614
# 5 0.006821 0.004078 -0.001081 0.022421 0.047996 -0.005866
# 6 0.001972 0.016270 -0.000579 -0.005614 -0.005866 0.043162
#
#
# Mechanical properties :
#
#
# Convention : Reuss Voigt Hill
#
# Bulk Modulus (GPa) = 22.18339 65.99108 44.08723
# Shear Modulus (GPa) = 18.33901 29.99542 24.16721
#
# Velocity S-wave (km/s) = 2.80465 3.58690 3.21962
# Velocity P-wave (km/s) = 4.47249 6.74238 5.72114
#
# Compressibility (1/GPa) = 0.04507878
#
# Stress axis : x y z
#
# Youngs Moduli (GPa) = 99.35230 17.75268 81.89880
#
# Poissons Ratio (x) = 0.05429 0.34261
# Poissons Ratio (y) = 0.30383 0.77981
# Poissons Ratio (z) = 0.41563 0.16903
#
# Static dielectric constant tensor:
#      x y z
#    x 1.779820 0.535050 0.154740 
#    y 0.535050 -0.248630 -0.559210 
#    z 0.154740 -0.559210 1.820220 
# 
# From -- ./inp_files/427419.got.cif
#   From: 2010.05.17/outbox.cif.g08.bks.cpg/sg2_214_cif.got.tgz:427419.got - 2010.06.03 11:33:40.
