data_PCOD9056899
_publ_section_title
;
Structure prediction by ZEFSAII (Michael W. Deem and Ramdas Pophale) SiO2 
 PCOD9056899
Probable space group: P -1
;
_chemical_formula_sum "Si O2"
_cell_formula_units_Z 16
_cell_length_a 28.570560
_cell_length_b 8.148136
_cell_length_c 14.262998
_cell_angle_alpha 51.406141
_cell_angle_beta 22.068612
_cell_angle_gamma 41.209058
_cell_volume 784.915054
_symmetry_space_group_name_H-M "P -1"
_symmetry_group_IT_number 2
_symmetry_cell_setting 'triclinic'
loop_
_space_group_symop_operation_xyz
x,y,z
-x,-y,-z
loop_
_atom_site_type_symbol
_atom_site_label
_atom_site_fract_x
_atom_site_fract_y
_atom_site_fract_z
Si Si1 0.003983 0.124651 0.293895
Si Si2 0.996027 0.132611 0.805830
Si Si3 0.849275 0.640245 0.159676
Si Si4 0.499999 0.552938 0.638056
Si Si5 0.193084 0.838402 0.219440
Si Si6 0.193085 0.775425 0.701308
Si Si7 0.849285 0.661200 0.792491
Si Si8 0.499994 0.154416 0.641931
O O1 0.841460 0.301843 0.587132
O O2 0.991036 0.008958 0.263447
O O3 0.095358 0.903943 0.282138
O O4 0.099442 0.237739 0.055493
O O5 0.900572 0.436619 0.853802
O O6 0.904651 0.094654 0.068201
O O7 0.158553 0.984748 0.611491
O O8 0.839783 0.418017 0.214688
O O9 0.670667 0.873960 0.439414
O O10 0.000000 0.500000 0.000000
O O11 0.640442 0.402390 0.501355
O O12 0.499992 0.353606 0.640065
O O13 0.500001 0.754689 0.497194
O O14 0.359564 0.683271 0.922678
O O15 0.160208 0.097589 0.234047
O O16 0.000000 0.500000 0.500000
O O17 0.670679 0.784696 0.048574
#
# Coordination Sequence:
#
# PCOD9056899 Si02
#       8
#     2   2   2   2   2   2   2   2
#     4  11  22  41  63  98 130 173 218 270 331 387
#     4  11  22  41  63  98 130 173 218 270 331 387
#     4  12  24  42  70 101 136 172 223 272 331 401
#     4  11  23  43  65  96 133 172 228 275 327 395
#     4  11  24  39  69  95 131 175 221 271 335 388
#     4  11  24  39  69  95 131 175 221 271 335 388
#     4  12  24  42  70 101 136 172 223 272 331 401
#     4  11  25  41  66  97 135 173 218 285 328 380
#
# _framework density 20.384371000000002
#
# number of rings (size 3 to 8) (size 9 to 14) (size 15 to 20)
#    0.000    0.750    5.000    3.000    3.500    1.000 
#    0.000    1.875    0.000    1.500    0.000    0.000 
#    0.000    0.000    0.000    0.000    0.000    0.000 
#
# Total GULP energy -89097.272581 kJ/mol
# GULP energy per Si atom -5568.579536 kJ/mol
# Density = 2.033797 g / cm^3
# Si number density = 20.384371 Si / 1000 Ang^3
#
#
#
# Elastic Constant Matrix: (Units=GPa)
#
#
# Indices 1 2 3 4 5 6 
#
# 1 123.0668 27.0055 63.5987 16.0873 -13.4837 -7.7986
# 2 27.0055 68.3167 44.9179 17.0733 -5.2680 -1.8830
# 3 63.5987 44.9179 154.4560 23.0538 -0.5363 2.9948
# 4 16.0873 17.0733 23.0538 32.1971 2.7371 -1.4460
# 5 -13.4837 -5.2680 -0.5363 2.7371 45.6738 8.9497
# 6 -7.7986 -1.8830 2.9948 -1.4460 8.9497 23.4564
#
#
#
# Elastic Compliance Matrix: (Units=1/GPa)
#
#
# Indices 1 2 3 4 5 6 
#
# 1 0.011209 -0.000891 -0.004059 -0.002317 0.002710 0.002996
# 2 -0.000891 0.019812 -0.004333 -0.007129 0.002294 0.000533
# 3 -0.004059 -0.004333 0.009874 -0.002797 -0.000866 -0.002800
# 4 -0.002317 -0.007129 -0.002797 0.038517 -0.004452 0.003088
# 5 0.002710 0.002294 -0.000866 -0.004452 0.024897 -0.008578
# 6 0.002996 0.000533 -0.002800 0.003088 -0.008578 0.047492
#
#
# Mechanical properties :
#
#
# Convention : Reuss Voigt Hill
#
# Bulk Modulus (GPa) = 44.78486 68.54263 56.66374
# Shear Modulus (GPa) = 28.11999 34.28661 31.20330
#
# Velocity S-wave (km/s) = 3.71818 4.10567 3.91672
# Velocity P-wave (km/s) = 6.36011 7.49490 6.95070
#
# Compressibility (1/GPa) = 0.02232898
#
# Stress axis : x y z
#
# Youngs Moduli (GPa) = 89.21791 50.47394 101.27219
#
# Poissons Ratio (x) = 0.04499 0.41104
# Poissons Ratio (y) = 0.07953 0.43880
# Poissons Ratio (z) = 0.36212 0.21870
#
# Static dielectric constant tensor:
#      x y z
#    x 1.788140 -0.109960 -0.191130 
#    y -0.109960 1.859590 0.258040 
#    z -0.191130 0.258040 2.451940 
# 
# From -- ./inp_files/544811.got.cif
#   From: 2010.05.17/outbox.cif.g08.bks.cpg/sg2_273_cif.got.tgz:544811.got - 2010.06.03 11:33:40.
