data_PCOD9056702
_publ_section_title
;
Structure prediction by ZEFSAII (Michael W. Deem and Ramdas Pophale) SiO2 
 PCOD9056702
Probable space group: P -1
;
_chemical_formula_sum "Si O2"
_cell_formula_units_Z 16
_cell_length_a 9.315144
_cell_length_b 15.856996
_cell_length_c 11.727834
_cell_angle_alpha 59.208005
_cell_angle_beta 97.409379
_cell_angle_gamma 141.863939
_cell_volume 787.204998
_symmetry_space_group_name_H-M "P -1"
_symmetry_group_IT_number 2
_symmetry_cell_setting 'triclinic'
loop_
_space_group_symop_operation_xyz
x,y,z
-x,-y,-z
loop_
_atom_site_type_symbol
_atom_site_label
_atom_site_fract_x
_atom_site_fract_y
_atom_site_fract_z
Si Si1 0.275933 0.213897 0.383486
Si Si2 0.698355 0.913289 0.918205
Si Si3 0.592303 0.542330 0.609890
Si Si4 0.186627 0.328449 0.111463
Si Si5 0.106039 0.489656 0.114914
Si Si6 0.098526 0.182439 0.973301
Si Si7 0.423220 0.813816 0.578643
Si Si8 0.784622 0.128524 0.584061
O O1 0.356720 0.321308 0.427669
O O2 0.183667 0.241039 0.262697
O O3 0.500266 0.256991 0.365828
O O4 0.000000 0.000000 0.500000
O O5 0.740191 0.025239 0.754077
O O6 0.387098 0.698616 0.042577
O O7 0.849740 0.897010 0.914992
O O8 0.840798 0.028806 0.969886
O O9 0.500000 0.500000 0.500000
O O10 0.362512 0.361873 0.795306
O O11 0.894928 0.670068 0.544767
O O12 0.133433 0.400096 0.118448
O O13 0.500000 0.500000 0.000000
O O14 0.055394 0.230570 0.042541
O O15 0.867596 0.346703 0.280105
O O16 0.000000 0.500000 0.000000
O O17 0.378820 0.861197 0.432577
O O18 0.651040 0.996696 0.553369
#
# Coordination Sequence:
#
# PCOD9056702 Si02
#       8
#     2   2   2   2   2   2   2   2
#     4  12  25  42  71 102 133 172 235 280 325 405
#     4  11  22  41  67  99 129 182 220 274 332 407
#     4  12  24  43  70 100 138 180 217 282 346 399
#     4  12  23  42  68 103 133 173 232 284 325 396
#     4  12  24  41  69  98 139 179 222 276 345 403
#     4  11  24  41  70  99 138 171 229 281 333 393
#     4  11  24  41  66 101 133 177 224 281 339 395
#     4  11  22  40  66  99 134 171 225 273 341 401
#
# _framework density 20.325073
#
# number of rings (size 3 to 8) (size 9 to 14) (size 15 to 20)
#    0.000    0.500    6.250    3.000    1.750    0.000 
#    0.000    1.250    2.750    0.000    0.000    0.000 
#    0.000    0.000    0.000    0.000    0.000    0.000 
#
# Total GULP energy -89165.819198 kJ/mol
# GULP energy per Si atom -5572.863700 kJ/mol
# Density = 2.027881 g / cm^3
# Si number density = 20.325073 Si / 1000 Ang^3
#
#
#
# Elastic Constant Matrix: (Units=GPa)
#
#
# Indices 1 2 3 4 5 6 
#
# 1 122.5667 51.3748 61.8488 4.9925 18.3767 7.9921
# 2 51.3748 168.8313 54.3267 -0.6738 -4.2617 9.7471
# 3 61.8488 54.3267 114.2963 -3.2448 23.1134 -1.4869
# 4 4.9925 -0.6738 -3.2448 28.4683 3.6683 0.6427
# 5 18.3767 -4.2617 23.1134 3.6683 35.7890 1.7483
# 6 7.9921 9.7471 -1.4869 0.6427 1.7483 33.4999
#
#
#
# Elastic Compliance Matrix: (Units=1/GPa)
#
#
# Indices 1 2 3 4 5 6 
#
# 1 0.012321 -0.002004 -0.005244 -0.002389 -0.002816 -0.002396
# 2 -0.002004 0.007942 -0.003635 -0.000401 0.004472 -0.002220
# 3 -0.005244 -0.003635 0.015075 0.003507 -0.007998 0.003328
# 4 -0.002389 -0.000401 0.003507 0.036552 -0.004852 0.000394
# 5 -0.002816 0.004472 -0.007998 -0.004852 0.035717 -0.002755
# 6 -0.002396 -0.002220 0.003328 0.000394 -0.002755 0.031352
#
#
# Mechanical properties :
#
#
# Convention : Reuss Voigt Hill
#
# Bulk Modulus (GPa) = 73.68406 82.31055 77.99730
# Shear Modulus (GPa) = 30.25719 35.42772 32.84245
#
# Velocity S-wave (km/s) = 3.86251 4.17952 4.02414
# Velocity P-wave (km/s) = 7.49823 7.99226 7.74918
#
# Compressibility (1/GPa) = 0.01357146
#
# Stress axis : x y z
#
# Youngs Moduli (GPa) = 81.16297 125.91218 66.33526
#
# Poissons Ratio (x) = 0.25234 0.34786
# Poissons Ratio (y) = 0.16266 0.24114
# Poissons Ratio (z) = 0.42562 0.45770
#
# Static dielectric constant tensor:
#      x y z
#    x 1.780390 -0.005750 0.019130 
#    y -0.005750 1.712660 -0.022240 
#    z 0.019130 -0.022240 1.765710 
# 
# From -- ./inp_files/397219.got.cif
#   From: 2010.05.17/outbox.cif.g08.bks.cpg/sg2_199_cif.got.tgz:397219.got - 2010.06.03 11:33:40.
