data_PCOD9056536
_publ_section_title
;
Structure prediction by ZEFSAII (Michael W. Deem and Ramdas Pophale) SiO2 
 PCOD9056536
Probable space group: P -1
;
_chemical_formula_sum "Si O2"
_cell_formula_units_Z 16
_cell_length_a 22.647047
_cell_length_b 5.164782
_cell_length_c 10.451453
_cell_angle_alpha 108.992840
_cell_angle_beta 35.331077
_cell_angle_gamma 111.229553
_cell_volume 657.958053
_symmetry_space_group_name_H-M "P -1"
_symmetry_group_IT_number 2
_symmetry_cell_setting 'triclinic'
loop_
_space_group_symop_operation_xyz
x,y,z
-x,-y,-z
loop_
_atom_site_type_symbol
_atom_site_label
_atom_site_fract_x
_atom_site_fract_y
_atom_site_fract_z
Si Si1 0.948884 0.542914 0.462623
Si Si2 0.272668 0.277066 0.114853
Si Si3 0.488671 0.181154 0.418620
Si Si4 0.839288 0.315982 0.021896
Si Si5 0.071539 0.278576 0.866532
Si Si6 0.277801 0.259201 0.812235
Si Si7 0.407540 0.844698 0.045572
Si Si8 0.196710 0.981181 0.431792
O O1 0.843105 0.654676 0.689166
O O2 0.000000 0.500000 0.500000
O O3 0.901042 0.263584 0.427705
O O4 0.048279 0.699375 0.237816
O O5 0.238296 0.006605 0.217694
O O6 0.309472 0.243964 0.903065
O O7 0.356210 0.509865 0.077689
O O8 0.500000 0.500000 0.500000
O O9 0.374459 0.167002 0.555746
O O10 0.556247 0.114323 0.163798
O O11 0.500000 0.000000 0.500000
O O12 0.852624 0.572313 0.136376
O O13 0.756010 0.439725 0.099147
O O14 0.808833 0.015812 0.090564
O O15 0.145938 0.235049 0.610285
O O16 0.000000 0.500000 0.000000
O O17 0.000000 0.000000 0.000000
O O18 0.500000 0.000000 0.000000
O O19 0.304857 0.953318 0.299306
#
# Coordination Sequence:
#
# PCOD9056536 Si02
#       8
#     2   2   2   2   2   2   2   2
#     4  11  22  39  67 103 146 187 238 296 371 445
#     4  11  24  44  73 106 147 196 248 310 382 452
#     4  12  26  51  81 108 150 203 259 326 392 451
#     4  12  26  43  69 107 145 194 242 304 367 454
#     4  12  26  47  72 102 153 201 248 300 374 455
#     4  12  26  44  74 107 148 186 258 306 372 451
#     4  11  28  50  77 111 154 201 263 325 395 457
#     4  11  26  45  73 105 150 198 248 309 379 462
#
# _framework density 24.317661000000001
#
# number of rings (size 3 to 8) (size 9 to 14) (size 15 to 20)
#    0.000    0.500    3.750    3.750    7.000    2.500 
#    0.000    0.000    0.000    0.000    0.000    0.000 
#    0.000    0.000    0.000    0.000    0.000    0.000 
#
# Total GULP energy -89075.636631 kJ/mol
# GULP energy per Si atom -5567.227289 kJ/mol
# Density = 2.426231 g / cm^3
# Si number density = 24.317661 Si / 1000 Ang^3
#
#
#
# Elastic Constant Matrix: (Units=GPa)
#
#
# Indices 1 2 3 4 5 6 
#
# 1 73.5055 29.4867 18.5557 1.7803 -7.5413 9.5380
# 2 29.4867 94.1018 35.8383 -1.9304 -18.9040 -8.4642
# 3 18.5557 35.8383 142.9555 5.6946 -4.5663 6.8451
# 4 1.7803 -1.9304 5.6946 38.0557 5.1273 -2.6222
# 5 -7.5413 -18.9040 -4.5663 5.1273 34.3455 -6.7457
# 6 9.5380 -8.4642 6.8451 -2.6222 -6.7457 34.5361
#
#
#
# Elastic Compliance Matrix: (Units=1/GPa)
#
#
# Indices 1 2 3 4 5 6 
#
# 1 0.016820 -0.005826 -0.000389 -0.001374 -0.000581 -0.006214
# 2 -0.005826 0.016251 -0.003467 0.001007 0.008634 0.008042
# 3 -0.000389 -0.003467 0.008059 -0.001381 -0.001244 -0.002688
# 4 -0.001374 0.001007 -0.001381 0.027234 -0.003550 0.002274
# 5 -0.000581 0.008634 -0.001244 -0.003550 0.035926 0.009271
# 6 -0.006214 0.008042 -0.002688 0.002274 0.009271 0.035158
#
#
# Mechanical properties :
#
#
# Convention : Reuss Voigt Hill
#
# Bulk Modulus (GPa) = 45.94450 53.14716 49.54583
# Shear Modulus (GPa) = 30.10812 36.49960 33.30386
#
# Velocity S-wave (km/s) = 3.52251 3.87841 3.70474
# Velocity P-wave (km/s) = 5.95639 6.47757 6.22244
#
# Compressibility (1/GPa) = 0.02176539
#
# Stress axis : x y z
#
# Youngs Moduli (GPa) = 59.45406 61.53348 124.08687
#
# Poissons Ratio (x) = 0.35850 0.04826
# Poissons Ratio (y) = 0.34638 0.43025
# Poissons Ratio (z) = 0.02312 0.21336
#
# Static dielectric constant tensor:
#      x y z
#    x 2.214920 0.091050 -0.240880 
#    y 0.091050 2.133500 -0.172340 
#    z -0.240880 -0.172340 2.345850 
# 
# From -- ./inp_files/473482.got.cif
#   From: 2010.05.17/outbox.cif.g08.bks.cpg/sg2_237_cif.got.tgz:473482.got - 2010.06.03 11:33:40.
