data_PCOD9056163
_publ_section_title
;
Structure prediction by ZEFSAII (Michael W. Deem and Ramdas Pophale) SiO2 
 PCOD9056163
Probable space group: P -1
;
_chemical_formula_sum "Si O2"
_cell_formula_units_Z 16
_cell_length_a 11.090179
_cell_length_b 7.811691
_cell_length_c 7.948412
_cell_angle_alpha 68.571421
_cell_angle_beta 113.332235
_cell_angle_gamma 114.203498
_cell_volume 559.512339
_symmetry_space_group_name_H-M "P -1"
_symmetry_group_IT_number 2
_symmetry_cell_setting 'triclinic'
loop_
_space_group_symop_operation_xyz
x,y,z
-x,-y,-z
loop_
_atom_site_type_symbol
_atom_site_label
_atom_site_fract_x
_atom_site_fract_y
_atom_site_fract_z
Si Si1 0.593235 0.737998 0.780653
Si Si2 0.093599 0.046667 0.364094
Si Si3 0.340068 0.623151 0.483547
Si Si4 0.838105 0.847371 0.085327
Si Si5 0.171791 0.593888 0.736008
Si Si6 0.415228 0.702395 0.037881
Si Si7 0.092592 0.467395 0.212974
Si Si8 0.664427 0.827425 0.331646
O O1 0.494703 0.757036 0.564675
O O2 0.602592 0.520702 0.843078
O O3 0.743726 0.879143 0.866037
O O4 0.502380 0.729515 0.901958
O O5 0.242220 0.042551 0.517070
O O6 0.120855 0.270368 0.260583
O O7 0.000000 0.000000 0.500000
O O8 0.997354 0.941632 0.194389
O O9 0.246284 0.642577 0.582540
O O10 0.346740 0.401010 0.563672
O O11 0.237390 0.629286 0.272252
O O12 0.826028 0.622655 0.149860
O O13 0.755348 0.876134 0.194443
O O14 0.013426 0.583692 0.668659
O O15 0.269849 0.720768 0.890022
O O16 0.513314 0.830453 0.189203
O O17 0.000000 0.500000 0.000000
#
# Coordination Sequence:
#
# PCOD9056163 Si02
#       8
#     2   2   2   2   2   2   2   2
#     4   7  10  19  40  68  88 108 151 202 229 250
#     4   9  17  30  49  70  95 128 158 188 231 284
#     4   8  14  26  46  67  88 121 163 194 218 270
#     4   8  13  24  46  71  90 114 156 201 229 263
#     4   9  16  28  49  72  91 120 163 199 226 271
#     4   7  10  19  39  67  92 112 148 199 231 257
#     4  11  22  33  46  69 102 129 150 191 246 284
#     4   7  11  21  41  70  95 115 148 195 236 263
#
# _framework density 28.596333000000001
#
# number of rings (size 3 to 8) (size 9 to 14) (size 15 to 20)
#    0.000    3.750    0.000    4.125    0.000    0.000 
#    0.000    0.625    0.000   26.250    0.000    0.000 
#    0.000    0.000    0.000    0.000    0.000    0.000 
#
# Total GULP energy -89456.078358 kJ/mol
# GULP energy per Si atom -5591.004897 kJ/mol
# Density = 2.853125 g / cm^3
# Si number density = 28.596333 Si / 1000 Ang^3
#
#
#
# Elastic Constant Matrix: (Units=GPa)
#
#
# Indices 1 2 3 4 5 6 
#
# 1 141.9553 36.8975 50.9122 27.1365 22.8129 35.9678
# 2 36.8975 92.9834 65.0324 28.9595 28.7269 10.9961
# 3 50.9122 65.0324 245.7712 74.1172 41.3973 28.6408
# 4 27.1365 28.9595 74.1172 52.9151 20.7045 29.0580
# 5 22.8129 28.7269 41.3973 20.7045 60.6971 26.6835
# 6 35.9678 10.9961 28.6408 29.0580 26.6835 47.9203
#
#
#
# Elastic Compliance Matrix: (Units=1/GPa)
#
#
# Indices 1 2 3 4 5 6 
#
# 1 0.009653 -0.003228 -0.001120 0.002202 0.001410 -0.007956
# 2 -0.003228 0.016206 -0.001333 -0.006786 -0.006385 0.007171
# 3 -0.001120 -0.001333 0.008009 -0.011535 -0.002582 0.004793
# 4 0.002202 -0.006786 -0.011535 0.050236 0.004659 -0.026258
# 5 0.001410 -0.006385 -0.002582 0.004659 0.025853 -0.015270
# 6 -0.007956 0.007171 0.004793 -0.026258 -0.015270 0.046754
#
#
# Mechanical properties :
#
#
# Convention : Reuss Voigt Hill
#
# Bulk Modulus (GPa) = 44.43221 87.37713 65.90467
# Shear Modulus (GPa) = 28.47780 54.16438 41.32109
#
# Velocity S-wave (km/s) = 3.15914 4.35685 3.80541
# Velocity P-wave (km/s) = 5.37386 7.47872 6.51190
#
# Compressibility (1/GPa) = 0.02250620
#
# Stress axis : x y z
#
# Youngs Moduli (GPa) = 103.58995 61.70487 124.86448
#
# Poissons Ratio (x) = 0.19917 0.13985
# Poissons Ratio (y) = 0.33437 0.16647
# Poissons Ratio (z) = 0.11602 0.08227
#
# Static dielectric constant tensor:
#      x y z
#    x 2.317630 0.090010 -0.056790 
#    y 0.090010 2.201460 -0.000170 
#    z -0.056790 -0.000170 2.352860 
# 
# From -- ./inp_files/298006.got.cif
#   From: 2010.05.17/outbox.cif.g08.bks.cpg/sg2_150_cif.got.tgz:298006.got - 2010.06.03 11:33:40.
