data_PCOD9056001
_publ_section_title
;
Structure prediction by ZEFSAII (Michael W. Deem and Ramdas Pophale) SiO2 
 PCOD9056001
Probable space group: P -1
;
_chemical_formula_sum "Si O2"
_cell_formula_units_Z 15
_cell_length_a 8.372158
_cell_length_b 9.373828
_cell_length_c 11.315561
_cell_angle_alpha 66.777818
_cell_angle_beta 119.681345
_cell_angle_gamma 130.613805
_cell_volume 582.174694
_symmetry_space_group_name_H-M "P -1"
_symmetry_group_IT_number 2
_symmetry_cell_setting 'triclinic'
loop_
_space_group_symop_operation_xyz
x,y,z
-x,-y,-z
loop_
_atom_site_type_symbol
_atom_site_label
_atom_site_fract_x
_atom_site_fract_y
_atom_site_fract_z
Si Si1 0.349996 0.247639 0.687212
Si Si2 0.562326 0.384057 0.974893
Si Si3 0.164554 0.926116 0.215173
Si Si4 0.367444 0.787321 0.731244
Si Si5 0.978237 0.778865 0.941771
Si Si6 0.500000 0.500000 0.500000
Si Si7 0.000389 0.819748 0.675079
Si Si8 0.848373 0.564666 0.379602
O O1 0.419080 0.279622 0.838411
O O2 0.541250 0.338780 0.630775
O O3 0.301300 0.411507 0.588201
O O4 0.130939 0.046968 0.642880
O O5 0.800910 0.555991 0.962459
O O6 0.500000 0.500000 0.000000
O O7 0.562434 0.232750 0.105364
O O8 0.998292 0.758443 0.298170
O O9 0.422347 0.025629 0.308677
O O10 0.121007 0.091766 0.142928
O O11 0.118183 0.844593 0.091983
O O12 0.141361 0.776837 0.653681
O O13 0.326200 0.605299 0.711543
O O14 0.074219 0.802698 0.839571
O O15 0.735848 0.686001 0.604630
O O16 0.000000 0.500000 0.500000
#
# Coordination Sequence:
#
# PCOD9056001 Si02
#       8
#     2   2   2   2   2   1   2   2
#     4  12  25  48  78 105 143 206 249 296 374 452
#     4  12  21  44  80 111 148 187 245 314 377 432
#     4  11  23  44  77 109 148 190 252 309 374 439
#     4  12  27  45  72 116 149 185 249 321 369 435
#     4  11  21  44  77 109 144 198 244 306 380 446
#     4  12  28  50  72 100 152 202 244 298 374 444
#     4  12  28  48  73 110 149 195 250 304 379 445
#     4  12  26  46  72 106 148 197 256 302 355 447
#
# _framework density 25.765460999999998
#
# number of rings (size 3 to 8) (size 9 to 14) (size 15 to 20)
#    0.000    0.267    6.667    2.000    0.000    5.333 
#    0.000    0.000    0.000    0.000    0.000    0.000 
#    0.000    0.000    0.000    0.000    0.000    0.000 
#
# Total GULP energy -83703.769540 kJ/mol
# GULP energy per Si atom -5580.251303 kJ/mol
# Density = 2.570682 g / cm^3
# Si number density = 25.765461 Si / 1000 Ang^3
#
#
#
# Elastic Constant Matrix: (Units=GPa)
#
#
# Indices 1 2 3 4 5 6 
#
# 1 82.4969 52.0055 13.9981 3.5385 -7.5656 10.3449
# 2 52.0055 192.3485 40.0835 10.4009 -7.2488 38.3971
# 3 13.9981 40.0835 109.1065 15.5785 -13.2892 6.0237
# 4 3.5385 10.4009 15.5785 31.1483 -2.2985 -8.1986
# 5 -7.5656 -7.2488 -13.2892 -2.2985 33.6143 2.4566
# 6 10.3449 38.3971 6.0237 -8.1986 2.4566 50.5178
#
#
#
# Elastic Compliance Matrix: (Units=1/GPa)
#
#
# Indices 1 2 3 4 5 6 
#
# 1 0.014823 -0.003817 -0.000153 -0.000223 0.002457 -0.000272
# 2 -0.003817 0.007822 -0.001643 -0.002758 0.000387 -0.005434
# 3 -0.000153 -0.001643 0.010998 -0.004928 0.003696 -0.001011
# 4 -0.000223 -0.002758 -0.004928 0.037809 -0.000658 0.008898
# 5 0.002457 0.000387 0.003696 -0.000658 0.032014 -0.002901
# 6 -0.000272 -0.005434 -0.001011 0.008898 -0.002901 0.025686
#
#
# Mechanical properties :
#
#
# Convention : Reuss Voigt Hill
#
# Bulk Modulus (GPa) = 44.61016 66.23624 55.42320
# Shear Modulus (GPa) = 33.81798 41.58041 37.69920
#
# Velocity S-wave (km/s) = 3.62682 4.02158 3.82929
# Velocity P-wave (km/s) = 5.90677 6.87948 6.41160
#
# Compressibility (1/GPa) = 0.02241642
#
# Stress axis : x y z
#
# Youngs Moduli (GPa) = 67.46395 127.84993 90.92366
#
# Poissons Ratio (x) = 0.48798 0.01395
# Poissons Ratio (y) = 0.25750 0.14938
# Poissons Ratio (z) = 0.01035 0.21005
#
# Static dielectric constant tensor:
#      x y z
#    x 2.446110 0.158200 -0.118110 
#    y 0.158200 2.152830 -0.117670 
#    z -0.118110 -0.117670 2.155620 
# 
# From -- ./inp_files/381821.got.cif
#   From: 2010.05.17/outbox.cif.g08.bks.cpg/sg2_191_cif.got.tgz:381821.got - 2010.06.03 11:33:40.
