data_PCOD9056743
_publ_section_title
;
Structure prediction by ZEFSAII (Michael W. Deem and Ramdas Pophale) SiO2 
 PCOD9056743
Probable space group: P -1
;
_chemical_formula_sum "Si O2"
_cell_formula_units_Z 14
_cell_length_a 11.685371
_cell_length_b 9.875984
_cell_length_c 16.791588
_cell_angle_alpha 110.875346
_cell_angle_beta 145.142934
_cell_angle_gamma 45.889882
_cell_volume 677.542500
_symmetry_space_group_name_H-M "P -1"
_symmetry_group_IT_number 2
_symmetry_cell_setting 'triclinic'
loop_
_space_group_symop_operation_xyz
x,y,z
-x,-y,-z
loop_
_atom_site_type_symbol
_atom_site_label
_atom_site_fract_x
_atom_site_fract_y
_atom_site_fract_z
Si Si1 0.567326 0.819146 0.951712
Si Si2 0.161706 0.489992 0.514687
Si Si3 0.769745 0.991470 0.369402
Si Si4 0.770312 0.248183 0.887935
Si Si5 0.372053 0.623834 0.869367
Si Si6 0.131855 0.319353 0.156856
Si Si7 0.836565 0.765045 0.657099
O O1 0.393580 0.927021 0.792046
O O2 0.436692 0.752838 0.911669
O O3 0.918651 0.578643 0.085809
O O4 0.500000 0.000000 0.000000
O O5 0.528728 0.317079 0.699979
O O6 0.108972 0.419311 0.392244
O O7 0.000000 0.500000 0.500000
O O8 0.980058 0.738269 0.453320
O O9 0.483498 0.155068 0.301292
O O10 0.000000 0.000000 0.500000
O O11 0.528310 0.436843 0.854416
O O12 0.981783 0.276915 0.004822
O O13 0.000000 0.000000 0.000000
O O14 0.022698 0.779116 0.714302
O O15 0.500000 0.500000 0.000000
O O16 0.102287 0.276541 0.222024
O O17 0.500000 0.000000 0.500000
#
# Coordination Sequence:
#
# PCOD9056743 Si02
#       7
#     2   2   2   2   2   2   2
#     4  11  25  47  72 101 141 184 228 280 346 417
#     4  12  25  42  71 105 140 179 230 285 345 401
#     4  12  27  48  70 100 144 181 229 291 347 410
#     4  11  22  40  68 106 136 174 227 283 341 402
#     4  11  23  43  72 101 137 178 231 282 341 404
#     4  11  25  46  69  99 139 189 230 277 346 416
#     4  12  24  42  69 106 139 175 232 292 340 400
#
# _framework density 20.662908999999999
#
# number of rings (size 3 to 8) (size 9 to 14) (size 15 to 20)
#    0.000    0.571    4.286    5.571    2.000    0.000 
#    2.571    1.429    0.000    0.000    0.000    0.000 
#    0.000    0.000    0.000    0.000    0.000    0.000 
#
# Total GULP energy -78196.094434 kJ/mol
# GULP energy per Si atom -5585.435317 kJ/mol
# Density = 2.061588 g / cm^3
# Si number density = 20.662909 Si / 1000 Ang^3
#
#
#
# Elastic Constant Matrix: (Units=GPa)
#
#
# Indices 1 2 3 4 5 6 
#
# 1 103.8633 48.6252 38.0929 2.1249 18.3795 10.3948
# 2 48.6252 147.7885 38.0732 -17.1413 15.4662 17.2689
# 3 38.0929 38.0732 103.2752 -19.5571 21.2419 1.4425
# 4 2.1249 -17.1413 -19.5571 44.0052 -5.0336 -8.9593
# 5 18.3795 15.4662 21.2419 -5.0336 52.0774 -8.6237
# 6 10.3948 17.2689 1.4425 -8.9593 -8.6237 23.1128
#
#
#
# Elastic Compliance Matrix: (Units=1/GPa)
#
#
# Indices 1 2 3 4 5 6 
#
# 1 0.014203 -0.002883 -0.004287 -0.005789 -0.004259 -0.007799
# 2 -0.002883 0.009133 -0.001534 0.001699 -0.001807 -0.005447
# 3 -0.004287 -0.001534 0.013397 0.006061 -0.002292 0.003733
# 4 -0.005789 0.001699 0.006061 0.029712 0.004267 0.014065
# 5 -0.004259 -0.001807 -0.002292 0.004267 0.024970 0.014379
# 6 -0.007799 -0.005447 0.003733 0.014065 0.014379 0.061427
#
#
# Mechanical properties :
#
#
# Convention : Reuss Voigt Hill
#
# Bulk Modulus (GPa) = 51.74945 67.16770 59.45858
# Shear Modulus (GPa) = 28.29804 39.18145 33.73975
#
# Velocity S-wave (km/s) = 3.70470 4.35929 4.04526
# Velocity P-wave (km/s) = 6.58777 7.61018 7.11736
#
# Compressibility (1/GPa) = 0.01932388
#
# Stress axis : x y z
#
# Youngs Moduli (GPa) = 70.40907 109.49564 74.64482
#
# Poissons Ratio (x) = 0.31567 0.32002
# Poissons Ratio (y) = 0.20299 0.11450
# Poissons Ratio (z) = 0.30186 0.16796
#
# Static dielectric constant tensor:
#      x y z
#    x 1.811140 0.003430 0.082970 
#    y 0.003430 1.729280 0.047540 
#    z 0.082970 0.047540 1.871730 
# 
# From -- ./inp_files/157456.got.cif
#   From: 2010.05.17/outbox.cif.g08.bks.cpg/sg2_79_cif.got.tgz:157456.got - 2010.06.03 11:33:40.
