data_PCOD9056432
_publ_section_title
;
Structure prediction by ZEFSAII (Michael W. Deem and Ramdas Pophale) SiO2 
 PCOD9056432
Probable space group: P -1
;
_chemical_formula_sum "Si O2"
_cell_formula_units_Z 16
_cell_length_a 9.137029
_cell_length_b 9.255173
_cell_length_c 13.652806
_cell_angle_alpha 106.742681
_cell_angle_beta 79.109099
_cell_angle_gamma 49.545200
_cell_volume 720.718139
_symmetry_space_group_name_H-M "P -1"
_symmetry_group_IT_number 2
_symmetry_cell_setting 'triclinic'
loop_
_space_group_symop_operation_xyz
x,y,z
-x,-y,-z
loop_
_atom_site_type_symbol
_atom_site_label
_atom_site_fract_x
_atom_site_fract_y
_atom_site_fract_z
Si Si1 0.504808 0.544430 0.666035
Si Si2 0.307294 0.972317 0.204367
Si Si3 0.963326 0.154433 0.116919
Si Si4 0.426252 0.326440 0.500773
Si Si5 0.889701 0.117207 0.643447
Si Si6 0.031638 0.452647 0.372477
Si Si7 0.170591 0.168210 0.669987
Si Si8 0.178606 0.420343 0.882125
O O1 0.535125 0.379565 0.557212
O O2 0.577922 0.627918 0.604721
O O3 0.666769 0.384244 0.703829
O O4 0.250314 0.739124 0.771838
O O5 0.182989 0.009214 0.129226
O O6 0.248518 0.193985 0.265922
O O7 0.185508 0.977549 0.310903
O O8 0.572884 0.746288 0.136083
O O9 0.900105 0.363898 0.116616
O O10 0.000000 0.000000 0.000000
O O11 0.184708 0.488407 0.610910
O O12 0.580394 0.064335 0.440047
O O13 0.053272 0.094359 0.685874
O O14 0.000000 0.000000 0.500000
O O15 0.980172 0.642505 0.358092
O O16 0.000000 0.500000 0.500000
O O17 0.186159 0.278456 0.774797
O O18 0.000000 0.500000 0.000000
#
# Coordination Sequence:
#
# PCOD9056432 Si02
#       8
#     2   2   2   2   2   2   2   2
#     4  11  22  43  68 110 147 187 251 303 357 442
#     4  12  26  51  77 108 151 194 256 307 370 456
#     4  12  28  52  79 106 146 200 258 313 369 443
#     4  11  22  38  71 104 154 194 233 305 373 438
#     4  12  24  41  76 114 151 198 242 294 374 459
#     4  12  24  41  68 109 154 199 234 295 386 454
#     4  12  25  44  71 112 157 194 245 312 377 442
#     4  12  30  53  75 108 148 197 257 319 375 438
#
# _framework density 22.200077
#
# number of rings (size 3 to 8) (size 9 to 14) (size 15 to 20)
#    0.000    0.250    5.000    4.125    3.500    2.000 
#    0.000    0.000    0.000    0.000    0.000    0.000 
#    0.000    0.000    0.000    0.000    0.000    0.000 
#
# Total GULP energy -89503.325273 kJ/mol
# GULP energy per Si atom -5593.957830 kJ/mol
# Density = 2.214955 g / cm^3
# Si number density = 22.200077 Si / 1000 Ang^3
#
#
#
# Elastic Constant Matrix: (Units=GPa)
#
#
# Indices 1 2 3 4 5 6 
#
# 1 83.7504 34.7626 43.1237 8.2509 2.9983 -9.6275
# 2 34.7626 128.8589 50.9817 7.5113 -7.5704 -7.9589
# 3 43.1237 50.9817 112.7331 5.4751 10.0739 -1.0993
# 4 8.2509 7.5113 5.4751 24.9083 3.1221 -0.6379
# 5 2.9983 -7.5704 10.0739 3.1221 45.2660 -6.0369
# 6 -9.6275 -7.9589 -1.0993 -0.6379 -6.0369 46.9610
#
#
#
# Elastic Compliance Matrix: (Units=1/GPa)
#
#
# Indices 1 2 3 4 5 6 
#
# 1 0.016022 -0.001895 -0.005104 -0.003589 0.000385 0.002845
# 2 -0.001895 0.010288 -0.004096 -0.001922 0.003108 0.001632
# 3 -0.005104 -0.004096 0.012948 0.000472 -0.003512 -0.001883
# 4 -0.003589 -0.001922 0.000472 0.042193 -0.003218 -0.000891
# 5 0.000385 0.003108 -0.003512 -0.003218 0.024066 0.003573
# 6 0.002845 0.001632 -0.001883 -0.000891 0.003573 0.022557
#
#
# Mechanical properties :
#
#
# Convention : Reuss Voigt Hill
#
# Bulk Modulus (GPa) = 58.59311 64.78647 61.68979
# Shear Modulus (GPa) = 32.06103 36.52537 34.29320
#
# Velocity S-wave (km/s) = 3.80437 4.06061 3.93457
# Velocity P-wave (km/s) = 6.76373 7.15759 6.96345
#
# Compressibility (1/GPa) = 0.01706685
#
# Stress axis : x y z
#
# Youngs Moduli (GPa) = 62.41468 97.20361 77.23341
#
# Poissons Ratio (x) = 0.18424 0.39420
# Poissons Ratio (y) = 0.11830 0.31634
# Poissons Ratio (z) = 0.31856 0.39813
#
# Static dielectric constant tensor:
#      x y z
#    x 1.882520 -0.024420 0.005580 
#    y -0.024420 1.857310 -0.024800 
#    z 0.005580 -0.024800 1.779910 
# 
# From -- ./inp_files/495431.got.cif
#   From: 2010.05.17/outbox.cif.g08.bks.cpg/sg2_248_cif.got.tgz:495431.got - 2010.06.03 11:33:40.
