data_PCOD9056676
_publ_section_title
;
Structure prediction by ZEFSAII (Michael W. Deem and Ramdas Pophale) SiO2 
 PCOD9056676
Probable space group: P -1
;
_chemical_formula_sum "Si O2"
_cell_formula_units_Z 16
_cell_length_a 8.973821
_cell_length_b 11.768573
_cell_length_c 11.869952
_cell_angle_alpha 132.311652
_cell_angle_beta 54.046818
_cell_angle_gamma 100.037867
_cell_volume 697.435303
_symmetry_space_group_name_H-M "P -1"
_symmetry_group_IT_number 2
_symmetry_cell_setting 'triclinic'
loop_
_space_group_symop_operation_xyz
x,y,z
-x,-y,-z
loop_
_atom_site_type_symbol
_atom_site_label
_atom_site_fract_x
_atom_site_fract_y
_atom_site_fract_z
Si Si1 0.928260 0.349133 0.930574
Si Si2 0.791482 0.220719 0.100655
Si Si3 0.568679 0.652360 0.086474
Si Si4 0.128653 0.136718 0.286731
Si Si5 0.142427 0.823558 0.364184
Si Si6 0.520443 0.868026 0.704657
Si Si7 0.645866 0.827656 0.369547
Si Si8 0.159910 0.222540 0.087918
O O1 0.129000 0.192990 0.768025
O O2 0.775008 0.350846 0.095851
O O3 0.872325 0.311369 0.806850
O O4 0.000000 0.500000 0.000000
O O5 0.842903 0.043540 0.896579
O O6 0.589885 0.247380 0.274032
O O7 0.967670 0.217857 0.104628
O O8 0.368131 0.808388 0.249813
O O9 0.609344 0.685297 0.218852
O O10 0.500000 0.500000 0.000000
O O11 0.749433 0.655932 0.932507
O O12 0.317648 0.120631 0.270303
O O13 0.116069 0.249281 0.258073
O O14 0.936841 0.198537 0.493065
O O15 0.000000 0.000000 0.500000
O O16 0.619227 0.811014 0.502198
O O17 0.339777 0.043554 0.882595
O O18 0.500000 0.000000 0.500000
#
# Coordination Sequence:
#
# PCOD9056676 Si02
#       8
#     2   2   2   2   2   2   2   2
#     4  12  25  44  66  97 139 174 213 275 342 394
#     4  11  23  39  66  96 135 174 216 274 340 387
#     4  12  27  44  67  99 140 178 216 275 344 394
#     4  11  23  40  64 102 129 169 227 280 320 390
#     4  12  24  41  71  99 127 174 232 272 319 387
#     4  11  22  40  66 100 128 172 224 282 321 387
#     4  12  23  44  71  99 131 172 235 276 317 394
#     4  11  23  40  64  96 137 172 219 273 338 390
#
# _framework density 22.941195
#
# number of rings (size 3 to 8) (size 9 to 14) (size 15 to 20)
#    0.000    0.500    5.000    5.250    5.250    0.000 
#    0.000    2.500    0.000    0.000    0.000    0.000 
#    0.000    0.000    0.000    0.000    0.000    0.000 
#
# Total GULP energy -89554.767739 kJ/mol
# GULP energy per Si atom -5597.172984 kJ/mol
# Density = 2.288898 g / cm^3
# Si number density = 22.941195 Si / 1000 Ang^3
#
#
#
# Elastic Constant Matrix: (Units=GPa)
#
#
# Indices 1 2 3 4 5 6 
#
# 1 156.9035 46.8641 42.3670 -15.1596 27.1999 15.3387
# 2 46.8641 149.0522 46.6697 -36.2597 24.5569 20.0989
# 3 42.3670 46.6697 64.1693 -27.7617 27.6334 1.1193
# 4 -15.1596 -36.2597 -27.7617 43.6389 -5.5791 -0.9243
# 5 27.1999 24.5569 27.6334 -5.5791 50.5620 -3.7739
# 6 15.3387 20.0989 1.1193 -0.9243 -3.7739 38.3791
#
#
#
# Elastic Compliance Matrix: (Units=1/GPa)
#
#
# Indices 1 2 3 4 5 6 
#
# 1 0.008352 -0.000683 -0.004428 -0.000812 -0.002060 -0.003073
# 2 -0.000683 0.010595 -0.003479 0.005906 -0.002620 -0.005289
# 3 -0.004428 -0.003479 0.032550 0.014789 -0.011950 0.001823
# 4 -0.000812 0.005906 0.014789 0.036021 -0.006763 -0.002997
# 5 -0.002060 -0.002620 -0.011950 -0.006763 0.028329 0.005167
# 6 -0.003073 -0.005289 0.001823 -0.002997 0.005167 0.030437
#
#
# Mechanical properties :
#
#
# Convention : Reuss Voigt Hill
#
# Bulk Modulus (GPa) = 29.14016 71.32515 50.23266
# Shear Modulus (GPa) = 28.58754 42.13096 35.35925
#
# Velocity S-wave (km/s) = 3.53388 4.29006 3.93020
# Velocity P-wave (km/s) = 5.42040 7.46307 6.52220
#
# Compressibility (1/GPa) = 0.03431690
#
# Stress axis : x y z
#
# Youngs Moduli (GPa) = 119.72916 94.38712 30.72218
#
# Poissons Ratio (x) = 0.06449 0.13603
# Poissons Ratio (y) = 0.08180 0.10688
# Poissons Ratio (z) = 0.53014 0.32835
#
# Static dielectric constant tensor:
#      x y z
#    x 1.894370 -0.040840 -0.045310 
#    y -0.040840 1.910760 0.046940 
#    z -0.045310 0.046940 1.892430 
# 
# From -- ./inp_files/391280.got.cif
#   From: 2010.05.17/outbox.cif.g08.bks.cpg/sg2_196_cif.got.tgz:391280.got - 2010.06.03 11:33:40.
