data_PCOD9056304
_publ_section_title
;
Structure prediction by ZEFSAII (Michael W. Deem and Ramdas Pophale) SiO2 
 PCOD9056304
Probable space group: P -1
;
_chemical_formula_sum "Si O2"
_cell_formula_units_Z 14
_cell_length_a 16.265005
_cell_length_b 15.103594
_cell_length_c 9.812013
_cell_angle_alpha 139.966581
_cell_angle_beta 139.283466
_cell_angle_gamma 28.107429
_cell_volume 702.823598
_symmetry_space_group_name_H-M "P -1"
_symmetry_group_IT_number 2
_symmetry_cell_setting 'triclinic'
loop_
_space_group_symop_operation_xyz
x,y,z
-x,-y,-z
loop_
_atom_site_type_symbol
_atom_site_label
_atom_site_fract_x
_atom_site_fract_y
_atom_site_fract_z
Si Si1 0.534778 0.147446 0.346777
Si Si2 0.214450 0.984593 0.266889
Si Si3 0.523784 0.271472 0.953854
Si Si4 0.845932 0.277442 0.010664
Si Si5 0.381480 0.546950 0.538331
Si Si6 0.966831 0.177016 0.731017
Si Si7 0.349988 0.024038 0.014338
O O1 0.707852 0.996770 0.483946
O O2 0.473426 0.353413 0.510191
O O3 0.586468 0.073435 0.169779
O O4 0.381106 0.162613 0.221037
O O5 0.364303 0.866642 0.197769
O O6 0.193033 0.841980 0.116387
O O7 0.024617 0.187767 0.209048
O O8 0.328670 0.486990 0.924208
O O9 0.631713 0.310756 0.212541
O O10 0.523436 0.149892 0.920266
O O11 0.895536 0.220203 0.846408
O O12 0.500000 0.500000 0.500000
O O13 0.193534 0.640446 0.350791
O O14 0.000000 0.000000 0.500000
O O15 0.146754 0.127711 0.899988
#
# Coordination Sequence:
#
# PCOD9056304 Si02
#       7
#     2   2   2   2   2   2   2
#     4  11  24  43  62  92 132 166 206 266 323 373
#     4  11  23  40  64  95 132 163 206 272 318 365
#     4  12  22  41  66  96 122 170 213 256 314 382
#     4  11  22  37  64  97 127 157 219 263 308 376
#     4  12  20  37  68  92 121 165 214 261 314 366
#     4  12  20  37  65  95 125 164 217 263 310 372
#     4  11  24  42  65  92 127 170 210 261 322 374
#
# _framework density 19.919651000000002
#
# number of rings (size 3 to 8) (size 9 to 14) (size 15 to 20)
#    0.000    0.571    7.143    1.286    0.000    2.286 
#    0.000    0.714    0.000    0.000    0.000    0.000 
#    0.000    0.000    0.000    0.000    0.000    0.000 
#
# Total GULP energy -78245.422306 kJ/mol
# GULP energy per Si atom -5588.958736 kJ/mol
# Density = 1.987431 g / cm^3
# Si number density = 19.919651 Si / 1000 Ang^3
#
#
#
# Elastic Constant Matrix: (Units=GPa)
#
#
# Indices 1 2 3 4 5 6 
#
# 1 89.4544 39.8965 37.2542 -9.6426 -6.3559 5.3798
# 2 39.8965 112.0996 8.0339 -41.1820 8.2201 3.4873
# 3 37.2542 8.0339 -15.9614 -6.9372 23.4699 12.3398
# 4 -9.6426 -41.1820 -6.9372 31.0290 3.3136 -1.0537
# 5 -6.3559 8.2201 23.4699 3.3136 17.3368 -5.0547
# 6 5.3798 3.4873 12.3398 -1.0537 -5.0547 26.0561
#
#
#
# Elastic Compliance Matrix: (Units=1/GPa)
#
#
# Indices 1 2 3 4 5 6 
#
# 1 0.009669 -0.002830 0.006771 0.001228 -0.006261 -0.005989
# 2 -0.002830 0.018986 -0.008396 0.022772 -0.002298 0.002495
# 3 0.006771 -0.008396 -0.007929 -0.012892 0.021755 0.007180
# 4 0.001228 0.022772 -0.012892 0.060439 -0.003091 0.004648
# 5 -0.006261 -0.002298 0.021755 -0.003091 0.026541 -0.003679
# 6 -0.005989 0.002495 0.007180 0.004648 -0.003679 0.035355
#
#
# Mechanical properties :
#
#
# Convention : Reuss Voigt Hill
#
# Bulk Modulus (GPa) = 84.63011 39.55132 62.09072
# Shear Modulus (GPa) = 32.06982 21.57824 26.82403
#
# Velocity S-wave (km/s) = 4.01678 3.29487 3.67360
# Velocity P-wave (km/s) = 8.00567 5.86288 7.01656
#
# Compressibility (1/GPa) = 0.01181613
#
# Stress axis : x y z
#
# Youngs Moduli (GPa) = 103.42716 52.66954 -126.11287
#
# Poissons Ratio (x) = 0.14904 0.85395
# Poissons Ratio (y) = 0.29267 -1.05888
# Poissons Ratio (z) = -0.70034 0.44223
#
# Static dielectric constant tensor:
#      x y z
#    x 1.695440 -0.004320 0.003500 
#    y -0.004320 1.733050 -0.027820 
#    z 0.003500 -0.027820 1.694680 
# 
# From -- ./inp_files/225669.got.cif
#   From: 2010.05.17/outbox.cif.g08.bks.cpg/sg2_113_cif.got.tgz:225669.got - 2010.06.03 11:33:40.
