data_PCOD9056582
_publ_section_title
;
Structure prediction by ZEFSAII (Michael W. Deem and Ramdas Pophale) SiO2 
 PCOD9056582
Probable space group: P -1
;
_chemical_formula_sum "Si O2"
_cell_formula_units_Z 16
_cell_length_a 9.014405
_cell_length_b 19.409380
_cell_length_c 8.919245
_cell_angle_alpha 117.326673
_cell_angle_beta 33.271559
_cell_angle_gamma 121.022632
_cell_volume 732.352998
_symmetry_space_group_name_H-M "P -1"
_symmetry_group_IT_number 2
_symmetry_cell_setting 'triclinic'
loop_
_space_group_symop_operation_xyz
x,y,z
-x,-y,-z
loop_
_atom_site_type_symbol
_atom_site_label
_atom_site_fract_x
_atom_site_fract_y
_atom_site_fract_z
Si Si1 0.806668 0.224868 0.972191
Si Si2 0.540198 0.069988 0.655489
Si Si3 0.737589 0.875042 0.525243
Si Si4 0.548782 0.240617 0.878959
Si Si5 0.038660 0.390495 0.113145
Si Si6 0.591419 0.493892 0.588199
Si Si7 0.936654 0.974066 0.743751
Si Si8 0.899336 0.661344 0.649866
O O1 0.581385 0.176943 0.238086
O O2 0.934924 0.314461 0.014446
O O3 0.643296 0.225270 0.953305
O O4 0.055448 0.182340 0.695228
O O5 0.502031 0.157672 0.743406
O O6 0.858774 0.082051 0.452776
O O7 0.500000 0.000000 0.500000
O O8 0.306387 0.033586 0.940254
O O9 0.780647 0.939741 0.688473
O O10 0.860715 0.935635 0.346305
O O11 0.801276 0.305716 0.650519
O O12 0.274730 0.272446 0.147708
O O13 0.068632 0.359804 0.224927
O O14 0.816381 0.442579 0.352725
O O15 0.328551 0.447015 0.862826
O O16 0.500000 0.500000 0.500000
O O17 0.725634 0.581780 0.630828
#
# Coordination Sequence:
#
# PCOD9056582 Si02
#       8
#     2   2   2   2   2   2   2   2
#     4  12  23  42  67  99 134 177 227 288 330 401
#     4  12  25  42  65  93 135 178 224 280 337 406
#     4  11  22  39  69  91 129 171 226 288 339 390
#     4  12  24  44  66  96 133 179 229 269 337 398
#     4  12  26  44  69 104 139 172 220 272 338 396
#     4  12  24  47  73 103 134 175 221 268 330 405
#     4  11  22  42  62  96 124 171 229 281 341 396
#     4  12  26  44  70  98 138 179 217 276 333 400
#
# _framework density 21.847387999999999
#
# number of rings (size 3 to 8) (size 9 to 14) (size 15 to 20)
#    0.000    0.250    2.500    7.500    0.000    5.000 
#    0.000    0.000    0.000    0.000    0.000    0.000 
#    0.000    0.000    0.000    0.000    0.000    0.000 
#
# Total GULP energy -89581.515824 kJ/mol
# GULP energy per Si atom -5598.844739 kJ/mol
# Density = 2.179766 g / cm^3
# Si number density = 21.847388 Si / 1000 Ang^3
#
#
#
# Elastic Constant Matrix: (Units=GPa)
#
#
# Indices 1 2 3 4 5 6 
#
# 1 68.7984 15.9518 9.7375 19.8909 0.5040 -1.3418
# 2 15.9518 116.0977 23.9090 0.0437 19.2081 12.6484
# 3 9.7375 23.9090 141.4216 -13.9180 5.3983 -7.6632
# 4 19.8909 0.0437 -13.9180 65.9397 -10.6512 0.3401
# 5 0.5040 19.2081 5.3983 -10.6512 22.2068 2.6059
# 6 -1.3418 12.6484 -7.6632 0.3401 2.6059 34.4164
#
#
#
# Elastic Compliance Matrix: (Units=1/GPa)
#
#
# Indices 1 2 3 4 5 6 
#
# 1 0.016805 -0.001996 -0.001252 -0.005524 -0.001147 0.001251
# 2 -0.001996 0.011221 -0.001735 -0.001269 -0.009394 -0.003864
# 3 -0.001252 -0.001735 0.007763 0.002065 0.000366 0.002269
# 4 -0.005524 -0.001269 0.002065 0.018850 0.009788 -0.000217
# 5 -0.001147 -0.009394 0.000366 0.009788 0.057905 -0.000992
# 6 0.001251 -0.003864 0.002269 -0.000217 -0.000992 0.031107
#
#
# Mechanical properties :
#
#
# Convention : Reuss Voigt Hill
#
# Bulk Modulus (GPa) = 38.72516 47.27939 43.00227
# Shear Modulus (GPa) = 30.82162 42.96055 36.89108
#
# Velocity S-wave (km/s) = 3.76010 4.43921 4.11369
# Velocity P-wave (km/s) = 6.05102 6.92555 6.50300
#
# Compressibility (1/GPa) = 0.02582301
#
# Stress axis : x y z
#
# Youngs Moduli (GPa) = 59.50619 89.12170 128.81965
#
# Poissons Ratio (x) = 0.17786 0.16125
# Poissons Ratio (y) = 0.11875 0.22354
# Poissons Ratio (z) = 0.07449 0.15465
#
# Static dielectric constant tensor:
#      x y z
#    x 1.836000 -0.017860 0.006880 
#    y -0.017860 1.753760 -0.000650 
#    z 0.006880 -0.000650 1.728850 
# 
# From -- ./inp_files/223730.got.cif
#   From: 2010.05.17/outbox.cif.g08.bks.cpg/sg2_112_cif.got.tgz:223730.got - 2010.06.03 11:33:40.
