data_PCOD9056313
_publ_section_title
;
Structure prediction by ZEFSAII (Michael W. Deem and Ramdas Pophale) SiO2 
 PCOD9056313
Probable space group: P -1
;
_chemical_formula_sum "Si O2"
_cell_formula_units_Z 16
_cell_length_a 19.402026
_cell_length_b 19.459901
_cell_length_c 9.287918
_cell_angle_alpha 142.028719
_cell_angle_beta 151.992736
_cell_angle_gamma 29.264637
_cell_volume 802.477890
_symmetry_space_group_name_H-M "P -1"
_symmetry_group_IT_number 2
_symmetry_cell_setting 'triclinic'
loop_
_space_group_symop_operation_xyz
x,y,z
-x,-y,-z
loop_
_atom_site_type_symbol
_atom_site_label
_atom_site_fract_x
_atom_site_fract_y
_atom_site_fract_z
Si Si1 0.400230 0.910950 0.746711
Si Si2 0.517186 0.177877 0.759890
Si Si3 0.072109 0.163828 0.363867
Si Si4 0.291898 0.310654 0.274134
Si Si5 0.100832 0.627336 0.362425
Si Si6 0.111577 0.896784 0.314683
Si Si7 0.355809 0.114890 0.604971
Si Si8 0.160198 0.796827 0.544216
O O1 0.569742 0.803435 0.778046
O O2 0.313862 0.842489 0.549908
O O3 0.235581 0.038936 0.559147
O O4 0.474306 0.954685 0.083565
O O5 0.399248 0.265250 0.547687
O O6 0.387390 0.196085 0.680466
O O7 0.633581 0.011637 0.658716
O O8 0.657688 0.210874 0.114601
O O9 0.170333 0.206243 0.507907
O O10 0.921307 0.288438 0.394990
O O11 0.989006 0.107403 0.015610
O O12 0.228188 0.462145 0.354883
O O13 0.106432 0.322789 0.967455
O O14 0.169716 0.674973 0.440707
O O15 0.116967 0.811206 0.318769
O O16 0.003486 0.056079 0.437435
#
# Coordination Sequence:
#
# PCOD9056313 Si02
#       8
#     2   2   2   2   2   2   2   2
#     4  12  21  41  65  94 123 162 211 255 298 367
#     4  11  23  39  62  95 128 162 203 251 313 366
#     4  12  22  39  64  96 123 163 208 252 307 359
#     4  11  25  44  64  91 122 165 208 253 310 366
#     4  11  26  43  64  90 127 162 203 259 311 365
#     4  11  24  37  63  97 129 159 202 259 309 362
#     4  11  22  37  65  96 123 159 205 259 302 361
#     4  11  23  41  60  94 132 162 199 255 316 359
#
# _framework density 19.938244999999998
#
# number of rings (size 3 to 8) (size 9 to 14) (size 15 to 20)
#    0.000    0.750    6.250    1.500    3.500    0.500 
#    0.000    2.500    0.000    0.000    0.000    0.000 
#    0.000    0.000    0.000    0.000    0.000    0.000 
#
# Total GULP energy -89474.232249 kJ/mol
# GULP energy per Si atom -5592.139516 kJ/mol
# Density = 1.989286 g / cm^3
# Si number density = 19.938245 Si / 1000 Ang^3
#
#
#
# Elastic Constant Matrix: (Units=GPa)
#
#
# Indices 1 2 3 4 5 6 
#
# 1 110.9265 25.0726 14.9086 9.2961 14.6200 26.1921
# 2 25.0726 56.3076 6.4869 8.0866 5.5662 17.2877
# 3 14.9086 6.4869 58.1806 6.2757 -1.8585 12.6388
# 4 9.2961 8.0866 6.2757 16.3138 1.5633 3.0145
# 5 14.6200 5.5662 -1.8585 1.5633 37.5986 5.5406
# 6 26.1921 17.2877 12.6388 3.0145 5.5406 26.0521
#
#
#
# Elastic Compliance Matrix: (Units=1/GPa)
#
#
# Indices 1 2 3 4 5 6 
#
# 1 0.012592 -0.001504 -0.000476 -0.004051 -0.003008 -0.010323
# 2 -0.001504 0.023876 0.001732 -0.009010 -0.000421 -0.014040
# 3 -0.000476 0.001732 0.020153 -0.006706 0.002714 -0.010249
# 4 -0.004051 -0.009010 -0.006706 0.069748 -0.001129 0.005474
# 5 -0.003008 -0.000421 0.002714 -0.001129 0.028594 -0.003964
# 6 -0.010323 -0.014040 -0.010249 0.005474 -0.003964 0.063261
#
#
# Mechanical properties :
#
#
# Convention : Reuss Voigt Hill
#
# Bulk Modulus (GPa) = 17.81729 35.37230 26.59480
# Shear Modulus (GPa) = 21.05899 27.92269 24.49084
#
# Velocity S-wave (km/s) = 3.25347 3.74633 3.50856
# Velocity P-wave (km/s) = 4.80302 6.04092 5.45719
#
# Compressibility (1/GPa) = 0.05612524
#
# Stress axis : x y z
#
# Youngs Moduli (GPa) = 79.41463 41.88366 49.62003
#
# Poissons Ratio (x) = 0.06298 0.02360
# Poissons Ratio (y) = 0.11942 -0.08592
# Poissons Ratio (z) = 0.03777 -0.07252
#
# Static dielectric constant tensor:
#      x y z
#    x 1.727100 0.007090 0.016480 
#    y 0.007090 1.674290 0.006220 
#    z 0.016480 0.006220 1.717860 
# 
# From -- ./inp_files/216342.got.cif
#   From: 2010.05.17/outbox.cif.g08.bks.cpg/sg2_109_cif.got.tgz:216342.got - 2010.06.03 11:33:40.
