data_PCOD9056378
_publ_section_title
;
Structure prediction by ZEFSAII (Michael W. Deem and Ramdas Pophale) SiO2 
 PCOD9056378
Probable space group: P -1
;
_chemical_formula_sum "Si O2"
_cell_formula_units_Z 15
_cell_length_a 9.738921
_cell_length_b 18.008648
_cell_length_c 11.593185
_cell_angle_alpha 151.204179
_cell_angle_beta 142.148055
_cell_angle_gamma 44.950631
_cell_volume 600.130743
_symmetry_space_group_name_H-M "P -1"
_symmetry_group_IT_number 2
_symmetry_cell_setting 'triclinic'
loop_
_space_group_symop_operation_xyz
x,y,z
-x,-y,-z
loop_
_atom_site_type_symbol
_atom_site_label
_atom_site_fract_x
_atom_site_fract_y
_atom_site_fract_z
Si Si1 0.500000 0.000000 0.000000
Si Si2 0.739523 0.556032 0.885224
Si Si3 0.725514 0.240728 0.321651
Si Si4 0.103402 0.623913 0.599490
Si Si5 0.828145 0.163276 0.663047
Si Si6 0.826001 0.722321 0.768055
Si Si7 0.676290 0.501476 0.017337
Si Si8 0.106345 0.128548 0.587399
O O1 0.438309 0.879829 0.899670
O O2 0.628834 0.852971 0.812587
O O3 0.659718 0.410586 0.563776
O O4 0.633756 0.582221 0.977018
O O5 0.767208 0.725597 0.083770
O O6 0.000000 0.500000 0.000000
O O7 0.748867 0.275167 0.248632
O O8 0.972397 0.175952 0.447080
O O9 0.217374 0.459248 0.492407
O O10 0.991328 0.716308 0.758229
O O11 0.899184 0.569449 0.310014
O O12 0.896235 0.096717 0.491378
O O13 0.746044 0.029094 0.509316
O O14 0.699129 0.320804 0.759481
O O15 0.030674 0.226679 0.957924
O O16 0.500000 0.500000 0.000000
#
# Coordination Sequence:
#
# PCOD9056378 Si02
#       8
#     1   2   2   2   2   2   2   2
#     4  12  26  40  64  98 130 158 224 268 306 366
#     4  10  17  36  61  90 114 155 211 236 318 373
#     4  11  21  40  65  94 124 167 209 260 314 382
#     4  10  22  43  66  85 133 176 211 243 323 396
#     4  10  19  37  61  89 127 159 202 254 316 373
#     4  10  23  41  63  93 124 176 209 257 315 380
#     4  11  21  34  62  95 121 160 204 261 306 371
#     4  10  18  35  67  90 112 159 207 251 304 377
#
# _framework density 24.994554000000001
#
# number of rings (size 3 to 8) (size 9 to 14) (size 15 to 20)
#    0.000    1.600    6.667    0.800    1.867    1.067 
#    0.000    0.667    0.000    0.000    0.000    0.000 
#    0.000    0.000    0.000    0.000    0.000    0.000 
#
# Total GULP energy -83535.076464 kJ/mol
# GULP energy per Si atom -5569.005098 kJ/mol
# Density = 2.493766 g / cm^3
# Si number density = 24.994554 Si / 1000 Ang^3
#
#
#
# Elastic Constant Matrix: (Units=GPa)
#
#
# Indices 1 2 3 4 5 6 
#
# 1 164.7866 30.5021 33.3665 22.7333 1.3753 32.1552
# 2 30.5021 82.2999 39.3642 26.2895 8.9919 30.8269
# 3 33.3665 39.3642 76.0690 23.3597 7.8411 3.9682
# 4 22.7333 26.2895 23.3597 46.2624 11.9965 7.5665
# 5 1.3753 8.9919 7.8411 11.9965 46.5013 8.1482
# 6 32.1552 30.8269 3.9682 7.5665 8.1482 40.8471
#
#
#
# Elastic Compliance Matrix: (Units=1/GPa)
#
#
# Indices 1 2 3 4 5 6 
#
# 1 0.008290 0.002316 -0.003801 -0.002717 0.002016 -0.007804
# 2 0.002316 0.026344 -0.011498 -0.007664 0.002189 -0.019605
# 3 -0.003801 -0.011498 0.021558 -0.003654 -0.002231 0.010698
# 4 -0.002717 -0.007664 -0.003654 0.030136 -0.006288 0.003950
# 5 0.002016 0.002189 -0.002231 -0.006288 0.024191 -0.006683
# 6 -0.007804 -0.019605 0.010698 0.003950 -0.006683 0.044983
#
#
# Mechanical properties :
#
#
# Convention : Reuss Voigt Hill
#
# Bulk Modulus (GPa) = 33.08417 58.84681 45.96549
# Shear Modulus (GPa) = 26.10371 41.38368 33.74369
#
# Velocity S-wave (km/s) = 3.23519 4.07345 3.67828
# Velocity P-wave (km/s) = 5.21733 6.76158 6.03902
#
# Compressibility (1/GPa) = 0.03022594
#
# Stress axis : x y z
#
# Youngs Moduli (GPa) = 120.62405 37.95903 46.38750
#
# Poissons Ratio (x) = -0.08793 0.17634
# Poissons Ratio (y) = -0.27942 0.53336
# Poissons Ratio (z) = 0.45854 0.43645
#
# Static dielectric constant tensor:
#      x y z
#    x 1.614520 0.071830 0.266910 
#    y 0.071830 2.151960 -0.282220 
#    z 0.266910 -0.282220 1.856180 
# 
# From -- ./inp_files/263392.got.cif
#   From: 2010.05.17/outbox.cif.g08.bks.cpg/sg2_132_cif.got.tgz:263392.got - 2010.06.03 11:33:40.
