data_PCOD9056422
_publ_section_title
;
Structure prediction by ZEFSAII (Michael W. Deem and Ramdas Pophale) SiO2 
 PCOD9056422
Probable space group: P -1
;
_chemical_formula_sum "Si O2"
_cell_formula_units_Z 14
_cell_length_a 9.269956
_cell_length_b 8.870338
_cell_length_c 8.188392
_cell_angle_alpha 56.165044
_cell_angle_beta 68.772597
_cell_angle_gamma 81.432433
_cell_volume 520.130814
_symmetry_space_group_name_H-M "P -1"
_symmetry_group_IT_number 2
_symmetry_cell_setting 'triclinic'
loop_
_space_group_symop_operation_xyz
x,y,z
-x,-y,-z
loop_
_atom_site_type_symbol
_atom_site_label
_atom_site_fract_x
_atom_site_fract_y
_atom_site_fract_z
Si Si1 0.238167 0.187076 0.855900
Si Si2 0.049716 0.704782 0.918831
Si Si3 0.268559 0.535228 0.143442
Si Si4 0.553603 0.493651 0.254156
Si Si5 0.839567 0.085347 0.554555
Si Si6 0.953626 0.698757 0.441581
Si Si7 0.488662 0.922503 0.367629
O O1 0.339095 0.367584 0.766304
O O2 0.142142 0.212814 0.713174
O O3 0.364224 0.047462 0.832024
O O4 0.098683 0.180048 0.051026
O O5 0.162420 0.791898 0.683083
O O6 0.000000 0.500000 0.000000
O O7 0.145306 0.681012 0.060251
O O8 0.386557 0.563367 0.228540
O O9 0.169467 0.344484 0.334392
O O10 0.362753 0.524135 0.943961
O O11 0.528982 0.296437 0.466511
O O12 0.665766 0.001030 0.692125
O O13 0.889172 0.201309 0.621411
O O14 0.000000 0.000000 0.500000
O O15 0.000000 0.500000 0.500000
O O16 0.500000 0.000000 0.500000
#
# Coordination Sequence:
#
# PCOD9056422 Si02
#       7
#     2   2   2   2   2   2   2
#     4  12  24  41  72 106 135 172 234 286 334 402
#     4  12  21  44  72 103 133 178 230 286 334 408
#     4  11  22  38  69 104 138 168 228 285 345 390
#     4  11  23  41  69 103 133 178 224 286 339 397
#     4  12  27  47  69  95 139 186 225 281 351 405
#     4  12  22  38  69 104 131 171 228 281 333 402
#     4  12  26  44  65  97 143 182 221 279 344 409
#
# _framework density 26.916305999999999
#
# number of rings (size 3 to 8) (size 9 to 14) (size 15 to 20)
#    0.000    0.286    7.143    2.143    2.000    0.000 
#    0.000    5.000    0.000    0.000    0.000    0.000 
#    0.000    0.000    0.000    0.000    0.000    0.000 
#
# Total GULP energy -78348.551584 kJ/mol
# GULP energy per Si atom -5596.325113 kJ/mol
# Density = 2.685504 g / cm^3
# Si number density = 26.916306 Si / 1000 Ang^3
#
#
#
# Elastic Constant Matrix: (Units=GPa)
#
#
# Indices 1 2 3 4 5 6 
#
# 1 211.5569 48.8074 9.1355 19.0729 -0.8483 -17.3427
# 2 48.8074 80.8783 7.1202 25.6421 -12.6591 -14.9044
# 3 9.1355 7.1202 91.8086 19.5268 -12.0191 -7.3320
# 4 19.0729 25.6421 19.5268 36.7521 -8.1836 -6.8427
# 5 -0.8483 -12.6591 -12.0191 -8.1836 43.2374 13.9614
# 6 -17.3427 -14.9044 -7.3320 -6.8427 13.9614 52.4468
#
#
#
# Elastic Compliance Matrix: (Units=1/GPa)
#
#
# Indices 1 2 3 4 5 6 
#
# 1 0.005619 -0.003154 -0.000260 -0.000664 -0.001403 0.001212
# 2 -0.003154 0.018534 0.001829 -0.011177 0.003043 0.002211
# 3 -0.000260 0.001829 0.012685 -0.007213 0.002497 0.000601
# 4 -0.000664 -0.011177 -0.007213 0.039702 0.002159 0.000201
# 5 -0.001403 0.003043 0.002497 0.002159 0.027090 -0.006179
# 6 0.001212 0.002211 0.000601 0.000201 -0.006179 0.021851
#
#
# Mechanical properties :
#
#
# Convention : Reuss Voigt Hill
#
# Bulk Modulus (GPa) = 29.70181 57.15224 43.42702
# Shear Modulus (GPa) = 35.74614 47.76598 41.75606
#
# Velocity S-wave (km/s) = 3.64819 4.21718 3.94296
# Velocity P-wave (km/s) = 5.36699 6.70763 6.07441
#
# Compressibility (1/GPa) = 0.03366799
#
# Stress axis : x y z
#
# Youngs Moduli (GPa) = 177.95776 53.95551 78.83149
#
# Poissons Ratio (x) = 0.17016 0.02050
# Poissons Ratio (y) = 0.56123 -0.14415
# Poissons Ratio (z) = 0.04629 -0.09866
#
# Static dielectric constant tensor:
#      x y z
#    x 2.312140 -0.025820 -0.095320 
#    y -0.025820 2.168860 0.023310 
#    z -0.095320 0.023310 2.163030 
# 
# From -- ./inp_files/157207.got.cif
#   From: 2010.05.17/outbox.cif.g08.bks.cpg/sg2_79_cif.got.tgz:157207.got - 2010.06.03 11:33:40.
